# generated using pymatgen
data_Al6H47C84(N2O13)2
_symmetry_space_group_name_H-M   'P 1'
_cell_length_a   30.32490000
_cell_length_b   15.78640000
_cell_length_c   40.45550000
_cell_angle_alpha   90.00000000
_cell_angle_beta   90.00000000
_cell_angle_gamma   90.00000000
_symmetry_Int_Tables_number   1
_chemical_formula_structural   Al6H47C84(N2O13)2
_chemical_formula_sum   'Al24 H188 C336 N16 O104'
_cell_volume   19366.89747052
_cell_formula_units_Z   4
loop_
 _symmetry_equiv_pos_site_id
 _symmetry_equiv_pos_as_xyz
  1  'x, y, z'
loop_
 _atom_site_type_symbol
 _atom_site_label
 _atom_site_symmetry_multiplicity
 _atom_site_fract_x
 _atom_site_fract_y
 _atom_site_fract_z
 _atom_site_occupancy
 _atom_site_charge
  Al  Al1  1  0.449620  0.540220  0.585500  1.0  1.759
  Al  Al2  1  0.477540  0.469240  0.655960  1.0  1.8284
  Al  Al3  1  0.533610  0.614320  0.621510  1.0  1.8183
  Al  Al4  1  0.286280  0.890950  0.380010  1.0  1.8473
  Al  Al5  1  0.229000  0.030700  0.343320  1.0  1.7514
  Al  Al6  1  0.202180  0.967890  0.415280  1.0  1.8267
  Al  Al7  1  0.550380  0.459780  0.085500  1.0  1.7575
  Al  Al8  1  0.522460  0.530760  0.155960  1.0  1.8277
  Al  Al9  1  0.466390  0.385680  0.121510  1.0  1.8206
  Al  Al10  1  0.713720  0.109050  0.880010  1.0  1.8501
  Al  Al11  1  0.771000  0.969300  0.843320  1.0  1.749
  Al  Al12  1  0.797820  0.032110  0.915280  1.0  1.8281
  Al  Al13  1  0.949620  0.459780  0.585500  1.0  1.7593
  Al  Al14  1  0.977540  0.530760  0.655960  1.0  1.8278
  Al  Al15  1  0.033610  0.385680  0.621510  1.0  1.8178
  Al  Al16  1  0.786280  0.109050  0.380010  1.0  1.8475
  Al  Al17  1  0.729000  0.969300  0.343320  1.0  1.7499
  Al  Al18  1  0.702180  0.032110  0.415280  1.0  1.8265
  Al  Al19  1  0.050380  0.540220  0.085500  1.0  1.7573
  Al  Al20  1  0.022460  0.469240  0.155960  1.0  1.8282
  Al  Al21  1  0.966390  0.614320  0.121510  1.0  1.8213
  Al  Al22  1  0.213720  0.890950  0.880010  1.0  1.8492
  Al  Al23  1  0.271000  0.030700  0.843320  1.0  1.7504
  Al  Al24  1  0.297820  0.967890  0.915280  1.0  1.828
  H  H25  1  0.515800  0.566500  0.490500  1.0  0.1059
  H  H26  1  0.560800  0.555000  0.444400  1.0  0.0947
  H  H27  1  0.662000  0.496900  0.503000  1.0  0.0942
  H  H28  1  0.619900  0.524700  0.548400  1.0  0.0946
  H  H29  1  0.694400  0.707300  0.362900  1.0  0.0868
  H  H30  1  0.671000  0.578100  0.380800  1.0  0.0973
  H  H31  1  0.655700  0.671400  0.472000  1.0  0.0871
  H  H32  1  0.674700  0.802700  0.452900  1.0  0.0873
  H  H33  1  0.752900  0.366100  0.402400  1.0  0.0818
  H  H34  1  0.726000  0.494400  0.415800  1.0  0.0969
  H  H35  1  0.612100  0.380800  0.445400  1.0  0.1028
  H  H36  1  0.647400  0.253100  0.440300  1.0  0.0826
  H  H37  1  0.405000  0.988100  0.357000  1.0  0.0904
  H  H38  1  0.471500  0.045800  0.338300  1.0  0.0909
  H  H39  1  0.340600  0.188300  0.319100  1.0  0.0944
  H  H40  1  0.616700  0.061400  0.298600  1.0  0.0913
  H  H41  1  0.550300  0.114700  0.277500  1.0  0.105
  H  H42  1  0.514000  0.184500  0.367800  1.0  0.1056
  H  H43  1  0.580700  0.130400  0.389500  1.0  0.092
  H  H44  1  0.528500  0.407100  0.247700  1.0  0.0943
  H  H45  1  0.530900  0.319000  0.294500  1.0  0.0949
  H  H46  1  0.447700  0.158800  0.251000  1.0  0.1011
  H  H47  1  0.453100  0.233200  0.203200  1.0  0.0846
  H  H48  1  0.425300  0.312100  0.541700  1.0  0.0843
  H  H49  1  0.399400  0.182100  0.523800  1.0  0.0987
  H  H50  1  0.421700  0.085600  0.614800  1.0  0.0994
  H  H51  1  0.445800  0.217600  0.631900  1.0  0.0836
  H  H52  1  0.369100  0.935700  0.454600  1.0  0.0922
  H  H53  1  0.417100  0.960600  0.501300  1.0  0.1135
  H  H54  1  0.318400  0.096800  0.542600  1.0  0.1074
  H  H55  1  0.272600  0.064600  0.497400  1.0  0.0939
  H  H56  1  0.505400  0.870000  0.592800  1.0  0.0938
  H  H57  1  0.475000  0.003300  0.578900  1.0  0.0838
  H  H58  1  0.359100  0.898400  0.562500  1.0  0.0981
  H  H59  1  0.385500  0.767100  0.578900  1.0  0.0973
  H  H60  1  0.324900  0.612200  0.611700  1.0  0.0949
  H  H61  1  0.260000  0.668400  0.633000  1.0  0.0988
  H  H62  1  0.299600  0.612100  0.725200  1.0  0.1014
  H  H63  1  0.364500  0.552700  0.703900  1.0  0.093
  H  H64  1  0.152800  0.478500  0.649200  1.0  0.0845
  H  H65  1  0.216900  0.529700  0.666200  1.0  0.0992
  H  H66  1  0.154700  0.744600  0.694800  1.0  0.096
  H  H67  1  0.089200  0.688700  0.677900  1.0  0.0975
  H  H68  1  0.195300  0.738000  0.798000  1.0  0.0955
  H  H69  1  0.191300  0.659000  0.749300  1.0  0.0976
  H  H70  1  0.278800  0.815200  0.706900  1.0  0.102
  H  H71  1  0.283400  0.892500  0.754800  1.0  0.0934
  H  H72  1  0.484200  0.433500  0.990500  1.0  0.1033
  H  H73  1  0.439200  0.445000  0.944400  1.0  0.0942
  H  H74  1  0.338000  0.503100  0.003000  1.0  0.095
  H  H75  1  0.380100  0.475300  0.048400  1.0  0.0946
  H  H76  1  0.305600  0.292700  0.862900  1.0  0.0866
  H  H77  1  0.329000  0.421900  0.880800  1.0  0.0967
  H  H78  1  0.344300  0.328600  0.972000  1.0  0.0873
  H  H79  1  0.325300  0.197300  0.952900  1.0  0.0872
  H  H80  1  0.247100  0.633900  0.902400  1.0  0.082
  H  H81  1  0.274000  0.505600  0.915800  1.0  0.0966
  H  H82  1  0.387900  0.619200  0.945400  1.0  0.1022
  H  H83  1  0.352600  0.746900  0.940300  1.0  0.0826
  H  H84  1  0.595000  0.011900  0.857000  1.0  0.0906
  H  H85  1  0.528500  0.954200  0.838300  1.0  0.0912
  H  H86  1  0.659400  0.811700  0.819100  1.0  0.0938
  H  H87  1  0.383300  0.938600  0.798600  1.0  0.0915
  H  H88  1  0.449700  0.885300  0.777500  1.0  0.1052
  H  H89  1  0.486000  0.815500  0.867800  1.0  0.1052
  H  H90  1  0.419300  0.869600  0.889500  1.0  0.0922
  H  H91  1  0.471500  0.592900  0.747700  1.0  0.094
  H  H92  1  0.469100  0.681000  0.794500  1.0  0.0947
  H  H93  1  0.552300  0.841200  0.751000  1.0  0.1015
  H  H94  1  0.546900  0.766800  0.703200  1.0  0.0852
  H  H95  1  0.574700  0.687900  0.041700  1.0  0.0838
  H  H96  1  0.600600  0.817900  0.023800  1.0  0.0996
  H  H97  1  0.578300  0.914400  0.114800  1.0  0.0988
  H  H98  1  0.554200  0.782400  0.131900  1.0  0.0835
  H  H99  1  0.630900  0.064300  0.954600  1.0  0.0925
  H  H100  1  0.582900  0.039400  0.001300  1.0  0.1133
  H  H101  1  0.681600  0.903200  0.042600  1.0  0.1065
  H  H102  1  0.727400  0.935400  0.997400  1.0  0.0942
  H  H103  1  0.494600  0.130000  0.092800  1.0  0.0944
  H  H104  1  0.525000  0.996700  0.078900  1.0  0.0839
  H  H105  1  0.640900  0.101600  0.062500  1.0  0.0973
  H  H106  1  0.614500  0.232900  0.078900  1.0  0.0979
  H  H107  1  0.675100  0.387800  0.111700  1.0  0.0953
  H  H108  1  0.740000  0.331600  0.133000  1.0  0.0986
  H  H109  1  0.700400  0.387900  0.225200  1.0  0.1018
  H  H110  1  0.635500  0.447300  0.203900  1.0  0.093
  H  H111  1  0.847200  0.521500  0.149200  1.0  0.0844
  H  H112  1  0.783100  0.470300  0.166200  1.0  0.0998
  H  H113  1  0.845300  0.255400  0.194800  1.0  0.0961
  H  H114  1  0.910800  0.311300  0.177900  1.0  0.0971
  H  H115  1  0.804700  0.262000  0.298000  1.0  0.0954
  H  H116  1  0.808700  0.341000  0.249300  1.0  0.0984
  H  H117  1  0.721200  0.184800  0.206900  1.0  0.1019
  H  H118  1  0.716600  0.107500  0.254800  1.0  0.0927
  H  H119  1  0.015800  0.433500  0.490500  1.0  0.1059
  H  H120  1  0.060800  0.445000  0.444400  1.0  0.0946
  H  H121  1  0.162000  0.503100  0.503000  1.0  0.0944
  H  H122  1  0.119900  0.475300  0.548400  1.0  0.0945
  H  H123  1  0.194400  0.292700  0.362900  1.0  0.0866
  H  H124  1  0.171000  0.421900  0.380800  1.0  0.097
  H  H125  1  0.155700  0.328600  0.472000  1.0  0.0872
  H  H126  1  0.174700  0.197300  0.452900  1.0  0.0874
  H  H127  1  0.252900  0.633900  0.402400  1.0  0.0818
  H  H128  1  0.226000  0.505600  0.415800  1.0  0.097
  H  H129  1  0.112100  0.619200  0.445400  1.0  0.1027
  H  H130  1  0.147400  0.746900  0.440300  1.0  0.083
  H  H131  1  0.905000  0.011900  0.357000  1.0  0.0906
  H  H132  1  0.971500  0.954200  0.338300  1.0  0.0908
  H  H133  1  0.840600  0.811700  0.319100  1.0  0.094
  H  H134  1  0.116700  0.938600  0.298600  1.0  0.0915
  H  H135  1  0.050300  0.885300  0.277500  1.0  0.1049
  H  H136  1  0.014000  0.815500  0.367800  1.0  0.1055
  H  H137  1  0.080700  0.869600  0.389500  1.0  0.0923
  H  H138  1  0.028500  0.592900  0.247700  1.0  0.0937
  H  H139  1  0.030900  0.681000  0.294500  1.0  0.0948
  H  H140  1  0.947700  0.841200  0.251000  1.0  0.1019
  H  H141  1  0.953100  0.766800  0.203200  1.0  0.0845
  H  H142  1  0.925300  0.687900  0.541700  1.0  0.0841
  H  H143  1  0.899400  0.817900  0.523800  1.0  0.0995
  H  H144  1  0.921700  0.914400  0.614800  1.0  0.0989
  H  H145  1  0.945800  0.782400  0.631900  1.0  0.0835
  H  H146  1  0.869100  0.064300  0.454600  1.0  0.0926
  H  H147  1  0.917100  0.039400  0.501300  1.0  0.1137
  H  H148  1  0.818400  0.903200  0.542600  1.0  0.1074
  H  H149  1  0.772600  0.935400  0.497400  1.0  0.0943
  H  H150  1  0.005400  0.130000  0.592800  1.0  0.0939
  H  H151  1  0.975000  0.996700  0.578900  1.0  0.0837
  H  H152  1  0.859100  0.101600  0.562500  1.0  0.0979
  H  H153  1  0.885500  0.232900  0.578900  1.0  0.0976
  H  H154  1  0.824900  0.387800  0.611700  1.0  0.095
  H  H155  1  0.760000  0.331600  0.633000  1.0  0.0985
  H  H156  1  0.799600  0.387900  0.725200  1.0  0.1013
  H  H157  1  0.864500  0.447300  0.703900  1.0  0.0929
  H  H158  1  0.652800  0.521500  0.649200  1.0  0.0847
  H  H159  1  0.716900  0.470300  0.666200  1.0  0.0993
  H  H160  1  0.654700  0.255400  0.694800  1.0  0.0965
  H  H161  1  0.589200  0.311300  0.677900  1.0  0.0975
  H  H162  1  0.695300  0.262000  0.798000  1.0  0.0953
  H  H163  1  0.691300  0.341000  0.749300  1.0  0.0987
  H  H164  1  0.778800  0.184800  0.706900  1.0  0.1017
  H  H165  1  0.783400  0.107500  0.754800  1.0  0.0931
  H  H166  1  0.984200  0.566500  0.990500  1.0  0.1036
  H  H167  1  0.939200  0.555000  0.944400  1.0  0.0941
  H  H168  1  0.838000  0.496900  0.003000  1.0  0.0951
  H  H169  1  0.880100  0.524700  0.048400  1.0  0.0948
  H  H170  1  0.805600  0.707300  0.862900  1.0  0.0867
  H  H171  1  0.829000  0.578100  0.880800  1.0  0.0972
  H  H172  1  0.844300  0.671400  0.972000  1.0  0.0871
  H  H173  1  0.825300  0.802700  0.952900  1.0  0.0872
  H  H174  1  0.747100  0.366100  0.902400  1.0  0.0817
  H  H175  1  0.774000  0.494400  0.915800  1.0  0.0966
  H  H176  1  0.887900  0.380800  0.945400  1.0  0.1023
  H  H177  1  0.852600  0.253100  0.940300  1.0  0.0827
  H  H178  1  0.095000  0.988100  0.857000  1.0  0.0903
  H  H179  1  0.028500  0.045800  0.838300  1.0  0.091
  H  H180  1  0.159400  0.188300  0.819100  1.0  0.0942
  H  H181  1  0.883300  0.061400  0.798600  1.0  0.0913
  H  H182  1  0.949700  0.114700  0.777500  1.0  0.1055
  H  H183  1  0.986000  0.184500  0.867800  1.0  0.1053
  H  H184  1  0.919300  0.130400  0.889500  1.0  0.0919
  H  H185  1  0.971500  0.407100  0.747700  1.0  0.0949
  H  H186  1  0.969100  0.319000  0.794500  1.0  0.0948
  H  H187  1  0.052300  0.158800  0.751000  1.0  0.1009
  H  H188  1  0.046900  0.233200  0.703200  1.0  0.0851
  H  H189  1  0.074700  0.312100  0.041700  1.0  0.0841
  H  H190  1  0.100600  0.182100  0.023800  1.0  0.0987
  H  H191  1  0.078300  0.085600  0.114800  1.0  0.0993
  H  H192  1  0.054200  0.217600  0.131900  1.0  0.0836
  H  H193  1  0.130900  0.935700  0.954600  1.0  0.0923
  H  H194  1  0.082900  0.960600  0.001300  1.0  0.1134
  H  H195  1  0.181600  0.096800  0.042600  1.0  0.1064
  H  H196  1  0.227400  0.064600  0.997400  1.0  0.0943
  H  H197  1  0.994600  0.870000  0.092800  1.0  0.0943
  H  H198  1  0.025000  0.003300  0.078900  1.0  0.0841
  H  H199  1  0.140900  0.898400  0.062500  1.0  0.0977
  H  H200  1  0.114500  0.767100  0.078900  1.0  0.0975
  H  H201  1  0.175100  0.612200  0.111700  1.0  0.0952
  H  H202  1  0.240000  0.668400  0.133000  1.0  0.0988
  H  H203  1  0.200400  0.612100  0.225200  1.0  0.102
  H  H204  1  0.135500  0.552700  0.203900  1.0  0.0932
  H  H205  1  0.347200  0.478500  0.149200  1.0  0.0842
  H  H206  1  0.283100  0.529700  0.166200  1.0  0.0997
  H  H207  1  0.345300  0.744600  0.194800  1.0  0.0959
  H  H208  1  0.410800  0.688700  0.177900  1.0  0.0974
  H  H209  1  0.304700  0.738000  0.298000  1.0  0.0954
  H  H210  1  0.308700  0.659000  0.249300  1.0  0.0977
  H  H211  1  0.221200  0.815200  0.206900  1.0  0.1018
  H  H212  1  0.216600  0.892500  0.254800  1.0  0.0938
  C  C213  1  0.534870  0.559810  0.553630  1.0  0.6906
  C  C214  1  0.563710  0.546600  0.523640  1.0  -0.1203
  C  C215  1  0.545720  0.555600  0.492950  1.0  -0.0538
  C  C216  1  0.572860  0.548200  0.465340  1.0  -0.1586
  C  C217  1  0.616210  0.531360  0.468290  1.0  0.1665
  C  C218  1  0.633150  0.515900  0.500470  1.0  -0.1649
  C  C219  1  0.607660  0.528400  0.527380  1.0  -0.045
  C  C220  1  0.698960  0.853940  0.394600  1.0  0.687
  C  C221  1  0.686670  0.770530  0.405500  1.0  -0.1231
  C  C222  1  0.685580  0.701030  0.384820  1.0  -0.0599
  C  C223  1  0.671920  0.623130  0.395570  1.0  -0.2312
  C  C224  1  0.659360  0.610000  0.428160  1.0  0.1876
  C  C225  1  0.662190  0.678800  0.449720  1.0  -0.1958
  C  C226  1  0.674480  0.757190  0.438300  1.0  -0.061
  C  C227  1  0.720090  0.210810  0.411800  1.0  0.7159
  C  C228  1  0.701940  0.294260  0.418620  1.0  -0.1175
  C  C229  1  0.725130  0.369680  0.412070  1.0  -0.0257
  C  C230  1  0.708900  0.446250  0.419190  1.0  -0.2245
  C  C231  1  0.664520  0.453900  0.432180  1.0  0.1007
  C  C232  1  0.641230  0.378700  0.438160  1.0  -0.2094
  C  C233  1  0.661670  0.302000  0.433280  1.0  -0.0747
  C  C234  1  0.321860  0.040840  0.347940  1.0  0.7038
  C  C235  1  0.365260  0.080660  0.338740  1.0  -0.2267
  C  C236  1  0.405070  0.038900  0.345450  1.0  -0.0788
  C  C237  1  0.445120  0.074300  0.334560  1.0  -0.1701
  C  C238  1  0.445340  0.149600  0.318690  1.0  0.1208
  C  C239  1  0.405830  0.195200  0.313800  1.0  -0.0597
  C  C240  1  0.366750  0.159500  0.323160  1.0  -0.0067
  C  C241  1  0.644350  0.043990  0.360020  1.0  0.7089
  C  C242  1  0.602170  0.081360  0.346000  1.0  -0.1276
  C  C243  1  0.595410  0.082800  0.312880  1.0  -0.0587
  C  C244  1  0.555970  0.116900  0.300050  1.0  -0.2193
  C  C245  1  0.526600  0.152700  0.320670  1.0  0.2197
  C  C246  1  0.534380  0.158500  0.354000  1.0  -0.1968
  C  C247  1  0.573880  0.124200  0.367170  1.0  -0.0568
  C  C248  1  0.492580  0.376630  0.188780  1.0  0.6909
  C  C249  1  0.491910  0.327400  0.219720  1.0  -0.1874
  C  C250  1  0.513730  0.355500  0.247730  1.0  -0.0775
  C  C251  1  0.513240  0.304000  0.276590  1.0  -0.1634
  C  C252  1  0.487790  0.233800  0.278660  1.0  0.1812
  C  C253  1  0.464880  0.207500  0.250270  1.0  -0.2431
  C  C254  1  0.467780  0.252800  0.221880  1.0  -0.031
  C  C255  1  0.449470  0.364580  0.600950  1.0  0.705
  C  C256  1  0.436990  0.280610  0.588890  1.0  -0.1356
  C  C257  1  0.424260  0.267150  0.556510  1.0  -0.0475
  C  C258  1  0.409850  0.187930  0.545310  1.0  -0.1979
  C  C259  1  0.411120  0.116470  0.566580  1.0  0.1653
  C  C260  1  0.422940  0.130100  0.599770  1.0  -0.2689
  C  C261  1  0.436650  0.210490  0.610170  1.0  -0.052
  C  C262  1  0.286590  0.966230  0.445540  1.0  0.678
  C  C263  1  0.316670  0.993400  0.473960  1.0  -0.1282
  C  C264  1  0.358960  0.965200  0.472940  1.0  -0.0968
  C  C265  1  0.388470  0.981400  0.500750  1.0  -0.1854
  C  C266  1  0.371360  0.029460  0.526250  1.0  0.1728
  C  C267  1  0.328530  0.062600  0.525540  1.0  -0.2566
  C  C268  1  0.301110  0.043300  0.498450  1.0  -0.0449
  C  C269  1  0.467090  0.716910  0.591350  1.0  0.6937
  C  C270  1  0.448800  0.805240  0.584950  1.0  -0.1508
  C  C271  1  0.476060  0.874900  0.586340  1.0  -0.0701
  C  C272  1  0.457700  0.954840  0.577510  1.0  -0.2181
  C  C273  1  0.415650  0.961300  0.567110  1.0  0.1569
  C  C274  1  0.388620  0.892360  0.568170  1.0  -0.1772
  C  C275  1  0.404330  0.813400  0.577580  1.0  -0.1265
  C  C276  1  0.391520  0.537280  0.641750  1.0  0.6919
  C  C277  1  0.351010  0.577600  0.655920  1.0  -0.1421
  C  C278  1  0.319870  0.612200  0.634360  1.0  -0.0603
  C  C279  1  0.281260  0.646600  0.647240  1.0  -0.1787
  C  C280  1  0.274390  0.648500  0.680820  1.0  0.1203
  C  C281  1  0.304930  0.612400  0.702580  1.0  -0.1963
  C  C282  1  0.343770  0.576700  0.689820  1.0  -0.0472
  C  C283  1  0.071930  0.536860  0.652020  1.0  0.6732
  C  C284  1  0.113460  0.576990  0.661780  1.0  -0.168
  C  C285  1  0.153500  0.532200  0.658570  1.0  -0.0477
  C  C286  1  0.191530  0.562500  0.668140  1.0  -0.2154
  C  C287  1  0.194110  0.647200  0.681820  1.0  0.1695
  C  C288  1  0.154350  0.690900  0.685390  1.0  -0.2279
  C  C289  1  0.115010  0.657500  0.675460  1.0  -0.085
  C  C290  1  0.240900  0.877580  0.811940  1.0  0.7004
  C  C291  1  0.239130  0.823570  0.780880  1.0  -0.1459
  C  C292  1  0.211910  0.753500  0.779700  1.0  -0.0518
  C  C293  1  0.209710  0.706100  0.750450  1.0  -0.2393
  C  C294  1  0.235050  0.729300  0.722950  1.0  0.1665
  C  C295  1  0.262040  0.799300  0.725100  1.0  -0.2292
  C  C296  1  0.264630  0.846000  0.753690  1.0  -0.0504
  C  C297  1  0.465130  0.440190  0.053630  1.0  0.6902
  C  C298  1  0.436290  0.453400  0.023640  1.0  -0.1205
  C  C299  1  0.454280  0.444400  0.992950  1.0  -0.0548
  C  C300  1  0.427140  0.451800  0.965340  1.0  -0.1603
  C  C301  1  0.383790  0.468640  0.968290  1.0  0.1672
  C  C302  1  0.366850  0.484100  0.000470  1.0  -0.1652
  C  C303  1  0.392340  0.471600  0.027380  1.0  -0.044
  C  C304  1  0.301040  0.146060  0.894600  1.0  0.6879
  C  C305  1  0.313330  0.229470  0.905500  1.0  -0.1232
  C  C306  1  0.314420  0.298970  0.884820  1.0  -0.0594
  C  C307  1  0.328080  0.376870  0.895570  1.0  -0.2308
  C  C308  1  0.340640  0.390000  0.928160  1.0  0.1873
  C  C309  1  0.337810  0.321200  0.949720  1.0  -0.1949
  C  C310  1  0.325520  0.242810  0.938300  1.0  -0.0611
  C  C311  1  0.279910  0.789190  0.911800  1.0  0.7156
  C  C312  1  0.298060  0.705740  0.918620  1.0  -0.1181
  C  C313  1  0.274870  0.630320  0.912070  1.0  -0.0246
  C  C314  1  0.291100  0.553750  0.919190  1.0  -0.2262
  C  C315  1  0.335480  0.546100  0.932180  1.0  0.1012
  C  C316  1  0.358770  0.621300  0.938160  1.0  -0.2091
  C  C317  1  0.338330  0.698000  0.933280  1.0  -0.0755
  C  C318  1  0.678140  0.959160  0.847940  1.0  0.7037
  C  C319  1  0.634740  0.919340  0.838740  1.0  -0.2265
  C  C320  1  0.594930  0.961100  0.845450  1.0  -0.0798
  C  C321  1  0.554880  0.925700  0.834560  1.0  -0.1708
  C  C322  1  0.554660  0.850400  0.818690  1.0  0.1207
  C  C323  1  0.594170  0.804800  0.813800  1.0  -0.0598
  C  C324  1  0.633250  0.840500  0.823160  1.0  -0.0051
  C  C325  1  0.355650  0.956010  0.860020  1.0  0.7096
  C  C326  1  0.397830  0.918640  0.846000  1.0  -0.128
  C  C327  1  0.404590  0.917200  0.812880  1.0  -0.0582
  C  C328  1  0.444030  0.883100  0.800050  1.0  -0.2182
  C  C329  1  0.473400  0.847300  0.820670  1.0  0.22
  C  C330  1  0.465620  0.841500  0.854000  1.0  -0.1953
  C  C331  1  0.426120  0.875800  0.867170  1.0  -0.0574
  C  C332  1  0.507420  0.623370  0.688780  1.0  0.6913
  C  C333  1  0.508090  0.672600  0.719720  1.0  -0.1888
  C  C334  1  0.486270  0.644500  0.747730  1.0  -0.0744
  C  C335  1  0.486760  0.696000  0.776590  1.0  -0.1622
  C  C336  1  0.512210  0.766200  0.778660  1.0  0.1808
  C  C337  1  0.535120  0.792500  0.750270  1.0  -0.2439
  C  C338  1  0.532220  0.747200  0.721880  1.0  -0.0309
  C  C339  1  0.550530  0.635420  0.100950  1.0  0.7055
  C  C340  1  0.563010  0.719390  0.088890  1.0  -0.1352
  C  C341  1  0.575740  0.732850  0.056510  1.0  -0.0472
  C  C342  1  0.590150  0.812070  0.045310  1.0  -0.1973
  C  C343  1  0.588880  0.883530  0.066580  1.0  0.1651
  C  C344  1  0.577060  0.869900  0.099770  1.0  -0.269
  C  C345  1  0.563350  0.789510  0.110170  1.0  -0.0529
  C  C346  1  0.713410  0.033770  0.945540  1.0  0.6777
  C  C347  1  0.683330  0.006600  0.973960  1.0  -0.1284
  C  C348  1  0.641040  0.034800  0.972940  1.0  -0.0954
  C  C349  1  0.611530  0.018600  0.000750  1.0  -0.1886
  C  C350  1  0.628640  0.970540  0.026250  1.0  0.1735
  C  C351  1  0.671470  0.937400  0.025540  1.0  -0.2546
  C  C352  1  0.698890  0.956700  0.998450  1.0  -0.0453
  C  C353  1  0.532910  0.283090  0.091350  1.0  0.6938
  C  C354  1  0.551200  0.194760  0.084950  1.0  -0.1522
  C  C355  1  0.523940  0.125100  0.086340  1.0  -0.0697
  C  C356  1  0.542300  0.045160  0.077510  1.0  -0.2181
  C  C357  1  0.584350  0.038700  0.067110  1.0  0.1561
  C  C358  1  0.611380  0.107640  0.068170  1.0  -0.1764
  C  C359  1  0.595670  0.186600  0.077580  1.0  -0.1278
  C  C360  1  0.608480  0.462720  0.141750  1.0  0.6916
  C  C361  1  0.648990  0.422400  0.155920  1.0  -0.1428
  C  C362  1  0.680130  0.387800  0.134360  1.0  -0.0606
  C  C363  1  0.718740  0.353400  0.147240  1.0  -0.1786
  C  C364  1  0.725610  0.351500  0.180820  1.0  0.1192
  C  C365  1  0.695070  0.387600  0.202580  1.0  -0.1941
  C  C366  1  0.656230  0.423300  0.189820  1.0  -0.0482
  C  C367  1  0.928070  0.463140  0.152020  1.0  0.6733
  C  C368  1  0.886540  0.423010  0.161780  1.0  -0.1671
  C  C369  1  0.846500  0.467800  0.158570  1.0  -0.0488
  C  C370  1  0.808470  0.437500  0.168140  1.0  -0.2164
  C  C371  1  0.805890  0.352800  0.181820  1.0  0.1692
  C  C372  1  0.845650  0.309100  0.185390  1.0  -0.2307
  C  C373  1  0.884990  0.342500  0.175460  1.0  -0.0869
  C  C374  1  0.759100  0.122420  0.311940  1.0  0.7009
  C  C375  1  0.760870  0.176430  0.280880  1.0  -0.146
  C  C376  1  0.788090  0.246500  0.279700  1.0  -0.0524
  C  C377  1  0.790290  0.293900  0.250450  1.0  -0.2387
  C  C378  1  0.764950  0.270700  0.222950  1.0  0.1667
  C  C379  1  0.737960  0.200700  0.225100  1.0  -0.2317
  C  C380  1  0.735370  0.154000  0.253690  1.0  -0.0495
  C  C381  1  0.034870  0.440190  0.553630  1.0  0.6906
  C  C382  1  0.063710  0.453400  0.523640  1.0  -0.1203
  C  C383  1  0.045720  0.444400  0.492950  1.0  -0.0533
  C  C384  1  0.072860  0.451800  0.465340  1.0  -0.1593
  C  C385  1  0.116210  0.468640  0.468290  1.0  0.1665
  C  C386  1  0.133150  0.484100  0.500470  1.0  -0.1657
  C  C387  1  0.107660  0.471600  0.527380  1.0  -0.0445
  C  C388  1  0.198960  0.146060  0.394600  1.0  0.6873
  C  C389  1  0.186670  0.229470  0.405500  1.0  -0.1231
  C  C390  1  0.185580  0.298970  0.384820  1.0  -0.0604
  C  C391  1  0.171920  0.376870  0.395570  1.0  -0.2309
  C  C392  1  0.159360  0.390000  0.428160  1.0  0.1877
  C  C393  1  0.162190  0.321200  0.449720  1.0  -0.1974
  C  C394  1  0.174480  0.242810  0.438300  1.0  -0.061
  C  C395  1  0.220090  0.789190  0.411800  1.0  0.7159
  C  C396  1  0.201940  0.705740  0.418620  1.0  -0.1185
  C  C397  1  0.225130  0.630320  0.412070  1.0  -0.0254
  C  C398  1  0.208900  0.553750  0.419190  1.0  -0.2249
  C  C399  1  0.164520  0.546100  0.432180  1.0  0.1008
  C  C400  1  0.141230  0.621300  0.438160  1.0  -0.2097
  C  C401  1  0.161670  0.698000  0.433280  1.0  -0.076
  C  C402  1  0.821860  0.959160  0.347940  1.0  0.7042
  C  C403  1  0.865260  0.919340  0.338740  1.0  -0.2265
  C  C404  1  0.905070  0.961100  0.345450  1.0  -0.079
  C  C405  1  0.945120  0.925700  0.334560  1.0  -0.1697
  C  C406  1  0.945340  0.850400  0.318690  1.0  0.1203
  C  C407  1  0.905830  0.804800  0.313800  1.0  -0.0597
  C  C408  1  0.866750  0.840500  0.323160  1.0  -0.006
  C  C409  1  0.144350  0.956010  0.360020  1.0  0.7094
  C  C410  1  0.102170  0.918640  0.346000  1.0  -0.1275
  C  C411  1  0.095410  0.917200  0.312880  1.0  -0.0582
  C  C412  1  0.055970  0.883100  0.300050  1.0  -0.2198
  C  C413  1  0.026600  0.847300  0.320670  1.0  0.2196
  C  C414  1  0.034380  0.841500  0.354000  1.0  -0.1957
  C  C415  1  0.073880  0.875800  0.367170  1.0  -0.0569
  C  C416  1  0.992580  0.623370  0.188780  1.0  0.6906
  C  C417  1  0.991910  0.672600  0.219720  1.0  -0.1883
  C  C418  1  0.013730  0.644500  0.247730  1.0  -0.0755
  C  C419  1  0.013240  0.696000  0.276590  1.0  -0.1623
  C  C420  1  0.987790  0.766200  0.278660  1.0  0.1806
  C  C421  1  0.964880  0.792500  0.250270  1.0  -0.244
  C  C422  1  0.967780  0.747200  0.221880  1.0  -0.0307
  C  C423  1  0.949470  0.635420  0.600950  1.0  0.705
  C  C424  1  0.936990  0.719390  0.588890  1.0  -0.135
  C  C425  1  0.924260  0.732850  0.556510  1.0  -0.0471
  C  C426  1  0.909850  0.812070  0.545310  1.0  -0.1972
  C  C427  1  0.911120  0.883530  0.566580  1.0  0.1651
  C  C428  1  0.922940  0.869900  0.599770  1.0  -0.2693
  C  C429  1  0.936650  0.789510  0.610170  1.0  -0.0521
  C  C430  1  0.786590  0.033770  0.445540  1.0  0.6783
  C  C431  1  0.816670  0.006600  0.473960  1.0  -0.1279
  C  C432  1  0.858960  0.034800  0.472940  1.0  -0.0969
  C  C433  1  0.888470  0.018600  0.500750  1.0  -0.1861
  C  C434  1  0.871360  0.970540  0.526250  1.0  0.1727
  C  C435  1  0.828530  0.937400  0.525540  1.0  -0.256
  C  C436  1  0.801110  0.956700  0.498450  1.0  -0.043
  C  C437  1  0.967090  0.283090  0.591350  1.0  0.6941
  C  C438  1  0.948800  0.194760  0.584950  1.0  -0.1521
  C  C439  1  0.976060  0.125100  0.586340  1.0  -0.07
  C  C440  1  0.957700  0.045160  0.577510  1.0  -0.2178
  C  C441  1  0.915650  0.038700  0.567110  1.0  0.1565
  C  C442  1  0.888620  0.107640  0.568170  1.0  -0.1777
  C  C443  1  0.904330  0.186600  0.577580  1.0  -0.1263
  C  C444  1  0.891520  0.462720  0.641750  1.0  0.6921
  C  C445  1  0.851010  0.422400  0.655920  1.0  -0.1421
  C  C446  1  0.819870  0.387800  0.634360  1.0  -0.0603
  C  C447  1  0.781260  0.353400  0.647240  1.0  -0.1788
  C  C448  1  0.774390  0.351500  0.680820  1.0  0.1201
  C  C449  1  0.804930  0.387600  0.702580  1.0  -0.1951
  C  C450  1  0.843770  0.423300  0.689820  1.0  -0.0471
  C  C451  1  0.571930  0.463140  0.652020  1.0  0.6735
  C  C452  1  0.613460  0.423010  0.661780  1.0  -0.1679
  C  C453  1  0.653500  0.467800  0.658570  1.0  -0.0485
  C  C454  1  0.691530  0.437500  0.668140  1.0  -0.2163
  C  C455  1  0.694110  0.352800  0.681820  1.0  0.1695
  C  C456  1  0.654350  0.309100  0.685390  1.0  -0.2297
  C  C457  1  0.615010  0.342500  0.675460  1.0  -0.0847
  C  C458  1  0.740900  0.122420  0.811940  1.0  0.7003
  C  C459  1  0.739130  0.176430  0.780880  1.0  -0.1454
  C  C460  1  0.711910  0.246500  0.779700  1.0  -0.0528
  C  C461  1  0.709710  0.293900  0.750450  1.0  -0.2401
  C  C462  1  0.735050  0.270700  0.722950  1.0  0.1666
  C  C463  1  0.762040  0.200700  0.725100  1.0  -0.2316
  C  C464  1  0.764630  0.154000  0.753690  1.0  -0.0501
  C  C465  1  0.965130  0.559810  0.053630  1.0  0.6901
  C  C466  1  0.936290  0.546600  0.023640  1.0  -0.1205
  C  C467  1  0.954280  0.555600  0.992950  1.0  -0.0547
  C  C468  1  0.927140  0.548200  0.965340  1.0  -0.16
  C  C469  1  0.883790  0.531360  0.968290  1.0  0.1671
  C  C470  1  0.866850  0.515900  0.000470  1.0  -0.1644
  C  C471  1  0.892340  0.528400  0.027380  1.0  -0.044
  C  C472  1  0.801040  0.853940  0.894600  1.0  0.6877
  C  C473  1  0.813330  0.770530  0.905500  1.0  -0.123
  C  C474  1  0.814420  0.701030  0.884820  1.0  -0.0592
  C  C475  1  0.828080  0.623130  0.895570  1.0  -0.231
  C  C476  1  0.840640  0.610000  0.928160  1.0  0.1872
  C  C477  1  0.837810  0.678800  0.949720  1.0  -0.194
  C  C478  1  0.825520  0.757190  0.938300  1.0  -0.0609
  C  C479  1  0.779910  0.210810  0.911800  1.0  0.7155
  C  C480  1  0.798060  0.294260  0.918620  1.0  -0.1177
  C  C481  1  0.774870  0.369680  0.912070  1.0  -0.0246
  C  C482  1  0.791100  0.446250  0.919190  1.0  -0.2266
  C  C483  1  0.835480  0.453900  0.932180  1.0  0.1011
  C  C484  1  0.858770  0.378700  0.938160  1.0  -0.2083
  C  C485  1  0.838330  0.302000  0.933280  1.0  -0.0751
  C  C486  1  0.178140  0.040840  0.847940  1.0  0.7035
  C  C487  1  0.134740  0.080660  0.838740  1.0  -0.2266
  C  C488  1  0.094930  0.038900  0.845450  1.0  -0.0794
  C  C489  1  0.054880  0.074300  0.834560  1.0  -0.1706
  C  C490  1  0.054660  0.149600  0.818690  1.0  0.1203
  C  C491  1  0.094170  0.195200  0.813800  1.0  -0.0589
  C  C492  1  0.133250  0.159500  0.823160  1.0  -0.0062
  C  C493  1  0.855650  0.043990  0.860020  1.0  0.7096
  C  C494  1  0.897830  0.081360  0.846000  1.0  -0.1284
  C  C495  1  0.904590  0.082800  0.812880  1.0  -0.0577
  C  C496  1  0.944030  0.116900  0.800050  1.0  -0.218
  C  C497  1  0.973400  0.152700  0.820670  1.0  0.2201
  C  C498  1  0.965620  0.158500  0.854000  1.0  -0.1961
  C  C499  1  0.926120  0.124200  0.867170  1.0  -0.0574
  C  C500  1  0.007420  0.376630  0.688780  1.0  0.6917
  C  C501  1  0.008090  0.327400  0.719720  1.0  -0.1878
  C  C502  1  0.986270  0.355500  0.747730  1.0  -0.077
  C  C503  1  0.986760  0.304000  0.776590  1.0  -0.1642
  C  C504  1  0.012210  0.233800  0.778660  1.0  0.181
  C  C505  1  0.035120  0.207500  0.750270  1.0  -0.2423
  C  C506  1  0.032220  0.252800  0.721880  1.0  -0.0311
  C  C507  1  0.050530  0.364580  0.100950  1.0  0.7056
  C  C508  1  0.063010  0.280610  0.088890  1.0  -0.1358
  C  C509  1  0.075740  0.267150  0.056510  1.0  -0.0475
  C  C510  1  0.090150  0.187930  0.045310  1.0  -0.1981
  C  C511  1  0.088880  0.116470  0.066580  1.0  0.1656
  C  C512  1  0.077060  0.130100  0.099770  1.0  -0.2686
  C  C513  1  0.063350  0.210490  0.110170  1.0  -0.0528
  C  C514  1  0.213410  0.966230  0.945540  1.0  0.6776
  C  C515  1  0.183330  0.993400  0.973960  1.0  -0.1285
  C  C516  1  0.141040  0.965200  0.972940  1.0  -0.0957
  C  C517  1  0.111530  0.981400  0.000750  1.0  -0.1885
  C  C518  1  0.128640  0.029460  0.026250  1.0  0.1733
  C  C519  1  0.171470  0.062600  0.025540  1.0  -0.2548
  C  C520  1  0.198890  0.043300  0.998450  1.0  -0.0457
  C  C521  1  0.032910  0.716910  0.091350  1.0  0.6937
  C  C522  1  0.051200  0.805240  0.084950  1.0  -0.1518
  C  C523  1  0.023940  0.874900  0.086340  1.0  -0.0703
  C  C524  1  0.042300  0.954840  0.077510  1.0  -0.2185
  C  C525  1  0.084350  0.961300  0.067110  1.0  0.1565
  C  C526  1  0.111380  0.892360  0.068170  1.0  -0.176
  C  C527  1  0.095670  0.813400  0.077580  1.0  -0.1276
  C  C528  1  0.108480  0.537280  0.141750  1.0  0.6915
  C  C529  1  0.148990  0.577600  0.155920  1.0  -0.1428
  C  C530  1  0.180130  0.612200  0.134360  1.0  -0.0605
  C  C531  1  0.218740  0.646600  0.147240  1.0  -0.1783
  C  C532  1  0.225610  0.648500  0.180820  1.0  0.1196
  C  C533  1  0.195070  0.612400  0.202580  1.0  -0.1951
  C  C534  1  0.156230  0.576700  0.189820  1.0  -0.0474
  C  C535  1  0.428070  0.536860  0.152020  1.0  0.6733
  C  C536  1  0.386540  0.576990  0.161780  1.0  -0.1676
  C  C537  1  0.346500  0.532200  0.158570  1.0  -0.0475
  C  C538  1  0.308470  0.562500  0.168140  1.0  -0.2155
  C  C539  1  0.305890  0.647200  0.181820  1.0  0.1692
  C  C540  1  0.345650  0.690900  0.185390  1.0  -0.2301
  C  C541  1  0.384990  0.657500  0.175460  1.0  -0.0868
  C  C542  1  0.259100  0.877580  0.311940  1.0  0.7009
  C  C543  1  0.260870  0.823570  0.280880  1.0  -0.1466
  C  C544  1  0.288090  0.753500  0.279700  1.0  -0.0516
  C  C545  1  0.290290  0.706100  0.250450  1.0  -0.238
  C  C546  1  0.264950  0.729300  0.222950  1.0  0.1665
  C  C547  1  0.237960  0.799300  0.225100  1.0  -0.2303
  C  C548  1  0.235370  0.846000  0.253690  1.0  -0.0509
  N  N549  1  0.643750  0.532690  0.439030  1.0  -0.2324
  N  N550  1  0.485750  0.187200  0.308090  1.0  -0.1787
  N  N551  1  0.398520  0.037900  0.554230  1.0  -0.1714
  N  N552  1  0.233370  0.680100  0.693610  1.0  -0.1579
  N  N553  1  0.356250  0.467310  0.939030  1.0  -0.2318
  N  N554  1  0.514250  0.812800  0.808090  1.0  -0.18
  N  N555  1  0.601480  0.962100  0.054230  1.0  -0.1715
  N  N556  1  0.766630  0.319900  0.193610  1.0  -0.1583
  N  N557  1  0.143750  0.467310  0.439030  1.0  -0.2322
  N  N558  1  0.985750  0.812800  0.308090  1.0  -0.1804
  N  N559  1  0.898520  0.962100  0.554230  1.0  -0.1715
  N  N560  1  0.733370  0.319900  0.693610  1.0  -0.1582
  N  N561  1  0.856250  0.532690  0.939030  1.0  -0.232
  N  N562  1  0.014250  0.187200  0.808090  1.0  -0.1786
  N  N563  1  0.101480  0.037900  0.054230  1.0  -0.1715
  N  N564  1  0.266630  0.680100  0.193610  1.0  -0.158
  O  O565  1  0.494650  0.549380  0.552160  1.0  -0.6115
  O  O566  1  0.555900  0.579760  0.579450  1.0  -0.6297
  O  O567  1  0.714010  0.868940  0.366330  1.0  -0.6176
  O  O568  1  0.692720  0.915680  0.414890  1.0  -0.6317
  O  O569  1  0.755750  0.204480  0.394670  1.0  -0.614
  O  O570  1  0.702930  0.149940  0.425380  1.0  -0.6178
  O  O571  1  0.288090  0.071320  0.339690  1.0  -0.5983
  O  O572  1  0.326970  0.972100  0.364100  1.0  -0.628
  O  O573  1  0.650740  0.051530  0.390120  1.0  -0.6231
  O  O574  1  0.667580  0.002110  0.340600  1.0  -0.634
  O  O575  1  0.478900  0.337550  0.163060  1.0  -0.5991
  O  O576  1  0.505880  0.451260  0.189580  1.0  -0.6157
  O  O577  1  0.449740  0.424570  0.579640  1.0  -0.6166
  O  O578  1  0.458950  0.372200  0.630520  1.0  -0.6165
  O  O579  1  0.303950  0.919950  0.423480  1.0  -0.6238
  O  O580  1  0.247840  0.991730  0.446140  1.0  -0.6217
  O  O581  1  0.440200  0.658390  0.585250  1.0  -0.6232
  O  O582  1  0.504650  0.710010  0.602800  1.0  -0.6057
  O  O583  1  0.397070  0.536130  0.612050  1.0  -0.5945
  O  O584  1  0.419710  0.505870  0.662900  1.0  -0.6357
  O  O585  1  0.260310  0.944000  0.810970  1.0  -0.6188
  O  O586  1  0.221900  0.847620  0.836590  1.0  -0.6177
  O  O587  1  0.073870  0.460450  0.641030  1.0  -0.636
  O  O588  1  0.036050  0.576400  0.656440  1.0  -0.6103
  O  O589  1  0.487500  0.541090  0.621300  1.0  -0.9655
  O  O590  1  0.238880  0.962510  0.379540  1.0  -0.9917
  O  O591  1  0.505350  0.450620  0.052160  1.0  -0.6119
  O  O592  1  0.444100  0.420240  0.079450  1.0  -0.6281
  O  O593  1  0.285990  0.131060  0.866330  1.0  -0.6182
  O  O594  1  0.307280  0.084320  0.914890  1.0  -0.631
  O  O595  1  0.244250  0.795520  0.894670  1.0  -0.6127
  O  O596  1  0.297070  0.850060  0.925380  1.0  -0.6172
  O  O597  1  0.711910  0.928680  0.839690  1.0  -0.6
  O  O598  1  0.673030  0.027900  0.864100  1.0  -0.6266
  O  O599  1  0.349260  0.948470  0.890120  1.0  -0.6233
  O  O600  1  0.332420  0.997890  0.840600  1.0  -0.6324
  O  O601  1  0.521100  0.662450  0.663060  1.0  -0.5988
  O  O602  1  0.494120  0.548740  0.689580  1.0  -0.6168
  O  O603  1  0.550260  0.575430  0.079640  1.0  -0.6172
  O  O604  1  0.541050  0.627800  0.130520  1.0  -0.6175
  O  O605  1  0.696050  0.080050  0.923480  1.0  -0.6237
  O  O606  1  0.752160  0.008270  0.946140  1.0  -0.6212
  O  O607  1  0.559800  0.341610  0.085250  1.0  -0.6243
  O  O608  1  0.495350  0.289990  0.102800  1.0  -0.6062
  O  O609  1  0.602930  0.463870  0.112050  1.0  -0.5947
  O  O610  1  0.580290  0.494130  0.162900  1.0  -0.6342
  O  O611  1  0.739690  0.056000  0.310970  1.0  -0.6196
  O  O612  1  0.778100  0.152380  0.336590  1.0  -0.6181
  O  O613  1  0.926130  0.539550  0.141030  1.0  -0.6377
  O  O614  1  0.963950  0.423600  0.156440  1.0  -0.6112
  O  O615  1  0.512500  0.458910  0.121300  1.0  -0.966
  O  O616  1  0.761120  0.037490  0.879540  1.0  -0.9917
  O  O617  1  0.994650  0.450620  0.552160  1.0  -0.611
  O  O618  1  0.055900  0.420240  0.579450  1.0  -0.6296
  O  O619  1  0.214010  0.131060  0.366330  1.0  -0.6168
  O  O620  1  0.192720  0.084320  0.414890  1.0  -0.6317
  O  O621  1  0.255750  0.795520  0.394670  1.0  -0.6131
  O  O622  1  0.202930  0.850060  0.425380  1.0  -0.6176
  O  O623  1  0.788090  0.928680  0.339690  1.0  -0.5991
  O  O624  1  0.826970  0.027900  0.364100  1.0  -0.6267
  O  O625  1  0.150740  0.948470  0.390120  1.0  -0.6232
  O  O626  1  0.167580  0.997890  0.340600  1.0  -0.6339
  O  O627  1  0.978900  0.662450  0.163060  1.0  -0.5987
  O  O628  1  0.005880  0.548740  0.189580  1.0  -0.6167
  O  O629  1  0.949740  0.575430  0.579640  1.0  -0.6169
  O  O630  1  0.958950  0.627800  0.630520  1.0  -0.6165
  O  O631  1  0.803950  0.080050  0.423480  1.0  -0.6247
  O  O632  1  0.747840  0.008270  0.446140  1.0  -0.6218
  O  O633  1  0.940200  0.341610  0.585250  1.0  -0.6231
  O  O634  1  0.004650  0.289990  0.602800  1.0  -0.6064
  O  O635  1  0.897070  0.463870  0.612050  1.0  -0.5948
  O  O636  1  0.919710  0.494130  0.662900  1.0  -0.6348
  O  O637  1  0.760310  0.056000  0.810970  1.0  -0.6198
  O  O638  1  0.721900  0.152380  0.836590  1.0  -0.6182
  O  O639  1  0.573870  0.539550  0.641030  1.0  -0.6364
  O  O640  1  0.536050  0.423600  0.656440  1.0  -0.6106
  O  O641  1  0.987500  0.458910  0.621300  1.0  -0.9656
  O  O642  1  0.738880  0.037490  0.379540  1.0  -0.9917
  O  O643  1  0.005350  0.549380  0.052160  1.0  -0.6121
  O  O644  1  0.944100  0.579760  0.079450  1.0  -0.6283
  O  O645  1  0.785990  0.868940  0.866330  1.0  -0.6176
  O  O646  1  0.807280  0.915680  0.914890  1.0  -0.6306
  O  O647  1  0.744250  0.204480  0.894670  1.0  -0.6141
  O  O648  1  0.797070  0.149940  0.925380  1.0  -0.6175
  O  O649  1  0.211910  0.071320  0.839690  1.0  -0.6001
  O  O650  1  0.173030  0.972100  0.864100  1.0  -0.6279
  O  O651  1  0.849260  0.051530  0.890120  1.0  -0.6232
  O  O652  1  0.832420  0.002110  0.840600  1.0  -0.6328
  O  O653  1  0.021100  0.337550  0.663060  1.0  -0.5995
  O  O654  1  0.994120  0.451260  0.689580  1.0  -0.6159
  O  O655  1  0.050260  0.424570  0.079640  1.0  -0.6166
  O  O656  1  0.041050  0.372200  0.130520  1.0  -0.618
  O  O657  1  0.196050  0.919950  0.923480  1.0  -0.6237
  O  O658  1  0.252160  0.991730  0.946140  1.0  -0.6214
  O  O659  1  0.059800  0.658390  0.085250  1.0  -0.6246
  O  O660  1  0.995350  0.710010  0.102800  1.0  -0.6056
  O  O661  1  0.102930  0.536130  0.112050  1.0  -0.5941
  O  O662  1  0.080290  0.505870  0.162900  1.0  -0.635
  O  O663  1  0.239690  0.944000  0.310970  1.0  -0.6186
  O  O664  1  0.278100  0.847620  0.336590  1.0  -0.6178
  O  O665  1  0.426130  0.460450  0.141030  1.0  -0.6372
  O  O666  1  0.463950  0.576400  0.156440  1.0  -0.6113
  O  O667  1  0.012500  0.541090  0.121300  1.0  -0.9659
  O  O668  1  0.261120  0.962510  0.879540  1.0  -0.9917
