# generated using pymatgen
data_CuH4C8(N2O)2
_symmetry_space_group_name_H-M   'P 1'
_cell_length_a   7.11900000
_cell_length_b   21.58000000
_cell_length_c   9.10000000
_cell_angle_alpha   90.00000000
_cell_angle_beta   90.00000000
_cell_angle_gamma   90.00000000
_symmetry_Int_Tables_number   1
_chemical_formula_structural   CuH4C8(N2O)2
_chemical_formula_sum   'Cu4 H16 C32 N16 O8'
_cell_volume   1398.01498200
_cell_formula_units_Z   4
loop_
 _symmetry_equiv_pos_site_id
 _symmetry_equiv_pos_as_xyz
  1  'x, y, z'
loop_
 _atom_site_type_symbol
 _atom_site_label
 _atom_site_symmetry_multiplicity
 _atom_site_fract_x
 _atom_site_fract_y
 _atom_site_fract_z
 _atom_site_occupancy
 _atom_site_charge
  Cu  Cu1  1  0.748260  0.000000  0.033000  1.0  0.7492
  Cu  Cu2  1  0.248260  0.500000  0.533000  1.0  0.7492
  Cu  Cu3  1  0.251740  0.000000  0.033000  1.0  0.7503
  Cu  Cu4  1  0.751740  0.500000  0.533000  1.0  0.7503
  H  H5  1  0.218600  0.770700  0.792700  1.0  0.1182
  H  H6  1  0.216800  0.673500  0.720400  1.0  0.1194
  H  H7  1  0.718600  0.270700  0.292700  1.0  0.1182
  H  H8  1  0.716800  0.173500  0.220400  1.0  0.1194
  H  H9  1  0.781400  0.229300  0.792700  1.0  0.1183
  H  H10  1  0.783200  0.326500  0.720400  1.0  0.1193
  H  H11  1  0.281400  0.729300  0.292700  1.0  0.1183
  H  H12  1  0.283200  0.826500  0.220400  1.0  0.1193
  H  H13  1  0.218600  0.229300  0.792700  1.0  0.1183
  H  H14  1  0.216800  0.326500  0.720400  1.0  0.1193
  H  H15  1  0.718600  0.729300  0.292700  1.0  0.1183
  H  H16  1  0.716800  0.826500  0.220400  1.0  0.1193
  H  H17  1  0.781400  0.770700  0.792700  1.0  0.1186
  H  H18  1  0.783200  0.673500  0.720400  1.0  0.1193
  H  H19  1  0.281400  0.270700  0.292700  1.0  0.1186
  H  H20  1  0.283200  0.173500  0.220400  1.0  0.1193
  C  C21  1  0.333000  0.750800  0.779000  1.0  -0.0598
  C  C22  1  0.332200  0.692600  0.736100  1.0  -0.0535
  C  C23  1  0.833000  0.250800  0.279000  1.0  -0.0598
  C  C24  1  0.832200  0.192600  0.236100  1.0  -0.0535
  C  C25  1  0.667000  0.249200  0.779000  1.0  -0.0609
  C  C26  1  0.667800  0.307400  0.736100  1.0  -0.0532
  C  C27  1  0.167000  0.749200  0.279000  1.0  -0.0609
  C  C28  1  0.167800  0.807400  0.236100  1.0  -0.0532
  C  C29  1  0.333000  0.249200  0.779000  1.0  -0.0597
  C  C30  1  0.332200  0.307400  0.736100  1.0  -0.0541
  C  C31  1  0.833000  0.749200  0.279000  1.0  -0.0597
  C  C32  1  0.832200  0.807400  0.236100  1.0  -0.0541
  C  C33  1  0.667000  0.750800  0.779000  1.0  -0.0611
  C  C34  1  0.667800  0.692600  0.736100  1.0  -0.0533
  C  C35  1  0.167000  0.250800  0.279000  1.0  -0.0611
  C  C36  1  0.167800  0.192600  0.236100  1.0  -0.0533
  C  C37  1  0.500000  0.784400  0.803800  1.0  -0.0321
  C  C38  1  0.500000  0.656700  0.712500  1.0  -0.0508
  C  C39  1  0.500000  0.592900  0.669200  1.0  0.7075
  C  C40  1  0.500000  0.846200  0.853500  1.0  0.2724
  C  C41  1  0.000000  0.284400  0.303800  1.0  -0.0321
  C  C42  1  0.000000  0.156700  0.212500  1.0  -0.0508
  C  C43  1  0.000000  0.092900  0.169200  1.0  0.7075
  C  C44  1  0.000000  0.346200  0.353500  1.0  0.2724
  C  C45  1  0.500000  0.215600  0.803800  1.0  -0.0336
  C  C46  1  0.500000  0.343300  0.712500  1.0  -0.0501
  C  C47  1  0.500000  0.407100  0.669200  1.0  0.7096
  C  C48  1  0.500000  0.153800  0.853500  1.0  0.2723
  C  C49  1  0.000000  0.715600  0.303800  1.0  -0.0336
  C  C50  1  0.000000  0.843300  0.212500  1.0  -0.0501
  C  C51  1  0.000000  0.907100  0.169200  1.0  0.7096
  C  C52  1  0.000000  0.653800  0.353500  1.0  0.2723
  N  N53  1  0.603500  0.934800  0.932200  1.0  -0.1967
  N  N54  1  0.656800  0.881800  0.884500  1.0  -0.1504
  N  N55  1  0.103500  0.434800  0.432200  1.0  -0.1967
  N  N56  1  0.156800  0.381800  0.384500  1.0  -0.1504
  N  N57  1  0.396500  0.065200  0.932200  1.0  -0.1971
  N  N58  1  0.343200  0.118200  0.884500  1.0  -0.1496
  N  N59  1  0.896500  0.565200  0.432200  1.0  -0.1968
  N  N60  1  0.843200  0.618200  0.384500  1.0  -0.1496
  N  N61  1  0.603500  0.065200  0.932200  1.0  -0.1971
  N  N62  1  0.656800  0.118200  0.884500  1.0  -0.15
  N  N63  1  0.103500  0.565200  0.432200  1.0  -0.1971
  N  N64  1  0.156800  0.618200  0.384500  1.0  -0.15
  N  N65  1  0.396500  0.934800  0.932200  1.0  -0.1965
  N  N66  1  0.343200  0.881800  0.884500  1.0  -0.1501
  N  N67  1  0.896500  0.434800  0.432200  1.0  -0.1965
  N  N68  1  0.843200  0.381800  0.384500  1.0  -0.1501
  O  O69  1  0.645800  0.568200  0.652300  1.0  -0.601
  O  O70  1  0.145800  0.068200  0.152300  1.0  -0.601
  O  O71  1  0.354200  0.431800  0.652300  1.0  -0.6002
  O  O72  1  0.854200  0.931800  0.152300  1.0  -0.6002
  O  O73  1  0.645800  0.431800  0.652300  1.0  -0.6009
  O  O74  1  0.145800  0.931800  0.152300  1.0  -0.6009
  O  O75  1  0.354200  0.568200  0.652300  1.0  -0.6004
  O  O76  1  0.854200  0.068200  0.152300  1.0  -0.6004
