# generated using pymatgen
data_Cu9H40C80(N2O)20
_symmetry_space_group_name_H-M   'P 1'
_cell_length_a   13.46400000
_cell_length_b   19.71700000
_cell_length_c   29.98500000
_cell_angle_alpha   90.00000000
_cell_angle_beta   90.00000000
_cell_angle_gamma   90.00000000
_symmetry_Int_Tables_number   1
_chemical_formula_structural   Cu9H40C80(N2O)20
_chemical_formula_sum   'Cu18 H80 C160 N80 O40'
_cell_volume   7960.10859468
_cell_formula_units_Z   2
loop_
 _symmetry_equiv_pos_site_id
 _symmetry_equiv_pos_as_xyz
  1  'x, y, z'
loop_
 _atom_site_type_symbol
 _atom_site_label
 _atom_site_symmetry_multiplicity
 _atom_site_fract_x
 _atom_site_fract_y
 _atom_site_fract_z
 _atom_site_occupancy
 _atom_site_charge
  Cu  Cu1  1  0.115570  0.469430  0.641950  1.0  0.9143
  Cu  Cu2  1  0.568850  0.468360  0.619180  1.0  0.9266
  Cu  Cu3  1  0.349810  0.468950  0.699310  1.0  0.8745
  Cu  Cu4  1  0.026670  0.969900  0.542160  1.0  0.9726
  Cu  Cu5  1  0.884430  0.469430  0.358050  1.0  0.9125
  Cu  Cu6  1  0.431150  0.468360  0.380820  1.0  0.9276
  Cu  Cu7  1  0.650190  0.468950  0.300690  1.0  0.8734
  Cu  Cu8  1  0.973330  0.969900  0.457840  1.0  0.972
  Cu  Cu9  1  0.615570  0.969430  0.858050  1.0  0.9128
  Cu  Cu10  1  0.068850  0.968360  0.880820  1.0  0.9277
  Cu  Cu11  1  0.849810  0.968950  0.800690  1.0  0.8737
  Cu  Cu12  1  0.526670  0.469900  0.957840  1.0  0.972
  Cu  Cu13  1  0.384430  0.969430  0.141950  1.0  0.9139
  Cu  Cu14  1  0.931150  0.968360  0.119180  1.0  0.9266
  Cu  Cu15  1  0.150190  0.968950  0.199310  1.0  0.8742
  Cu  Cu16  1  0.473330  0.469900  0.042160  1.0  0.9705
  Cu  Cu17  1  0.500000  0.472020  0.500000  1.0  0.9218
  Cu  Cu18  1  0.000000  0.972020  0.000000  1.0  0.9218
  H  H19  1  0.764700  0.137300  0.463100  1.0  0.1422
  H  H20  1  0.676600  0.236700  0.475200  1.0  0.1414
  H  H21  1  0.780800  0.244300  0.600700  1.0  0.1373
  H  H22  1  0.868900  0.144900  0.588500  1.0  0.141
  H  H23  1  0.185000  0.139800  0.821600  1.0  0.1375
  H  H24  1  0.239800  0.238900  0.787800  1.0  0.1401
  H  H25  1  0.006600  0.233300  0.704300  1.0  0.1435
  H  H26  1  0.951800  0.134200  0.738000  1.0  0.1388
  H  H27  1  0.213100  0.366100  0.509700  1.0  0.1377
  H  H28  1  0.104700  0.369100  0.449600  1.0  0.1429
  H  H29  1  0.077100  0.570800  0.463900  1.0  0.1429
  H  H30  1  0.185500  0.567900  0.524000  1.0  0.151
  H  H31  1  0.242900  0.706400  0.785500  1.0  0.1522
  H  H32  1  0.189600  0.809400  0.813300  1.0  0.1388
  H  H33  1  0.932600  0.788400  0.754600  1.0  0.1164
  H  H34  1  0.984400  0.686200  0.721900  1.0  0.1587
  H  H35  1  0.754500  0.811500  0.459800  1.0  0.1394
  H  H36  1  0.663600  0.713000  0.470900  1.0  0.1458
  H  H37  1  0.732200  0.717300  0.601300  1.0  0.1375
  H  H38  1  0.823100  0.815800  0.590200  1.0  0.1418
  H  H39  1  0.235300  0.137300  0.536900  1.0  0.1429
  H  H40  1  0.323400  0.236700  0.524800  1.0  0.1416
  H  H41  1  0.219200  0.244300  0.399300  1.0  0.1379
  H  H42  1  0.131100  0.144900  0.411500  1.0  0.1404
  H  H43  1  0.815000  0.139800  0.178400  1.0  0.1379
  H  H44  1  0.760200  0.238900  0.212200  1.0  0.1403
  H  H45  1  0.993400  0.233300  0.295700  1.0  0.1437
  H  H46  1  0.048200  0.134200  0.262000  1.0  0.1388
  H  H47  1  0.786900  0.366100  0.490300  1.0  0.1381
  H  H48  1  0.895300  0.369100  0.550400  1.0  0.1433
  H  H49  1  0.922900  0.570800  0.536100  1.0  0.1429
  H  H50  1  0.814500  0.567900  0.476000  1.0  0.1512
  H  H51  1  0.757100  0.706400  0.214500  1.0  0.1532
  H  H52  1  0.810400  0.809400  0.186700  1.0  0.1388
  H  H53  1  0.067400  0.788400  0.245400  1.0  0.1173
  H  H54  1  0.015600  0.686200  0.278100  1.0  0.159
  H  H55  1  0.245500  0.811500  0.540200  1.0  0.1388
  H  H56  1  0.336400  0.713000  0.529100  1.0  0.1458
  H  H57  1  0.267800  0.717300  0.398700  1.0  0.1378
  H  H58  1  0.176900  0.815800  0.409800  1.0  0.1413
  H  H59  1  0.264700  0.637300  0.036900  1.0  0.1427
  H  H60  1  0.176600  0.736700  0.024800  1.0  0.1415
  H  H61  1  0.280800  0.744300  0.899300  1.0  0.1377
  H  H62  1  0.368900  0.644900  0.911500  1.0  0.1404
  H  H63  1  0.685000  0.639800  0.678400  1.0  0.1382
  H  H64  1  0.739800  0.738900  0.712200  1.0  0.1401
  H  H65  1  0.506600  0.733300  0.795700  1.0  0.1438
  H  H66  1  0.451800  0.634200  0.762000  1.0  0.1387
  H  H67  1  0.713100  0.866100  0.990300  1.0  0.1376
  H  H68  1  0.604700  0.869100  0.050400  1.0  0.1432
  H  H69  1  0.577100  0.070800  0.036100  1.0  0.1429
  H  H70  1  0.685500  0.067900  0.976000  1.0  0.1511
  H  H71  1  0.742900  0.206400  0.714500  1.0  0.1525
  H  H72  1  0.689600  0.309400  0.686700  1.0  0.1388
  H  H73  1  0.432600  0.288400  0.745400  1.0  0.1164
  H  H74  1  0.484400  0.186200  0.778100  1.0  0.1592
  H  H75  1  0.254500  0.311500  0.040200  1.0  0.1395
  H  H76  1  0.163600  0.213000  0.029100  1.0  0.1456
  H  H77  1  0.232200  0.217300  0.898700  1.0  0.1378
  H  H78  1  0.323100  0.315800  0.909800  1.0  0.1414
  H  H79  1  0.735300  0.637300  0.963100  1.0  0.1427
  H  H80  1  0.823400  0.736700  0.975200  1.0  0.1416
  H  H81  1  0.719200  0.744300  0.100700  1.0  0.1377
  H  H82  1  0.631100  0.644900  0.088500  1.0  0.1413
  H  H83  1  0.315000  0.639800  0.321600  1.0  0.1376
  H  H84  1  0.260200  0.738900  0.287800  1.0  0.1403
  H  H85  1  0.493400  0.733300  0.204300  1.0  0.1436
  H  H86  1  0.548200  0.634200  0.238000  1.0  0.1386
  H  H87  1  0.286900  0.866100  0.009700  1.0  0.138
  H  H88  1  0.395300  0.869100  0.949600  1.0  0.143
  H  H89  1  0.422900  0.070800  0.963900  1.0  0.1429
  H  H90  1  0.314500  0.067900  0.024000  1.0  0.1511
  H  H91  1  0.257100  0.206400  0.285500  1.0  0.1528
  H  H92  1  0.310400  0.309400  0.313300  1.0  0.1386
  H  H93  1  0.567400  0.288400  0.254600  1.0  0.1173
  H  H94  1  0.515600  0.186200  0.221900  1.0  0.1587
  H  H95  1  0.745500  0.311500  0.959800  1.0  0.1392
  H  H96  1  0.836400  0.213000  0.970900  1.0  0.1463
  H  H97  1  0.767800  0.217300  0.101300  1.0  0.1376
  H  H98  1  0.676900  0.315800  0.090200  1.0  0.1418
  C  C99  1  0.668200  0.312500  0.546500  1.0  0.5912
  C  C100  1  0.767900  0.158800  0.490600  1.0  -0.0266
  C  C101  1  0.715200  0.218300  0.497900  1.0  -0.0701
  C  C102  1  0.720000  0.250400  0.539200  1.0  -0.0434
  C  C103  1  0.777600  0.222800  0.573100  1.0  -0.0485
  C  C104  1  0.830300  0.163300  0.565800  1.0  -0.0106
  C  C105  1  0.825500  0.131200  0.524600  1.0  -0.0728
  C  C106  1  0.881200  0.064000  0.516800  1.0  0.6817
  C  C107  1  0.868800  0.879800  0.514000  1.0  0.6435
  C  C108  1  0.019200  0.062600  0.803800  1.0  0.4879
  C  C109  1  0.063000  0.127200  0.783100  1.0  -0.0905
  C  C110  1  0.149300  0.158600  0.798000  1.0  -0.0431
  C  C111  1  0.182100  0.217900  0.777800  1.0  -0.0305
  C  C112  1  0.128600  0.245900  0.742700  1.0  -0.0922
  C  C113  1  0.042300  0.214500  0.727800  1.0  -0.0438
  C  C114  1  0.009500  0.155200  0.748000  1.0  -0.0024
  C  C115  1  0.171100  0.632600  0.720100  1.0  0.338
  C  C116  1  0.153600  0.314700  0.727000  1.0  0.3334
  C  C117  1  0.281800  0.467000  0.559900  1.0  0.3086
  C  C118  1  0.210100  0.466700  0.522780  1.0  0.0156
  C  C119  1  0.185900  0.407100  0.500500  1.0  -0.0767
  C  C120  1  0.120900  0.408900  0.464500  1.0  -0.0265
  C  C121  1  0.080100  0.470200  0.450770  1.0  -0.081
  C  C122  1  0.104300  0.529800  0.473100  1.0  -0.0445
  C  C123  1  0.169300  0.528000  0.509100  1.0  -0.0892
  C  C124  1  0.007100  0.463100  0.414200  1.0  0.3169
  C  C125  1  0.123600  0.691100  0.747600  1.0  -0.0498
  C  C126  1  0.181600  0.724000  0.777200  1.0  -0.0594
  C  C127  1  0.148000  0.784300  0.794800  1.0  -0.0104
  C  C128  1  0.053900  0.808400  0.785600  1.0  -0.1164
  C  C129  1  0.996700  0.772800  0.759900  1.0  0.0091
  C  C130  1  0.027200  0.711500  0.739700  1.0  -0.1126
  C  C131  1  0.031700  0.875200  0.812700  1.0  0.2111
  C  C132  1  0.797800  0.823400  0.524000  1.0  -0.0836
  C  C133  1  0.750000  0.792600  0.488200  1.0  -0.0311
  C  C134  1  0.695600  0.733600  0.494800  1.0  -0.0834
  C  C135  1  0.688900  0.705300  0.537200  1.0  0.0131
  C  C136  1  0.736600  0.736100  0.572900  1.0  -0.0932
  C  C137  1  0.791100  0.795200  0.566300  1.0  -0.0674
  C  C138  1  0.649100  0.638200  0.543600  1.0  0.2268
  C  C139  1  0.331800  0.312500  0.453500  1.0  0.5883
  C  C140  1  0.232100  0.158800  0.509400  1.0  -0.0281
  C  C141  1  0.284800  0.218300  0.502100  1.0  -0.0712
  C  C142  1  0.280000  0.250400  0.460800  1.0  -0.0433
  C  C143  1  0.222400  0.222800  0.426900  1.0  -0.0488
  C  C144  1  0.169700  0.163300  0.434200  1.0  -0.0101
  C  C145  1  0.174500  0.131200  0.475400  1.0  -0.0733
  C  C146  1  0.118800  0.064000  0.483200  1.0  0.6801
  C  C147  1  0.131200  0.879800  0.486000  1.0  0.6424
  C  C148  1  0.980800  0.062600  0.196200  1.0  0.4892
  C  C149  1  0.937000  0.127200  0.216900  1.0  -0.0902
  C  C150  1  0.850700  0.158600  0.202000  1.0  -0.0431
  C  C151  1  0.817900  0.217900  0.222200  1.0  -0.0313
  C  C152  1  0.871400  0.245900  0.257300  1.0  -0.0921
  C  C153  1  0.957700  0.214500  0.272200  1.0  -0.0442
  C  C154  1  0.990500  0.155200  0.252000  1.0  -0.0013
  C  C155  1  0.828900  0.632600  0.279900  1.0  0.3375
  C  C156  1  0.846400  0.314700  0.273000  1.0  0.3353
  C  C157  1  0.718200  0.467000  0.440100  1.0  0.3088
  C  C158  1  0.789900  0.466700  0.477220  1.0  0.0147
  C  C159  1  0.814100  0.407100  0.499500  1.0  -0.0774
  C  C160  1  0.879100  0.408900  0.535500  1.0  -0.0257
  C  C161  1  0.919900  0.470200  0.549230  1.0  -0.0817
  C  C162  1  0.895700  0.529800  0.526900  1.0  -0.0431
  C  C163  1  0.830700  0.528000  0.490900  1.0  -0.0907
  C  C164  1  0.992900  0.463100  0.585800  1.0  0.3169
  C  C165  1  0.876400  0.691100  0.252400  1.0  -0.0501
  C  C166  1  0.818400  0.724000  0.222800  1.0  -0.0585
  C  C167  1  0.852000  0.784300  0.205200  1.0  -0.0113
  C  C168  1  0.946100  0.808400  0.214400  1.0  -0.1168
  C  C169  1  0.003300  0.772800  0.240100  1.0  0.0095
  C  C170  1  0.972800  0.711500  0.260300  1.0  -0.1116
  C  C171  1  0.968300  0.875200  0.187300  1.0  0.2107
  C  C172  1  0.202200  0.823400  0.476000  1.0  -0.0847
  C  C173  1  0.250000  0.792600  0.511800  1.0  -0.0299
  C  C174  1  0.304400  0.733600  0.505200  1.0  -0.084
  C  C175  1  0.311100  0.705300  0.462800  1.0  0.0123
  C  C176  1  0.263400  0.736100  0.427100  1.0  -0.0933
  C  C177  1  0.208900  0.795200  0.433700  1.0  -0.0672
  C  C178  1  0.350900  0.638200  0.456400  1.0  0.2272
  C  C179  1  0.168200  0.812500  0.953500  1.0  0.5897
  C  C180  1  0.267900  0.658800  0.009400  1.0  -0.0281
  C  C181  1  0.215200  0.718300  0.002100  1.0  -0.0723
  C  C182  1  0.220000  0.750400  0.960800  1.0  -0.0433
  C  C183  1  0.277600  0.722800  0.926900  1.0  -0.0488
  C  C184  1  0.330300  0.663300  0.934200  1.0  -0.0117
  C  C185  1  0.325500  0.631200  0.975400  1.0  -0.0727
  C  C186  1  0.381200  0.564000  0.983200  1.0  0.6819
  C  C187  1  0.368800  0.379800  0.986000  1.0  0.6439
  C  C188  1  0.519200  0.562600  0.696200  1.0  0.4884
  C  C189  1  0.563000  0.627200  0.716900  1.0  -0.0907
  C  C190  1  0.649300  0.658600  0.702000  1.0  -0.0433
  C  C191  1  0.682100  0.717900  0.722200  1.0  -0.031
  C  C192  1  0.628600  0.745900  0.757300  1.0  -0.0924
  C  C193  1  0.542300  0.714500  0.772200  1.0  -0.0443
  C  C194  1  0.509500  0.655200  0.752000  1.0  -0.0021
  C  C195  1  0.671100  0.132600  0.779900  1.0  0.3383
  C  C196  1  0.653600  0.814700  0.773000  1.0  0.3348
  C  C197  1  0.781800  0.967000  0.940100  1.0  0.3082
  C  C198  1  0.710100  0.966700  0.977220  1.0  0.0151
  C  C199  1  0.685900  0.907100  0.999500  1.0  -0.0776
  C  C200  1  0.620900  0.908900  0.035500  1.0  -0.0268
  C  C201  1  0.580100  0.970200  0.049230  1.0  -0.081
  C  C202  1  0.604300  0.029800  0.026900  1.0  -0.0443
  C  C203  1  0.669300  0.028000  0.990900  1.0  -0.0895
  C  C204  1  0.507100  0.963100  0.085800  1.0  0.3171
  C  C205  1  0.623600  0.191100  0.752400  1.0  -0.05
  C  C206  1  0.681600  0.224000  0.722800  1.0  -0.0592
  C  C207  1  0.648000  0.284300  0.705200  1.0  -0.0103
  C  C208  1  0.553900  0.308400  0.714400  1.0  -0.1171
  C  C209  1  0.496700  0.272800  0.740100  1.0  0.0093
  C  C210  1  0.527200  0.211500  0.760300  1.0  -0.1125
  C  C211  1  0.531700  0.375200  0.687300  1.0  0.2111
  C  C212  1  0.297800  0.323400  0.976000  1.0  -0.0835
  C  C213  1  0.250000  0.292600  0.011800  1.0  -0.0305
  C  C214  1  0.195600  0.233600  0.005200  1.0  -0.0857
  C  C215  1  0.188900  0.205300  0.962800  1.0  0.013
  C  C216  1  0.236600  0.236100  0.927100  1.0  -0.093
  C  C217  1  0.291100  0.295200  0.933700  1.0  -0.0678
  C  C218  1  0.149100  0.138200  0.956400  1.0  0.2272
  C  C219  1  0.831800  0.812500  0.046500  1.0  0.5896
  C  C220  1  0.732100  0.658800  0.990600  1.0  -0.0279
  C  C221  1  0.784800  0.718300  0.997900  1.0  -0.0706
  C  C222  1  0.780000  0.750400  0.039200  1.0  -0.0435
  C  C223  1  0.722400  0.722800  0.073100  1.0  -0.0489
  C  C224  1  0.669700  0.663300  0.065800  1.0  -0.0104
  C  C225  1  0.674500  0.631200  0.024600  1.0  -0.0733
  C  C226  1  0.618800  0.564000  0.016800  1.0  0.6803
  C  C227  1  0.631200  0.379800  0.014000  1.0  0.6418
  C  C228  1  0.480800  0.562600  0.303800  1.0  0.4894
  C  C229  1  0.437000  0.627200  0.283100  1.0  -0.0899
  C  C230  1  0.350700  0.658600  0.298000  1.0  -0.0434
  C  C231  1  0.317900  0.717900  0.277800  1.0  -0.0305
  C  C232  1  0.371400  0.745900  0.242700  1.0  -0.0919
  C  C233  1  0.457700  0.714500  0.227800  1.0  -0.0447
  C  C234  1  0.490500  0.655200  0.248000  1.0  -0.0022
  C  C235  1  0.328900  0.132600  0.220100  1.0  0.3375
  C  C236  1  0.346400  0.814700  0.227000  1.0  0.3337
  C  C237  1  0.218200  0.967000  0.059900  1.0  0.3091
  C  C238  1  0.289900  0.966700  0.022780  1.0  0.0151
  C  C239  1  0.314100  0.907100  0.000500  1.0  -0.0763
  C  C240  1  0.379100  0.908900  0.964500  1.0  -0.026
  C  C241  1  0.419900  0.970200  0.950770  1.0  -0.081
  C  C242  1  0.395700  0.029800  0.973100  1.0  -0.0438
  C  C243  1  0.330700  0.028000  0.009100  1.0  -0.0906
  C  C244  1  0.492900  0.963100  0.914200  1.0  0.3168
  C  C245  1  0.376400  0.191100  0.247600  1.0  -0.05
  C  C246  1  0.318400  0.224000  0.277200  1.0  -0.0583
  C  C247  1  0.352000  0.284300  0.294800  1.0  -0.0108
  C  C248  1  0.446100  0.308400  0.285600  1.0  -0.1163
  C  C249  1  0.503300  0.272800  0.259900  1.0  0.0095
  C  C250  1  0.472800  0.211500  0.239700  1.0  -0.1118
  C  C251  1  0.468300  0.375200  0.312700  1.0  0.21
  C  C252  1  0.702200  0.323400  0.024000  1.0  -0.0848
  C  C253  1  0.750000  0.292600  0.988200  1.0  -0.0311
  C  C254  1  0.804400  0.233600  0.994800  1.0  -0.0838
  C  C255  1  0.811100  0.205300  0.037200  1.0  0.0123
  C  C256  1  0.763400  0.236100  0.072900  1.0  -0.0934
  C  C257  1  0.708900  0.295200  0.066300  1.0  -0.0677
  C  C258  1  0.850900  0.138200  0.043600  1.0  0.2268
  N  N259  1  0.659700  0.341800  0.583500  1.0  -0.2957
  N  N260  1  0.623200  0.343300  0.512800  1.0  -0.3015
  N  N261  1  0.581900  0.392600  0.534100  1.0  -0.1326
  N  N262  1  0.602200  0.396000  0.573300  1.0  -0.0951
  N  N263  1  0.411700  0.476100  0.599300  1.0  -0.0483
  N  N264  1  0.377800  0.474900  0.557240  1.0  -0.1729
  N  N265  1  0.252500  0.478000  0.603000  1.0  -0.2934
  N  N266  1  0.338300  0.467500  0.627000  1.0  -0.1392
  N  N267  1  0.596900  0.599500  0.511300  1.0  -0.2472
  N  N268  1  0.570800  0.536400  0.531100  1.0  -0.1503
  N  N269  1  0.607000  0.536200  0.575500  1.0  -0.1409
  N  N270  1  0.655400  0.599100  0.583300  1.0  -0.23
  N  N271  1  0.154300  0.542300  0.684100  1.0  -0.0576
  N  N272  1  0.244000  0.544500  0.703900  1.0  -0.1341
  N  N273  1  0.247900  0.602500  0.728500  1.0  -0.1997
  N  N274  1  0.098700  0.596900  0.692600  1.0  -0.3307
  N  N275  1  0.166500  0.398100  0.681300  1.0  -0.2444
  N  N276  1  0.239300  0.397700  0.710400  1.0  -0.1151
  N  N277  1  0.241800  0.348000  0.737000  1.0  -0.2872
  N  N278  1  0.113500  0.345400  0.695800  1.0  -0.1546
  N  N279  1  0.340300  0.341800  0.416500  1.0  -0.2932
  N  N280  1  0.376800  0.343300  0.487200  1.0  -0.3026
  N  N281  1  0.418100  0.392600  0.465900  1.0  -0.1302
  N  N282  1  0.397800  0.396000  0.426700  1.0  -0.0975
  N  N283  1  0.588300  0.476100  0.400700  1.0  -0.0481
  N  N284  1  0.622200  0.474900  0.442760  1.0  -0.172
  N  N285  1  0.747500  0.478000  0.397000  1.0  -0.2923
  N  N286  1  0.661700  0.467500  0.373000  1.0  -0.1395
  N  N287  1  0.403100  0.599500  0.488700  1.0  -0.2445
  N  N288  1  0.429200  0.536400  0.468900  1.0  -0.1498
  N  N289  1  0.393000  0.536200  0.424500  1.0  -0.1435
  N  N290  1  0.344600  0.599100  0.416700  1.0  -0.2306
  N  N291  1  0.845700  0.542300  0.315900  1.0  -0.0598
  N  N292  1  0.756000  0.544500  0.296100  1.0  -0.1332
  N  N293  1  0.752100  0.602500  0.271500  1.0  -0.1985
  N  N294  1  0.901300  0.596900  0.307400  1.0  -0.3336
  N  N295  1  0.833500  0.398100  0.318700  1.0  -0.2444
  N  N296  1  0.760700  0.397700  0.289600  1.0  -0.1137
  N  N297  1  0.758200  0.348000  0.263000  1.0  -0.2905
  N  N298  1  0.886500  0.345400  0.304200  1.0  -0.1533
  N  N299  1  0.159700  0.841800  0.916500  1.0  -0.2934
  N  N300  1  0.123200  0.843300  0.987200  1.0  -0.3024
  N  N301  1  0.081900  0.892600  0.965900  1.0  -0.1319
  N  N302  1  0.102200  0.896000  0.926700  1.0  -0.0976
  N  N303  1  0.911700  0.976100  0.900700  1.0  -0.0486
  N  N304  1  0.877800  0.974900  0.942760  1.0  -0.1723
  N  N305  1  0.752500  0.978000  0.897000  1.0  -0.2918
  N  N306  1  0.838300  0.967500  0.873000  1.0  -0.1398
  N  N307  1  0.096900  0.099500  0.988700  1.0  -0.2445
  N  N308  1  0.070800  0.036400  0.968900  1.0  -0.1499
  N  N309  1  0.107000  0.036200  0.924500  1.0  -0.1425
  N  N310  1  0.155400  0.099100  0.916700  1.0  -0.2307
  N  N311  1  0.654300  0.042300  0.815900  1.0  -0.0583
  N  N312  1  0.744000  0.044500  0.796100  1.0  -0.1336
  N  N313  1  0.747900  0.102500  0.771500  1.0  -0.2004
  N  N314  1  0.598700  0.096900  0.807400  1.0  -0.3305
  N  N315  1  0.666500  0.898100  0.818700  1.0  -0.2448
  N  N316  1  0.739300  0.897700  0.789600  1.0  -0.1155
  N  N317  1  0.741800  0.848000  0.763000  1.0  -0.2894
  N  N318  1  0.613500  0.845400  0.804200  1.0  -0.1543
  N  N319  1  0.840300  0.841800  0.083500  1.0  -0.2958
  N  N320  1  0.876800  0.843300  0.012800  1.0  -0.3022
  N  N321  1  0.918100  0.892600  0.034100  1.0  -0.1313
  N  N322  1  0.897800  0.896000  0.073300  1.0  -0.0947
  N  N323  1  0.088300  0.976100  0.099300  1.0  -0.048
  N  N324  1  0.122200  0.974900  0.057240  1.0  -0.1723
  N  N325  1  0.247500  0.978000  0.103000  1.0  -0.2938
  N  N326  1  0.161700  0.967500  0.127000  1.0  -0.1387
  N  N327  1  0.903100  0.099500  0.011300  1.0  -0.2473
  N  N328  1  0.929200  0.036400  0.031100  1.0  -0.1502
  N  N329  1  0.893000  0.036200  0.075500  1.0  -0.1419
  N  N330  1  0.844600  0.099100  0.083300  1.0  -0.2305
  N  N331  1  0.345700  0.042300  0.184100  1.0  -0.0592
  N  N332  1  0.256000  0.044500  0.203900  1.0  -0.1337
  N  N333  1  0.252100  0.102500  0.228500  1.0  -0.199
  N  N334  1  0.401300  0.096900  0.192600  1.0  -0.3344
  N  N335  1  0.333500  0.898100  0.181300  1.0  -0.2444
  N  N336  1  0.260700  0.897700  0.210400  1.0  -0.1131
  N  N337  1  0.258200  0.848000  0.237000  1.0  -0.2884
  N  N338  1  0.386500  0.845400  0.195800  1.0  -0.1546
  O  O339  1  0.942700  0.037900  0.786900  1.0  -0.5602
  O  O340  1  0.092500  0.030200  0.832800  1.0  -0.6864
  O  O341  1  0.946700  0.893700  0.796900  1.0  -0.6575
  O  O342  1  0.065100  0.895800  0.838600  1.0  -0.673
  O  O343  1  0.915300  0.038900  0.549700  1.0  -0.5053
  O  O344  1  0.869500  0.035400  0.475300  1.0  -0.5488
  O  O345  1  0.974100  0.417700  0.396800  1.0  -0.5116
  O  O346  1  0.973800  0.525200  0.398400  1.0  -0.5339
  O  O347  1  0.889400  0.896100  0.476700  1.0  -0.5233
  O  O348  1  0.935100  0.897300  0.546300  1.0  -0.5754
  O  O349  1  0.057300  0.037900  0.213100  1.0  -0.5609
  O  O350  1  0.907500  0.030200  0.167200  1.0  -0.6866
  O  O351  1  0.053300  0.893700  0.203100  1.0  -0.6587
  O  O352  1  0.934900  0.895800  0.161400  1.0  -0.674
  O  O353  1  0.084700  0.038900  0.450300  1.0  -0.5056
  O  O354  1  0.130500  0.035400  0.524700  1.0  -0.5464
  O  O355  1  0.025900  0.417700  0.603200  1.0  -0.5105
  O  O356  1  0.026200  0.525200  0.601600  1.0  -0.5343
  O  O357  1  0.110600  0.896100  0.523300  1.0  -0.5229
  O  O358  1  0.064900  0.897300  0.453700  1.0  -0.5764
  O  O359  1  0.442700  0.537900  0.713100  1.0  -0.5608
  O  O360  1  0.592500  0.530200  0.667200  1.0  -0.6856
  O  O361  1  0.446700  0.393700  0.703100  1.0  -0.6594
  O  O362  1  0.565100  0.395800  0.661400  1.0  -0.6736
  O  O363  1  0.415300  0.538900  0.950300  1.0  -0.5045
  O  O364  1  0.369500  0.535400  0.024700  1.0  -0.5474
  O  O365  1  0.474100  0.917700  0.103200  1.0  -0.5113
  O  O366  1  0.473800  0.025200  0.101600  1.0  -0.5331
  O  O367  1  0.389400  0.396100  0.023300  1.0  -0.5236
  O  O368  1  0.435100  0.397300  0.953700  1.0  -0.5765
  O  O369  1  0.557300  0.537900  0.286900  1.0  -0.5603
  O  O370  1  0.407500  0.530200  0.332800  1.0  -0.6871
  O  O371  1  0.553300  0.393700  0.296900  1.0  -0.6564
  O  O372  1  0.434900  0.395800  0.338600  1.0  -0.6739
  O  O373  1  0.584700  0.538900  0.049700  1.0  -0.5065
  O  O374  1  0.630500  0.535400  0.975300  1.0  -0.5479
  O  O375  1  0.525900  0.917700  0.896800  1.0  -0.5102
  O  O376  1  0.526200  0.025200  0.898400  1.0  -0.5348
  O  O377  1  0.610600  0.396100  0.976700  1.0  -0.5236
  O  O378  1  0.564900  0.397300  0.046300  1.0  -0.576
