# generated using pymatgen
data_CuH2C8N4(OF)2
_symmetry_space_group_name_H-M   'P 1'
_cell_length_a   7.18500000
_cell_length_b   9.18540000
_cell_length_c   21.54400000
_cell_angle_alpha   90.00000000
_cell_angle_beta   90.00000000
_cell_angle_gamma   90.00000000
_symmetry_Int_Tables_number   1
_chemical_formula_structural   CuH2C8N4(OF)2
_chemical_formula_sum   'Cu4 H8 C32 N16 O8 F8'
_cell_volume   1421.84150086
_cell_formula_units_Z   4
loop_
 _symmetry_equiv_pos_site_id
 _symmetry_equiv_pos_as_xyz
  1  'x, y, z'
loop_
 _atom_site_type_symbol
 _atom_site_label
 _atom_site_symmetry_multiplicity
 _atom_site_fract_x
 _atom_site_fract_y
 _atom_site_fract_z
 _atom_site_occupancy
 _atom_site_charge
  Cu  Cu1  1  0.500000  0.500000  0.403600  1.0  0.7272
  Cu  Cu2  1  0.000000  0.000000  0.903600  1.0  0.7272
  Cu  Cu3  1  0.000000  0.500000  0.403600  1.0  0.7272
  Cu  Cu4  1  0.500000  0.000000  0.903600  1.0  0.7272
  H  H5  1  0.027500  0.279700  0.171200  1.0  0.1193
  H  H6  1  0.527500  0.779700  0.671200  1.0  0.1193
  H  H7  1  0.972500  0.720300  0.171200  1.0  0.1185
  H  H8  1  0.472500  0.220300  0.671200  1.0  0.1185
  H  H9  1  0.527500  0.720300  0.171200  1.0  0.1196
  H  H10  1  0.027500  0.220300  0.671200  1.0  0.1196
  H  H11  1  0.472500  0.279700  0.171200  1.0  0.119
  H  H12  1  0.972500  0.779700  0.671200  1.0  0.119
  C  C13  1  0.910600  0.210400  0.095100  1.0  0.2326
  C  C14  1  0.913600  0.257000  0.153200  1.0  -0.0232
  C  C15  1  0.410600  0.710400  0.595100  1.0  0.2326
  C  C16  1  0.413600  0.757000  0.653200  1.0  -0.0232
  C  C17  1  0.089400  0.789600  0.095100  1.0  0.2325
  C  C18  1  0.086400  0.743000  0.153200  1.0  -0.0246
  C  C19  1  0.589400  0.289600  0.595100  1.0  0.2325
  C  C20  1  0.586400  0.243000  0.653200  1.0  -0.0246
  C  C21  1  0.410600  0.789600  0.095100  1.0  0.2311
  C  C22  1  0.413600  0.743000  0.153200  1.0  -0.0241
  C  C23  1  0.910600  0.289600  0.595100  1.0  0.2311
  C  C24  1  0.913600  0.243000  0.653200  1.0  -0.0241
  C  C25  1  0.589400  0.210400  0.095100  1.0  0.2293
  C  C26  1  0.586400  0.257000  0.153200  1.0  -0.026
  C  C27  1  0.089400  0.710400  0.595100  1.0  0.2293
  C  C28  1  0.086400  0.757000  0.653200  1.0  -0.026
  C  C29  1  0.750000  0.182400  0.060400  1.0  -0.041
  C  C30  1  0.750000  0.314000  0.251600  1.0  0.2947
  C  C31  1  0.750000  0.138800  0.995600  1.0  0.7668
  C  C32  1  0.750000  0.273300  0.188700  1.0  -0.0327
  C  C33  1  0.250000  0.682400  0.560400  1.0  -0.041
  C  C34  1  0.250000  0.814000  0.751600  1.0  0.2947
  C  C35  1  0.250000  0.638800  0.495600  1.0  0.7668
  C  C36  1  0.250000  0.773300  0.688700  1.0  -0.0327
  C  C37  1  0.250000  0.817600  0.060400  1.0  -0.0413
  C  C38  1  0.250000  0.686000  0.251600  1.0  0.2958
  C  C39  1  0.250000  0.861200  0.995600  1.0  0.7661
  C  C40  1  0.250000  0.726700  0.188700  1.0  -0.0329
  C  C41  1  0.750000  0.317600  0.560400  1.0  -0.0413
  C  C42  1  0.750000  0.186000  0.751600  1.0  0.2958
  C  C43  1  0.750000  0.361200  0.495600  1.0  0.7661
  C  C44  1  0.750000  0.226700  0.688700  1.0  -0.0329
  N  N45  1  0.649400  0.400800  0.338000  1.0  -0.1825
  N  N46  1  0.592900  0.351500  0.285500  1.0  -0.2085
  N  N47  1  0.149400  0.900800  0.838000  1.0  -0.1825
  N  N48  1  0.092900  0.851500  0.785500  1.0  -0.2085
  N  N49  1  0.350600  0.599200  0.338000  1.0  -0.1812
  N  N50  1  0.407100  0.648500  0.285500  1.0  -0.2073
  N  N51  1  0.850600  0.099200  0.838000  1.0  -0.1812
  N  N52  1  0.907100  0.148500  0.785500  1.0  -0.2073
  N  N53  1  0.149400  0.599200  0.338000  1.0  -0.1819
  N  N54  1  0.092900  0.648500  0.285500  1.0  -0.2083
  N  N55  1  0.649400  0.099200  0.838000  1.0  -0.1819
  N  N56  1  0.592900  0.148500  0.785500  1.0  -0.2083
  N  N57  1  0.850600  0.400800  0.338000  1.0  -0.1814
  N  N58  1  0.907100  0.351500  0.285500  1.0  -0.2085
  N  N59  1  0.350600  0.900800  0.838000  1.0  -0.1814
  N  N60  1  0.407100  0.851500  0.785500  1.0  -0.2085
  O  O61  1  0.605900  0.117900  0.971000  1.0  -0.5953
  O  O62  1  0.105900  0.617900  0.471000  1.0  -0.5953
  O  O63  1  0.394100  0.882100  0.971000  1.0  -0.5951
  O  O64  1  0.894100  0.382100  0.471000  1.0  -0.5951
  O  O65  1  0.105900  0.882100  0.971000  1.0  -0.5955
  O  O66  1  0.605900  0.382100  0.471000  1.0  -0.5955
  O  O67  1  0.894100  0.117900  0.971000  1.0  -0.5947
  O  O68  1  0.394100  0.617900  0.471000  1.0  -0.5947
  F  F69  1  0.095000  0.210000  0.070500  1.0  -0.1994
  F  F70  1  0.595000  0.710000  0.570500  1.0  -0.1994
  F  F71  1  0.905000  0.790000  0.070500  1.0  -0.1971
  F  F72  1  0.405000  0.290000  0.570500  1.0  -0.1971
  F  F73  1  0.595000  0.790000  0.070500  1.0  -0.1995
  F  F74  1  0.095000  0.290000  0.570500  1.0  -0.1995
  F  F75  1  0.405000  0.210000  0.070500  1.0  -0.1974
  F  F76  1  0.905000  0.710000  0.570500  1.0  -0.1974
