# generated using pymatgen
data_MnH6(C3O)4
_symmetry_space_group_name_H-M   'P 1'
_cell_length_a   7.52730000
_cell_length_b   9.65200000
_cell_length_c   22.10600000
_cell_angle_alpha   90.00000000
_cell_angle_beta   90.00000000
_cell_angle_gamma   110.75900000
_symmetry_Int_Tables_number   1
_chemical_formula_structural   MnH6(C3O)4
_chemical_formula_sum   'Mn4 H24 C48 O16'
_cell_volume   1501.81093261
_cell_formula_units_Z   4
loop_
 _symmetry_equiv_pos_site_id
 _symmetry_equiv_pos_as_xyz
  1  'x, y, z'
loop_
 _atom_site_type_symbol
 _atom_site_label
 _atom_site_symmetry_multiplicity
 _atom_site_fract_x
 _atom_site_fract_y
 _atom_site_fract_z
 _atom_site_occupancy
 _atom_site_charge
  Mn  Mn1  1  0.630940  0.650310  0.753670  1.0  1.0997
  Mn  Mn2  1  0.869060  0.349690  0.253670  1.0  1.0998
  Mn  Mn3  1  0.369060  0.349690  0.246330  1.0  1.0995
  Mn  Mn4  1  0.130940  0.650310  0.746330  1.0  1.0996
  H  H5  1  0.103500  0.622400  0.607300  1.0  0.0935
  H  H6  1  0.556600  0.428400  0.560300  1.0  0.1047
  H  H7  1  0.642900  0.374000  0.466500  1.0  0.1058
  H  H8  1  0.773100  0.927300  0.905300  1.0  0.1073
  H  H9  1  0.280700  0.879800  0.907200  1.0  0.0998
  H  H10  1  0.667500  0.033000  0.995900  1.0  0.1056
  H  H11  1  0.396500  0.377600  0.107300  1.0  0.0931
  H  H12  1  0.943400  0.571600  0.060300  1.0  0.105
  H  H13  1  0.857100  0.626000  0.966500  1.0  0.1056
  H  H14  1  0.726900  0.072700  0.405300  1.0  0.107
  H  H15  1  0.219300  0.120200  0.407200  1.0  0.0997
  H  H16  1  0.832500  0.967000  0.495900  1.0  0.1056
  H  H17  1  0.896500  0.377600  0.392700  1.0  0.093
  H  H18  1  0.443400  0.571600  0.439700  1.0  0.105
  H  H19  1  0.357100  0.626000  0.533500  1.0  0.1056
  H  H20  1  0.226900  0.072700  0.094700  1.0  0.1074
  H  H21  1  0.719300  0.120200  0.092800  1.0  0.1
  H  H22  1  0.332500  0.967000  0.004100  1.0  0.1055
  H  H23  1  0.603500  0.622400  0.892700  1.0  0.0933
  H  H24  1  0.056600  0.428400  0.939700  1.0  0.1044
  H  H25  1  0.142900  0.374000  0.033500  1.0  0.1057
  H  H26  1  0.273100  0.927300  0.594700  1.0  0.1075
  H  H27  1  0.780700  0.879800  0.592800  1.0  0.0998
  H  H28  1  0.167500  0.033000  0.504100  1.0  0.1052
  C  C29  1  0.760700  0.562310  0.654780  1.0  0.6837
  C  C30  1  0.824500  0.530130  0.593730  1.0  -0.1521
  C  C31  1  0.012100  0.571430  0.579100  1.0  -0.0694
  C  C32  1  0.684600  0.455400  0.550520  1.0  -0.0457
  C  C33  1  0.736400  0.422800  0.494540  1.0  -0.1177
  C  C34  1  0.070300  0.537970  0.521370  1.0  0.0418
  C  C35  1  0.982300  0.831350  0.833710  1.0  0.7231
  C  C36  1  0.021000  0.897400  0.896310  1.0  -0.1285
  C  C37  1  0.885900  0.937380  0.925240  1.0  -0.0636
  C  C38  1  0.914700  0.993810  0.984980  1.0  0.0369
  C  C39  1  0.189800  0.908400  0.926660  1.0  -0.0403
  C  C40  1  0.779300  0.039100  0.015500  1.0  -0.1149
  C  C41  1  0.739300  0.437690  0.154780  1.0  0.6841
  C  C42  1  0.675500  0.469870  0.093730  1.0  -0.1516
  C  C43  1  0.487900  0.428570  0.079100  1.0  -0.0712
  C  C44  1  0.815400  0.544600  0.050520  1.0  -0.0454
  C  C45  1  0.763600  0.577200  0.994540  1.0  -0.1168
  C  C46  1  0.429700  0.462030  0.021370  1.0  0.0415
  C  C47  1  0.517700  0.168650  0.333710  1.0  0.72
  C  C48  1  0.479000  0.102600  0.396310  1.0  -0.1276
  C  C49  1  0.614100  0.062620  0.425240  1.0  -0.0636
  C  C50  1  0.585300  0.006190  0.484980  1.0  0.0373
  C  C51  1  0.310200  0.091600  0.426660  1.0  -0.0406
  C  C52  1  0.720700  0.960900  0.515500  1.0  -0.1159
  C  C53  1  0.239300  0.437690  0.345220  1.0  0.684
  C  C54  1  0.175500  0.469870  0.406270  1.0  -0.1513
  C  C55  1  0.987900  0.428570  0.420900  1.0  -0.0701
  C  C56  1  0.315400  0.544600  0.449480  1.0  -0.0457
  C  C57  1  0.263600  0.577200  0.505460  1.0  -0.108
  C  C58  1  0.929700  0.462030  0.478630  1.0  0.0415
  C  C59  1  0.017700  0.168650  0.166290  1.0  0.7172
  C  C60  1  0.979000  0.102600  0.103690  1.0  -0.1275
  C  C61  1  0.114100  0.062620  0.074760  1.0  -0.0662
  C  C62  1  0.085300  0.006190  0.015020  1.0  0.0375
  C  C63  1  0.810200  0.091600  0.073340  1.0  -0.04
  C  C64  1  0.220700  0.960900  0.984500  1.0  -0.1246
  C  C65  1  0.260700  0.562310  0.845220  1.0  0.6835
  C  C66  1  0.324500  0.530130  0.906270  1.0  -0.1515
  C  C67  1  0.512100  0.571430  0.920900  1.0  -0.0691
  C  C68  1  0.184600  0.455400  0.949480  1.0  -0.0459
  C  C69  1  0.236400  0.422800  0.005460  1.0  -0.1083
  C  C70  1  0.570300  0.537970  0.978630  1.0  0.0416
  C  C71  1  0.482300  0.831350  0.666290  1.0  0.7179
  C  C72  1  0.521000  0.897400  0.603690  1.0  -0.1282
  C  C73  1  0.385900  0.937380  0.574760  1.0  -0.0667
  C  C74  1  0.414700  0.993810  0.515020  1.0  0.0371
  C  C75  1  0.689800  0.908400  0.573340  1.0  -0.0409
  C  C76  1  0.279300  0.039100  0.484500  1.0  -0.124
  O  O77  1  0.883200  0.634280  0.694120  1.0  -0.6684
  O  O78  1  0.587520  0.520990  0.665960  1.0  -0.5775
  O  O79  1  0.814710  0.792990  0.815360  1.0  -0.6126
  O  O80  1  0.120230  0.820730  0.804950  1.0  -0.6037
  O  O81  1  0.616800  0.365720  0.194120  1.0  -0.6698
  O  O82  1  0.912480  0.479010  0.165960  1.0  -0.5777
  O  O83  1  0.685290  0.207010  0.315360  1.0  -0.612
  O  O84  1  0.379770  0.179270  0.304950  1.0  -0.6042
  O  O85  1  0.116800  0.365720  0.305880  1.0  -0.6706
  O  O86  1  0.412480  0.479010  0.334040  1.0  -0.5775
  O  O87  1  0.185290  0.207010  0.184640  1.0  -0.6107
  O  O88  1  0.879770  0.179270  0.195050  1.0  -0.6082
  O  O89  1  0.383200  0.634280  0.805880  1.0  -0.6701
  O  O90  1  0.087520  0.520990  0.834040  1.0  -0.5775
  O  O91  1  0.314710  0.792990  0.684640  1.0  -0.6121
  O  O92  1  0.620230  0.820730  0.695050  1.0  -0.6068
