# generated using pymatgen
data_ZnCo2P2H6(C8O7)2
_symmetry_space_group_name_H-M   'P 1'
_cell_length_a   17.28210000
_cell_length_b   17.28210000
_cell_length_c   17.59850000
_cell_angle_alpha   117.12600000
_cell_angle_beta   117.12700000
_cell_angle_gamma   94.09410000
_symmetry_Int_Tables_number   1
_chemical_formula_structural   ZnCo2P2H6(C8O7)2
_chemical_formula_sum   'Zn4 Co8 P8 H24 C64 O56'
_cell_volume   3896.03373431
_cell_formula_units_Z   4
loop_
 _symmetry_equiv_pos_site_id
 _symmetry_equiv_pos_as_xyz
  1  'x, y, z'
loop_
 _atom_site_type_symbol
 _atom_site_label
 _atom_site_symmetry_multiplicity
 _atom_site_fract_x
 _atom_site_fract_y
 _atom_site_fract_z
 _atom_site_occupancy
 _atom_site_charge
  Zn  Zn1  1  0.222760  0.734840  0.055380  1.0  1.131
  Zn  Zn2  1  0.679460  0.167380  0.944620  1.0  1.1312
  Zn  Zn3  1  0.917380  0.929460  0.444620  1.0  1.1298
  Zn  Zn4  1  0.484840  0.472760  0.555380  1.0  1.1297
  Co  Co5  1  0.722960  0.781160  0.488460  1.0  1.0851
  Co  Co6  1  0.106880  0.486420  0.885120  1.0  1.0434
  Co  Co7  1  0.292700  0.234500  0.511540  1.0  1.0834
  Co  Co8  1  0.601300  0.221760  0.114880  1.0  1.0429
  Co  Co9  1  0.984500  0.542700  0.011540  1.0  1.0869
  Co  Co10  1  0.971760  0.851300  0.614880  1.0  1.0433
  Co  Co11  1  0.531160  0.972960  0.988460  1.0  1.0814
  Co  Co12  1  0.236420  0.356880  0.385120  1.0  1.0425
  P  P13  1  0.196100  0.597660  0.121540  1.0  1.4536
  P  P14  1  0.388000  0.262560  0.405820  1.0  1.5413
  P  P15  1  0.476120  0.074560  0.878460  1.0  1.4551
  P  P16  1  0.856740  0.982180  0.594180  1.0  1.5438
  P  P17  1  0.824560  0.726120  0.378460  1.0  1.4571
  P  P18  1  0.732180  0.106740  0.094180  1.0  1.5412
  P  P19  1  0.347660  0.446100  0.621540  1.0  1.4582
  P  P20  1  0.012560  0.638000  0.905820  1.0  1.5411
  H  H21  1  0.388700  0.682100  0.248000  1.0  0.1216
  H  H22  1  0.480000  0.601800  0.442000  1.0  0.1266
  H  H23  1  0.208300  0.511300  0.233400  1.0  0.1219
  H  H24  1  0.321800  0.064600  0.298800  1.0  0.1348
  H  H25  1  0.424200  0.975800  0.122200  1.0  0.1275
  H  H26  1  0.481300  0.248100  0.299800  1.0  0.1306
  H  H27  1  0.434100  0.140700  0.752000  1.0  0.1213
  H  H28  1  0.159800  0.038000  0.558000  1.0  0.1278
  H  H29  1  0.277900  0.974900  0.766600  1.0  0.1213
  H  H30  1  0.765800  0.023000  0.701200  1.0  0.1349
  H  H31  1  0.853600  0.302000  0.877800  1.0  0.1268
  H  H32  1  0.948300  0.181500  0.700200  1.0  0.1293
  H  H33  1  0.890700  0.684100  0.252000  1.0  0.1224
  H  H34  1  0.788000  0.409800  0.058000  1.0  0.128
  H  H35  1  0.724900  0.527900  0.266600  1.0  0.1213
  H  H36  1  0.773000  0.015800  0.201200  1.0  0.1348
  H  H37  1  0.052000  0.103600  0.377800  1.0  0.1272
  H  H38  1  0.931500  0.198300  0.200200  1.0  0.129
  H  H39  1  0.432100  0.638700  0.748000  1.0  0.1222
  H  H40  1  0.351800  0.730000  0.942000  1.0  0.1263
  H  H41  1  0.261300  0.458300  0.733400  1.0  0.1229
  H  H42  1  0.814600  0.571800  0.798800  1.0  0.1348
  H  H43  1  0.725800  0.674200  0.622200  1.0  0.1264
  H  H44  1  0.998100  0.731300  0.799800  1.0  0.1294
  C  C45  1  0.285300  0.598700  0.228400  1.0  -0.0781
  C  C46  1  0.376100  0.648900  0.272800  1.0  0.0593
  C  C47  1  0.448900  0.651300  0.353400  1.0  -0.1542
  C  C48  1  0.549800  0.711000  0.399600  1.0  0.6596
  C  C49  1  0.431300  0.600700  0.388000  1.0  0.0225
  C  C50  1  0.340100  0.547500  0.342800  1.0  -0.1705
  C  C51  1  0.324400  0.489200  0.382000  1.0  0.7038
  C  C52  1  0.269000  0.547200  0.263800  1.0  0.0563
  C  C53  1  0.401300  0.170700  0.314800  1.0  -0.1684
  C  C54  1  0.357300  0.077900  0.276600  1.0  0.0129
  C  C55  1  0.367300  0.005700  0.205400  1.0  -0.1409
  C  C56  1  0.315100  0.910900  0.164400  1.0  0.6731
  C  C57  1  0.418300  0.024500  0.169800  1.0  0.061
  C  C58  1  0.460500  0.115300  0.204800  1.0  -0.1302
  C  C59  1  0.513700  0.133100  0.162600  1.0  0.7179
  C  C60  1  0.452400  0.187200  0.276200  1.0  0.0472
  C  C61  1  0.370300  0.056900  0.771600  1.0  -0.0812
  C  C62  1  0.376100  0.103300  0.727200  1.0  0.0607
  C  C63  1  0.297900  0.095500  0.646600  1.0  -0.1523
  C  C64  1  0.311400  0.150200  0.600400  1.0  0.6618
  C  C65  1  0.212700  0.043300  0.612000  1.0  0.023
  C  C66  1  0.204700  0.997300  0.657200  1.0  -0.1708
  C  C67  1  0.107200  0.942400  0.618000  1.0  0.7004
  C  C68  1  0.283400  0.005200  0.736200  1.0  0.057
  C  C69  1  0.855900  0.086500  0.685200  1.0  -0.1685
  C  C70  1  0.801300  0.080700  0.723400  1.0  0.0159
  C  C71  1  0.800300  0.161900  0.794600  1.0  -0.1411
  C  C72  1  0.746500  0.150700  0.835600  1.0  0.6727
  C  C73  1  0.854700  0.248500  0.830200  1.0  0.0602
  C  C74  1  0.910500  0.255700  0.795200  1.0  -0.1283
  C  C75  1  0.970500  0.351100  0.837400  1.0  0.7148
  C  C76  1  0.911000  0.176200  0.723800  1.0  0.046
  C  C77  1  0.806900  0.620300  0.271600  1.0  -0.0804
  C  C78  1  0.853300  0.626100  0.227200  1.0  0.0614
  C  C79  1  0.845500  0.547900  0.146600  1.0  -0.1532
  C  C80  1  0.900200  0.561400  0.100400  1.0  0.6619
  C  C81  1  0.793300  0.462700  0.112000  1.0  0.0242
  C  C82  1  0.747300  0.454700  0.157200  1.0  -0.1706
  C  C83  1  0.692400  0.357200  0.118000  1.0  0.7017
  C  C84  1  0.755200  0.533400  0.236200  1.0  0.0555
  C  C85  1  0.836500  0.105900  0.185200  1.0  -0.1683
  C  C86  1  0.830700  0.051300  0.223400  1.0  0.0151
  C  C87  1  0.911900  0.050300  0.294600  1.0  -0.1414
  C  C88  1  0.900700  0.996500  0.335600  1.0  0.6733
  C  C89  1  0.998500  0.104700  0.330200  1.0  0.0595
  C  C90  1  0.005700  0.160500  0.295200  1.0  -0.1287
  C  C91  1  0.101100  0.220500  0.337400  1.0  0.7138
  C  C92  1  0.926200  0.161000  0.223800  1.0  0.0485
  C  C93  1  0.348700  0.535300  0.728400  1.0  -0.0796
  C  C94  1  0.398900  0.626100  0.772800  1.0  0.0585
  C  C95  1  0.401300  0.698900  0.853400  1.0  -0.1547
  C  C96  1  0.461000  0.799800  0.899600  1.0  0.6602
  C  C97  1  0.350700  0.681300  0.888000  1.0  0.0216
  C  C98  1  0.297500  0.590100  0.842800  1.0  -0.1701
  C  C99  1  0.239200  0.574400  0.882000  1.0  0.7031
  C  C100  1  0.297200  0.519000  0.763800  1.0  0.056
  C  C101  1  0.920700  0.651300  0.814800  1.0  -0.1661
  C  C102  1  0.827900  0.607300  0.776600  1.0  0.0123
  C  C103  1  0.755700  0.617300  0.705400  1.0  -0.1405
  C  C104  1  0.660900  0.565100  0.664400  1.0  0.6699
  C  C105  1  0.774500  0.668300  0.669800  1.0  0.0582
  C  C106  1  0.865300  0.710500  0.704800  1.0  -0.1307
  C  C107  1  0.883100  0.763700  0.662600  1.0  0.7185
  C  C108  1  0.937200  0.702400  0.776200  1.0  0.0496
  O  O109  1  0.109300  0.581500  0.123800  1.0  -0.7539
  O  O110  1  0.184700  0.519500  0.024800  1.0  -0.7216
  O  O111  1  0.229200  0.693000  0.140400  1.0  -0.7493
  O  O112  1  0.564100  0.758100  0.369200  1.0  -0.5314
  O  O113  1  0.614000  0.709200  0.471200  1.0  -0.5417
  O  O114  1  0.390900  0.498500  0.458600  1.0  -0.6567
  O  O115  1  0.240400  0.436200  0.333000  1.0  -0.5736
  O  O116  1  0.302800  0.277000  0.343200  1.0  -0.7411
  O  O117  1  0.374700  0.227900  0.465200  1.0  -0.7502
  O  O118  1  0.476300  0.347300  0.473200  1.0  -0.7409
  O  O119  1  0.268200  0.895800  0.194600  1.0  -0.5893
  O  O120  1  0.316100  0.843300  0.094000  1.0  -0.5571
  O  O121  1  0.524900  0.067500  0.105400  1.0  -0.6957
  O  O122  1  0.545600  0.214800  0.189800  1.0  -0.5805
  O  O123  1  0.457700  0.985500  0.876200  1.0  -0.7541
  O  O124  1  0.494700  0.159900  0.975200  1.0  -0.7226
  O  O125  1  0.552600  0.088800  0.859600  1.0  -0.7496
  O  O126  1  0.388900  0.194900  0.630800  1.0  -0.5336
  O  O127  1  0.238000  0.142800  0.528800  1.0  -0.5417
  O  O128  1  0.039900  0.932300  0.541400  1.0  -0.6598
  O  O129  1  0.103200  0.907400  0.667000  1.0  -0.575
  O  O130  1  0.933800  0.959600  0.656800  1.0  -0.74
  O  O131  1  0.762700  0.909500  0.534800  1.0  -0.7502
  O  O132  1  0.874100  0.003100  0.526800  1.0  -0.7413
  O  O133  1  0.701200  0.073600  0.805400  1.0  -0.5848
  O  O134  1  0.749300  0.222100  0.906000  1.0  -0.5578
  O  O135  1  0.962100  0.419500  0.894600  1.0  -0.6959
  O  O136  1  0.025000  0.355800  0.810200  1.0  -0.5856
  O  O137  1  0.735500  0.707700  0.376200  1.0  -0.7535
  O  O138  1  0.909900  0.744700  0.475200  1.0  -0.7226
  O  O139  1  0.838800  0.802600  0.359600  1.0  -0.7488
  O  O140  1  0.944900  0.638900  0.130800  1.0  -0.527
  O  O141  1  0.892800  0.488000  0.028800  1.0  -0.5418
  O  O142  1  0.682300  0.289900  0.041400  1.0  -0.66
  O  O143  1  0.657400  0.353200  0.167000  1.0  -0.5755
  O  O144  1  0.709600  0.183800  0.156800  1.0  -0.7414
  O  O145  1  0.659500  0.012700  0.034800  1.0  -0.752
  O  O146  1  0.753100  0.124100  0.026800  1.0  -0.7394
  O  O147  1  0.823600  0.951200  0.305400  1.0  -0.5893
  O  O148  1  0.972100  0.999300  0.406000  1.0  -0.5576
  O  O149  1  0.169500  0.212100  0.394600  1.0  -0.6938
  O  O150  1  0.105800  0.275000  0.310200  1.0  -0.5844
  O  O151  1  0.331500  0.359300  0.623800  1.0  -0.7553
  O  O152  1  0.269500  0.434700  0.524800  1.0  -0.7197
  O  O153  1  0.443000  0.479200  0.640400  1.0  -0.7466
  O  O154  1  0.508100  0.814100  0.869200  1.0  -0.5292
  O  O155  1  0.459200  0.864000  0.971200  1.0  -0.5421
  O  O156  1  0.248500  0.640900  0.958600  1.0  -0.6598
  O  O157  1  0.186200  0.490400  0.833000  1.0  -0.5749
  O  O158  1  0.027000  0.552800  0.843200  1.0  -0.7434
  O  O159  1  0.977900  0.624700  0.965200  1.0  -0.752
  O  O160  1  0.097300  0.726300  0.973200  1.0  -0.7405
  O  O161  1  0.645800  0.518200  0.694600  1.0  -0.5895
  O  O162  1  0.593300  0.566100  0.594000  1.0  -0.5555
  O  O163  1  0.817500  0.774900  0.605400  1.0  -0.694
  O  O164  1  0.964800  0.795600  0.689800  1.0  -0.5865
