# generated using pymatgen
data_SrH2C6SO4
_symmetry_space_group_name_H-M   'P 1'
_cell_length_a   6.78620000
_cell_length_b   11.09500000
_cell_length_c   18.35100000
_cell_angle_alpha   90.00000000
_cell_angle_beta   95.68800000
_cell_angle_gamma   90.00000000
_symmetry_Int_Tables_number   1
_chemical_formula_structural   SrH2C6SO4
_chemical_formula_sum   'Sr4 H8 C24 S4 O16'
_cell_volume   1374.89679926
_cell_formula_units_Z   4
loop_
 _symmetry_equiv_pos_site_id
 _symmetry_equiv_pos_as_xyz
  1  'x, y, z'
loop_
 _atom_site_type_symbol
 _atom_site_label
 _atom_site_symmetry_multiplicity
 _atom_site_fract_x
 _atom_site_fract_y
 _atom_site_fract_z
 _atom_site_occupancy
 _atom_site_charge
  Sr  Sr1  1  0.742800  0.104840  0.020630  1.0  1.6012
  Sr  Sr2  1  0.757200  0.604840  0.479370  1.0  1.6014
  Sr  Sr3  1  0.257200  0.895160  0.979370  1.0  1.6002
  Sr  Sr4  1  0.242800  0.395160  0.520630  1.0  1.6005
  H  H5  1  0.103100  0.308100  0.817900  1.0  0.0866
  H  H6  1  0.109300  0.395300  0.696700  1.0  0.0994
  H  H7  1  0.396900  0.808100  0.682100  1.0  0.0861
  H  H8  1  0.390700  0.895300  0.803300  1.0  0.0992
  H  H9  1  0.896900  0.691900  0.182100  1.0  0.0859
  H  H10  1  0.890700  0.604700  0.303300  1.0  0.0997
  H  H11  1  0.603100  0.191900  0.317900  1.0  0.0866
  H  H12  1  0.609300  0.104700  0.196700  1.0  0.0993
  C  C13  1  0.810000  0.272800  0.796100  1.0  -0.2113
  C  C14  1  0.993000  0.313000  0.783700  1.0  -0.0784
  C  C15  1  0.996000  0.362600  0.713700  1.0  -0.0853
  C  C16  1  0.815000  0.358200  0.672300  1.0  -0.2339
  C  C17  1  0.766000  0.399100  0.595800  1.0  0.7411
  C  C18  1  0.753000  0.217100  0.865700  1.0  0.7146
  C  C19  1  0.690000  0.772800  0.703900  1.0  -0.2114
  C  C20  1  0.507000  0.813000  0.716300  1.0  -0.0774
  C  C21  1  0.504000  0.862600  0.786300  1.0  -0.0848
  C  C22  1  0.685000  0.858200  0.827700  1.0  -0.2323
  C  C23  1  0.734000  0.899100  0.904200  1.0  0.7405
  C  C24  1  0.747000  0.717100  0.634300  1.0  0.7145
  C  C25  1  0.190000  0.727200  0.203900  1.0  -0.2113
  C  C26  1  0.007000  0.687000  0.216300  1.0  -0.077
  C  C27  1  0.004000  0.637400  0.286300  1.0  -0.085
  C  C28  1  0.185000  0.641800  0.327700  1.0  -0.2324
  C  C29  1  0.234000  0.600900  0.404200  1.0  0.7405
  C  C30  1  0.247000  0.782900  0.134300  1.0  0.7152
  C  C31  1  0.310000  0.227200  0.296100  1.0  -0.2109
  C  C32  1  0.493000  0.187000  0.283700  1.0  -0.0777
  C  C33  1  0.496000  0.137400  0.213700  1.0  -0.0858
  C  C34  1  0.315000  0.141800  0.172300  1.0  -0.2338
  C  C35  1  0.266000  0.100900  0.095800  1.0  0.7381
  C  C36  1  0.253000  0.282900  0.365700  1.0  0.7151
  S  S37  1  0.639400  0.294800  0.721340  1.0  0.1385
  S  S38  1  0.860600  0.794800  0.778660  1.0  0.1375
  S  S39  1  0.360600  0.705200  0.278660  1.0  0.1372
  S  S40  1  0.139400  0.205200  0.221340  1.0  0.1384
  O  O41  1  0.895400  0.191200  0.912900  1.0  -0.646
  O  O42  1  0.576400  0.202700  0.874600  1.0  -0.5822
  O  O43  1  0.590400  0.399800  0.569400  1.0  -0.8356
  O  O44  1  0.908600  0.433200  0.561600  1.0  -0.7094
  O  O45  1  0.604600  0.691200  0.587100  1.0  -0.6503
  O  O46  1  0.923600  0.702700  0.625400  1.0  -0.5803
  O  O47  1  0.909600  0.899800  0.930600  1.0  -0.8362
  O  O48  1  0.591400  0.933200  0.938400  1.0  -0.707
  O  O49  1  0.104600  0.808800  0.087100  1.0  -0.6505
  O  O50  1  0.423600  0.797300  0.125400  1.0  -0.5809
  O  O51  1  0.409600  0.600200  0.430600  1.0  -0.8357
  O  O52  1  0.091400  0.566800  0.438400  1.0  -0.7068
  O  O53  1  0.395400  0.308800  0.412900  1.0  -0.6451
  O  O54  1  0.076400  0.297300  0.374600  1.0  -0.5801
  O  O55  1  0.090400  0.100200  0.069400  1.0  -0.8346
  O  O56  1  0.408600  0.066800  0.061600  1.0  -0.708
