# generated using pymatgen
data_SrH2C6SO4
_symmetry_space_group_name_H-M   'P 1'
_cell_length_a   6.13600000
_cell_length_b   16.86300000
_cell_length_c   12.23700000
_cell_angle_alpha   90.00000000
_cell_angle_beta   92.17900000
_cell_angle_gamma   90.00000000
_symmetry_Int_Tables_number   1
_chemical_formula_structural   SrH2C6SO4
_chemical_formula_sum   'Sr4 H8 C24 S4 O16'
_cell_volume   1265.26358035
_cell_formula_units_Z   4
loop_
 _symmetry_equiv_pos_site_id
 _symmetry_equiv_pos_as_xyz
  1  'x, y, z'
loop_
 _atom_site_type_symbol
 _atom_site_label
 _atom_site_symmetry_multiplicity
 _atom_site_fract_x
 _atom_site_fract_y
 _atom_site_fract_z
 _atom_site_occupancy
 _atom_site_charge
  Sr  Sr1  1  0.219290  0.484030  0.911790  1.0  1.6323
  Sr  Sr2  1  0.280710  0.984030  0.588210  1.0  1.632
  Sr  Sr3  1  0.780710  0.515970  0.088210  1.0  1.6332
  Sr  Sr4  1  0.719290  0.015970  0.411790  1.0  1.633
  H  H5  1  0.887100  0.707500  0.137500  1.0  0.1155
  H  H6  1  0.845800  0.827600  0.245600  1.0  0.117
  H  H7  1  0.612900  0.207500  0.362500  1.0  0.1155
  H  H8  1  0.654200  0.327600  0.254400  1.0  0.1171
  H  H9  1  0.112900  0.292500  0.862500  1.0  0.1155
  H  H10  1  0.154200  0.172400  0.754400  1.0  0.1172
  H  H11  1  0.387100  0.792500  0.637500  1.0  0.1156
  H  H12  1  0.345800  0.672400  0.745600  1.0  0.1169
  C  C13  1  0.208000  0.894600  0.365900  1.0  0.7763
  C  C14  1  0.304200  0.631500  0.125900  1.0  0.7606
  C  C15  1  0.210900  0.704500  0.177900  1.0  -0.1978
  C  C16  1  0.002000  0.732000  0.176000  1.0  -0.0663
  C  C17  1  0.978200  0.801600  0.238800  1.0  -0.0705
  C  C18  1  0.168400  0.826800  0.288200  1.0  -0.2032
  C  C19  1  0.292000  0.394600  0.134100  1.0  0.7752
  C  C20  1  0.195800  0.131500  0.374100  1.0  0.7628
  C  C21  1  0.289100  0.204500  0.322100  1.0  -0.1981
  C  C22  1  0.498000  0.232000  0.324000  1.0  -0.0675
  C  C23  1  0.521800  0.301600  0.261200  1.0  -0.0712
  C  C24  1  0.331600  0.326800  0.211800  1.0  -0.2029
  C  C25  1  0.792000  0.105400  0.634100  1.0  0.7754
  C  C26  1  0.695800  0.368500  0.874100  1.0  0.7623
  C  C27  1  0.789100  0.295500  0.822100  1.0  -0.1978
  C  C28  1  0.998000  0.268000  0.824000  1.0  -0.0675
  C  C29  1  0.021800  0.198400  0.761200  1.0  -0.0714
  C  C30  1  0.831600  0.173200  0.711800  1.0  -0.2035
  C  C31  1  0.708000  0.605400  0.865900  1.0  0.7765
  C  C32  1  0.804200  0.868500  0.625900  1.0  0.7604
  C  C33  1  0.710900  0.795500  0.677900  1.0  -0.1974
  C  C34  1  0.502000  0.768000  0.676000  1.0  -0.0665
  C  C35  1  0.478200  0.698400  0.738800  1.0  -0.0699
  C  C36  1  0.668400  0.673200  0.788200  1.0  -0.2035
  S  S37  1  0.382890  0.764870  0.256840  1.0  0.1346
  S  S38  1  0.117110  0.264870  0.243160  1.0  0.1362
  S  S39  1  0.617110  0.235130  0.743160  1.0  0.1362
  S  S40  1  0.882890  0.735130  0.756840  1.0  0.1345
  O  O41  1  0.509100  0.623930  0.132100  1.0  -0.7576
  O  O42  1  0.401000  0.910200  0.397000  1.0  -0.7267
  O  O43  1  0.042100  0.931340  0.397400  1.0  -0.787
  O  O44  1  0.169300  0.583910  0.081400  1.0  -0.7281
  O  O45  1  0.990900  0.123930  0.367900  1.0  -0.7584
  O  O46  1  0.099000  0.410200  0.103000  1.0  -0.7256
  O  O47  1  0.457900  0.431340  0.102600  1.0  -0.7866
  O  O48  1  0.330700  0.083910  0.418600  1.0  -0.7281
  O  O49  1  0.490900  0.376070  0.867900  1.0  -0.7578
  O  O50  1  0.599000  0.089800  0.603000  1.0  -0.7256
  O  O51  1  0.957900  0.068660  0.602600  1.0  -0.7868
  O  O52  1  0.830700  0.416090  0.918600  1.0  -0.7286
  O  O53  1  0.009100  0.876070  0.632100  1.0  -0.7577
  O  O54  1  0.901000  0.589800  0.897000  1.0  -0.7264
  O  O55  1  0.542100  0.568660  0.897400  1.0  -0.7874
  O  O56  1  0.669300  0.916090  0.581400  1.0  -0.7287
