# generated using pymatgen
data_CaH2C6SO4
_symmetry_space_group_name_H-M   'P 1'
_cell_length_a   10.30140000
_cell_length_b   14.41760000
_cell_length_c   17.50700000
_cell_angle_alpha   90.00000000
_cell_angle_beta   94.80900000
_cell_angle_gamma   90.00000000
_symmetry_Int_Tables_number   1
_chemical_formula_structural   CaH2C6SO4
_chemical_formula_sum   'Ca8 H16 C48 S8 O32'
_cell_volume   2591.01192708
_cell_formula_units_Z   8
loop_
 _symmetry_equiv_pos_site_id
 _symmetry_equiv_pos_as_xyz
  1  'x, y, z'
loop_
 _atom_site_type_symbol
 _atom_site_label
 _atom_site_symmetry_multiplicity
 _atom_site_fract_x
 _atom_site_fract_y
 _atom_site_fract_z
 _atom_site_occupancy
 _atom_site_charge
  Ca  Ca1  1  0.389300  0.155620  0.027790  1.0  1.5856
  Ca  Ca2  1  0.530440  0.391470  0.058970  1.0  1.5641
  Ca  Ca3  1  0.110700  0.655620  0.472210  1.0  1.5861
  Ca  Ca4  1  0.969560  0.891470  0.441030  1.0  1.5628
  Ca  Ca5  1  0.610700  0.844380  0.972210  1.0  1.5859
  Ca  Ca6  1  0.469560  0.608530  0.941030  1.0  1.5622
  Ca  Ca7  1  0.889300  0.344380  0.527790  1.0  1.5857
  Ca  Ca8  1  0.030440  0.108530  0.558970  1.0  1.5639
  H  H9  1  0.265200  0.496300  0.804900  1.0  0.1088
  H  H10  1  0.138400  0.437200  0.692100  1.0  0.1038
  H  H11  1  0.325000  0.698800  0.256100  1.0  0.1135
  H  H12  1  0.419800  0.754300  0.142200  1.0  0.1061
  H  H13  1  0.234800  0.996300  0.695100  1.0  0.1087
  H  H14  1  0.361600  0.937200  0.807900  1.0  0.1035
  H  H15  1  0.175000  0.198800  0.243900  1.0  0.1135
  H  H16  1  0.080200  0.254300  0.357800  1.0  0.1054
  H  H17  1  0.734800  0.503700  0.195100  1.0  0.1084
  H  H18  1  0.861600  0.562800  0.307900  1.0  0.1021
  H  H19  1  0.675000  0.301200  0.743900  1.0  0.1142
  H  H20  1  0.580200  0.245700  0.857800  1.0  0.1054
  H  H21  1  0.765200  0.003700  0.304900  1.0  0.1084
  H  H22  1  0.638400  0.062800  0.192100  1.0  0.1016
  H  H23  1  0.825000  0.801200  0.756100  1.0  0.114
  H  H24  1  0.919800  0.745700  0.642200  1.0  0.1064
  C  C25  1  0.378600  0.887100  0.169900  1.0  -0.2173
  C  C26  1  0.309000  0.363700  0.839700  1.0  -0.2092
  C  C27  1  0.182000  0.304900  0.725000  1.0  -0.2191
  C  C28  1  0.254700  0.433500  0.793800  1.0  -0.0653
  C  C29  1  0.182100  0.399400  0.728800  1.0  -0.076
  C  C30  1  0.386000  0.371500  0.914300  1.0  0.6914
  C  C31  1  0.120700  0.240900  0.665900  1.0  0.7137
  C  C32  1  0.427900  0.946400  0.109000  1.0  0.7766
  C  C33  1  0.281000  0.830400  0.284800  1.0  -0.2013
  C  C34  1  0.328600  0.761100  0.242700  1.0  -0.0627
  C  C35  1  0.383600  0.793200  0.177200  1.0  -0.0659
  C  C36  1  0.216200  0.821600  0.357700  1.0  0.7532
  C  C37  1  0.121400  0.387100  0.330100  1.0  -0.2168
  C  C38  1  0.191000  0.863700  0.660300  1.0  -0.2104
  C  C39  1  0.318000  0.804900  0.775000  1.0  -0.2197
  C  C40  1  0.245300  0.933500  0.706200  1.0  -0.0658
  C  C41  1  0.317900  0.899400  0.771200  1.0  -0.0768
  C  C42  1  0.114000  0.871500  0.585700  1.0  0.6921
  C  C43  1  0.379300  0.740900  0.834100  1.0  0.7142
  C  C44  1  0.072100  0.446400  0.391000  1.0  0.778
  C  C45  1  0.219000  0.330400  0.215200  1.0  -0.2008
  C  C46  1  0.171400  0.261100  0.257300  1.0  -0.0629
  C  C47  1  0.116400  0.293200  0.322800  1.0  -0.067
  C  C48  1  0.283800  0.321600  0.142300  1.0  0.7526
  C  C49  1  0.621400  0.112900  0.830100  1.0  -0.2167
  C  C50  1  0.691000  0.636300  0.160300  1.0  -0.2099
  C  C51  1  0.818000  0.695100  0.275000  1.0  -0.2196
  C  C52  1  0.745300  0.566500  0.206200  1.0  -0.065
  C  C53  1  0.817900  0.600600  0.271200  1.0  -0.0758
  C  C54  1  0.614000  0.628500  0.085700  1.0  0.6919
  C  C55  1  0.879300  0.759100  0.334100  1.0  0.7132
  C  C56  1  0.572100  0.053600  0.891000  1.0  0.7749
  C  C57  1  0.719000  0.169600  0.715200  1.0  -0.2012
  C  C58  1  0.671400  0.238900  0.757300  1.0  -0.0639
  C  C59  1  0.616400  0.206800  0.822800  1.0  -0.0675
  C  C60  1  0.783800  0.178400  0.642300  1.0  0.7527
  C  C61  1  0.878600  0.612900  0.669900  1.0  -0.2173
  C  C62  1  0.809000  0.136300  0.339700  1.0  -0.2092
  C  C63  1  0.682000  0.195100  0.225000  1.0  -0.2192
  C  C64  1  0.754700  0.066500  0.293800  1.0  -0.0645
  C  C65  1  0.682100  0.100600  0.228800  1.0  -0.0754
  C  C66  1  0.886000  0.128500  0.414300  1.0  0.6914
  C  C67  1  0.620700  0.259100  0.165900  1.0  0.7126
  C  C68  1  0.927900  0.553600  0.609000  1.0  0.7727
  C  C69  1  0.781000  0.669600  0.784800  1.0  -0.2007
  C  C70  1  0.828600  0.738900  0.742700  1.0  -0.0635
  C  C71  1  0.883600  0.706800  0.677200  1.0  -0.0662
  C  C72  1  0.716200  0.678400  0.857700  1.0  0.7537
  S  S73  1  0.271230  0.256600  0.801910  1.0  0.1645
  S  S74  1  0.303310  0.936930  0.243880  1.0  0.161
  S  S75  1  0.228770  0.756600  0.698090  1.0  0.1642
  S  S76  1  0.196690  0.436930  0.256120  1.0  0.1607
  S  S77  1  0.728770  0.743400  0.198090  1.0  0.1645
  S  S78  1  0.696690  0.063070  0.756120  1.0  0.1624
  S  S79  1  0.771230  0.243400  0.301910  1.0  0.1647
  S  S80  1  0.803310  0.563070  0.743880  1.0  0.1609
  O  O81  1  0.399600  0.030300  0.109690  1.0  -0.7399
  O  O82  1  0.409300  0.300460  0.954690  1.0  -0.6946
  O  O83  1  0.130400  0.156100  0.679230  1.0  -0.6044
  O  O84  1  0.428500  0.450800  0.935520  1.0  -0.7909
  O  O85  1  0.065000  0.273890  0.604740  1.0  -0.7485
  O  O86  1  0.224700  0.744400  0.390120  1.0  -0.7251
  O  O87  1  0.161200  0.892000  0.381170  1.0  -0.6549
  O  O88  1  0.492400  0.906800  0.061580  1.0  -0.7593
  O  O89  1  0.100400  0.530300  0.390310  1.0  -0.7392
  O  O90  1  0.090700  0.800460  0.545310  1.0  -0.6951
  O  O91  1  0.369600  0.656100  0.820770  1.0  -0.6059
  O  O92  1  0.071500  0.950800  0.564480  1.0  -0.7911
  O  O93  1  0.435000  0.773890  0.895260  1.0  -0.7502
  O  O94  1  0.275300  0.244400  0.109880  1.0  -0.7247
  O  O95  1  0.338800  0.392000  0.118830  1.0  -0.6539
  O  O96  1  0.007600  0.406800  0.438420  1.0  -0.7608
  O  O97  1  0.600400  0.969700  0.890310  1.0  -0.7397
  O  O98  1  0.590700  0.699540  0.045310  1.0  -0.6962
  O  O99  1  0.869600  0.843900  0.320770  1.0  -0.6048
  O  O100  1  0.571500  0.549200  0.064480  1.0  -0.7907
  O  O101  1  0.935000  0.726110  0.395260  1.0  -0.7496
  O  O102  1  0.775300  0.255600  0.609880  1.0  -0.7255
  O  O103  1  0.838800  0.108000  0.618830  1.0  -0.6566
  O  O104  1  0.507600  0.093200  0.938420  1.0  -0.7604
  O  O105  1  0.899600  0.469700  0.609690  1.0  -0.7413
  O  O106  1  0.909300  0.199540  0.454690  1.0  -0.6959
  O  O107  1  0.630400  0.343900  0.179230  1.0  -0.6045
  O  O108  1  0.928500  0.049200  0.435520  1.0  -0.7903
  O  O109  1  0.565000  0.226110  0.104740  1.0  -0.7493
  O  O110  1  0.724700  0.755600  0.890120  1.0  -0.7258
  O  O111  1  0.661200  0.608000  0.881170  1.0  -0.6573
  O  O112  1  0.992400  0.593200  0.561580  1.0  -0.7587
