# generated using pymatgen
data_MnC4O3
_symmetry_space_group_name_H-M   'P 1'
_cell_length_a   26.43630000
_cell_length_b   26.43630000
_cell_length_c   7.10680000
_cell_angle_alpha   90.00000000
_cell_angle_beta   90.00000000
_cell_angle_gamma   120.00000000
_symmetry_Int_Tables_number   1
_chemical_formula_structural   MnC4O3
_chemical_formula_sum   'Mn18 C72 O54'
_cell_volume   4301.36273833
_cell_formula_units_Z   18
loop_
 _symmetry_equiv_pos_site_id
 _symmetry_equiv_pos_as_xyz
  1  'x, y, z'
loop_
 _atom_site_type_symbol
 _atom_site_label
 _atom_site_symmetry_multiplicity
 _atom_site_fract_x
 _atom_site_fract_y
 _atom_site_fract_z
 _atom_site_occupancy
 _atom_site_charge
  Mn  Mn1  1  0.962900  0.643000  0.996000  1.0  1.0544
  Mn  Mn2  1  0.629570  0.976330  0.329330  1.0  1.0544
  Mn  Mn3  1  0.296230  0.309670  0.662670  1.0  1.0545
  Mn  Mn4  1  0.357000  0.319900  0.996000  1.0  1.055
  Mn  Mn5  1  0.023670  0.653230  0.329330  1.0  1.0547
  Mn  Mn6  1  0.690330  0.986570  0.662670  1.0  1.055
  Mn  Mn7  1  0.680100  0.037100  0.996000  1.0  1.0585
  Mn  Mn8  1  0.346770  0.370430  0.329330  1.0  1.0585
  Mn  Mn9  1  0.013430  0.703770  0.662670  1.0  1.0587
  Mn  Mn10  1  0.037100  0.357000  0.004000  1.0  1.0597
  Mn  Mn11  1  0.703770  0.690330  0.337330  1.0  1.0598
  Mn  Mn12  1  0.370430  0.023670  0.670670  1.0  1.0597
  Mn  Mn13  1  0.643000  0.680100  0.004000  1.0  1.0579
  Mn  Mn14  1  0.309670  0.013430  0.337330  1.0  1.0579
  Mn  Mn15  1  0.976330  0.346770  0.670670  1.0  1.0576
  Mn  Mn16  1  0.319900  0.962900  0.004000  1.0  1.063
  Mn  Mn17  1  0.986570  0.296230  0.337330  1.0  1.0631
  Mn  Mn18  1  0.653230  0.629570  0.670670  1.0  1.0631
  C  C19  1  0.019500  0.597900  0.767000  1.0  0.5646
  C  C20  1  0.999800  0.549400  0.919000  1.0  0.0338
  C  C21  1  0.988300  0.538000  0.110000  1.0  0.2025
  C  C22  1  0.985600  0.493700  0.177000  1.0  0.0903
  C  C23  1  0.686170  0.931230  0.100330  1.0  0.5646
  C  C24  1  0.666470  0.882730  0.252330  1.0  0.0337
  C  C25  1  0.654970  0.871330  0.443330  1.0  0.2025
  C  C26  1  0.652270  0.827030  0.510330  1.0  0.0903
  C  C27  1  0.352830  0.264570  0.433670  1.0  0.5646
  C  C28  1  0.333130  0.216070  0.585670  1.0  0.0338
  C  C29  1  0.321630  0.204670  0.776670  1.0  0.2025
  C  C30  1  0.318930  0.160370  0.843670  1.0  0.0966
  C  C31  1  0.402100  0.421600  0.767000  1.0  0.5647
  C  C32  1  0.450600  0.450400  0.919000  1.0  0.0321
  C  C33  1  0.462000  0.450300  0.110000  1.0  0.2018
  C  C34  1  0.506300  0.491900  0.177000  1.0  0.0929
  C  C35  1  0.068770  0.754930  0.100330  1.0  0.5647
  C  C36  1  0.117270  0.783730  0.252330  1.0  0.0323
  C  C37  1  0.128670  0.783630  0.443330  1.0  0.2018
  C  C38  1  0.172970  0.825230  0.510330  1.0  0.0929
  C  C39  1  0.735430  0.088270  0.433670  1.0  0.5647
  C  C40  1  0.783930  0.117070  0.585670  1.0  0.0321
  C  C41  1  0.795330  0.116970  0.776670  1.0  0.2051
  C  C42  1  0.839630  0.158570  0.843670  1.0  0.0949
  C  C43  1  0.578400  0.980500  0.767000  1.0  0.5636
  C  C44  1  0.549600  0.000200  0.919000  1.0  0.0326
  C  C45  1  0.549700  0.011700  0.110000  1.0  0.197
  C  C46  1  0.508100  0.014400  0.177000  1.0  0.0929
  C  C47  1  0.245070  0.313830  0.100330  1.0  0.5636
  C  C48  1  0.216270  0.333530  0.252330  1.0  0.0328
  C  C49  1  0.216370  0.345030  0.443330  1.0  0.197
  C  C50  1  0.174770  0.347730  0.510330  1.0  0.0929
  C  C51  1  0.911730  0.647170  0.433670  1.0  0.5636
  C  C52  1  0.882930  0.666870  0.585670  1.0  0.0326
  C  C53  1  0.883030  0.678370  0.776670  1.0  0.2008
  C  C54  1  0.841430  0.681070  0.843670  1.0  0.0931
  C  C55  1  0.980500  0.402100  0.233000  1.0  0.5649
  C  C56  1  0.000200  0.450600  0.081000  1.0  0.0366
  C  C57  1  0.011700  0.462000  0.890000  1.0  0.2031
  C  C58  1  0.014400  0.506300  0.823000  1.0  0.0853
  C  C59  1  0.647170  0.735430  0.566330  1.0  0.5649
  C  C60  1  0.666870  0.783930  0.414330  1.0  0.0366
  C  C61  1  0.678370  0.795330  0.223330  1.0  0.2031
  C  C62  1  0.681070  0.839630  0.156330  1.0  0.0914
  C  C63  1  0.313830  0.068770  0.899670  1.0  0.5649
  C  C64  1  0.333530  0.117270  0.747670  1.0  0.0365
  C  C65  1  0.345030  0.128670  0.556670  1.0  0.2032
  C  C66  1  0.347730  0.172970  0.489670  1.0  0.0853
  C  C67  1  0.597900  0.578400  0.233000  1.0  0.5656
  C  C68  1  0.549400  0.549600  0.081000  1.0  0.0355
  C  C69  1  0.538000  0.549700  0.890000  1.0  0.2016
  C  C70  1  0.493700  0.508100  0.823000  1.0  0.0855
  C  C71  1  0.264570  0.911730  0.566330  1.0  0.5656
  C  C72  1  0.216070  0.882930  0.414330  1.0  0.0355
  C  C73  1  0.204670  0.883030  0.223330  1.0  0.2051
  C  C74  1  0.160370  0.841430  0.156330  1.0  0.0884
  C  C75  1  0.931230  0.245070  0.899670  1.0  0.5656
  C  C76  1  0.882730  0.216270  0.747670  1.0  0.0357
  C  C77  1  0.871330  0.216370  0.556670  1.0  0.2016
  C  C78  1  0.827030  0.174770  0.489670  1.0  0.0855
  C  C79  1  0.421600  0.019500  0.233000  1.0  0.5629
  C  C80  1  0.450400  0.999800  0.081000  1.0  0.0359
  C  C81  1  0.450300  0.988300  0.890000  1.0  0.2
  C  C82  1  0.491900  0.985600  0.823000  1.0  0.0868
  C  C83  1  0.088270  0.352830  0.566330  1.0  0.5629
  C  C84  1  0.117070  0.333130  0.414330  1.0  0.0359
  C  C85  1  0.116970  0.321630  0.223330  1.0  0.2033
  C  C86  1  0.158570  0.318930  0.156330  1.0  0.0873
  C  C87  1  0.754930  0.686170  0.899670  1.0  0.5629
  C  C88  1  0.783730  0.666470  0.747670  1.0  0.036
  C  C89  1  0.783630  0.654970  0.556670  1.0  0.2
  C  C90  1  0.825230  0.652270  0.489670  1.0  0.0868
  O  O91  1  0.026100  0.585900  0.599000  1.0  -0.6067
  O  O92  1  0.001300  0.635800  0.796000  1.0  -0.6633
  O  O93  1  0.979400  0.586200  0.160000  1.0  -0.6846
  O  O94  1  0.692770  0.919230  0.932330  1.0  -0.6028
  O  O95  1  0.667970  0.969130  0.129330  1.0  -0.6633
  O  O96  1  0.646070  0.919530  0.493330  1.0  -0.6849
  O  O97  1  0.359430  0.252570  0.265670  1.0  -0.607
  O  O98  1  0.334630  0.302470  0.462670  1.0  -0.6633
  O  O99  1  0.312730  0.252870  0.826670  1.0  -0.6846
  O  O100  1  0.414100  0.440200  0.599000  1.0  -0.582
  O  O101  1  0.364200  0.365500  0.796000  1.0  -0.6628
  O  O102  1  0.413800  0.393200  0.160000  1.0  -0.685
  O  O103  1  0.080770  0.773530  0.932330  1.0  -0.5989
  O  O104  1  0.030870  0.698830  0.129330  1.0  -0.6628
  O  O105  1  0.080470  0.726530  0.493330  1.0  -0.6857
  O  O106  1  0.747430  0.106870  0.265670  1.0  -0.582
  O  O107  1  0.697530  0.032170  0.462670  1.0  -0.6627
  O  O108  1  0.747130  0.059870  0.826670  1.0  -0.6853
  O  O109  1  0.559800  0.973900  0.599000  1.0  -0.6072
  O  O110  1  0.634500  0.998700  0.796000  1.0  -0.6616
  O  O111  1  0.606800  0.020600  0.160000  1.0  -0.6882
  O  O112  1  0.226470  0.307230  0.932330  1.0  -0.6026
  O  O113  1  0.301170  0.332030  0.129330  1.0  -0.6616
  O  O114  1  0.273470  0.353930  0.493330  1.0  -0.6879
  O  O115  1  0.893130  0.640570  0.265670  1.0  -0.6072
  O  O116  1  0.967830  0.665370  0.462670  1.0  -0.6616
  O  O117  1  0.940130  0.687270  0.826670  1.0  -0.6879
  O  O118  1  0.973900  0.414100  0.401000  1.0  -0.6097
  O  O119  1  0.998700  0.364200  0.204000  1.0  -0.6625
  O  O120  1  0.020600  0.413800  0.840000  1.0  -0.6837
  O  O121  1  0.640570  0.747430  0.734330  1.0  -0.6098
  O  O122  1  0.665370  0.697530  0.537330  1.0  -0.6625
  O  O123  1  0.687270  0.747130  0.173330  1.0  -0.6837
  O  O124  1  0.307230  0.080770  0.067670  1.0  -0.6065
  O  O125  1  0.332030  0.030870  0.870670  1.0  -0.6625
  O  O126  1  0.353930  0.080470  0.506670  1.0  -0.684
  O  O127  1  0.585900  0.559800  0.401000  1.0  -0.5825
  O  O128  1  0.635800  0.634500  0.204000  1.0  -0.6623
  O  O129  1  0.586200  0.606800  0.840000  1.0  -0.6859
  O  O130  1  0.252570  0.893130  0.734330  1.0  -0.5825
  O  O131  1  0.302470  0.967830  0.537330  1.0  -0.6622
  O  O132  1  0.252870  0.940130  0.173330  1.0  -0.6862
  O  O133  1  0.919230  0.226470  0.067670  1.0  -0.5996
  O  O134  1  0.969130  0.301170  0.870670  1.0  -0.6623
  O  O135  1  0.919530  0.273470  0.506670  1.0  -0.6866
  O  O136  1  0.440200  0.026100  0.401000  1.0  -0.6072
  O  O137  1  0.365500  0.001300  0.204000  1.0  -0.6633
  O  O138  1  0.393200  0.979400  0.840000  1.0  -0.6864
  O  O139  1  0.106870  0.359430  0.734330  1.0  -0.6071
  O  O140  1  0.032170  0.334630  0.537330  1.0  -0.6634
  O  O141  1  0.059870  0.312730  0.173330  1.0  -0.6862
  O  O142  1  0.773530  0.692770  0.067670  1.0  -0.6035
  O  O143  1  0.698830  0.667970  0.870670  1.0  -0.6633
  O  O144  1  0.726530  0.646070  0.506670  1.0  -0.6861
