# generated using pymatgen
data_MnHC4O3
_symmetry_space_group_name_H-M   'P 1'
_cell_length_a   26.29030000
_cell_length_b   26.29030000
_cell_length_c   7.06760000
_cell_angle_alpha   90.00000000
_cell_angle_beta   90.00000000
_cell_angle_gamma   120.00000000
_symmetry_Int_Tables_number   1
_chemical_formula_structural   MnHC4O3
_chemical_formula_sum   'Mn18 H18 C72 O54'
_cell_volume   4230.51926950
_cell_formula_units_Z   18
loop_
 _symmetry_equiv_pos_site_id
 _symmetry_equiv_pos_as_xyz
  1  'x, y, z'
loop_
 _atom_site_type_symbol
 _atom_site_label
 _atom_site_symmetry_multiplicity
 _atom_site_fract_x
 _atom_site_fract_y
 _atom_site_fract_z
 _atom_site_occupancy
 _atom_site_charge
  Mn  Mn1  1  0.952500  0.636800  0.027000  1.0  1.0265
  Mn  Mn2  1  0.619170  0.970130  0.360330  1.0  1.0265
  Mn  Mn3  1  0.285830  0.303470  0.693670  1.0  1.0263
  Mn  Mn4  1  0.363200  0.315700  0.027000  1.0  1.0252
  Mn  Mn5  1  0.029870  0.649030  0.360330  1.0  1.0254
  Mn  Mn6  1  0.696530  0.982370  0.693670  1.0  1.0253
  Mn  Mn7  1  0.684300  0.047500  0.027000  1.0  1.0258
  Mn  Mn8  1  0.350970  0.380830  0.360330  1.0  1.0256
  Mn  Mn9  1  0.017630  0.714170  0.693670  1.0  1.026
  Mn  Mn10  1  0.047500  0.363200  0.973000  1.0  1.0277
  Mn  Mn11  1  0.714170  0.696530  0.306330  1.0  1.0275
  Mn  Mn12  1  0.380830  0.029870  0.639670  1.0  1.0277
  Mn  Mn13  1  0.636800  0.684300  0.973000  1.0  1.027
  Mn  Mn14  1  0.303470  0.017630  0.306330  1.0  1.0271
  Mn  Mn15  1  0.970130  0.350970  0.639670  1.0  1.0271
  Mn  Mn16  1  0.315700  0.952500  0.973000  1.0  1.0267
  Mn  Mn17  1  0.982370  0.285830  0.306330  1.0  1.027
  Mn  Mn18  1  0.649030  0.619170  0.639670  1.0  1.0265
  H  H19  1  0.972570  0.497500  0.337240  1.0  0.1387
  H  H20  1  0.639240  0.830830  0.670570  1.0  0.1387
  H  H21  1  0.305900  0.164170  0.003910  1.0  0.1384
  H  H22  1  0.502500  0.475070  0.337240  1.0  0.1371
  H  H23  1  0.169170  0.808400  0.670570  1.0  0.1371
  H  H24  1  0.835830  0.141740  0.003910  1.0  0.1366
  H  H25  1  0.524930  0.027430  0.337240  1.0  0.1383
  H  H26  1  0.191600  0.360760  0.670570  1.0  0.1383
  H  H27  1  0.858260  0.694100  0.003910  1.0  0.1379
  H  H28  1  0.027430  0.502500  0.662760  1.0  0.1373
  H  H29  1  0.694100  0.835830  0.996090  1.0  0.1369
  H  H30  1  0.360760  0.169170  0.329430  1.0  0.1373
  H  H31  1  0.497500  0.524930  0.662760  1.0  0.1366
  H  H32  1  0.164170  0.858260  0.996090  1.0  0.1362
  H  H33  1  0.830830  0.191600  0.329430  1.0  0.1366
  H  H34  1  0.475070  0.972570  0.662760  1.0  0.1373
  H  H35  1  0.141740  0.305900  0.996090  1.0  0.1369
  H  H36  1  0.808400  0.639240  0.329430  1.0  0.1373
  C  C37  1  0.012800  0.591700  0.758000  1.0  0.6842
  C  C38  1  0.006900  0.545200  0.895000  1.0  -0.1528
  C  C39  1  0.990200  0.544100  0.087000  1.0  0.3321
  C  C40  1  0.984300  0.497000  0.189400  1.0  -0.0638
  C  C41  1  0.679470  0.925030  0.091330  1.0  0.6843
  C  C42  1  0.673570  0.878530  0.228330  1.0  -0.1528
  C  C43  1  0.656870  0.877430  0.420330  1.0  0.3324
  C  C44  1  0.650970  0.830330  0.522730  1.0  -0.0638
  C  C45  1  0.346130  0.258370  0.424670  1.0  0.6842
  C  C46  1  0.340230  0.211870  0.561670  1.0  -0.1528
  C  C47  1  0.323530  0.210770  0.753670  1.0  0.3322
  C  C48  1  0.317630  0.163670  0.856070  1.0  -0.0636
  C  C49  1  0.408300  0.421100  0.758000  1.0  0.6849
  C  C50  1  0.454800  0.461700  0.895000  1.0  -0.1545
  C  C51  1  0.455900  0.446100  0.087000  1.0  0.3316
  C  C52  1  0.503000  0.487300  0.189400  1.0  -0.0557
  C  C53  1  0.074970  0.754430  0.091330  1.0  0.6849
  C  C54  1  0.121470  0.795030  0.228330  1.0  -0.1545
  C  C55  1  0.122570  0.779430  0.420330  1.0  0.3314
  C  C56  1  0.169670  0.820630  0.522730  1.0  -0.0557
  C  C57  1  0.741630  0.087770  0.424670  1.0  0.6849
  C  C58  1  0.788130  0.128370  0.561670  1.0  -0.1545
  C  C59  1  0.789230  0.112770  0.753670  1.0  0.3314
  C  C60  1  0.836330  0.153970  0.856070  1.0  -0.0659
  C  C61  1  0.578900  0.987200  0.758000  1.0  0.6819
  C  C62  1  0.538300  0.993100  0.895000  1.0  -0.1538
  C  C63  1  0.553900  0.009800  0.087000  1.0  0.3339
  C  C64  1  0.512700  0.015700  0.189400  1.0  -0.0688
  C  C65  1  0.245570  0.320530  0.091330  1.0  0.6818
  C  C66  1  0.204970  0.326430  0.228330  1.0  -0.1538
  C  C67  1  0.220570  0.343130  0.420330  1.0  0.3339
  C  C68  1  0.179370  0.349030  0.522730  1.0  -0.0688
  C  C69  1  0.912230  0.653870  0.424670  1.0  0.6819
  C  C70  1  0.871630  0.659770  0.561670  1.0  -0.1538
  C  C71  1  0.887230  0.676470  0.753670  1.0  0.334
  C  C72  1  0.846030  0.682370  0.856070  1.0  -0.0677
  C  C73  1  0.987200  0.408300  0.242000  1.0  0.6837
  C  C74  1  0.993100  0.454800  0.105000  1.0  -0.1527
  C  C75  1  0.009800  0.455900  0.913000  1.0  0.3316
  C  C76  1  0.015700  0.503000  0.810600  1.0  -0.0669
  C  C77  1  0.653870  0.741630  0.575330  1.0  0.6837
  C  C78  1  0.659770  0.788130  0.438330  1.0  -0.1527
  C  C79  1  0.676470  0.789230  0.246330  1.0  0.3316
  C  C80  1  0.682370  0.836330  0.143930  1.0  -0.0667
  C  C81  1  0.320530  0.074970  0.908670  1.0  0.6837
  C  C82  1  0.326430  0.121470  0.771670  1.0  -0.1527
  C  C83  1  0.343130  0.122570  0.579670  1.0  0.3317
  C  C84  1  0.349030  0.169670  0.477270  1.0  -0.0669
  C  C85  1  0.591700  0.578900  0.242000  1.0  0.685
  C  C86  1  0.545200  0.538300  0.105000  1.0  -0.1541
  C  C87  1  0.544100  0.553900  0.913000  1.0  0.3315
  C  C88  1  0.497000  0.512700  0.810600  1.0  -0.0574
  C  C89  1  0.258370  0.912230  0.575330  1.0  0.685
  C  C90  1  0.211870  0.871630  0.438330  1.0  -0.1541
  C  C91  1  0.210770  0.887230  0.246330  1.0  0.3314
  C  C92  1  0.163670  0.846030  0.143930  1.0  -0.068
  C  C93  1  0.925030  0.245570  0.908670  1.0  0.685
  C  C94  1  0.878530  0.204970  0.771670  1.0  -0.1541
  C  C95  1  0.877430  0.220570  0.579670  1.0  0.3314
  C  C96  1  0.830330  0.179370  0.477270  1.0  -0.0574
  C  C97  1  0.421100  0.012800  0.242000  1.0  0.6795
  C  C98  1  0.461700  0.006900  0.105000  1.0  -0.1535
  C  C99  1  0.446100  0.990200  0.913000  1.0  0.3341
  C  C100  1  0.487300  0.984300  0.810600  1.0  -0.0708
  C  C101  1  0.087770  0.346130  0.575330  1.0  0.6795
  C  C102  1  0.128370  0.340230  0.438330  1.0  -0.1535
  C  C103  1  0.112770  0.323530  0.246330  1.0  0.3342
  C  C104  1  0.153970  0.317630  0.143930  1.0  -0.0699
  C  C105  1  0.754430  0.679470  0.908670  1.0  0.6794
  C  C106  1  0.795030  0.673570  0.771670  1.0  -0.1535
  C  C107  1  0.779430  0.656870  0.579670  1.0  0.3341
  C  C108  1  0.820630  0.650970  0.477270  1.0  -0.0708
  O  O109  1  0.030300  0.592300  0.592000  1.0  -0.6196
  O  O110  1  0.006700  0.635300  0.800000  1.0  -0.7037
  O  O111  1  0.977700  0.585300  0.145000  1.0  -0.6393
  O  O112  1  0.696970  0.925630  0.925330  1.0  -0.6196
  O  O113  1  0.673370  0.968630  0.133330  1.0  -0.7038
  O  O114  1  0.644370  0.918630  0.478330  1.0  -0.6393
  O  O115  1  0.363630  0.258970  0.258670  1.0  -0.6196
  O  O116  1  0.340030  0.301970  0.466670  1.0  -0.7034
  O  O117  1  0.311030  0.251970  0.811670  1.0  -0.6393
  O  O118  1  0.407700  0.438000  0.592000  1.0  -0.6187
  O  O119  1  0.364700  0.371400  0.800000  1.0  -0.7009
  O  O120  1  0.414700  0.392400  0.145000  1.0  -0.6412
  O  O121  1  0.074370  0.771330  0.925330  1.0  -0.6187
  O  O122  1  0.031370  0.704730  0.133330  1.0  -0.7009
  O  O123  1  0.081370  0.725730  0.478330  1.0  -0.6412
  O  O124  1  0.741030  0.104670  0.258670  1.0  -0.6187
  O  O125  1  0.698030  0.038070  0.466670  1.0  -0.7008
  O  O126  1  0.748030  0.059070  0.811670  1.0  -0.6412
  O  O127  1  0.562000  0.969700  0.592000  1.0  -0.6193
  O  O128  1  0.628600  0.993300  0.800000  1.0  -0.7008
  O  O129  1  0.607600  0.022300  0.145000  1.0  -0.6413
  O  O130  1  0.228670  0.303030  0.925330  1.0  -0.6193
  O  O131  1  0.295270  0.326630  0.133330  1.0  -0.7008
  O  O132  1  0.274270  0.355630  0.478330  1.0  -0.6413
  O  O133  1  0.895330  0.636370  0.258670  1.0  -0.6193
  O  O134  1  0.961930  0.659970  0.466670  1.0  -0.7009
  O  O135  1  0.940930  0.688970  0.811670  1.0  -0.6414
  O  O136  1  0.969700  0.407700  0.408000  1.0  -0.6207
  O  O137  1  0.993300  0.364700  0.200000  1.0  -0.7028
  O  O138  1  0.022300  0.414700  0.855000  1.0  -0.6386
  O  O139  1  0.636370  0.741030  0.741330  1.0  -0.6206
  O  O140  1  0.659970  0.698030  0.533330  1.0  -0.7024
  O  O141  1  0.688970  0.748030  0.188330  1.0  -0.6387
  O  O142  1  0.303030  0.074370  0.074670  1.0  -0.6207
  O  O143  1  0.326630  0.031370  0.866670  1.0  -0.7029
  O  O144  1  0.355630  0.081370  0.521670  1.0  -0.6387
  O  O145  1  0.592300  0.562000  0.408000  1.0  -0.6182
  O  O146  1  0.635300  0.628600  0.200000  1.0  -0.6994
  O  O147  1  0.585300  0.607600  0.855000  1.0  -0.641
  O  O148  1  0.258970  0.895330  0.741330  1.0  -0.6182
  O  O149  1  0.301970  0.961930  0.533330  1.0  -0.6993
  O  O150  1  0.251970  0.940930  0.188330  1.0  -0.641
  O  O151  1  0.925630  0.228670  0.074670  1.0  -0.6182
  O  O152  1  0.968630  0.295270  0.866670  1.0  -0.6994
  O  O153  1  0.918630  0.274270  0.521670  1.0  -0.6409
  O  O154  1  0.438000  0.030300  0.408000  1.0  -0.6193
  O  O155  1  0.371400  0.006700  0.200000  1.0  -0.7015
  O  O156  1  0.392400  0.977700  0.855000  1.0  -0.6405
  O  O157  1  0.104670  0.363630  0.741330  1.0  -0.6193
  O  O158  1  0.038070  0.340030  0.533330  1.0  -0.7016
  O  O159  1  0.059070  0.311030  0.188330  1.0  -0.6405
  O  O160  1  0.771330  0.696970  0.074670  1.0  -0.6193
  O  O161  1  0.704730  0.673370  0.866670  1.0  -0.7014
  O  O162  1  0.725730  0.644370  0.521670  1.0  -0.6405
