# generated using pymatgen
data_MnHC4O3
_symmetry_space_group_name_H-M   'P 1'
_cell_length_a   26.28850000
_cell_length_b   26.28850000
_cell_length_c   7.06080000
_cell_angle_alpha   90.00000000
_cell_angle_beta   90.00000000
_cell_angle_gamma   120.00000000
_symmetry_Int_Tables_number   1
_chemical_formula_structural   MnHC4O3
_chemical_formula_sum   'Mn18 H18 C72 O54'
_cell_volume   4225.87021109
_cell_formula_units_Z   18
loop_
 _symmetry_equiv_pos_site_id
 _symmetry_equiv_pos_as_xyz
  1  'x, y, z'
loop_
 _atom_site_type_symbol
 _atom_site_label
 _atom_site_symmetry_multiplicity
 _atom_site_fract_x
 _atom_site_fract_y
 _atom_site_fract_z
 _atom_site_occupancy
 _atom_site_charge
  Mn  Mn1  1  0.950900  0.634600  0.022000  1.0  1.0325
  Mn  Mn2  1  0.617570  0.967930  0.355330  1.0  1.0325
  Mn  Mn3  1  0.284230  0.301270  0.688670  1.0  1.0325
  Mn  Mn4  1  0.365400  0.316300  0.022000  1.0  1.0313
  Mn  Mn5  1  0.032070  0.649630  0.355330  1.0  1.0313
  Mn  Mn6  1  0.698730  0.982970  0.688670  1.0  1.0311
  Mn  Mn7  1  0.683700  0.049100  0.022000  1.0  1.0292
  Mn  Mn8  1  0.350370  0.382430  0.355330  1.0  1.0292
  Mn  Mn9  1  0.017030  0.715770  0.688670  1.0  1.0285
  Mn  Mn10  1  0.049100  0.365400  0.978000  1.0  1.0319
  Mn  Mn11  1  0.715770  0.698730  0.311330  1.0  1.0319
  Mn  Mn12  1  0.382430  0.032070  0.644670  1.0  1.0319
  Mn  Mn13  1  0.634600  0.683700  0.978000  1.0  1.031
  Mn  Mn14  1  0.301270  0.017030  0.311330  1.0  1.0308
  Mn  Mn15  1  0.967930  0.350370  0.644670  1.0  1.0311
  Mn  Mn16  1  0.316300  0.950900  0.978000  1.0  1.0308
  Mn  Mn17  1  0.982970  0.284230  0.311330  1.0  1.0303
  Mn  Mn18  1  0.649630  0.617570  0.644670  1.0  1.0308
  H  H19  1  0.972570  0.497500  0.337240  1.0  0.1259
  H  H20  1  0.639240  0.830830  0.670570  1.0  0.1259
  H  H21  1  0.305900  0.164170  0.003910  1.0  0.1267
  H  H22  1  0.502500  0.475070  0.337240  1.0  0.125
  H  H23  1  0.169170  0.808400  0.670570  1.0  0.125
  H  H24  1  0.835830  0.141740  0.003910  1.0  0.1242
  H  H25  1  0.524930  0.027430  0.337240  1.0  0.1255
  H  H26  1  0.191600  0.360760  0.670570  1.0  0.1255
  H  H27  1  0.858260  0.694100  0.003910  1.0  0.1264
  H  H28  1  0.027430  0.502500  0.662760  1.0  0.1244
  H  H29  1  0.694100  0.835830  0.996090  1.0  0.1253
  H  H30  1  0.360760  0.169170  0.329430  1.0  0.1244
  H  H31  1  0.497500  0.524930  0.662760  1.0  0.1243
  H  H32  1  0.164170  0.858260  0.996090  1.0  0.1237
  H  H33  1  0.830830  0.191600  0.329430  1.0  0.1243
  H  H34  1  0.475070  0.972570  0.662760  1.0  0.1243
  H  H35  1  0.141740  0.305900  0.996090  1.0  0.1256
  H  H36  1  0.808400  0.639240  0.329430  1.0  0.1243
  C  C37  1  0.015600  0.592800  0.759000  1.0  0.6852
  C  C38  1  0.006900  0.545700  0.890000  1.0  -0.1258
  C  C39  1  0.987900  0.542100  0.087000  1.0  0.3003
  C  C40  1  0.983300  0.495000  0.190000  1.0  -0.0123
  C  C41  1  0.682270  0.926130  0.092330  1.0  0.6854
  C  C42  1  0.673570  0.879030  0.223330  1.0  -0.126
  C  C43  1  0.654570  0.875430  0.420330  1.0  0.3003
  C  C44  1  0.649970  0.828330  0.523330  1.0  -0.0123
  C  C45  1  0.348930  0.259470  0.425670  1.0  0.6851
  C  C46  1  0.340230  0.212370  0.556670  1.0  -0.1258
  C  C47  1  0.321230  0.208770  0.753670  1.0  0.3024
  C  C48  1  0.316630  0.161670  0.856670  1.0  -0.0017
  C  C49  1  0.407200  0.422800  0.759000  1.0  0.6856
  C  C50  1  0.454300  0.461200  0.890000  1.0  -0.1266
  C  C51  1  0.457900  0.445800  0.087000  1.0  0.3044
  C  C52  1  0.505000  0.488300  0.190000  1.0  -0.0129
  C  C53  1  0.073870  0.756130  0.092330  1.0  0.6853
  C  C54  1  0.120970  0.794530  0.223330  1.0  -0.1266
  C  C55  1  0.124570  0.779130  0.420330  1.0  0.3044
  C  C56  1  0.171670  0.821630  0.523330  1.0  -0.0129
  C  C57  1  0.740530  0.089470  0.425670  1.0  0.6856
  C  C58  1  0.787630  0.127870  0.556670  1.0  -0.1266
  C  C59  1  0.791230  0.112470  0.753670  1.0  0.3055
  C  C60  1  0.838330  0.154970  0.856670  1.0  -0.0101
  C  C61  1  0.577200  0.984400  0.759000  1.0  0.6833
  C  C62  1  0.538800  0.993100  0.890000  1.0  -0.1258
  C  C63  1  0.554200  0.012100  0.087000  1.0  0.3025
  C  C64  1  0.511700  0.016700  0.190000  1.0  -0.0163
  C  C65  1  0.243870  0.317730  0.092330  1.0  0.6832
  C  C66  1  0.205470  0.326430  0.223330  1.0  -0.1258
  C  C67  1  0.220870  0.345430  0.420330  1.0  0.3025
  C  C68  1  0.178370  0.350030  0.523330  1.0  -0.0163
  C  C69  1  0.910530  0.651070  0.425670  1.0  0.6833
  C  C70  1  0.872130  0.659770  0.556670  1.0  -0.1258
  C  C71  1  0.887530  0.678770  0.753670  1.0  0.301
  C  C72  1  0.845030  0.683370  0.856670  1.0  -0.0149
  C  C73  1  0.984400  0.407200  0.241000  1.0  0.6843
  C  C74  1  0.993100  0.454300  0.110000  1.0  -0.1269
  C  C75  1  0.012100  0.457900  0.913000  1.0  0.3025
  C  C76  1  0.016700  0.505000  0.810000  1.0  -0.0143
  C  C77  1  0.651070  0.740530  0.574330  1.0  0.6843
  C  C78  1  0.659770  0.787630  0.443330  1.0  -0.1269
  C  C79  1  0.678770  0.791230  0.246330  1.0  0.3047
  C  C80  1  0.683370  0.838330  0.143330  1.0  -0.0033
  C  C81  1  0.317730  0.073870  0.907670  1.0  0.6845
  C  C82  1  0.326430  0.120970  0.776670  1.0  -0.1271
  C  C83  1  0.345430  0.124570  0.579670  1.0  0.3025
  C  C84  1  0.350030  0.171670  0.476670  1.0  -0.0143
  C  C85  1  0.592800  0.577200  0.241000  1.0  0.6849
  C  C86  1  0.545700  0.538800  0.110000  1.0  -0.127
  C  C87  1  0.542100  0.554200  0.913000  1.0  0.3076
  C  C88  1  0.495000  0.511700  0.810000  1.0  -0.0143
  C  C89  1  0.259470  0.910530  0.574330  1.0  0.6849
  C  C90  1  0.212370  0.872130  0.443330  1.0  -0.127
  C  C91  1  0.208770  0.887530  0.246330  1.0  0.3077
  C  C92  1  0.161670  0.845030  0.143330  1.0  -0.013
  C  C93  1  0.926130  0.243870  0.907670  1.0  0.6847
  C  C94  1  0.879030  0.205470  0.776670  1.0  -0.127
  C  C95  1  0.875430  0.220870  0.579670  1.0  0.3077
  C  C96  1  0.828330  0.178370  0.476670  1.0  -0.0143
  C  C97  1  0.422800  0.015600  0.241000  1.0  0.684
  C  C98  1  0.461200  0.006900  0.110000  1.0  -0.1272
  C  C99  1  0.445800  0.987900  0.913000  1.0  0.3044
  C  C100  1  0.488300  0.983300  0.810000  1.0  -0.0168
  C  C101  1  0.089470  0.348930  0.574330  1.0  0.684
  C  C102  1  0.127870  0.340230  0.443330  1.0  -0.1272
  C  C103  1  0.112470  0.321230  0.246330  1.0  0.3029
  C  C104  1  0.154970  0.316630  0.143330  1.0  -0.0159
  C  C105  1  0.756130  0.682270  0.907670  1.0  0.684
  C  C106  1  0.794530  0.673570  0.776670  1.0  -0.1272
  C  C107  1  0.779130  0.654570  0.579670  1.0  0.3044
  C  C108  1  0.821630  0.649970  0.476670  1.0  -0.0168
  O  O109  1  0.028600  0.592400  0.586000  1.0  -0.6452
  O  O110  1  0.004500  0.634600  0.801000  1.0  -0.6681
  O  O111  1  0.977300  0.583400  0.139000  1.0  -0.6937
  O  O112  1  0.695270  0.925730  0.919330  1.0  -0.6452
  O  O113  1  0.671170  0.967930  0.134330  1.0  -0.6681
  O  O114  1  0.643970  0.916730  0.472330  1.0  -0.6936
  O  O115  1  0.361930  0.259070  0.252670  1.0  -0.6452
  O  O116  1  0.337830  0.301270  0.467670  1.0  -0.668
  O  O117  1  0.310630  0.250070  0.805670  1.0  -0.6937
  O  O118  1  0.407600  0.436200  0.586000  1.0  -0.6428
  O  O119  1  0.365400  0.369900  0.801000  1.0  -0.668
  O  O120  1  0.416600  0.393900  0.139000  1.0  -0.6948
  O  O121  1  0.074270  0.769530  0.919330  1.0  -0.6428
  O  O122  1  0.032070  0.703230  0.134330  1.0  -0.668
  O  O123  1  0.083270  0.727230  0.472330  1.0  -0.6952
  O  O124  1  0.740930  0.102870  0.252670  1.0  -0.6428
  O  O125  1  0.698730  0.036570  0.467670  1.0  -0.6681
  O  O126  1  0.749930  0.060570  0.805670  1.0  -0.6948
  O  O127  1  0.563800  0.971400  0.586000  1.0  -0.6444
  O  O128  1  0.630100  0.995500  0.801000  1.0  -0.6657
  O  O129  1  0.606100  0.022700  0.139000  1.0  -0.6943
  O  O130  1  0.230470  0.304730  0.919330  1.0  -0.6442
  O  O131  1  0.296770  0.328830  0.134330  1.0  -0.6655
  O  O132  1  0.272770  0.356030  0.472330  1.0  -0.6946
  O  O133  1  0.897130  0.638070  0.252670  1.0  -0.6444
  O  O134  1  0.963430  0.662170  0.467670  1.0  -0.6656
  O  O135  1  0.939430  0.689370  0.805670  1.0  -0.6944
  O  O136  1  0.971400  0.407600  0.414000  1.0  -0.6426
  O  O137  1  0.995500  0.365400  0.199000  1.0  -0.6669
  O  O138  1  0.022700  0.416600  0.861000  1.0  -0.6945
  O  O139  1  0.638070  0.740930  0.747330  1.0  -0.6426
  O  O140  1  0.662170  0.698730  0.532330  1.0  -0.6668
  O  O141  1  0.689370  0.749930  0.194330  1.0  -0.6945
  O  O142  1  0.304730  0.074270  0.080670  1.0  -0.6426
  O  O143  1  0.328830  0.032070  0.865670  1.0  -0.6669
  O  O144  1  0.356030  0.083270  0.527670  1.0  -0.6943
  O  O145  1  0.592400  0.563800  0.414000  1.0  -0.6423
  O  O146  1  0.634600  0.630100  0.199000  1.0  -0.6664
  O  O147  1  0.583400  0.606100  0.861000  1.0  -0.6951
  O  O148  1  0.259070  0.897130  0.747330  1.0  -0.6423
  O  O149  1  0.301270  0.963430  0.532330  1.0  -0.6665
  O  O150  1  0.250070  0.939430  0.194330  1.0  -0.6951
  O  O151  1  0.925730  0.230470  0.080670  1.0  -0.6423
  O  O152  1  0.967930  0.296770  0.865670  1.0  -0.6664
  O  O153  1  0.916730  0.272770  0.527670  1.0  -0.6954
  O  O154  1  0.436200  0.028600  0.414000  1.0  -0.6423
  O  O155  1  0.369900  0.004500  0.199000  1.0  -0.667
  O  O156  1  0.393900  0.977300  0.861000  1.0  -0.6945
  O  O157  1  0.102870  0.361930  0.747330  1.0  -0.6423
  O  O158  1  0.036570  0.337830  0.532330  1.0  -0.667
  O  O159  1  0.060570  0.310630  0.194330  1.0  -0.6947
  O  O160  1  0.769530  0.695270  0.080670  1.0  -0.6423
  O  O161  1  0.703230  0.671170  0.865670  1.0  -0.6669
  O  O162  1  0.727230  0.643970  0.527670  1.0  -0.6948
