# generated using pymatgen
data_MnHC4O3
_symmetry_space_group_name_H-M   'P 1'
_cell_length_a   26.29780000
_cell_length_b   26.29780000
_cell_length_c   7.07410000
_cell_angle_alpha   90.00000000
_cell_angle_beta   90.00000000
_cell_angle_gamma   120.00000000
_symmetry_Int_Tables_number   1
_chemical_formula_structural   MnHC4O3
_chemical_formula_sum   'Mn18 H18 C72 O54'
_cell_volume   4236.82633356
_cell_formula_units_Z   18
loop_
 _symmetry_equiv_pos_site_id
 _symmetry_equiv_pos_as_xyz
  1  'x, y, z'
loop_
 _atom_site_type_symbol
 _atom_site_label
 _atom_site_symmetry_multiplicity
 _atom_site_fract_x
 _atom_site_fract_y
 _atom_site_fract_z
 _atom_site_occupancy
 _atom_site_charge
  Mn  Mn1  1  0.950800  0.638500  0.018000  1.0  1.0518
  Mn  Mn2  1  0.617470  0.971830  0.351330  1.0  1.0531
  Mn  Mn3  1  0.284130  0.305170  0.684670  1.0  1.0518
  Mn  Mn4  1  0.361500  0.312300  0.018000  1.0  1.0502
  Mn  Mn5  1  0.028170  0.645630  0.351330  1.0  1.0514
  Mn  Mn6  1  0.694830  0.978970  0.684670  1.0  1.0516
  Mn  Mn7  1  0.687700  0.049200  0.018000  1.0  1.0522
  Mn  Mn8  1  0.354370  0.382530  0.351330  1.0  1.0521
  Mn  Mn9  1  0.021030  0.715870  0.684670  1.0  1.0522
  Mn  Mn10  1  0.049200  0.361500  0.982000  1.0  1.0511
  Mn  Mn11  1  0.715870  0.694830  0.315330  1.0  1.0511
  Mn  Mn12  1  0.382530  0.028170  0.648670  1.0  1.0524
  Mn  Mn13  1  0.638500  0.687700  0.982000  1.0  1.0513
  Mn  Mn14  1  0.305170  0.021030  0.315330  1.0  1.0528
  Mn  Mn15  1  0.971830  0.354370  0.648670  1.0  1.0526
  Mn  Mn16  1  0.312300  0.950800  0.982000  1.0  1.0527
  Mn  Mn17  1  0.978970  0.284130  0.315330  1.0  1.0527
  Mn  Mn18  1  0.645630  0.617470  0.648670  1.0  1.0525
  H  H19  1  0.972570  0.497500  0.337240  1.0  0.1421
  H  H20  1  0.639240  0.830830  0.670570  1.0  0.1421
  H  H21  1  0.305900  0.164170  0.003910  1.0  0.1433
  H  H22  1  0.502500  0.475070  0.337240  1.0  0.141
  H  H23  1  0.169170  0.808400  0.670570  1.0  0.141
  H  H24  1  0.835830  0.141740  0.003910  1.0  0.1427
  H  H25  1  0.524930  0.027430  0.337240  1.0  0.1415
  H  H26  1  0.191600  0.360760  0.670570  1.0  0.1415
  H  H27  1  0.858260  0.694100  0.003910  1.0  0.143
  H  H28  1  0.027430  0.502500  0.662760  1.0  0.1411
  H  H29  1  0.694100  0.835830  0.996090  1.0  0.1424
  H  H30  1  0.360760  0.169170  0.329430  1.0  0.1411
  H  H31  1  0.497500  0.524930  0.662760  1.0  0.1407
  H  H32  1  0.164170  0.858260  0.996090  1.0  0.1421
  H  H33  1  0.830830  0.191600  0.329430  1.0  0.1407
  H  H34  1  0.475070  0.972570  0.662760  1.0  0.1412
  H  H35  1  0.141740  0.305900  0.996090  1.0  0.1426
  H  H36  1  0.808400  0.639240  0.329430  1.0  0.1412
  C  C37  1  0.012500  0.590200  0.755000  1.0  0.6485
  C  C38  1  0.007100  0.545500  0.874000  1.0  0.0219
  C  C39  1  0.993000  0.543300  0.068000  1.0  0.206
  C  C40  1  0.981800  0.498000  0.193000  1.0  -0.1059
  C  C41  1  0.679170  0.923530  0.088330  1.0  0.6484
  C  C42  1  0.673770  0.878830  0.207330  1.0  0.0217
  C  C43  1  0.659670  0.876630  0.401330  1.0  0.2061
  C  C44  1  0.648470  0.831330  0.526330  1.0  -0.1059
  C  C45  1  0.345830  0.256870  0.421670  1.0  0.6485
  C  C46  1  0.340430  0.212170  0.540670  1.0  0.0219
  C  C47  1  0.326330  0.209970  0.734670  1.0  0.206
  C  C48  1  0.315130  0.164670  0.859670  1.0  -0.106
  C  C49  1  0.409800  0.422300  0.755000  1.0  0.6461
  C  C50  1  0.454500  0.461600  0.874000  1.0  0.0221
  C  C51  1  0.456700  0.449700  0.068000  1.0  0.2057
  C  C52  1  0.502000  0.483800  0.193000  1.0  -0.1013
  C  C53  1  0.076470  0.755630  0.088330  1.0  0.6461
  C  C54  1  0.121170  0.794930  0.207330  1.0  0.0221
  C  C55  1  0.123370  0.783030  0.401330  1.0  0.2057
  C  C56  1  0.168670  0.817130  0.526330  1.0  -0.1013
  C  C57  1  0.743130  0.088970  0.421670  1.0  0.6461
  C  C58  1  0.787830  0.128270  0.540670  1.0  0.0221
  C  C59  1  0.790030  0.116370  0.734670  1.0  0.2057
  C  C60  1  0.835330  0.150470  0.859670  1.0  -0.1049
  C  C61  1  0.577700  0.987500  0.755000  1.0  0.6446
  C  C62  1  0.538400  0.992900  0.874000  1.0  0.022
  C  C63  1  0.550300  0.007000  0.068000  1.0  0.2064
  C  C64  1  0.516200  0.018200  0.193000  1.0  -0.1065
  C  C65  1  0.244370  0.320830  0.088330  1.0  0.6445
  C  C66  1  0.205070  0.326230  0.207330  1.0  0.022
  C  C67  1  0.216970  0.340330  0.401330  1.0  0.2064
  C  C68  1  0.182870  0.351530  0.526330  1.0  -0.1065
  C  C69  1  0.911030  0.654170  0.421670  1.0  0.6446
  C  C70  1  0.871730  0.659570  0.540670  1.0  0.022
  C  C71  1  0.883630  0.673670  0.734670  1.0  0.2064
  C  C72  1  0.849530  0.684870  0.859670  1.0  -0.1056
  C  C73  1  0.987500  0.409800  0.245000  1.0  0.6456
  C  C74  1  0.992900  0.454500  0.126000  1.0  0.0205
  C  C75  1  0.007000  0.456700  0.932000  1.0  0.2011
  C  C76  1  0.018200  0.502000  0.807000  1.0  -0.1062
  C  C77  1  0.654170  0.743130  0.578330  1.0  0.6456
  C  C78  1  0.659570  0.787830  0.459330  1.0  0.0205
  C  C79  1  0.673670  0.790030  0.265330  1.0  0.2011
  C  C80  1  0.684870  0.835330  0.140330  1.0  -0.1055
  C  C81  1  0.320830  0.076470  0.911670  1.0  0.6455
  C  C82  1  0.326230  0.121170  0.792670  1.0  0.0203
  C  C83  1  0.340330  0.123370  0.598670  1.0  0.2011
  C  C84  1  0.351530  0.168670  0.473670  1.0  -0.1062
  C  C85  1  0.590200  0.577700  0.245000  1.0  0.6465
  C  C86  1  0.545500  0.538400  0.126000  1.0  0.0201
  C  C87  1  0.543300  0.550300  0.932000  1.0  0.2011
  C  C88  1  0.498000  0.516200  0.807000  1.0  -0.1018
  C  C89  1  0.256870  0.911030  0.578330  1.0  0.6465
  C  C90  1  0.212170  0.871730  0.459330  1.0  0.0201
  C  C91  1  0.209970  0.883630  0.265330  1.0  0.2011
  C  C92  1  0.164670  0.849530  0.140330  1.0  -0.1048
  C  C93  1  0.923530  0.244370  0.911670  1.0  0.6465
  C  C94  1  0.878830  0.205070  0.792670  1.0  0.0201
  C  C95  1  0.876630  0.216970  0.598670  1.0  0.2011
  C  C96  1  0.831330  0.182870  0.473670  1.0  -0.1018
  C  C97  1  0.422300  0.012500  0.245000  1.0  0.6447
  C  C98  1  0.461600  0.007100  0.126000  1.0  0.0208
  C  C99  1  0.449700  0.993000  0.932000  1.0  0.202
  C  C100  1  0.483800  0.981800  0.807000  1.0  -0.1055
  C  C101  1  0.088970  0.345830  0.578330  1.0  0.6447
  C  C102  1  0.128270  0.340430  0.459330  1.0  0.0208
  C  C103  1  0.116370  0.326330  0.265330  1.0  0.202
  C  C104  1  0.150470  0.315130  0.140330  1.0  -0.1046
  C  C105  1  0.755630  0.679170  0.911670  1.0  0.6446
  C  C106  1  0.794930  0.673770  0.792670  1.0  0.0208
  C  C107  1  0.783030  0.659670  0.598670  1.0  0.202
  C  C108  1  0.817130  0.648470  0.473670  1.0  -0.1055
  O  O109  1  0.032600  0.593000  0.581000  1.0  -0.6419
  O  O110  1  0.008700  0.633500  0.789000  1.0  -0.6197
  O  O111  1  0.976400  0.580300  0.141000  1.0  -0.6971
  O  O112  1  0.699270  0.926330  0.914330  1.0  -0.6427
  O  O113  1  0.675370  0.966830  0.122330  1.0  -0.6196
  O  O114  1  0.643070  0.913630  0.474330  1.0  -0.697
  O  O115  1  0.365930  0.259670  0.247670  1.0  -0.6419
  O  O116  1  0.342030  0.300170  0.455670  1.0  -0.6196
  O  O117  1  0.309730  0.246970  0.807670  1.0  -0.6971
  O  O118  1  0.407000  0.439600  0.581000  1.0  -0.6413
  O  O119  1  0.366500  0.375200  0.789000  1.0  -0.6176
  O  O120  1  0.419700  0.396100  0.141000  1.0  -0.6998
  O  O121  1  0.073670  0.772930  0.914330  1.0  -0.6407
  O  O122  1  0.033170  0.708530  0.122330  1.0  -0.6176
  O  O123  1  0.086370  0.729430  0.474330  1.0  -0.6998
  O  O124  1  0.740330  0.106270  0.247670  1.0  -0.6413
  O  O125  1  0.699830  0.041870  0.455670  1.0  -0.6177
  O  O126  1  0.753030  0.062770  0.807670  1.0  -0.7001
  O  O127  1  0.560400  0.967400  0.581000  1.0  -0.6441
  O  O128  1  0.624800  0.991300  0.789000  1.0  -0.6166
  O  O129  1  0.603900  0.023600  0.141000  1.0  -0.6975
  O  O130  1  0.227070  0.300730  0.914330  1.0  -0.6441
  O  O131  1  0.291470  0.324630  0.122330  1.0  -0.6165
  O  O132  1  0.270570  0.356930  0.474330  1.0  -0.6977
  O  O133  1  0.893730  0.634070  0.247670  1.0  -0.6441
  O  O134  1  0.958130  0.657970  0.455670  1.0  -0.6166
  O  O135  1  0.937230  0.690270  0.807670  1.0  -0.6972
  O  O136  1  0.967400  0.407000  0.419000  1.0  -0.6445
  O  O137  1  0.991300  0.366500  0.211000  1.0  -0.6188
  O  O138  1  0.023600  0.419700  0.859000  1.0  -0.6993
  O  O139  1  0.634070  0.740330  0.752330  1.0  -0.6445
  O  O140  1  0.657970  0.699830  0.544330  1.0  -0.6188
  O  O141  1  0.690270  0.753030  0.192330  1.0  -0.6994
  O  O142  1  0.300730  0.073670  0.085670  1.0  -0.6453
  O  O143  1  0.324630  0.033170  0.877670  1.0  -0.6188
  O  O144  1  0.356930  0.086370  0.525670  1.0  -0.6992
  O  O145  1  0.593000  0.560400  0.419000  1.0  -0.6428
  O  O146  1  0.633500  0.624800  0.211000  1.0  -0.6148
  O  O147  1  0.580300  0.603900  0.859000  1.0  -0.6997
  O  O148  1  0.259670  0.893730  0.752330  1.0  -0.6428
  O  O149  1  0.300170  0.958130  0.544330  1.0  -0.6149
  O  O150  1  0.246970  0.937230  0.192330  1.0  -0.7
  O  O151  1  0.926330  0.227070  0.085670  1.0  -0.6422
  O  O152  1  0.966830  0.291470  0.877670  1.0  -0.6149
  O  O153  1  0.913630  0.270570  0.525670  1.0  -0.6997
  O  O154  1  0.439600  0.032600  0.419000  1.0  -0.6464
  O  O155  1  0.375200  0.008700  0.211000  1.0  -0.6181
  O  O156  1  0.396100  0.976400  0.859000  1.0  -0.6986
  O  O157  1  0.106270  0.365930  0.752330  1.0  -0.6464
  O  O158  1  0.041870  0.342030  0.544330  1.0  -0.6182
  O  O159  1  0.062770  0.309730  0.192330  1.0  -0.6985
  O  O160  1  0.772930  0.699270  0.085670  1.0  -0.6464
  O  O161  1  0.708530  0.675370  0.877670  1.0  -0.6181
  O  O162  1  0.729430  0.643070  0.525670  1.0  -0.6988
