# generated using pymatgen
data_CuHC4O3
_symmetry_space_group_name_H-M   'P 1'
_cell_length_a   25.87760000
_cell_length_b   25.87760000
_cell_length_c   6.26230000
_cell_angle_alpha   90.00000000
_cell_angle_beta   90.00000000
_cell_angle_gamma   120.00000000
_symmetry_Int_Tables_number   1
_chemical_formula_structural   CuHC4O3
_chemical_formula_sum   'Cu18 H18 C72 O54'
_cell_volume   3631.72112063
_cell_formula_units_Z   18
loop_
 _symmetry_equiv_pos_site_id
 _symmetry_equiv_pos_as_xyz
  1  'x, y, z'
loop_
 _atom_site_type_symbol
 _atom_site_label
 _atom_site_symmetry_multiplicity
 _atom_site_fract_x
 _atom_site_fract_y
 _atom_site_fract_z
 _atom_site_occupancy
 _atom_site_charge
  Cu  Cu1  1  0.946300  0.631500  0.979000  1.0  0.8881
  Cu  Cu2  1  0.612970  0.964830  0.312330  1.0  0.8874
  Cu  Cu3  1  0.279630  0.298170  0.645670  1.0  0.8873
  Cu  Cu4  1  0.368500  0.314800  0.979000  1.0  0.8869
  Cu  Cu5  1  0.035170  0.648130  0.312330  1.0  0.8873
  Cu  Cu6  1  0.701830  0.981470  0.645670  1.0  0.887
  Cu  Cu7  1  0.685200  0.053700  0.979000  1.0  0.8872
  Cu  Cu8  1  0.351870  0.387030  0.312330  1.0  0.887
  Cu  Cu9  1  0.018530  0.720370  0.645670  1.0  0.888
  Cu  Cu10  1  0.053700  0.368500  0.021000  1.0  0.8892
  Cu  Cu11  1  0.720370  0.701830  0.354330  1.0  0.8884
  Cu  Cu12  1  0.387030  0.035170  0.687670  1.0  0.8884
  Cu  Cu13  1  0.631500  0.685200  0.021000  1.0  0.8873
  Cu  Cu14  1  0.298170  0.018530  0.354330  1.0  0.8874
  Cu  Cu15  1  0.964830  0.351870  0.687670  1.0  0.8874
  Cu  Cu16  1  0.314800  0.946300  0.021000  1.0  0.8867
  Cu  Cu17  1  0.981470  0.279630  0.354330  1.0  0.8878
  Cu  Cu18  1  0.648130  0.612970  0.687670  1.0  0.8866
  H  H19  1  0.038300  0.512000  0.636000  1.0  0.1668
  H  H20  1  0.704970  0.845330  0.969330  1.0  0.1704
  H  H21  1  0.371630  0.178670  0.302670  1.0  0.1668
  H  H22  1  0.488000  0.526300  0.636000  1.0  0.1687
  H  H23  1  0.154670  0.859630  0.969330  1.0  0.1708
  H  H24  1  0.821330  0.192970  0.302670  1.0  0.1687
  H  H25  1  0.473700  0.961700  0.636000  1.0  0.1677
  H  H26  1  0.140370  0.295030  0.969330  1.0  0.1683
  H  H27  1  0.807030  0.628370  0.302670  1.0  0.1677
  H  H28  1  0.961700  0.488000  0.364000  1.0  0.1685
  H  H29  1  0.628370  0.821330  0.697330  1.0  0.1685
  H  H30  1  0.295030  0.154670  0.030670  1.0  0.1718
  H  H31  1  0.512000  0.473700  0.364000  1.0  0.1691
  H  H32  1  0.178670  0.807030  0.697330  1.0  0.1691
  H  H33  1  0.845330  0.140370  0.030670  1.0  0.1714
  H  H34  1  0.526300  0.038300  0.364000  1.0  0.1686
  H  H35  1  0.192970  0.371630  0.697330  1.0  0.1686
  H  H36  1  0.859630  0.704970  0.030670  1.0  0.1686
  C  C37  1  0.006400  0.585600  0.711000  1.0  0.6119
  C  C38  1  0.023600  0.506200  0.788000  1.0  -0.0111
  C  C39  1  0.003900  0.543200  0.873000  1.0  -0.0471
  C  C40  1  0.984800  0.542800  0.087000  1.0  0.2518
  C  C41  1  0.673070  0.918930  0.044330  1.0  0.6118
  C  C42  1  0.690270  0.839530  0.121330  1.0  -0.0111
  C  C43  1  0.670570  0.876530  0.206330  1.0  -0.0471
  C  C44  1  0.651470  0.876130  0.420330  1.0  0.2518
  C  C45  1  0.339730  0.252270  0.377670  1.0  0.6119
  C  C46  1  0.356930  0.172870  0.454670  1.0  -0.0111
  C  C47  1  0.337230  0.209870  0.539670  1.0  -0.0471
  C  C48  1  0.318130  0.209470  0.753670  1.0  0.2517
  C  C49  1  0.414400  0.420800  0.711000  1.0  0.6128
  C  C50  1  0.493800  0.517400  0.788000  1.0  -0.0115
  C  C51  1  0.456800  0.460700  0.873000  1.0  -0.047
  C  C52  1  0.457200  0.442000  0.087000  1.0  0.2532
  C  C53  1  0.081070  0.754130  0.044330  1.0  0.6128
  C  C54  1  0.160470  0.850730  0.121330  1.0  -0.0115
  C  C55  1  0.123470  0.794030  0.206330  1.0  -0.047
  C  C56  1  0.123870  0.775330  0.420330  1.0  0.2532
  C  C57  1  0.747730  0.087470  0.377670  1.0  0.6128
  C  C58  1  0.827130  0.184070  0.454670  1.0  -0.0115
  C  C59  1  0.790130  0.127370  0.539670  1.0  -0.047
  C  C60  1  0.790530  0.108670  0.753670  1.0  0.2532
  C  C61  1  0.579200  0.993600  0.711000  1.0  0.6078
  C  C62  1  0.482600  0.976400  0.788000  1.0  -0.0105
  C  C63  1  0.539300  0.996100  0.873000  1.0  -0.0464
  C  C64  1  0.558000  0.015200  0.087000  1.0  0.2548
  C  C65  1  0.245870  0.326930  0.044330  1.0  0.6078
  C  C66  1  0.149270  0.309730  0.121330  1.0  -0.0105
  C  C67  1  0.205970  0.329430  0.206330  1.0  -0.0464
  C  C68  1  0.224670  0.348530  0.420330  1.0  0.2547
  C  C69  1  0.912530  0.660270  0.377670  1.0  0.6078
  C  C70  1  0.815930  0.643070  0.454670  1.0  -0.0104
  C  C71  1  0.872630  0.662770  0.539670  1.0  -0.0464
  C  C72  1  0.891330  0.681870  0.753670  1.0  0.2547
  C  C73  1  0.993600  0.414400  0.289000  1.0  0.6109
  C  C74  1  0.976400  0.493800  0.212000  1.0  -0.0103
  C  C75  1  0.996100  0.456800  0.127000  1.0  -0.0465
  C  C76  1  0.015200  0.457200  0.913000  1.0  0.2541
  C  C77  1  0.660270  0.747730  0.622330  1.0  0.6109
  C  C78  1  0.643070  0.827130  0.545330  1.0  -0.0103
  C  C79  1  0.662770  0.790130  0.460330  1.0  -0.0465
  C  C80  1  0.681870  0.790530  0.246330  1.0  0.2541
  C  C81  1  0.326930  0.081070  0.955670  1.0  0.6109
  C  C82  1  0.309730  0.160470  0.878670  1.0  -0.0103
  C  C83  1  0.329430  0.123470  0.793670  1.0  -0.0465
  C  C84  1  0.348530  0.123870  0.579670  1.0  0.2541
  C  C85  1  0.585600  0.579200  0.289000  1.0  0.6117
  C  C86  1  0.506200  0.482600  0.212000  1.0  -0.0108
  C  C87  1  0.543200  0.539300  0.127000  1.0  -0.0463
  C  C88  1  0.542800  0.558000  0.913000  1.0  0.2537
  C  C89  1  0.252270  0.912530  0.622330  1.0  0.6117
  C  C90  1  0.172870  0.815930  0.545330  1.0  -0.0108
  C  C91  1  0.209870  0.872630  0.460330  1.0  -0.0463
  C  C92  1  0.209470  0.891330  0.246330  1.0  0.2537
  C  C93  1  0.918930  0.245870  0.955670  1.0  0.6117
  C  C94  1  0.839530  0.149270  0.878670  1.0  -0.0107
  C  C95  1  0.876530  0.205970  0.793670  1.0  -0.0463
  C  C96  1  0.876130  0.224670  0.579670  1.0  0.2537
  C  C97  1  0.420800  0.006400  0.289000  1.0  0.609
  C  C98  1  0.517400  0.023600  0.212000  1.0  -0.0102
  C  C99  1  0.460700  0.003900  0.127000  1.0  -0.0463
  C  C100  1  0.442000  0.984800  0.913000  1.0  0.254
  C  C101  1  0.087470  0.339730  0.622330  1.0  0.6089
  C  C102  1  0.184070  0.356930  0.545330  1.0  -0.01
  C  C103  1  0.127370  0.337230  0.460330  1.0  -0.0463
  C  C104  1  0.108670  0.318130  0.246330  1.0  0.254
  C  C105  1  0.754130  0.673070  0.955670  1.0  0.609
  C  C106  1  0.850730  0.690270  0.878670  1.0  -0.0102
  C  C107  1  0.794030  0.670570  0.793670  1.0  -0.0464
  C  C108  1  0.775330  0.651470  0.579670  1.0  0.254
  O  O109  1  0.040600  0.602000  0.542000  1.0  -0.5763
  O  O110  1  0.978600  0.615300  0.726000  1.0  -0.6172
  O  O111  1  0.969400  0.585400  0.147000  1.0  -0.6684
  O  O112  1  0.707270  0.935330  0.875330  1.0  -0.576
  O  O113  1  0.645270  0.948630  0.059330  1.0  -0.6172
  O  O114  1  0.636070  0.918730  0.480330  1.0  -0.6683
  O  O115  1  0.373930  0.268670  0.208670  1.0  -0.5763
  O  O116  1  0.311930  0.281970  0.392670  1.0  -0.6172
  O  O117  1  0.302730  0.252070  0.813670  1.0  -0.6683
  O  O118  1  0.398000  0.438600  0.542000  1.0  -0.5786
  O  O119  1  0.384700  0.363300  0.726000  1.0  -0.619
  O  O120  1  0.414600  0.384000  0.147000  1.0  -0.6677
  O  O121  1  0.064670  0.771930  0.875330  1.0  -0.5789
  O  O122  1  0.051370  0.696630  0.059330  1.0  -0.619
  O  O123  1  0.081270  0.717330  0.480330  1.0  -0.6676
  O  O124  1  0.731330  0.105270  0.208670  1.0  -0.5786
  O  O125  1  0.718030  0.029970  0.392670  1.0  -0.619
  O  O126  1  0.747930  0.050670  0.813670  1.0  -0.6677
  O  O127  1  0.561400  0.959400  0.542000  1.0  -0.5794
  O  O128  1  0.636700  0.021400  0.726000  1.0  -0.6156
  O  O129  1  0.616000  0.030600  0.147000  1.0  -0.67
  O  O130  1  0.228070  0.292730  0.875330  1.0  -0.5793
  O  O131  1  0.303370  0.354730  0.059330  1.0  -0.6156
  O  O132  1  0.282670  0.363930  0.480330  1.0  -0.67
  O  O133  1  0.894730  0.626070  0.208670  1.0  -0.5794
  O  O134  1  0.970030  0.688070  0.392670  1.0  -0.6157
  O  O135  1  0.949330  0.697270  0.813670  1.0  -0.67
  O  O136  1  0.959400  0.398000  0.458000  1.0  -0.5756
  O  O137  1  0.021400  0.384700  0.274000  1.0  -0.6143
  O  O138  1  0.030600  0.414600  0.853000  1.0  -0.6677
  O  O139  1  0.626070  0.731330  0.791330  1.0  -0.5756
  O  O140  1  0.688070  0.718030  0.607330  1.0  -0.6144
  O  O141  1  0.697270  0.747930  0.186330  1.0  -0.6676
  O  O142  1  0.292730  0.064670  0.124670  1.0  -0.5743
  O  O143  1  0.354730  0.051370  0.940670  1.0  -0.6144
  O  O144  1  0.363930  0.081270  0.519670  1.0  -0.6676
  O  O145  1  0.602000  0.561400  0.458000  1.0  -0.5761
  O  O146  1  0.615300  0.636700  0.274000  1.0  -0.6184
  O  O147  1  0.585400  0.616000  0.853000  1.0  -0.6692
  O  O148  1  0.268670  0.894730  0.791330  1.0  -0.5761
  O  O149  1  0.281970  0.970030  0.607330  1.0  -0.6185
  O  O150  1  0.252070  0.949330  0.186330  1.0  -0.6692
  O  O151  1  0.935330  0.228070  0.124670  1.0  -0.5758
  O  O152  1  0.948630  0.303370  0.940670  1.0  -0.6185
  O  O153  1  0.918730  0.282670  0.519670  1.0  -0.6692
  O  O154  1  0.438600  0.040600  0.458000  1.0  -0.5792
  O  O155  1  0.363300  0.978600  0.274000  1.0  -0.6185
  O  O156  1  0.384000  0.969400  0.853000  1.0  -0.6695
  O  O157  1  0.105270  0.373930  0.791330  1.0  -0.5792
  O  O158  1  0.029970  0.311930  0.607330  1.0  -0.6184
  O  O159  1  0.050670  0.302730  0.186330  1.0  -0.6695
  O  O160  1  0.771930  0.707270  0.124670  1.0  -0.579
  O  O161  1  0.696630  0.645270  0.940670  1.0  -0.6185
  O  O162  1  0.717330  0.636070  0.519670  1.0  -0.6695
