# generated using pymatgen
data_CuHC4O3
_symmetry_space_group_name_H-M   'P 1'
_cell_length_a   25.87170000
_cell_length_b   25.87170000
_cell_length_c   6.26310000
_cell_angle_alpha   90.00000000
_cell_angle_beta   90.00000000
_cell_angle_gamma   120.00000000
_symmetry_Int_Tables_number   1
_chemical_formula_structural   CuHC4O3
_chemical_formula_sum   'Cu18 H18 C72 O54'
_cell_volume   3630.52900636
_cell_formula_units_Z   18
loop_
 _symmetry_equiv_pos_site_id
 _symmetry_equiv_pos_as_xyz
  1  'x, y, z'
loop_
 _atom_site_type_symbol
 _atom_site_label
 _atom_site_symmetry_multiplicity
 _atom_site_fract_x
 _atom_site_fract_y
 _atom_site_fract_z
 _atom_site_occupancy
 _atom_site_charge
  Cu  Cu1  1  0.946800  0.631700  0.985900  1.0  0.8769
  Cu  Cu2  1  0.613470  0.965030  0.319230  1.0  0.8769
  Cu  Cu3  1  0.280130  0.298370  0.652570  1.0  0.8745
  Cu  Cu4  1  0.368300  0.315100  0.985900  1.0  0.8762
  Cu  Cu5  1  0.034970  0.648430  0.319230  1.0  0.8757
  Cu  Cu6  1  0.701630  0.981770  0.652570  1.0  0.8762
  Cu  Cu7  1  0.684900  0.053200  0.985900  1.0  0.8782
  Cu  Cu8  1  0.351570  0.386530  0.319230  1.0  0.8782
  Cu  Cu9  1  0.018230  0.719870  0.652570  1.0  0.8779
  Cu  Cu10  1  0.053200  0.368300  0.014100  1.0  0.8764
  Cu  Cu11  1  0.719870  0.701630  0.347430  1.0  0.874
  Cu  Cu12  1  0.386530  0.034970  0.680770  1.0  0.8764
  Cu  Cu13  1  0.631700  0.684900  0.014100  1.0  0.8793
  Cu  Cu14  1  0.298370  0.018230  0.347430  1.0  0.8794
  Cu  Cu15  1  0.965030  0.351570  0.680770  1.0  0.8789
  Cu  Cu16  1  0.315100  0.946800  0.014100  1.0  0.8784
  Cu  Cu17  1  0.981770  0.280130  0.347430  1.0  0.878
  Cu  Cu18  1  0.648430  0.613470  0.680770  1.0  0.8784
  H  H19  1  0.038000  0.509300  0.630000  1.0  0.1478
  H  H20  1  0.704670  0.842630  0.963330  1.0  0.1479
  H  H21  1  0.371330  0.175970  0.296670  1.0  0.1478
  H  H22  1  0.490700  0.528700  0.630000  1.0  0.1477
  H  H23  1  0.157370  0.862030  0.963330  1.0  0.1492
  H  H24  1  0.824030  0.195370  0.296670  1.0  0.1477
  H  H25  1  0.471300  0.962000  0.630000  1.0  0.1484
  H  H26  1  0.137970  0.295330  0.963330  1.0  0.1504
  H  H27  1  0.804630  0.628670  0.296670  1.0  0.1484
  H  H28  1  0.962000  0.490700  0.370000  1.0  0.148
  H  H29  1  0.628670  0.824030  0.703330  1.0  0.148
  H  H30  1  0.295330  0.157370  0.036670  1.0  0.1483
  H  H31  1  0.509300  0.471300  0.370000  1.0  0.1471
  H  H32  1  0.175970  0.804630  0.703330  1.0  0.1471
  H  H33  1  0.842630  0.137970  0.036670  1.0  0.1487
  H  H34  1  0.528700  0.038000  0.370000  1.0  0.149
  H  H35  1  0.195370  0.371330  0.703330  1.0  0.149
  H  H36  1  0.862030  0.704670  0.036670  1.0  0.151
  C  C37  1  0.006200  0.586600  0.696000  1.0  0.6925
  C  C38  1  0.022000  0.505600  0.799000  1.0  -0.0359
  C  C39  1  0.004700  0.545400  0.866000  1.0  -0.105
  C  C40  1  0.988400  0.543200  0.083000  1.0  0.3211
  C  C41  1  0.672870  0.919930  0.029330  1.0  0.6925
  C  C42  1  0.688670  0.838930  0.132330  1.0  -0.0359
  C  C43  1  0.671370  0.878730  0.199330  1.0  -0.105
  C  C44  1  0.655070  0.876530  0.416330  1.0  0.3211
  C  C45  1  0.339530  0.253270  0.362670  1.0  0.6925
  C  C46  1  0.355330  0.172270  0.465670  1.0  -0.0359
  C  C47  1  0.338030  0.212070  0.532670  1.0  -0.1051
  C  C48  1  0.321730  0.209870  0.749670  1.0  0.3211
  C  C49  1  0.413400  0.419600  0.696000  1.0  0.6927
  C  C50  1  0.494400  0.516400  0.799000  1.0  -0.0348
  C  C51  1  0.454600  0.459300  0.866000  1.0  -0.1049
  C  C52  1  0.456800  0.445200  0.083000  1.0  0.3209
  C  C53  1  0.080070  0.752930  0.029330  1.0  0.6927
  C  C54  1  0.161070  0.849730  0.132330  1.0  -0.0348
  C  C55  1  0.121270  0.792630  0.199330  1.0  -0.105
  C  C56  1  0.123470  0.778530  0.416330  1.0  0.3209
  C  C57  1  0.746730  0.086270  0.362670  1.0  0.6927
  C  C58  1  0.827730  0.183070  0.465670  1.0  -0.0348
  C  C59  1  0.787930  0.125970  0.532670  1.0  -0.1049
  C  C60  1  0.790130  0.111870  0.749670  1.0  0.3209
  C  C61  1  0.580400  0.993800  0.696000  1.0  0.6902
  C  C62  1  0.483600  0.978000  0.799000  1.0  -0.036
  C  C63  1  0.540700  0.995300  0.866000  1.0  -0.1059
  C  C64  1  0.554800  0.011600  0.083000  1.0  0.3223
  C  C65  1  0.247070  0.327130  0.029330  1.0  0.6903
  C  C66  1  0.150270  0.311330  0.132330  1.0  -0.036
  C  C67  1  0.207370  0.328630  0.199330  1.0  -0.1058
  C  C68  1  0.221470  0.344930  0.416330  1.0  0.3223
  C  C69  1  0.913730  0.660470  0.362670  1.0  0.6902
  C  C70  1  0.816930  0.644670  0.465670  1.0  -0.036
  C  C71  1  0.874030  0.661970  0.532670  1.0  -0.1059
  C  C72  1  0.888130  0.678270  0.749670  1.0  0.3223
  C  C73  1  0.993800  0.413400  0.304000  1.0  0.6919
  C  C74  1  0.978000  0.494400  0.201000  1.0  -0.0345
  C  C75  1  0.995300  0.454600  0.134000  1.0  -0.1049
  C  C76  1  0.011600  0.456800  0.917000  1.0  0.321
  C  C77  1  0.660470  0.746730  0.637330  1.0  0.6919
  C  C78  1  0.644670  0.827730  0.534330  1.0  -0.0345
  C  C79  1  0.661970  0.787930  0.467330  1.0  -0.1049
  C  C80  1  0.678270  0.790130  0.250330  1.0  0.3209
  C  C81  1  0.327130  0.080070  0.970670  1.0  0.6919
  C  C82  1  0.311330  0.161070  0.867670  1.0  -0.0345
  C  C83  1  0.328630  0.121270  0.800670  1.0  -0.1048
  C  C84  1  0.344930  0.123470  0.583670  1.0  0.321
  C  C85  1  0.586600  0.580400  0.304000  1.0  0.6929
  C  C86  1  0.505600  0.483600  0.201000  1.0  -0.0339
  C  C87  1  0.545400  0.540700  0.134000  1.0  -0.1055
  C  C88  1  0.543200  0.554800  0.917000  1.0  0.3202
  C  C89  1  0.253270  0.913730  0.637330  1.0  0.6929
  C  C90  1  0.172270  0.816930  0.534330  1.0  -0.0339
  C  C91  1  0.212070  0.874030  0.467330  1.0  -0.1055
  C  C92  1  0.209870  0.888130  0.250330  1.0  0.3202
  C  C93  1  0.919930  0.247070  0.970670  1.0  0.6929
  C  C94  1  0.838930  0.150270  0.867670  1.0  -0.0339
  C  C95  1  0.878730  0.207370  0.800670  1.0  -0.1055
  C  C96  1  0.876530  0.221470  0.583670  1.0  0.3202
  C  C97  1  0.419600  0.006200  0.304000  1.0  0.6914
  C  C98  1  0.516400  0.022000  0.201000  1.0  -0.0354
  C  C99  1  0.459300  0.004700  0.134000  1.0  -0.1051
  C  C100  1  0.445200  0.988400  0.917000  1.0  0.3215
  C  C101  1  0.086270  0.339530  0.637330  1.0  0.6914
  C  C102  1  0.183070  0.355330  0.534330  1.0  -0.0354
  C  C103  1  0.125970  0.338030  0.467330  1.0  -0.1051
  C  C104  1  0.111870  0.321730  0.250330  1.0  0.3215
  C  C105  1  0.752930  0.672870  0.970670  1.0  0.6917
  C  C106  1  0.849730  0.688670  0.867670  1.0  -0.0354
  C  C107  1  0.792630  0.671370  0.800670  1.0  -0.1051
  C  C108  1  0.778530  0.655070  0.583670  1.0  0.3215
  O  O109  1  0.042400  0.601900  0.539000  1.0  -0.5674
  O  O110  1  0.978000  0.615200  0.743000  1.0  -0.6528
  O  O111  1  0.970800  0.583600  0.145000  1.0  -0.6785
  O  O112  1  0.709070  0.935230  0.872330  1.0  -0.5655
  O  O113  1  0.644670  0.948530  0.076330  1.0  -0.6529
  O  O114  1  0.637470  0.916930  0.478330  1.0  -0.6785
  O  O115  1  0.375730  0.268570  0.205670  1.0  -0.5674
  O  O116  1  0.311330  0.281870  0.409670  1.0  -0.6529
  O  O117  1  0.304130  0.250270  0.811670  1.0  -0.6786
  O  O118  1  0.398100  0.440500  0.539000  1.0  -0.569
  O  O119  1  0.384800  0.362800  0.743000  1.0  -0.653
  O  O120  1  0.416400  0.387200  0.145000  1.0  -0.6783
  O  O121  1  0.064770  0.773830  0.872330  1.0  -0.5685
  O  O122  1  0.051470  0.696130  0.076330  1.0  -0.653
  O  O123  1  0.083070  0.720530  0.478330  1.0  -0.6783
  O  O124  1  0.731430  0.107170  0.205670  1.0  -0.569
  O  O125  1  0.718130  0.029470  0.409670  1.0  -0.653
  O  O126  1  0.749730  0.053870  0.811670  1.0  -0.6782
  O  O127  1  0.559500  0.957600  0.539000  1.0  -0.5666
  O  O128  1  0.637200  0.022000  0.743000  1.0  -0.6533
  O  O129  1  0.612800  0.029200  0.145000  1.0  -0.6794
  O  O130  1  0.226170  0.290930  0.872330  1.0  -0.5666
  O  O131  1  0.303870  0.355330  0.076330  1.0  -0.6533
  O  O132  1  0.279470  0.362530  0.478330  1.0  -0.6794
  O  O133  1  0.892830  0.624270  0.205670  1.0  -0.5666
  O  O134  1  0.970530  0.688670  0.409670  1.0  -0.6533
  O  O135  1  0.946130  0.695870  0.811670  1.0  -0.6793
  O  O136  1  0.957600  0.398100  0.461000  1.0  -0.5643
  O  O137  1  0.022000  0.384800  0.257000  1.0  -0.6528
  O  O138  1  0.029200  0.416400  0.855000  1.0  -0.6773
  O  O139  1  0.624270  0.731430  0.794330  1.0  -0.5643
  O  O140  1  0.688670  0.718130  0.590330  1.0  -0.6528
  O  O141  1  0.695870  0.749730  0.188330  1.0  -0.6774
  O  O142  1  0.290930  0.064770  0.127670  1.0  -0.5629
  O  O143  1  0.355330  0.051470  0.923670  1.0  -0.6528
  O  O144  1  0.362530  0.083070  0.521670  1.0  -0.6773
  O  O145  1  0.601900  0.559500  0.461000  1.0  -0.5664
  O  O146  1  0.615200  0.637200  0.257000  1.0  -0.6539
  O  O147  1  0.583600  0.612800  0.855000  1.0  -0.6799
  O  O148  1  0.268570  0.892830  0.794330  1.0  -0.5664
  O  O149  1  0.281870  0.970530  0.590330  1.0  -0.6539
  O  O150  1  0.250270  0.946130  0.188330  1.0  -0.6798
  O  O151  1  0.935230  0.226170  0.127670  1.0  -0.5651
  O  O152  1  0.948530  0.303870  0.923670  1.0  -0.6539
  O  O153  1  0.916930  0.279470  0.521670  1.0  -0.6799
  O  O154  1  0.440500  0.042400  0.461000  1.0  -0.5669
  O  O155  1  0.362800  0.978000  0.257000  1.0  -0.6528
  O  O156  1  0.387200  0.970800  0.855000  1.0  -0.6796
  O  O157  1  0.107170  0.375730  0.794330  1.0  -0.5669
  O  O158  1  0.029470  0.311330  0.590330  1.0  -0.6528
  O  O159  1  0.053870  0.304130  0.188330  1.0  -0.6795
  O  O160  1  0.773830  0.709070  0.127670  1.0  -0.5669
  O  O161  1  0.696130  0.644670  0.923670  1.0  -0.6528
  O  O162  1  0.720530  0.637470  0.521670  1.0  -0.6796
