# generated using pymatgen
data_CuHC4O3
_symmetry_space_group_name_H-M   'P 1'
_cell_length_a   25.85920000
_cell_length_b   25.85920000
_cell_length_c   6.26960000
_cell_angle_alpha   90.00000000
_cell_angle_beta   90.00000000
_cell_angle_gamma   120.00000000
_symmetry_Int_Tables_number   1
_chemical_formula_structural   CuHC4O3
_chemical_formula_sum   'Cu18 H18 C72 O54'
_cell_volume   3630.78586166
_cell_formula_units_Z   18
loop_
 _symmetry_equiv_pos_site_id
 _symmetry_equiv_pos_as_xyz
  1  'x, y, z'
loop_
 _atom_site_type_symbol
 _atom_site_label
 _atom_site_symmetry_multiplicity
 _atom_site_fract_x
 _atom_site_fract_y
 _atom_site_fract_z
 _atom_site_occupancy
 _atom_site_charge
  Cu  Cu1  1  0.945900  0.629500  0.986000  1.0  0.8727
  Cu  Cu2  1  0.612570  0.962830  0.319330  1.0  0.8727
  Cu  Cu3  1  0.279230  0.296170  0.652670  1.0  0.8756
  Cu  Cu4  1  0.370500  0.316400  0.986000  1.0  0.8745
  Cu  Cu5  1  0.037170  0.649730  0.319330  1.0  0.877
  Cu  Cu6  1  0.703830  0.983070  0.652670  1.0  0.8745
  Cu  Cu7  1  0.683600  0.054100  0.986000  1.0  0.878
  Cu  Cu8  1  0.350270  0.387430  0.319330  1.0  0.8754
  Cu  Cu9  1  0.016930  0.720770  0.652670  1.0  0.8754
  Cu  Cu10  1  0.054100  0.370500  0.014000  1.0  0.8755
  Cu  Cu11  1  0.720770  0.703830  0.347330  1.0  0.8779
  Cu  Cu12  1  0.387430  0.037170  0.680670  1.0  0.8755
  Cu  Cu13  1  0.629500  0.683600  0.014000  1.0  0.8746
  Cu  Cu14  1  0.296170  0.016930  0.347330  1.0  0.8746
  Cu  Cu15  1  0.962830  0.350270  0.680670  1.0  0.8773
  Cu  Cu16  1  0.316400  0.945900  0.014000  1.0  0.877
  Cu  Cu17  1  0.983070  0.279230  0.347330  1.0  0.8745
  Cu  Cu18  1  0.649730  0.612570  0.680670  1.0  0.8745
  H  H19  1  0.034900  0.507000  0.634000  1.0  0.1456
  H  H20  1  0.701570  0.840330  0.967330  1.0  0.1495
  H  H21  1  0.368230  0.173670  0.300670  1.0  0.1456
  H  H22  1  0.493000  0.527900  0.634000  1.0  0.1465
  H  H23  1  0.159670  0.861230  0.967330  1.0  0.1471
  H  H24  1  0.826330  0.194570  0.300670  1.0  0.1465
  H  H25  1  0.472100  0.965100  0.634000  1.0  0.1466
  H  H26  1  0.138770  0.298430  0.967330  1.0  0.1467
  H  H27  1  0.805430  0.631770  0.300670  1.0  0.1466
  H  H28  1  0.965100  0.493000  0.366000  1.0  0.1475
  H  H29  1  0.631770  0.826330  0.699330  1.0  0.1475
  H  H30  1  0.298430  0.159670  0.032670  1.0  0.1513
  H  H31  1  0.507000  0.472100  0.366000  1.0  0.1478
  H  H32  1  0.173670  0.805430  0.699330  1.0  0.1478
  H  H33  1  0.840330  0.138770  0.032670  1.0  0.1485
  H  H34  1  0.527900  0.034900  0.366000  1.0  0.1479
  H  H35  1  0.194570  0.368230  0.699330  1.0  0.1479
  H  H36  1  0.861230  0.701570  0.032670  1.0  0.1482
  C  C37  1  0.005000  0.587300  0.710000  1.0  0.6681
  C  C38  1  0.022300  0.501900  0.792000  1.0  0.0132
  C  C39  1  0.007200  0.543200  0.856000  1.0  -0.1027
  C  C40  1  0.987600  0.545100  0.072000  1.0  0.2351
  C  C41  1  0.671670  0.920630  0.043330  1.0  0.6683
  C  C42  1  0.688970  0.835230  0.125330  1.0  0.0131
  C  C43  1  0.673870  0.876530  0.189330  1.0  -0.1026
  C  C44  1  0.654270  0.878430  0.405330  1.0  0.235
  C  C45  1  0.338330  0.253970  0.376670  1.0  0.6681
  C  C46  1  0.355630  0.168570  0.458670  1.0  0.0132
  C  C47  1  0.340530  0.209870  0.522670  1.0  -0.1027
  C  C48  1  0.320930  0.211770  0.738670  1.0  0.2349
  C  C49  1  0.412700  0.417700  0.710000  1.0  0.6673
  C  C50  1  0.498100  0.520400  0.792000  1.0  0.0115
  C  C51  1  0.456800  0.464000  0.856000  1.0  -0.1018
  C  C52  1  0.454900  0.442500  0.072000  1.0  0.2336
  C  C53  1  0.079370  0.751030  0.043330  1.0  0.6673
  C  C54  1  0.164770  0.853730  0.125330  1.0  0.0117
  C  C55  1  0.123470  0.797330  0.189330  1.0  -0.1018
  C  C56  1  0.121570  0.775830  0.405330  1.0  0.2336
  C  C57  1  0.746030  0.084370  0.376670  1.0  0.6673
  C  C58  1  0.831430  0.187070  0.458670  1.0  0.0115
  C  C59  1  0.790130  0.130670  0.522670  1.0  -0.1018
  C  C60  1  0.788230  0.109170  0.738670  1.0  0.2336
  C  C61  1  0.582300  0.995000  0.710000  1.0  0.6647
  C  C62  1  0.479600  0.977700  0.792000  1.0  0.0134
  C  C63  1  0.536000  0.992800  0.856000  1.0  -0.1019
  C  C64  1  0.557500  0.012400  0.072000  1.0  0.2366
  C  C65  1  0.248970  0.328330  0.043330  1.0  0.6647
  C  C66  1  0.146270  0.311030  0.125330  1.0  0.013
  C  C67  1  0.202670  0.326130  0.189330  1.0  -0.1019
  C  C68  1  0.224170  0.345730  0.405330  1.0  0.2364
  C  C69  1  0.915630  0.661670  0.376670  1.0  0.6649
  C  C70  1  0.812930  0.644370  0.458670  1.0  0.0134
  C  C71  1  0.869330  0.659470  0.522670  1.0  -0.1018
  C  C72  1  0.890830  0.679070  0.738670  1.0  0.2367
  C  C73  1  0.995000  0.412700  0.290000  1.0  0.6673
  C  C74  1  0.977700  0.498100  0.208000  1.0  0.0135
  C  C75  1  0.992800  0.456800  0.144000  1.0  -0.1023
  C  C76  1  0.012400  0.454900  0.928000  1.0  0.2337
  C  C77  1  0.661670  0.746030  0.623330  1.0  0.6673
  C  C78  1  0.644370  0.831430  0.541330  1.0  0.0135
  C  C79  1  0.659470  0.790130  0.477330  1.0  -0.1023
  C  C80  1  0.679070  0.788230  0.261330  1.0  0.2335
  C  C81  1  0.328330  0.079370  0.956670  1.0  0.6675
  C  C82  1  0.311030  0.164770  0.874670  1.0  0.0134
  C  C83  1  0.326130  0.123470  0.810670  1.0  -0.1022
  C  C84  1  0.345730  0.121570  0.594670  1.0  0.2336
  C  C85  1  0.587300  0.582300  0.290000  1.0  0.6677
  C  C86  1  0.501900  0.479600  0.208000  1.0  0.0124
  C  C87  1  0.543200  0.536000  0.144000  1.0  -0.1036
  C  C88  1  0.545100  0.557500  0.928000  1.0  0.2339
  C  C89  1  0.253970  0.915630  0.623330  1.0  0.6677
  C  C90  1  0.168570  0.812930  0.541330  1.0  0.0124
  C  C91  1  0.209870  0.869330  0.477330  1.0  -0.1036
  C  C92  1  0.211770  0.890830  0.261330  1.0  0.2339
  C  C93  1  0.920630  0.248970  0.956670  1.0  0.6677
  C  C94  1  0.835230  0.146270  0.874670  1.0  0.0126
  C  C95  1  0.876530  0.202670  0.810670  1.0  -0.1036
  C  C96  1  0.878430  0.224170  0.594670  1.0  0.2339
  C  C97  1  0.417700  0.005000  0.290000  1.0  0.6648
  C  C98  1  0.520400  0.022300  0.208000  1.0  0.0129
  C  C99  1  0.464000  0.007200  0.144000  1.0  -0.1031
  C  C100  1  0.442500  0.987600  0.928000  1.0  0.2348
  C  C101  1  0.084370  0.338330  0.623330  1.0  0.665
  C  C102  1  0.187070  0.355630  0.541330  1.0  0.0129
  C  C103  1  0.130670  0.340530  0.477330  1.0  -0.103
  C  C104  1  0.109170  0.320930  0.261330  1.0  0.2348
  C  C105  1  0.751030  0.671670  0.956670  1.0  0.6648
  C  C106  1  0.853730  0.688970  0.874670  1.0  0.0125
  C  C107  1  0.797330  0.673870  0.810670  1.0  -0.1031
  C  C108  1  0.775830  0.654270  0.594670  1.0  0.2346
  O  O109  1  0.038700  0.597700  0.549000  1.0  -0.5907
  O  O110  1  0.981600  0.617100  0.738000  1.0  -0.5589
  O  O111  1  0.970000  0.583000  0.152000  1.0  -0.6846
  O  O112  1  0.705370  0.931030  0.882330  1.0  -0.5922
  O  O113  1  0.648270  0.950430  0.071330  1.0  -0.559
  O  O114  1  0.636670  0.916330  0.485330  1.0  -0.6846
  O  O115  1  0.372030  0.264370  0.215670  1.0  -0.5907
  O  O116  1  0.314930  0.283770  0.404670  1.0  -0.559
  O  O117  1  0.303330  0.249670  0.818670  1.0  -0.6844
  O  O118  1  0.402300  0.441000  0.549000  1.0  -0.5903
  O  O119  1  0.382900  0.364500  0.738000  1.0  -0.5593
  O  O120  1  0.417000  0.387000  0.152000  1.0  -0.6841
  O  O121  1  0.068970  0.774330  0.882330  1.0  -0.5915
  O  O122  1  0.049570  0.697830  0.071330  1.0  -0.5594
  O  O123  1  0.083670  0.720330  0.485330  1.0  -0.6841
  O  O124  1  0.735630  0.107670  0.215670  1.0  -0.5902
  O  O125  1  0.716230  0.031170  0.404670  1.0  -0.5594
  O  O126  1  0.750330  0.053670  0.818670  1.0  -0.6841
  O  O127  1  0.559000  0.961300  0.549000  1.0  -0.5907
  O  O128  1  0.635500  0.018400  0.738000  1.0  -0.5579
  O  O129  1  0.613000  0.030000  0.152000  1.0  -0.6866
  O  O130  1  0.225670  0.294630  0.882330  1.0  -0.5907
  O  O131  1  0.302170  0.351730  0.071330  1.0  -0.558
  O  O132  1  0.279670  0.363330  0.485330  1.0  -0.6863
  O  O133  1  0.892330  0.627970  0.215670  1.0  -0.5907
  O  O134  1  0.968830  0.685070  0.404670  1.0  -0.5579
  O  O135  1  0.946330  0.696670  0.818670  1.0  -0.6866
  O  O136  1  0.961300  0.402300  0.451000  1.0  -0.5896
  O  O137  1  0.018400  0.382900  0.262000  1.0  -0.5571
  O  O138  1  0.030000  0.417000  0.848000  1.0  -0.6838
  O  O139  1  0.627970  0.735630  0.784330  1.0  -0.5896
  O  O140  1  0.685070  0.716230  0.595330  1.0  -0.5572
  O  O141  1  0.696670  0.750330  0.181330  1.0  -0.6833
  O  O142  1  0.294630  0.068970  0.117670  1.0  -0.5915
  O  O143  1  0.351730  0.049570  0.928670  1.0  -0.5571
  O  O144  1  0.363330  0.083670  0.514670  1.0  -0.6838
  O  O145  1  0.597700  0.559000  0.451000  1.0  -0.5894
  O  O146  1  0.617100  0.635500  0.262000  1.0  -0.5595
  O  O147  1  0.583000  0.613000  0.848000  1.0  -0.6868
  O  O148  1  0.264370  0.892330  0.784330  1.0  -0.5893
  O  O149  1  0.283770  0.968830  0.595330  1.0  -0.5597
  O  O150  1  0.249670  0.946330  0.181330  1.0  -0.6868
  O  O151  1  0.931030  0.225670  0.117670  1.0  -0.5906
  O  O152  1  0.950430  0.302170  0.928670  1.0  -0.5597
  O  O153  1  0.916330  0.279670  0.514670  1.0  -0.6868
  O  O154  1  0.441000  0.038700  0.451000  1.0  -0.5917
  O  O155  1  0.364500  0.981600  0.262000  1.0  -0.5587
  O  O156  1  0.387000  0.970000  0.848000  1.0  -0.685
  O  O157  1  0.107670  0.372030  0.784330  1.0  -0.5917
  O  O158  1  0.031170  0.314930  0.595330  1.0  -0.5587
  O  O159  1  0.053670  0.303330  0.181330  1.0  -0.685
  O  O160  1  0.774330  0.705370  0.117670  1.0  -0.5918
  O  O161  1  0.697830  0.648270  0.928670  1.0  -0.5588
  O  O162  1  0.720330  0.636670  0.514670  1.0  -0.6847
