# generated using pymatgen
data_CuHC4O3
_symmetry_space_group_name_H-M   'P 1'
_cell_length_a   25.87610000
_cell_length_b   25.87610000
_cell_length_c   6.26260000
_cell_angle_alpha   90.00000000
_cell_angle_beta   90.00000000
_cell_angle_gamma   120.00000000
_symmetry_Int_Tables_number   1
_chemical_formula_structural   CuHC4O3
_chemical_formula_sum   'Cu18 H18 C72 O54'
_cell_volume   3631.47406608
_cell_formula_units_Z   18
loop_
 _symmetry_equiv_pos_site_id
 _symmetry_equiv_pos_as_xyz
  1  'x, y, z'
loop_
 _atom_site_type_symbol
 _atom_site_label
 _atom_site_symmetry_multiplicity
 _atom_site_fract_x
 _atom_site_fract_y
 _atom_site_fract_z
 _atom_site_occupancy
 _atom_site_charge
  Cu  Cu1  1  0.947300  0.629800  0.984000  1.0  0.8843
  Cu  Cu2  1  0.613970  0.963130  0.317330  1.0  0.8842
  Cu  Cu3  1  0.280630  0.296470  0.650670  1.0  0.8852
  Cu  Cu4  1  0.370200  0.317500  0.984000  1.0  0.8858
  Cu  Cu5  1  0.036870  0.650830  0.317330  1.0  0.886
  Cu  Cu6  1  0.703530  0.984170  0.650670  1.0  0.8849
  Cu  Cu7  1  0.682500  0.052700  0.984000  1.0  0.8871
  Cu  Cu8  1  0.349170  0.386030  0.317330  1.0  0.8869
  Cu  Cu9  1  0.015830  0.719370  0.650670  1.0  0.8866
  Cu  Cu10  1  0.052700  0.370200  0.016000  1.0  0.8861
  Cu  Cu11  1  0.719370  0.703530  0.349330  1.0  0.8868
  Cu  Cu12  1  0.386030  0.036870  0.682670  1.0  0.8861
  Cu  Cu13  1  0.629800  0.682500  0.016000  1.0  0.885
  Cu  Cu14  1  0.296470  0.015830  0.349330  1.0  0.8841
  Cu  Cu15  1  0.963130  0.349170  0.682670  1.0  0.8852
  Cu  Cu16  1  0.317500  0.947300  0.016000  1.0  0.8855
  Cu  Cu17  1  0.984170  0.280630  0.349330  1.0  0.8849
  Cu  Cu18  1  0.650830  0.613970  0.682670  1.0  0.8853
  H  H19  1  0.036500  0.505000  0.629000  1.0  0.1576
  H  H20  1  0.703170  0.838330  0.962330  1.0  0.1573
  H  H21  1  0.369830  0.171670  0.295670  1.0  0.1576
  H  H22  1  0.495000  0.531500  0.629000  1.0  0.1565
  H  H23  1  0.161670  0.864830  0.962330  1.0  0.1597
  H  H24  1  0.828330  0.198170  0.295670  1.0  0.1565
  H  H25  1  0.468500  0.963500  0.629000  1.0  0.1585
  H  H26  1  0.135170  0.296830  0.962330  1.0  0.1592
  H  H27  1  0.801830  0.630170  0.295670  1.0  0.1585
  H  H28  1  0.963500  0.495000  0.371000  1.0  0.1583
  H  H29  1  0.630170  0.828330  0.704330  1.0  0.1583
  H  H30  1  0.296830  0.161670  0.037670  1.0  0.1579
  H  H31  1  0.505000  0.468500  0.371000  1.0  0.1557
  H  H32  1  0.171670  0.801830  0.704330  1.0  0.1557
  H  H33  1  0.838330  0.135170  0.037670  1.0  0.1587
  H  H34  1  0.531500  0.036500  0.371000  1.0  0.159
  H  H35  1  0.198170  0.369830  0.704330  1.0  0.159
  H  H36  1  0.864830  0.703170  0.037670  1.0  0.1595
  C  C37  1  0.007200  0.589200  0.711000  1.0  0.7075
  C  C38  1  0.020300  0.501900  0.795000  1.0  -0.059
  C  C39  1  0.005300  0.544400  0.859000  1.0  -0.0928
  C  C40  1  0.985000  0.543000  0.071000  1.0  0.305
  C  C41  1  0.673870  0.922530  0.044330  1.0  0.7075
  C  C42  1  0.686970  0.835230  0.128330  1.0  -0.059
  C  C43  1  0.671970  0.877730  0.192330  1.0  -0.0927
  C  C44  1  0.651670  0.876330  0.404330  1.0  0.305
  C  C45  1  0.340530  0.255870  0.377670  1.0  0.7075
  C  C46  1  0.353630  0.168570  0.461670  1.0  -0.059
  C  C47  1  0.338630  0.211070  0.525670  1.0  -0.0928
  C  C48  1  0.318330  0.209670  0.737670  1.0  0.305
  C  C49  1  0.410800  0.418000  0.711000  1.0  0.7076
  C  C50  1  0.498100  0.518400  0.795000  1.0  -0.0591
  C  C51  1  0.455600  0.460900  0.859000  1.0  -0.0921
  C  C52  1  0.457000  0.442000  0.071000  1.0  0.305
  C  C53  1  0.077470  0.751330  0.044330  1.0  0.7076
  C  C54  1  0.164770  0.851730  0.128330  1.0  -0.0591
  C  C55  1  0.122270  0.794230  0.192330  1.0  -0.0921
  C  C56  1  0.123670  0.775330  0.404330  1.0  0.305
  C  C57  1  0.744130  0.084670  0.377670  1.0  0.7076
  C  C58  1  0.831430  0.185070  0.461670  1.0  -0.0591
  C  C59  1  0.788930  0.127570  0.525670  1.0  -0.0921
  C  C60  1  0.790330  0.108670  0.737670  1.0  0.305
  C  C61  1  0.582000  0.992800  0.711000  1.0  0.7043
  C  C62  1  0.481600  0.979700  0.795000  1.0  -0.0584
  C  C63  1  0.539100  0.994700  0.859000  1.0  -0.0926
  C  C64  1  0.558000  0.015000  0.071000  1.0  0.3067
  C  C65  1  0.248670  0.326130  0.044330  1.0  0.7043
  C  C66  1  0.148270  0.313030  0.128330  1.0  -0.0584
  C  C67  1  0.205770  0.328030  0.192330  1.0  -0.0926
  C  C68  1  0.224670  0.348330  0.404330  1.0  0.3067
  C  C69  1  0.915330  0.659470  0.377670  1.0  0.7043
  C  C70  1  0.814930  0.646370  0.461670  1.0  -0.0584
  C  C71  1  0.872430  0.661370  0.525670  1.0  -0.0926
  C  C72  1  0.891330  0.681670  0.737670  1.0  0.3067
  C  C73  1  0.992800  0.410800  0.289000  1.0  0.7061
  C  C74  1  0.979700  0.498100  0.205000  1.0  -0.0583
  C  C75  1  0.994700  0.455600  0.141000  1.0  -0.0918
  C  C76  1  0.015000  0.457000  0.929000  1.0  0.3048
  C  C77  1  0.659470  0.744130  0.622330  1.0  0.7061
  C  C78  1  0.646370  0.831430  0.538330  1.0  -0.0583
  C  C79  1  0.661370  0.788930  0.474330  1.0  -0.0918
  C  C80  1  0.681670  0.790330  0.262330  1.0  0.3048
  C  C81  1  0.326130  0.077470  0.955670  1.0  0.7062
  C  C82  1  0.313030  0.164770  0.871670  1.0  -0.0583
  C  C83  1  0.328030  0.122270  0.807670  1.0  -0.0917
  C  C84  1  0.348330  0.123670  0.595670  1.0  0.3048
  C  C85  1  0.589200  0.582000  0.289000  1.0  0.7072
  C  C86  1  0.501900  0.481600  0.205000  1.0  -0.0589
  C  C87  1  0.544400  0.539100  0.141000  1.0  -0.0922
  C  C88  1  0.543000  0.558000  0.929000  1.0  0.3054
  C  C89  1  0.255870  0.915330  0.622330  1.0  0.7072
  C  C90  1  0.168570  0.814930  0.538330  1.0  -0.0589
  C  C91  1  0.211070  0.872430  0.474330  1.0  -0.0921
  C  C92  1  0.209670  0.891330  0.262330  1.0  0.3054
  C  C93  1  0.922530  0.248670  0.955670  1.0  0.7072
  C  C94  1  0.835230  0.148270  0.871670  1.0  -0.0589
  C  C95  1  0.877730  0.205770  0.807670  1.0  -0.0923
  C  C96  1  0.876330  0.224670  0.595670  1.0  0.3054
  C  C97  1  0.418000  0.007200  0.289000  1.0  0.7046
  C  C98  1  0.518400  0.020300  0.205000  1.0  -0.0598
  C  C99  1  0.460900  0.005300  0.141000  1.0  -0.0921
  C  C100  1  0.442000  0.985000  0.929000  1.0  0.3061
  C  C101  1  0.084670  0.340530  0.622330  1.0  0.7046
  C  C102  1  0.185070  0.353630  0.538330  1.0  -0.0598
  C  C103  1  0.127570  0.338630  0.474330  1.0  -0.0921
  C  C104  1  0.108670  0.318330  0.262330  1.0  0.3061
  C  C105  1  0.751330  0.673870  0.955670  1.0  0.7046
  C  C106  1  0.851730  0.686970  0.871670  1.0  -0.0598
  C  C107  1  0.794230  0.671970  0.807670  1.0  -0.092
  C  C108  1  0.775330  0.651670  0.595670  1.0  0.3061
  O  O109  1  0.040900  0.599100  0.547000  1.0  -0.5774
  O  O110  1  0.979600  0.615300  0.724000  1.0  -0.5929
  O  O111  1  0.968700  0.582000  0.165000  1.0  -0.7327
  O  O112  1  0.707570  0.932430  0.880330  1.0  -0.5817
  O  O113  1  0.646270  0.948630  0.057330  1.0  -0.5929
  O  O114  1  0.635370  0.915330  0.498330  1.0  -0.7327
  O  O115  1  0.374230  0.265770  0.213670  1.0  -0.5774
  O  O116  1  0.312930  0.281970  0.390670  1.0  -0.5929
  O  O117  1  0.302030  0.248670  0.831670  1.0  -0.7328
  O  O118  1  0.400900  0.441800  0.547000  1.0  -0.5784
  O  O119  1  0.384700  0.364300  0.724000  1.0  -0.5911
  O  O120  1  0.418000  0.386700  0.165000  1.0  -0.7332
  O  O121  1  0.067570  0.775130  0.880330  1.0  -0.5816
  O  O122  1  0.051370  0.697630  0.057330  1.0  -0.591
  O  O123  1  0.084670  0.720030  0.498330  1.0  -0.7331
  O  O124  1  0.734230  0.108470  0.213670  1.0  -0.5784
  O  O125  1  0.718030  0.030970  0.390670  1.0  -0.591
  O  O126  1  0.751330  0.053370  0.831670  1.0  -0.7332
  O  O127  1  0.558200  0.959100  0.547000  1.0  -0.5786
  O  O128  1  0.635700  0.020400  0.724000  1.0  -0.5906
  O  O129  1  0.613300  0.031300  0.165000  1.0  -0.7367
  O  O130  1  0.224870  0.292430  0.880330  1.0  -0.5786
  O  O131  1  0.302370  0.353730  0.057330  1.0  -0.5907
  O  O132  1  0.279970  0.364630  0.498330  1.0  -0.7367
  O  O133  1  0.891530  0.625770  0.213670  1.0  -0.5786
  O  O134  1  0.969030  0.687070  0.390670  1.0  -0.5906
  O  O135  1  0.946630  0.697970  0.831670  1.0  -0.7373
  O  O136  1  0.959100  0.400900  0.453000  1.0  -0.5758
  O  O137  1  0.020400  0.384700  0.276000  1.0  -0.5892
  O  O138  1  0.031300  0.418000  0.835000  1.0  -0.7314
  O  O139  1  0.625770  0.734230  0.786330  1.0  -0.5758
  O  O140  1  0.687070  0.718030  0.609330  1.0  -0.5892
  O  O141  1  0.697970  0.751330  0.168330  1.0  -0.7314
  O  O142  1  0.292430  0.067570  0.119670  1.0  -0.5797
  O  O143  1  0.353730  0.051370  0.942670  1.0  -0.5892
  O  O144  1  0.364630  0.084670  0.501670  1.0  -0.7314
  O  O145  1  0.599100  0.558200  0.453000  1.0  -0.5775
  O  O146  1  0.615300  0.635700  0.276000  1.0  -0.5943
  O  O147  1  0.582000  0.613300  0.835000  1.0  -0.7347
  O  O148  1  0.265770  0.891530  0.786330  1.0  -0.5775
  O  O149  1  0.281970  0.969030  0.609330  1.0  -0.5943
  O  O150  1  0.248670  0.946630  0.168330  1.0  -0.7347
  O  O151  1  0.932430  0.224870  0.119670  1.0  -0.5806
  O  O152  1  0.948630  0.302370  0.942670  1.0  -0.5943
  O  O153  1  0.915330  0.279970  0.501670  1.0  -0.7347
  O  O154  1  0.441800  0.040900  0.453000  1.0  -0.5777
  O  O155  1  0.364300  0.979600  0.276000  1.0  -0.5924
  O  O156  1  0.386700  0.968700  0.835000  1.0  -0.7348
  O  O157  1  0.108470  0.374230  0.786330  1.0  -0.5777
  O  O158  1  0.030970  0.312930  0.609330  1.0  -0.5924
  O  O159  1  0.053370  0.302030  0.168330  1.0  -0.7353
  O  O160  1  0.775130  0.707570  0.119670  1.0  -0.5777
  O  O161  1  0.697630  0.646270  0.942670  1.0  -0.5924
  O  O162  1  0.720030  0.635370  0.501670  1.0  -0.7348
