# generated using pymatgen
data_PrH3(CO)6
_symmetry_space_group_name_H-M   'P 1'
_cell_length_a   8.65590000
_cell_length_b   9.19990000
_cell_length_c   15.85700000
_cell_angle_alpha   90.00000000
_cell_angle_beta   90.00000000
_cell_angle_gamma   114.43800000
_symmetry_Int_Tables_number   1
_chemical_formula_structural   PrH3(CO)6
_chemical_formula_sum   'Pr4 H12 C24 O24'
_cell_volume   1149.61688638
_cell_formula_units_Z   4
loop_
 _symmetry_equiv_pos_site_id
 _symmetry_equiv_pos_as_xyz
  1  'x, y, z'
loop_
 _atom_site_type_symbol
 _atom_site_label
 _atom_site_symmetry_multiplicity
 _atom_site_fract_x
 _atom_site_fract_y
 _atom_site_fract_z
 _atom_site_occupancy
 _atom_site_charge
  Pr  Pr1  1  0.732370  0.749170  0.731010  1.0  2.2162
  Pr  Pr2  1  0.767630  0.250830  0.231010  1.0  2.2125
  Pr  Pr3  1  0.267630  0.250830  0.268990  1.0  2.2123
  Pr  Pr4  1  0.232370  0.749170  0.768990  1.0  2.2162
  H  H5  1  0.363000  0.521000  0.022000  1.0  0.1387
  H  H6  1  0.136000  0.339000  0.673000  1.0  0.1228
  H  H7  1  0.318000  0.161000  0.720000  1.0  0.1062
  H  H8  1  0.137000  0.479000  0.522000  1.0  0.1372
  H  H9  1  0.364000  0.661000  0.173000  1.0  0.1177
  H  H10  1  0.182000  0.839000  0.220000  1.0  0.1036
  H  H11  1  0.637000  0.479000  0.978000  1.0  0.138
  H  H12  1  0.864000  0.661000  0.327000  1.0  0.1183
  H  H13  1  0.682000  0.839000  0.280000  1.0  0.1039
  H  H14  1  0.863000  0.521000  0.478000  1.0  0.1396
  H  H15  1  0.636000  0.339000  0.827000  1.0  0.1231
  H  H16  1  0.818000  0.161000  0.780000  1.0  0.1062
  C  C17  1  0.226700  0.181500  0.702300  1.0  -0.182
  C  C18  1  0.460000  0.612300  0.905700  1.0  0.793
  C  C19  1  0.067300  0.034900  0.703900  1.0  0.7608
  C  C20  1  0.396600  0.470100  0.693900  1.0  0.7377
  C  C21  1  0.235200  0.324500  0.684200  1.0  -0.1245
  C  C22  1  0.444100  0.526600  0.987400  1.0  -0.1714
  C  C23  1  0.273300  0.818500  0.202300  1.0  -0.1833
  C  C24  1  0.040000  0.387700  0.405700  1.0  0.7918
  C  C25  1  0.432700  0.965100  0.203900  1.0  0.7604
  C  C26  1  0.103400  0.529900  0.193900  1.0  0.7381
  C  C27  1  0.264800  0.675500  0.184200  1.0  -0.1242
  C  C28  1  0.055900  0.473400  0.487400  1.0  -0.1694
  C  C29  1  0.773300  0.818500  0.297700  1.0  -0.1831
  C  C30  1  0.540000  0.387700  0.094300  1.0  0.7908
  C  C31  1  0.932700  0.965100  0.296100  1.0  0.7609
  C  C32  1  0.603400  0.529900  0.306100  1.0  0.7375
  C  C33  1  0.764800  0.675500  0.315800  1.0  -0.1242
  C  C34  1  0.555900  0.473400  0.012600  1.0  -0.1693
  C  C35  1  0.726700  0.181500  0.797700  1.0  -0.1825
  C  C36  1  0.960000  0.612300  0.594300  1.0  0.7917
  C  C37  1  0.567300  0.034900  0.796100  1.0  0.7615
  C  C38  1  0.896600  0.470100  0.806100  1.0  0.7373
  C  C39  1  0.735200  0.324500  0.815800  1.0  -0.1237
  C  C40  1  0.944100  0.526600  0.512600  1.0  -0.171
  O  O41  1  0.352000  0.667700  0.891500  1.0  -0.7193
  O  O42  1  0.578500  0.622300  0.857800  1.0  -0.7336
  O  O43  1  0.931000  0.033900  0.676500  1.0  -0.6556
  O  O44  1  0.537400  0.460600  0.689600  1.0  -0.6412
  O  O45  1  0.070500  0.910100  0.736700  1.0  -0.833
  O  O46  1  0.388500  0.602100  0.708030  1.0  -0.8079
  O  O47  1  0.148000  0.332300  0.391500  1.0  -0.7195
  O  O48  1  0.921500  0.377700  0.357800  1.0  -0.734
  O  O49  1  0.569000  0.966100  0.176500  1.0  -0.6563
  O  O50  1  0.962600  0.539400  0.189600  1.0  -0.6401
  O  O51  1  0.429500  0.089900  0.236700  1.0  -0.8326
  O  O52  1  0.111500  0.397900  0.208030  1.0  -0.8065
  O  O53  1  0.648000  0.332300  0.108500  1.0  -0.7206
  O  O54  1  0.421500  0.377700  0.142200  1.0  -0.7342
  O  O55  1  0.069000  0.966100  0.323500  1.0  -0.6553
  O  O56  1  0.462600  0.539400  0.310400  1.0  -0.6409
  O  O57  1  0.929500  0.089900  0.263300  1.0  -0.8352
  O  O58  1  0.611500  0.397900  0.291970  1.0  -0.8073
  O  O59  1  0.852000  0.667700  0.608500  1.0  -0.7198
  O  O60  1  0.078500  0.622300  0.642200  1.0  -0.7335
  O  O61  1  0.431000  0.033900  0.823500  1.0  -0.6537
  O  O62  1  0.037400  0.460600  0.810400  1.0  -0.6411
  O  O63  1  0.570500  0.910100  0.763300  1.0  -0.8357
  O  O64  1  0.888500  0.602100  0.791970  1.0  -0.8084
