# generated using pymatgen
data_Co2H6(C2N3)3
_symmetry_space_group_name_H-M   'P 1'
_cell_length_a   7.59870000
_cell_length_b   10.01660000
_cell_length_c   17.45780000
_cell_angle_alpha   90.00000000
_cell_angle_beta   90.00000000
_cell_angle_gamma   90.00000000
_symmetry_Int_Tables_number   1
_chemical_formula_structural   Co2H6(C2N3)3
_chemical_formula_sum   'Co8 H24 C24 N36'
_cell_volume   1328.76794791
_cell_formula_units_Z   4
loop_
 _symmetry_equiv_pos_site_id
 _symmetry_equiv_pos_as_xyz
  1  'x, y, z'
loop_
 _atom_site_type_symbol
 _atom_site_label
 _atom_site_symmetry_multiplicity
 _atom_site_fract_x
 _atom_site_fract_y
 _atom_site_fract_z
 _atom_site_occupancy
 _atom_site_charge
  Co  Co1  1  0.156130  0.250000  0.582170  1.0  0.4537
  Co  Co2  1  0.343870  0.750000  0.082170  1.0  0.4499
  Co  Co3  1  0.843870  0.750000  0.417830  1.0  0.4506
  Co  Co4  1  0.656130  0.250000  0.917830  1.0  0.4543
  Co  Co5  1  0.510660  0.750000  0.741550  1.0  0.8045
  Co  Co6  1  0.989340  0.250000  0.241550  1.0  0.8038
  Co  Co7  1  0.489340  0.250000  0.258450  1.0  0.8037
  Co  Co8  1  0.010660  0.750000  0.758450  1.0  0.8044
  H  H9  1  0.943530  0.442410  0.677230  1.0  0.0398
  H  H10  1  0.490750  0.444210  0.620850  1.0  0.0291
  H  H11  1  0.556470  0.557590  0.177230  1.0  0.0408
  H  H12  1  0.009250  0.555790  0.120850  1.0  0.0285
  H  H13  1  0.056470  0.942410  0.322770  1.0  0.0401
  H  H14  1  0.509250  0.944210  0.379150  1.0  0.0292
  H  H15  1  0.443530  0.057590  0.822770  1.0  0.0401
  H  H16  1  0.990750  0.055790  0.879150  1.0  0.029
  H  H17  1  0.056470  0.557590  0.322770  1.0  0.0393
  H  H18  1  0.509250  0.555790  0.379150  1.0  0.0286
  H  H19  1  0.443530  0.442410  0.822770  1.0  0.0389
  H  H20  1  0.990750  0.444210  0.879150  1.0  0.0295
  H  H21  1  0.943530  0.057590  0.677230  1.0  0.0393
  H  H22  1  0.490750  0.055790  0.620850  1.0  0.0289
  H  H23  1  0.556470  0.942410  0.177230  1.0  0.0387
  H  H24  1  0.009250  0.944210  0.120850  1.0  0.0285
  H  H25  1  0.506310  0.250000  0.472250  1.0  0.0248
  H  H26  1  0.935430  0.250000  0.439760  1.0  0.0398
  H  H27  1  0.993690  0.750000  0.972250  1.0  0.0253
  H  H28  1  0.564570  0.750000  0.939760  1.0  0.0386
  H  H29  1  0.493690  0.750000  0.527750  1.0  0.0253
  H  H30  1  0.064570  0.750000  0.560240  1.0  0.0395
  H  H31  1  0.006310  0.250000  0.027750  1.0  0.025
  H  H32  1  0.435430  0.250000  0.060240  1.0  0.0401
  C  C33  1  0.083570  0.480790  0.676160  1.0  0.2483
  C  C34  1  0.366040  0.483740  0.648250  1.0  0.2904
  C  C35  1  0.416430  0.519210  0.176160  1.0  0.2514
  C  C36  1  0.133960  0.516260  0.148250  1.0  0.2897
  C  C37  1  0.916430  0.980790  0.323840  1.0  0.2508
  C  C38  1  0.633960  0.983740  0.351750  1.0  0.2896
  C  C39  1  0.583570  0.019210  0.823840  1.0  0.2484
  C  C40  1  0.866040  0.016260  0.851750  1.0  0.2919
  C  C41  1  0.916430  0.519210  0.323840  1.0  0.2514
  C  C42  1  0.633960  0.516260  0.351750  1.0  0.2901
  C  C43  1  0.583570  0.480790  0.823840  1.0  0.2481
  C  C44  1  0.866040  0.483740  0.851750  1.0  0.2917
  C  C45  1  0.083570  0.019210  0.676160  1.0  0.2487
  C  C46  1  0.366040  0.016260  0.648250  1.0  0.2912
  C  C47  1  0.416430  0.980790  0.176160  1.0  0.2508
  C  C48  1  0.133960  0.983740  0.148250  1.0  0.2885
  C  C49  1  0.385730  0.250000  0.437350  1.0  0.3582
  C  C50  1  0.072760  0.250000  0.417320  1.0  0.231
  C  C51  1  0.114270  0.750000  0.937350  1.0  0.3559
  C  C52  1  0.427240  0.750000  0.917320  1.0  0.2332
  C  C53  1  0.614270  0.750000  0.562650  1.0  0.3562
  C  C54  1  0.927240  0.750000  0.582680  1.0  0.2312
  C  C55  1  0.885730  0.250000  0.062650  1.0  0.3578
  C  C56  1  0.572760  0.250000  0.082680  1.0  0.2294
  N  N57  1  0.206040  0.412470  0.638960  1.0  -0.4185
  N  N58  1  0.327560  0.598130  0.693950  1.0  -0.3441
  N  N59  1  0.151430  0.594960  0.709660  1.0  -0.2948
  N  N60  1  0.293960  0.587530  0.138960  1.0  -0.418
  N  N61  1  0.172440  0.401870  0.193950  1.0  -0.3448
  N  N62  1  0.348570  0.405040  0.209660  1.0  -0.2942
  N  N63  1  0.793960  0.912470  0.361040  1.0  -0.4187
  N  N64  1  0.672440  0.098130  0.306050  1.0  -0.3438
  N  N65  1  0.848570  0.094960  0.290340  1.0  -0.2944
  N  N66  1  0.706040  0.087530  0.861040  1.0  -0.4196
  N  N67  1  0.827560  0.901870  0.806050  1.0  -0.3453
  N  N68  1  0.651430  0.905040  0.790340  1.0  -0.2951
  N  N69  1  0.793960  0.587530  0.361040  1.0  -0.4191
  N  N70  1  0.672440  0.401870  0.306050  1.0  -0.345
  N  N71  1  0.848570  0.405040  0.290340  1.0  -0.2946
  N  N72  1  0.706040  0.412470  0.861040  1.0  -0.4187
  N  N73  1  0.827560  0.598130  0.806050  1.0  -0.3442
  N  N74  1  0.651430  0.594960  0.790340  1.0  -0.2952
  N  N75  1  0.206040  0.087530  0.638960  1.0  -0.4184
  N  N76  1  0.327560  0.901870  0.693950  1.0  -0.3449
  N  N77  1  0.151430  0.905040  0.709660  1.0  -0.2947
  N  N78  1  0.293960  0.912470  0.138960  1.0  -0.4185
  N  N79  1  0.172440  0.098130  0.193950  1.0  -0.344
  N  N80  1  0.348570  0.094960  0.209660  1.0  -0.294
  N  N81  1  0.219970  0.250000  0.472670  1.0  -0.3975
  N  N82  1  0.168240  0.250000  0.349930  1.0  -0.305
  N  N83  1  0.342380  0.250000  0.358740  1.0  -0.3049
  N  N84  1  0.280030  0.750000  0.972670  1.0  -0.3972
  N  N85  1  0.331760  0.750000  0.849930  1.0  -0.3055
  N  N86  1  0.157620  0.750000  0.858740  1.0  -0.3051
  N  N87  1  0.780030  0.750000  0.527330  1.0  -0.4021
  N  N88  1  0.831760  0.750000  0.650070  1.0  -0.3073
  N  N89  1  0.657620  0.750000  0.641260  1.0  -0.3047
  N  N90  1  0.719970  0.250000  0.027330  1.0  -0.4023
  N  N91  1  0.668240  0.250000  0.150070  1.0  -0.3069
  N  N92  1  0.842380  0.250000  0.141260  1.0  -0.3042
