# generated using pymatgen
data_PrH14C9NO8
_symmetry_space_group_name_H-M   'P 1'
_cell_length_a   12.51400000
_cell_length_b   15.76700000
_cell_length_c   16.17100000
_cell_angle_alpha   114.13000000
_cell_angle_beta   104.06000000
_cell_angle_gamma   103.72000000
_symmetry_Int_Tables_number   1
_chemical_formula_structural   PrH14C9NO8
_chemical_formula_sum   'Pr6 H84 C54 N6 O48'
_cell_volume   2612.63852899
_cell_formula_units_Z   6
loop_
 _symmetry_equiv_pos_site_id
 _symmetry_equiv_pos_as_xyz
  1  'x, y, z'
loop_
 _atom_site_type_symbol
 _atom_site_label
 _atom_site_symmetry_multiplicity
 _atom_site_fract_x
 _atom_site_fract_y
 _atom_site_fract_z
 _atom_site_occupancy
 _atom_site_charge
  Pr  Pr1  1  0.534410  0.893740  0.031870  1.0  2.2904
  Pr  Pr2  1  0.997190  0.976340  0.365680  1.0  2.3206
  Pr  Pr3  1  0.868630  0.363220  0.902120  1.0  2.3177
  Pr  Pr4  1  0.465590  0.106260  0.968130  1.0  2.2903
  Pr  Pr5  1  0.002810  0.023660  0.634320  1.0  2.3222
  Pr  Pr6  1  0.131370  0.636780  0.097880  1.0  2.3182
  H  H7  1  0.179500  0.431500  0.212400  1.0  0.1191
  H  H8  1  0.090300  0.432300  0.264400  1.0  0.1278
  H  H9  1  0.026600  0.290900  0.209700  1.0  0.0736
  H  H10  1  0.150900  0.304100  0.203100  1.0  0.086
  H  H11  1  0.369000  0.901600  0.314900  1.0  0.1171
  H  H12  1  0.272300  0.921700  0.252700  1.0  0.1567
  H  H13  1  0.393100  0.065400  0.292000  1.0  0.089
  H  H14  1  0.419300  0.060500  0.389000  1.0  0.0919
  H  H15  1  0.687000  0.197900  0.411200  1.0  0.0759
  H  H16  1  0.564500  0.205300  0.407300  1.0  0.0748
  H  H17  1  0.531300  0.217300  0.288400  1.0  0.1183
  H  H18  1  0.669500  0.265600  0.333400  1.0  0.1368
  H  H19  1  0.573300  0.013000  0.440300  1.0  0.0815
  H  H20  1  0.670700  0.119300  0.482100  1.0  0.0928
  H  H21  1  0.665700  0.938700  0.347000  1.0  0.1242
  H  H22  1  0.756700  0.042800  0.375400  1.0  0.1302
  H  H23  1  0.595200  0.665000  0.089000  1.0  0.124
  H  H24  1  0.524000  0.726400  0.136200  1.0  0.1443
  H  H25  1  0.611500  0.734200  0.281900  1.0  0.094
  H  H26  1  0.546700  0.622200  0.197600  1.0  0.0956
  H  H27  1  0.704400  0.586300  0.323000  1.0  0.0833
  H  H28  1  0.722000  0.698800  0.386300  1.0  0.0977
  H  H29  1  0.889400  0.664900  0.446300  1.0  0.124
  H  H30  1  0.908300  0.640100  0.347800  1.0  0.1137
  H  H31  1  0.749700  0.533200  0.188100  1.0  0.0967
  H  H32  1  0.652300  0.542000  0.113400  1.0  0.082
  H  H33  1  0.900000  0.651500  0.182000  1.0  0.144
  H  H34  1  0.802200  0.658800  0.106300  1.0  0.1205
  H  H35  1  0.119300  0.122000  0.899500  1.0  0.1346
  H  H36  1  0.003000  0.066400  0.906000  1.0  0.1239
  H  H37  1  0.145300  0.167500  0.062800  1.0  0.0937
  H  H38  1  0.169900  0.261900  0.048700  1.0  0.0961
  H  H39  1  0.936200  0.075700  0.016000  1.0  0.078
  H  H40  1  0.952800  0.137300  0.125900  1.0  0.1014
  H  H41  1  0.787000  0.128500  0.968700  1.0  0.1352
  H  H42  1  0.803800  0.190700  0.078400  1.0  0.1284
  H  H43  1  0.629300  0.742600  0.942000  1.0  0.3854
  H  H44  1  0.348500  0.726000  0.004900  1.0  0.3653
  H  H45  1  0.160600  0.086800  0.309600  1.0  0.3808
  H  H46  1  0.827100  0.996900  0.226500  1.0  0.3894
  H  H47  1  0.653200  0.319300  0.746200  1.0  0.3774
  H  H48  1  0.834500  0.277900  0.698700  1.0  0.3769
  H  H49  1  0.820500  0.568500  0.787600  1.0  0.1186
  H  H50  1  0.909700  0.567700  0.735600  1.0  0.1249
  H  H51  1  0.973400  0.709100  0.790300  1.0  0.0743
  H  H52  1  0.849100  0.695900  0.796900  1.0  0.0862
  H  H53  1  0.631000  0.098400  0.685100  1.0  0.1178
  H  H54  1  0.727700  0.078300  0.747300  1.0  0.1531
  H  H55  1  0.606900  0.934600  0.708000  1.0  0.0879
  H  H56  1  0.580700  0.939500  0.611000  1.0  0.0918
  H  H57  1  0.313000  0.802100  0.588800  1.0  0.075
  H  H58  1  0.435500  0.794700  0.592700  1.0  0.0763
  H  H59  1  0.468700  0.782700  0.711600  1.0  0.1169
  H  H60  1  0.330500  0.734400  0.666667  1.0  0.1366
  H  H61  1  0.426700  0.987000  0.559700  1.0  0.0816
  H  H62  1  0.329300  0.880700  0.517900  1.0  0.0946
  H  H63  1  0.334300  0.061300  0.653000  1.0  0.1226
  H  H64  1  0.243300  0.957200  0.624600  1.0  0.1296
  H  H65  1  0.404800  0.335000  0.911000  1.0  0.1171
  H  H66  1  0.476000  0.273600  0.863800  1.0  0.1461
  H  H67  1  0.388500  0.265800  0.718100  1.0  0.0927
  H  H68  1  0.453300  0.377800  0.802400  1.0  0.0952
  H  H69  1  0.295600  0.413700  0.677000  1.0  0.0849
  H  H70  1  0.278000  0.301200  0.613700  1.0  0.0968
  H  H71  1  0.110600  0.335100  0.553700  1.0  0.1216
  H  H72  1  0.091700  0.359900  0.652200  1.0  0.113
  H  H73  1  0.250300  0.466800  0.811900  1.0  0.0966
  H  H74  1  0.347700  0.458000  0.886600  1.0  0.0837
  H  H75  1  0.100000  0.348500  0.818000  1.0  0.1446
  H  H76  1  0.197800  0.341200  0.893700  1.0  0.1166
  H  H77  1  0.880700  0.878000  0.100500  1.0  0.1342
  H  H78  1  0.997000  0.933600  0.094000  1.0  0.1223
  H  H79  1  0.854700  0.832500  0.937200  1.0  0.0955
  H  H80  1  0.830100  0.738100  0.951300  1.0  0.0969
  H  H81  1  0.063800  0.924300  0.984000  1.0  0.0776
  H  H82  1  0.047200  0.862700  0.874100  1.0  0.101
  H  H83  1  0.213000  0.871500  0.031300  1.0  0.1352
  H  H84  1  0.196200  0.809300  0.921600  1.0  0.1281
  H  H85  1  0.370700  0.257400  0.058000  1.0  0.3853
  H  H86  1  0.651500  0.274000  0.995100  1.0  0.3652
  H  H87  1  0.839400  0.913200  0.690400  1.0  0.3811
  H  H88  1  0.172900  0.003100  0.773500  1.0  0.3957
  H  H89  1  0.346800  0.680700  0.253800  1.0  0.3774
  H  H90  1  0.165500  0.722100  0.301300  1.0  0.3754
  C  C91  1  0.096000  0.402000  0.200800  1.0  -0.3457
  C  C92  1  0.075000  0.307600  0.175700  1.0  0.0198
  C  C93  1  0.032600  0.440700  0.144200  1.0  0.792
  C  C94  1  0.369800  0.860800  0.177100  1.0  0.7819
  C  C95  1  0.355000  0.928600  0.271000  1.0  -0.3822
  C  C96  1  0.426700  0.033600  0.325800  1.0  -0.0006
  C  C97  1  0.604100  0.170900  0.368000  1.0  0.0151
  C  C98  1  0.602300  0.202200  0.300800  1.0  -0.3338
  C  C99  1  0.604900  0.141600  0.202700  1.0  0.7771
  C  C100  1  0.626900  0.053500  0.424200  1.0  0.009
  C  C101  1  0.710600  0.007400  0.399900  1.0  -0.3325
  C  C102  1  0.795300  0.005800  0.481900  1.0  0.7578
  C  C103  1  0.699000  0.816000  0.179600  1.0  0.7483
  C  C104  1  0.599300  0.717700  0.149500  1.0  -0.3445
  C  C105  1  0.613600  0.684100  0.223000  1.0  -0.0156
  C  C106  1  0.749600  0.655000  0.341900  1.0  -0.0347
  C  C107  1  0.879200  0.680500  0.393500  1.0  -0.3209
  C  C108  1  0.951100  0.791600  0.435100  1.0  0.7594
  C  C109  1  0.730300  0.578500  0.166200  1.0  -0.0235
  C  C110  1  0.822300  0.614100  0.128800  1.0  -0.3576
  C  C111  1  0.826900  0.527300  0.046500  1.0  0.7605
  C  C112  1  0.985300  0.166000  0.860400  1.0  0.7931
  C  C113  1  0.054800  0.131600  0.920600  1.0  -0.3674
  C  C114  1  0.108200  0.200400  0.032200  1.0  -0.0233
  C  C115  1  0.931300  0.135600  0.063200  1.0  -0.0161
  C  C116  1  0.807800  0.130100  0.031300  1.0  -0.3616
  C  C117  1  0.717500  0.041000  0.020900  1.0  0.7555
  C  C118  1  0.904000  0.598000  0.799200  1.0  -0.3427
  C  C119  1  0.925000  0.692400  0.824300  1.0  0.0141
  C  C120  1  0.967400  0.559300  0.855800  1.0  0.7903
  C  C121  1  0.630200  0.139200  0.822900  1.0  0.7825
  C  C122  1  0.645000  0.071400  0.729000  1.0  -0.3817
  C  C123  1  0.573300  0.966400  0.674200  1.0  -0.0006
  C  C124  1  0.395900  0.829100  0.632000  1.0  0.014
  C  C125  1  0.397700  0.797800  0.699200  1.0  -0.3326
  C  C126  1  0.395100  0.858400  0.797300  1.0  0.7769
  C  C127  1  0.373100  0.946500  0.575800  1.0  0.0104
  C  C128  1  0.289400  0.992600  0.600100  1.0  -0.3156
  C  C129  1  0.204700  0.994200  0.518100  1.0  0.7566
  C  C130  1  0.301000  0.184000  0.820400  1.0  0.7473
  C  C131  1  0.400700  0.282300  0.850500  1.0  -0.3459
  C  C132  1  0.386400  0.315900  0.777000  1.0  -0.0153
  C  C133  1  0.250400  0.345000  0.658100  1.0  -0.0338
  C  C134  1  0.120800  0.319500  0.606500  1.0  -0.3223
  C  C135  1  0.048900  0.208400  0.564900  1.0  0.7593
  C  C136  1  0.269700  0.421500  0.833800  1.0  -0.0227
  C  C137  1  0.177700  0.385900  0.871200  1.0  -0.3603
  C  C138  1  0.173100  0.472700  0.953500  1.0  0.7601
  C  C139  1  0.014700  0.834000  0.139600  1.0  0.7934
  C  C140  1  0.945200  0.868400  0.079400  1.0  -0.3825
  C  C141  1  0.891800  0.799600  0.967800  1.0  -0.0256
  C  C142  1  0.068700  0.864400  0.936800  1.0  -0.0157
  C  C143  1  0.192200  0.869900  0.968700  1.0  -0.3615
  C  C144  1  0.282500  0.959000  0.979100  1.0  0.7578
  N  N145  1  0.555000  0.064700  0.344000  1.0  0.0159
  N  N146  1  0.728000  0.666800  0.250000  1.0  0.018
  N  N147  1  0.017900  0.226100  0.073100  1.0  0.0372
  N  N148  1  0.445000  0.935300  0.656000  1.0  0.0159
  N  N149  1  0.272000  0.333200  0.750000  1.0  0.0182
  N  N150  1  0.982100  0.773900  0.926900  1.0  0.0355
  O  O151  1  0.456800  0.894600  0.161800  1.0  -0.6428
  O  O152  1  0.621300  0.061800  0.185500  1.0  -0.6526
  O  O153  1  0.747300  0.989200  0.054400  1.0  -0.5755
  O  O154  1  0.677200  0.866400  0.138700  1.0  -0.6778
  O  O155  1  0.604400  0.773700  0.917200  1.0  -0.8207
  O  O156  1  0.382500  0.723800  0.967100  1.0  -0.7528
  O  O157  1  0.591000  0.176200  0.145300  1.0  -0.6577
  O  O158  1  0.606700  0.021900  0.977200  1.0  -0.8323
  O  O159  1  0.870500  0.967300  0.460500  1.0  -0.8215
  O  O160  1  0.797300  0.841000  0.242000  1.0  -0.637
  O  O161  1  0.964400  0.818000  0.374200  1.0  -0.6469
  O  O162  1  0.795200  0.040200  0.564300  1.0  -0.5687
  O  O163  1  0.165900  0.104000  0.366200  1.0  -0.8166
  O  O164  1  0.985000  0.848600  0.526300  1.0  -0.657
  O  O165  1  0.891800  0.041000  0.267300  1.0  -0.7945
  O  O166  1  0.952400  0.235600  0.902100  1.0  -0.6637
  O  O167  1  0.295300  0.772900  0.122700  1.0  -0.6624
  O  O168  1  0.943700  0.377900  0.067700  1.0  -0.6483
  O  O169  1  0.752100  0.440400  0.006900  1.0  -0.5911
  O  O170  1  0.686000  0.370800  0.799700  1.0  -0.8118
  O  O171  1  0.071200  0.533400  0.176400  1.0  -0.6856
  O  O172  1  0.851600  0.252700  0.733000  1.0  -0.7779
  O  O173  1  0.913800  0.545900  0.019600  1.0  -0.8178
  O  O174  1  0.961800  0.123400  0.771000  1.0  -0.6647
  O  O175  1  0.543200  0.105400  0.838200  1.0  -0.6435
  O  O176  1  0.378700  0.938200  0.814500  1.0  -0.6533
  O  O177  1  0.252700  0.010800  0.945600  1.0  -0.5751
  O  O178  1  0.322800  0.133600  0.861300  1.0  -0.6779
  O  O179  1  0.395600  0.226300  0.082800  1.0  -0.82
  O  O180  1  0.617500  0.276200  0.032900  1.0  -0.7541
  O  O181  1  0.409000  0.823800  0.854700  1.0  -0.6627
  O  O182  1  0.393300  0.978100  0.022800  1.0  -0.8307
  O  O183  1  0.129500  0.032700  0.539500  1.0  -0.8216
  O  O184  1  0.202700  0.159000  0.758000  1.0  -0.6366
  O  O185  1  0.035600  0.182000  0.625800  1.0  -0.645
  O  O186  1  0.204800  0.959800  0.435700  1.0  -0.5693
  O  O187  1  0.834100  0.896000  0.633800  1.0  -0.817
  O  O188  1  0.015000  0.151400  0.473700  1.0  -0.6581
  O  O189  1  0.108200  0.959000  0.732700  1.0  -0.7934
  O  O190  1  0.047600  0.764400  0.097900  1.0  -0.6615
  O  O191  1  0.704700  0.227100  0.877300  1.0  -0.6631
  O  O192  1  0.056300  0.622100  0.932300  1.0  -0.6488
  O  O193  1  0.247900  0.559600  0.993100  1.0  -0.5922
  O  O194  1  0.314000  0.629200  0.200300  1.0  -0.8153
  O  O195  1  0.928800  0.466600  0.823600  1.0  -0.687
  O  O196  1  0.148400  0.747300  0.267000  1.0  -0.7782
  O  O197  1  0.086200  0.454100  0.980400  1.0  -0.8162
  O  O198  1  0.038200  0.876600  0.229000  1.0  -0.6648
