# generated using pymatgen
data_V5(PO6)2
_symmetry_space_group_name_H-M   'P 1'
_cell_length_a   26.50680000
_cell_length_b   26.50680000
_cell_length_c   26.50680000
_cell_angle_alpha   90.00000000
_cell_angle_beta   90.00000000
_cell_angle_gamma   90.00000000
_symmetry_Int_Tables_number   1
_chemical_formula_structural   V5(PO6)2
_chemical_formula_sum   'V120 P48 O288'
_cell_volume   18623.95457639
_cell_formula_units_Z   24
loop_
 _symmetry_equiv_pos_site_id
 _symmetry_equiv_pos_as_xyz
  1  'x, y, z'
loop_
 _atom_site_type_symbol
 _atom_site_label
 _atom_site_symmetry_multiplicity
 _atom_site_fract_x
 _atom_site_fract_y
 _atom_site_fract_z
 _atom_site_occupancy
 _atom_site_charge
  V  V1  1  0.285790  0.285790  0.094400  1.0  1.1083
  V  V2  1  0.785790  0.785790  0.594400  1.0  1.1083
  V  V3  1  0.714210  0.714210  0.094400  1.0  1.109
  V  V4  1  0.214210  0.214210  0.594400  1.0  1.109
  V  V5  1  0.714210  0.285790  0.905600  1.0  1.1095
  V  V6  1  0.214210  0.785790  0.405600  1.0  1.1095
  V  V7  1  0.285790  0.714210  0.905600  1.0  1.1096
  V  V8  1  0.785790  0.214210  0.405600  1.0  1.1096
  V  V9  1  0.094400  0.285790  0.285790  1.0  1.1093
  V  V10  1  0.594400  0.785790  0.785790  1.0  1.1093
  V  V11  1  0.094400  0.714210  0.714210  1.0  1.1094
  V  V12  1  0.594400  0.214210  0.214210  1.0  1.1094
  V  V13  1  0.905600  0.714210  0.285790  1.0  1.1092
  V  V14  1  0.405600  0.214210  0.785790  1.0  1.1092
  V  V15  1  0.905600  0.285790  0.714210  1.0  1.1103
  V  V16  1  0.405600  0.785790  0.214210  1.0  1.1103
  V  V17  1  0.285790  0.094400  0.285790  1.0  1.1068
  V  V18  1  0.785790  0.594400  0.785790  1.0  1.1068
  V  V19  1  0.714210  0.094400  0.714210  1.0  1.1076
  V  V20  1  0.214210  0.594400  0.214210  1.0  1.1076
  V  V21  1  0.285790  0.905600  0.714210  1.0  1.1123
  V  V22  1  0.785790  0.405600  0.214210  1.0  1.1123
  V  V23  1  0.714210  0.905600  0.285790  1.0  1.1114
  V  V24  1  0.214210  0.405600  0.785790  1.0  1.1114
  V  V25  1  0.285790  0.285790  0.905600  1.0  1.1097
  V  V26  1  0.785790  0.785790  0.405600  1.0  1.1097
  V  V27  1  0.714210  0.714210  0.905600  1.0  1.1093
  V  V28  1  0.214210  0.214210  0.405600  1.0  1.1093
  V  V29  1  0.285790  0.714210  0.094400  1.0  1.1082
  V  V30  1  0.785790  0.214210  0.594400  1.0  1.1082
  V  V31  1  0.714210  0.285790  0.094400  1.0  1.1089
  V  V32  1  0.214210  0.785790  0.594400  1.0  1.1089
  V  V33  1  0.285790  0.094400  0.714210  1.0  1.1075
  V  V34  1  0.785790  0.594400  0.214210  1.0  1.1075
  V  V35  1  0.714210  0.094400  0.285790  1.0  1.1072
  V  V36  1  0.214210  0.594400  0.785790  1.0  1.1072
  V  V37  1  0.714210  0.905600  0.714210  1.0  1.1118
  V  V38  1  0.214210  0.405600  0.214210  1.0  1.1118
  V  V39  1  0.285790  0.905600  0.285790  1.0  1.1116
  V  V40  1  0.785790  0.405600  0.785790  1.0  1.1116
  V  V41  1  0.094400  0.285790  0.714210  1.0  1.1095
  V  V42  1  0.594400  0.785790  0.214210  1.0  1.1095
  V  V43  1  0.094400  0.714210  0.285790  1.0  1.1094
  V  V44  1  0.594400  0.214210  0.785790  1.0  1.1094
  V  V45  1  0.905600  0.285790  0.285790  1.0  1.1096
  V  V46  1  0.405600  0.785790  0.785790  1.0  1.1096
  V  V47  1  0.905600  0.714210  0.714210  1.0  1.1096
  V  V48  1  0.405600  0.214210  0.214210  1.0  1.1096
  V  V49  1  0.245720  0.245720  0.000000  1.0  1.3209
  V  V50  1  0.745720  0.745720  0.500000  1.0  1.3209
  V  V51  1  0.754280  0.754280  0.000000  1.0  1.3285
  V  V52  1  0.254280  0.254280  0.500000  1.0  1.3285
  V  V53  1  0.754280  0.245720  0.000000  1.0  1.3183
  V  V54  1  0.254280  0.745720  0.500000  1.0  1.3183
  V  V55  1  0.245720  0.754280  0.000000  1.0  1.3307
  V  V56  1  0.745720  0.254280  0.500000  1.0  1.3307
  V  V57  1  0.000000  0.245720  0.245720  1.0  1.3082
  V  V58  1  0.500000  0.745720  0.745720  1.0  1.3082
  V  V59  1  0.000000  0.754280  0.754280  1.0  1.3149
  V  V60  1  0.500000  0.254280  0.254280  1.0  1.3149
  V  V61  1  0.000000  0.754280  0.245720  1.0  1.3176
  V  V62  1  0.500000  0.254280  0.745720  1.0  1.3176
  V  V63  1  0.000000  0.245720  0.754280  1.0  1.3045
  V  V64  1  0.500000  0.745720  0.254280  1.0  1.3045
  V  V65  1  0.245720  0.000000  0.245720  1.0  1.3289
  V  V66  1  0.745720  0.500000  0.745720  1.0  1.3289
  V  V67  1  0.754280  0.000000  0.754280  1.0  1.3236
  V  V68  1  0.254280  0.500000  0.254280  1.0  1.3236
  V  V69  1  0.245720  0.000000  0.754280  1.0  1.3248
  V  V70  1  0.745720  0.500000  0.254280  1.0  1.3248
  V  V71  1  0.754280  0.000000  0.245720  1.0  1.3266
  V  V72  1  0.254280  0.500000  0.745720  1.0  1.3266
  V  V73  1  0.205910  0.346610  0.000000  1.0  1.2269
  V  V74  1  0.705910  0.846610  0.500000  1.0  1.2269
  V  V75  1  0.794090  0.653390  0.000000  1.0  1.2302
  V  V76  1  0.294090  0.153390  0.500000  1.0  1.2302
  V  V77  1  0.794090  0.346610  0.000000  1.0  1.2298
  V  V78  1  0.294090  0.846610  0.500000  1.0  1.2298
  V  V79  1  0.205910  0.653390  0.000000  1.0  1.2271
  V  V80  1  0.705910  0.153390  0.500000  1.0  1.2271
  V  V81  1  0.000000  0.205910  0.346610  1.0  1.2085
  V  V82  1  0.500000  0.705910  0.846610  1.0  1.2085
  V  V83  1  0.000000  0.794090  0.653390  1.0  1.2199
  V  V84  1  0.500000  0.294090  0.153390  1.0  1.2199
  V  V85  1  0.000000  0.794090  0.346610  1.0  1.2197
  V  V86  1  0.500000  0.294090  0.846610  1.0  1.2197
  V  V87  1  0.000000  0.205910  0.653390  1.0  1.2087
  V  V88  1  0.500000  0.705910  0.153390  1.0  1.2087
  V  V89  1  0.346610  0.000000  0.205910  1.0  1.2258
  V  V90  1  0.846610  0.500000  0.705910  1.0  1.2258
  V  V91  1  0.653390  0.000000  0.794090  1.0  1.2251
  V  V92  1  0.153390  0.500000  0.294090  1.0  1.2251
  V  V93  1  0.346610  0.000000  0.794090  1.0  1.2253
  V  V94  1  0.846610  0.500000  0.294090  1.0  1.2253
  V  V95  1  0.653390  0.000000  0.205910  1.0  1.2259
  V  V96  1  0.153390  0.500000  0.705910  1.0  1.2259
  V  V97  1  0.346610  0.205910  0.000000  1.0  1.2083
  V  V98  1  0.846610  0.705910  0.500000  1.0  1.2083
  V  V99  1  0.653390  0.794090  0.000000  1.0  1.2195
  V  V100  1  0.153390  0.294090  0.500000  1.0  1.2195
  V  V101  1  0.346610  0.794090  0.000000  1.0  1.2196
  V  V102  1  0.846610  0.294090  0.500000  1.0  1.2196
  V  V103  1  0.653390  0.205910  0.000000  1.0  1.2081
  V  V104  1  0.153390  0.705910  0.500000  1.0  1.2081
  V  V105  1  0.205910  0.000000  0.653390  1.0  1.2275
  V  V106  1  0.705910  0.500000  0.153390  1.0  1.2275
  V  V107  1  0.794090  0.000000  0.346610  1.0  1.2304
  V  V108  1  0.294090  0.500000  0.846610  1.0  1.2304
  V  V109  1  0.794090  0.000000  0.653390  1.0  1.2304
  V  V110  1  0.294090  0.500000  0.153390  1.0  1.2304
  V  V111  1  0.205910  0.000000  0.346610  1.0  1.2274
  V  V112  1  0.705910  0.500000  0.846610  1.0  1.2274
  V  V113  1  0.000000  0.346610  0.794090  1.0  1.225
  V  V114  1  0.500000  0.846610  0.294090  1.0  1.225
  V  V115  1  0.000000  0.653390  0.205910  1.0  1.2258
  V  V116  1  0.500000  0.153390  0.705910  1.0  1.2258
  V  V117  1  0.000000  0.346610  0.205910  1.0  1.2254
  V  V118  1  0.500000  0.846610  0.705910  1.0  1.2254
  V  V119  1  0.000000  0.653390  0.794090  1.0  1.2253
  V  V120  1  0.500000  0.153390  0.294090  1.0  1.2253
  P  P121  1  0.400190  0.250000  0.099810  1.0  1.7438
  P  P122  1  0.599810  0.750000  0.099810  1.0  1.7436
  P  P123  1  0.599810  0.250000  0.900190  1.0  1.7441
  P  P124  1  0.400190  0.750000  0.900190  1.0  1.7442
  P  P125  1  0.099810  0.400190  0.250000  1.0  1.7433
  P  P126  1  0.099810  0.599810  0.750000  1.0  1.7436
  P  P127  1  0.900190  0.599810  0.250000  1.0  1.7438
  P  P128  1  0.900190  0.400190  0.750000  1.0  1.7434
  P  P129  1  0.250000  0.099810  0.400190  1.0  1.7446
  P  P130  1  0.750000  0.099810  0.599810  1.0  1.7443
  P  P131  1  0.250000  0.900190  0.599810  1.0  1.7439
  P  P132  1  0.750000  0.900190  0.400190  1.0  1.7442
  P  P133  1  0.250000  0.400190  0.900190  1.0  1.7442
  P  P134  1  0.750000  0.599810  0.900190  1.0  1.7446
  P  P135  1  0.250000  0.599810  0.099810  1.0  1.7443
  P  P136  1  0.750000  0.400190  0.099810  1.0  1.7439
  P  P137  1  0.400190  0.099810  0.750000  1.0  1.7438
  P  P138  1  0.599810  0.099810  0.250000  1.0  1.7436
  P  P139  1  0.599810  0.900190  0.750000  1.0  1.7433
  P  P140  1  0.400190  0.900190  0.250000  1.0  1.7434
  P  P141  1  0.099810  0.250000  0.599810  1.0  1.7436
  P  P142  1  0.099810  0.750000  0.400190  1.0  1.7441
  P  P143  1  0.900190  0.250000  0.400190  1.0  1.7442
  P  P144  1  0.900190  0.750000  0.599810  1.0  1.7438
  P  P145  1  0.599810  0.750000  0.900190  1.0  1.7441
  P  P146  1  0.099810  0.250000  0.400190  1.0  1.7441
  P  P147  1  0.400190  0.250000  0.900190  1.0  1.7442
  P  P148  1  0.400190  0.750000  0.099810  1.0  1.7438
  P  P149  1  0.599810  0.250000  0.099810  1.0  1.7436
  P  P150  1  0.900190  0.599810  0.750000  1.0  1.7438
  P  P151  1  0.400190  0.099810  0.250000  1.0  1.7438
  P  P152  1  0.900190  0.400190  0.250000  1.0  1.7434
  P  P153  1  0.099810  0.400190  0.750000  1.0  1.7433
  P  P154  1  0.099810  0.599810  0.250000  1.0  1.7436
  P  P155  1  0.750000  0.900190  0.599810  1.0  1.7439
  P  P156  1  0.250000  0.400190  0.099810  1.0  1.7439
  P  P157  1  0.250000  0.900190  0.400190  1.0  1.7442
  P  P158  1  0.750000  0.099810  0.400190  1.0  1.7446
  P  P159  1  0.250000  0.099810  0.599810  1.0  1.7443
  P  P160  1  0.750000  0.599810  0.099810  1.0  1.7443
  P  P161  1  0.750000  0.400190  0.900190  1.0  1.7442
  P  P162  1  0.250000  0.599810  0.900190  1.0  1.7446
  P  P163  1  0.599810  0.900190  0.250000  1.0  1.7433
  P  P164  1  0.400190  0.900190  0.750000  1.0  1.7434
  P  P165  1  0.599810  0.099810  0.750000  1.0  1.7436
  P  P166  1  0.900190  0.750000  0.400190  1.0  1.7442
  P  P167  1  0.900190  0.250000  0.599810  1.0  1.7438
  P  P168  1  0.099810  0.750000  0.599810  1.0  1.7436
  O  O169  1  0.229760  0.296030  0.047320  1.0  -0.907
  O  O170  1  0.358500  0.289500  0.105000  1.0  -0.7458
  O  O171  1  0.224100  0.397700  0.951300  1.0  -0.7204
  O  O172  1  0.729760  0.796030  0.547320  1.0  -0.907
  O  O173  1  0.858500  0.789500  0.605000  1.0  -0.7458
  O  O174  1  0.724100  0.897700  0.451300  1.0  -0.7204
  O  O175  1  0.770240  0.703970  0.047320  1.0  -0.9067
  O  O176  1  0.641500  0.710500  0.105000  1.0  -0.7464
  O  O177  1  0.775900  0.602300  0.951300  1.0  -0.7168
  O  O178  1  0.270240  0.203970  0.547320  1.0  -0.9067
  O  O179  1  0.141500  0.210500  0.605000  1.0  -0.7464
  O  O180  1  0.275900  0.102300  0.451300  1.0  -0.7168
  O  O181  1  0.770240  0.296030  0.952680  1.0  -0.9061
  O  O182  1  0.641500  0.289500  0.895000  1.0  -0.7476
  O  O183  1  0.775900  0.397700  0.048700  1.0  -0.7177
  O  O184  1  0.270240  0.796030  0.452680  1.0  -0.9061
  O  O185  1  0.141500  0.789500  0.395000  1.0  -0.7476
  O  O186  1  0.275900  0.897700  0.548700  1.0  -0.7177
  O  O187  1  0.229760  0.703970  0.952680  1.0  -0.9065
  O  O188  1  0.358500  0.710500  0.895000  1.0  -0.7478
  O  O189  1  0.224100  0.602300  0.048700  1.0  -0.7179
  O  O190  1  0.729760  0.203970  0.452680  1.0  -0.9065
  O  O191  1  0.858500  0.210500  0.395000  1.0  -0.7478
  O  O192  1  0.724100  0.102300  0.548700  1.0  -0.7179
  O  O193  1  0.047320  0.229760  0.296030  1.0  -0.9028
  O  O194  1  0.105000  0.358500  0.289500  1.0  -0.7457
  O  O195  1  0.951300  0.224100  0.397700  1.0  -0.7148
  O  O196  1  0.547320  0.729760  0.796030  1.0  -0.9028
  O  O197  1  0.605000  0.858500  0.789500  1.0  -0.7457
  O  O198  1  0.451300  0.724100  0.897700  1.0  -0.7148
  O  O199  1  0.047320  0.770240  0.703970  1.0  -0.9055
  O  O200  1  0.105000  0.641500  0.710500  1.0  -0.7461
  O  O201  1  0.951300  0.775900  0.602300  1.0  -0.7157
  O  O202  1  0.547320  0.270240  0.203970  1.0  -0.9055
  O  O203  1  0.605000  0.141500  0.210500  1.0  -0.7461
  O  O204  1  0.451300  0.275900  0.102300  1.0  -0.7157
  O  O205  1  0.952680  0.770240  0.296030  1.0  -0.9053
  O  O206  1  0.895000  0.641500  0.289500  1.0  -0.7464
  O  O207  1  0.048700  0.775900  0.397700  1.0  -0.7183
  O  O208  1  0.452680  0.270240  0.796030  1.0  -0.9053
  O  O209  1  0.395000  0.141500  0.789500  1.0  -0.7464
  O  O210  1  0.548700  0.275900  0.897700  1.0  -0.7183
  O  O211  1  0.952680  0.229760  0.703970  1.0  -0.9048
  O  O212  1  0.895000  0.358500  0.710500  1.0  -0.7461
  O  O213  1  0.048700  0.224100  0.602300  1.0  -0.7158
  O  O214  1  0.452680  0.729760  0.203970  1.0  -0.9048
  O  O215  1  0.395000  0.858500  0.210500  1.0  -0.7461
  O  O216  1  0.548700  0.724100  0.102300  1.0  -0.7158
  O  O217  1  0.296030  0.047320  0.229760  1.0  -0.9063
  O  O218  1  0.289500  0.105000  0.358500  1.0  -0.7448
  O  O219  1  0.397700  0.951300  0.224100  1.0  -0.7154
  O  O220  1  0.796030  0.547320  0.729760  1.0  -0.9063
  O  O221  1  0.789500  0.605000  0.858500  1.0  -0.7448
  O  O222  1  0.897700  0.451300  0.724100  1.0  -0.7154
  O  O223  1  0.703970  0.047320  0.770240  1.0  -0.9071
  O  O224  1  0.710500  0.105000  0.641500  1.0  -0.7457
  O  O225  1  0.602300  0.951300  0.775900  1.0  -0.7172
  O  O226  1  0.203970  0.547320  0.270240  1.0  -0.9071
  O  O227  1  0.210500  0.605000  0.141500  1.0  -0.7457
  O  O228  1  0.102300  0.451300  0.275900  1.0  -0.7172
  O  O229  1  0.296030  0.952680  0.770240  1.0  -0.9067
  O  O230  1  0.289500  0.895000  0.641500  1.0  -0.7445
  O  O231  1  0.397700  0.048700  0.775900  1.0  -0.7152
  O  O232  1  0.796030  0.452680  0.270240  1.0  -0.9067
  O  O233  1  0.789500  0.395000  0.141500  1.0  -0.7445
  O  O234  1  0.897700  0.548700  0.275900  1.0  -0.7152
  O  O235  1  0.703970  0.952680  0.229760  1.0  -0.9055
  O  O236  1  0.710500  0.895000  0.358500  1.0  -0.744
  O  O237  1  0.602300  0.048700  0.224100  1.0  -0.7146
  O  O238  1  0.203970  0.452680  0.729760  1.0  -0.9055
  O  O239  1  0.210500  0.395000  0.858500  1.0  -0.744
  O  O240  1  0.102300  0.548700  0.724100  1.0  -0.7146
  O  O241  1  0.296030  0.229760  0.952680  1.0  -0.9042
  O  O242  1  0.289500  0.358500  0.895000  1.0  -0.7459
  O  O243  1  0.397700  0.224100  0.048700  1.0  -0.717
  O  O244  1  0.796030  0.729760  0.452680  1.0  -0.9042
  O  O245  1  0.789500  0.858500  0.395000  1.0  -0.7459
  O  O246  1  0.897700  0.724100  0.548700  1.0  -0.717
  O  O247  1  0.703970  0.770240  0.952680  1.0  -0.9061
  O  O248  1  0.710500  0.641500  0.895000  1.0  -0.7457
  O  O249  1  0.602300  0.775900  0.048700  1.0  -0.7198
  O  O250  1  0.203970  0.270240  0.452680  1.0  -0.9061
  O  O251  1  0.210500  0.141500  0.395000  1.0  -0.7457
  O  O252  1  0.102300  0.275900  0.548700  1.0  -0.7198
  O  O253  1  0.296030  0.770240  0.047320  1.0  -0.9068
  O  O254  1  0.289500  0.641500  0.105000  1.0  -0.744
  O  O255  1  0.397700  0.775900  0.951300  1.0  -0.719
  O  O256  1  0.796030  0.270240  0.547320  1.0  -0.9068
  O  O257  1  0.789500  0.141500  0.605000  1.0  -0.744
  O  O258  1  0.897700  0.275900  0.451300  1.0  -0.719
  O  O259  1  0.703970  0.229760  0.047320  1.0  -0.9054
  O  O260  1  0.710500  0.358500  0.105000  1.0  -0.7441
  O  O261  1  0.602300  0.224100  0.951300  1.0  -0.7186
  O  O262  1  0.203970  0.729760  0.547320  1.0  -0.9054
  O  O263  1  0.210500  0.858500  0.605000  1.0  -0.7441
  O  O264  1  0.102300  0.724100  0.451300  1.0  -0.7186
  O  O265  1  0.229760  0.047320  0.703970  1.0  -0.9075
  O  O266  1  0.358500  0.105000  0.710500  1.0  -0.7464
  O  O267  1  0.224100  0.951300  0.602300  1.0  -0.7165
  O  O268  1  0.729760  0.547320  0.203970  1.0  -0.9075
  O  O269  1  0.858500  0.605000  0.210500  1.0  -0.7464
  O  O270  1  0.724100  0.451300  0.102300  1.0  -0.7165
  O  O271  1  0.770240  0.047320  0.296030  1.0  -0.907
  O  O272  1  0.641500  0.105000  0.289500  1.0  -0.7466
  O  O273  1  0.775900  0.951300  0.397700  1.0  -0.7147
  O  O274  1  0.270240  0.547320  0.796030  1.0  -0.907
  O  O275  1  0.141500  0.605000  0.789500  1.0  -0.7466
  O  O276  1  0.275900  0.451300  0.897700  1.0  -0.7147
  O  O277  1  0.770240  0.952680  0.703970  1.0  -0.9061
  O  O278  1  0.641500  0.895000  0.710500  1.0  -0.7451
  O  O279  1  0.775900  0.048700  0.602300  1.0  -0.7137
  O  O280  1  0.270240  0.452680  0.203970  1.0  -0.9061
  O  O281  1  0.141500  0.395000  0.210500  1.0  -0.7451
  O  O282  1  0.275900  0.548700  0.102300  1.0  -0.7137
  O  O283  1  0.229760  0.952680  0.296030  1.0  -0.9059
  O  O284  1  0.358500  0.895000  0.289500  1.0  -0.7452
  O  O285  1  0.224100  0.048700  0.397700  1.0  -0.7154
  O  O286  1  0.729760  0.452680  0.796030  1.0  -0.9059
  O  O287  1  0.858500  0.395000  0.789500  1.0  -0.7452
  O  O288  1  0.724100  0.548700  0.897700  1.0  -0.7154
  O  O289  1  0.047320  0.296030  0.770240  1.0  -0.9056
  O  O290  1  0.105000  0.289500  0.641500  1.0  -0.7459
  O  O291  1  0.951300  0.397700  0.775900  1.0  -0.7163
  O  O292  1  0.547320  0.796030  0.270240  1.0  -0.9056
  O  O293  1  0.605000  0.789500  0.141500  1.0  -0.7459
  O  O294  1  0.451300  0.897700  0.275900  1.0  -0.7163
  O  O295  1  0.047320  0.703970  0.229760  1.0  -0.9065
  O  O296  1  0.105000  0.710500  0.358500  1.0  -0.7451
  O  O297  1  0.951300  0.602300  0.224100  1.0  -0.7142
  O  O298  1  0.547320  0.203970  0.729760  1.0  -0.9065
  O  O299  1  0.605000  0.210500  0.858500  1.0  -0.7451
  O  O300  1  0.451300  0.102300  0.724100  1.0  -0.7142
  O  O301  1  0.952680  0.296030  0.229760  1.0  -0.9043
  O  O302  1  0.895000  0.289500  0.358500  1.0  -0.7455
  O  O303  1  0.048700  0.397700  0.224100  1.0  -0.7176
  O  O304  1  0.452680  0.796030  0.729760  1.0  -0.9043
  O  O305  1  0.395000  0.789500  0.858500  1.0  -0.7455
  O  O306  1  0.548700  0.897700  0.724100  1.0  -0.7176
  O  O307  1  0.952680  0.703970  0.770240  1.0  -0.9058
  O  O308  1  0.895000  0.710500  0.641500  1.0  -0.7457
  O  O309  1  0.048700  0.602300  0.775900  1.0  -0.7168
  O  O310  1  0.452680  0.203970  0.270240  1.0  -0.9058
  O  O311  1  0.395000  0.210500  0.141500  1.0  -0.7457
  O  O312  1  0.548700  0.102300  0.275900  1.0  -0.7168
  O  O313  1  0.770240  0.703970  0.952680  1.0  -0.906
  O  O314  1  0.641500  0.710500  0.895000  1.0  -0.7477
  O  O315  1  0.775900  0.602300  0.048700  1.0  -0.7164
  O  O316  1  0.270240  0.203970  0.452680  1.0  -0.906
  O  O317  1  0.141500  0.210500  0.395000  1.0  -0.7477
  O  O318  1  0.275900  0.102300  0.548700  1.0  -0.7164
  O  O319  1  0.229760  0.296030  0.952680  1.0  -0.9063
  O  O320  1  0.358500  0.289500  0.895000  1.0  -0.7475
  O  O321  1  0.224100  0.397700  0.048700  1.0  -0.7199
  O  O322  1  0.729760  0.796030  0.452680  1.0  -0.9063
  O  O323  1  0.858500  0.789500  0.395000  1.0  -0.7475
  O  O324  1  0.724100  0.897700  0.548700  1.0  -0.7199
  O  O325  1  0.229760  0.703970  0.047320  1.0  -0.9074
  O  O326  1  0.358500  0.710500  0.105000  1.0  -0.7455
  O  O327  1  0.224100  0.602300  0.951300  1.0  -0.7188
  O  O328  1  0.729760  0.203970  0.547320  1.0  -0.9074
  O  O329  1  0.858500  0.210500  0.605000  1.0  -0.7455
  O  O330  1  0.724100  0.102300  0.451300  1.0  -0.7188
  O  O331  1  0.770240  0.296030  0.047320  1.0  -0.9067
  O  O332  1  0.641500  0.289500  0.105000  1.0  -0.7454
  O  O333  1  0.775900  0.397700  0.951300  1.0  -0.7179
  O  O334  1  0.270240  0.796030  0.547320  1.0  -0.9067
  O  O335  1  0.141500  0.789500  0.605000  1.0  -0.7454
  O  O336  1  0.275900  0.897700  0.451300  1.0  -0.7179
  O  O337  1  0.952680  0.770240  0.703970  1.0  -0.9056
  O  O338  1  0.895000  0.641500  0.710500  1.0  -0.7455
  O  O339  1  0.048700  0.775900  0.602300  1.0  -0.7182
  O  O340  1  0.452680  0.270240  0.203970  1.0  -0.9056
  O  O341  1  0.395000  0.141500  0.210500  1.0  -0.7455
  O  O342  1  0.548700  0.275900  0.102300  1.0  -0.7182
  O  O343  1  0.952680  0.229760  0.296030  1.0  -0.9036
  O  O344  1  0.895000  0.358500  0.289500  1.0  -0.7455
  O  O345  1  0.048700  0.224100  0.397700  1.0  -0.7161
  O  O346  1  0.452680  0.729760  0.796030  1.0  -0.9036
  O  O347  1  0.395000  0.858500  0.789500  1.0  -0.7455
  O  O348  1  0.548700  0.724100  0.897700  1.0  -0.7161
  O  O349  1  0.047320  0.229760  0.703970  1.0  -0.9041
  O  O350  1  0.105000  0.358500  0.710500  1.0  -0.7458
  O  O351  1  0.951300  0.224100  0.602300  1.0  -0.7147
  O  O352  1  0.547320  0.729760  0.203970  1.0  -0.9041
  O  O353  1  0.605000  0.858500  0.210500  1.0  -0.7458
  O  O354  1  0.451300  0.724100  0.102300  1.0  -0.7147
  O  O355  1  0.047320  0.770240  0.296030  1.0  -0.9055
  O  O356  1  0.105000  0.641500  0.289500  1.0  -0.7457
  O  O357  1  0.951300  0.775900  0.397700  1.0  -0.7157
  O  O358  1  0.547320  0.270240  0.796030  1.0  -0.9055
  O  O359  1  0.605000  0.141500  0.789500  1.0  -0.7457
  O  O360  1  0.451300  0.275900  0.897700  1.0  -0.7157
  O  O361  1  0.703970  0.952680  0.770240  1.0  -0.9066
  O  O362  1  0.710500  0.895000  0.641500  1.0  -0.744
  O  O363  1  0.602300  0.048700  0.775900  1.0  -0.7161
  O  O364  1  0.203970  0.452680  0.270240  1.0  -0.9066
  O  O365  1  0.210500  0.395000  0.141500  1.0  -0.744
  O  O366  1  0.102300  0.548700  0.275900  1.0  -0.7161
  O  O367  1  0.296030  0.952680  0.229760  1.0  -0.9049
  O  O368  1  0.289500  0.895000  0.358500  1.0  -0.7433
  O  O369  1  0.397700  0.048700  0.224100  1.0  -0.714
  O  O370  1  0.796030  0.452680  0.729760  1.0  -0.9049
  O  O371  1  0.789500  0.395000  0.858500  1.0  -0.7433
  O  O372  1  0.897700  0.548700  0.724100  1.0  -0.714
  O  O373  1  0.703970  0.047320  0.229760  1.0  -0.907
  O  O374  1  0.710500  0.105000  0.358500  1.0  -0.7449
  O  O375  1  0.602300  0.951300  0.224100  1.0  -0.7159
  O  O376  1  0.203970  0.547320  0.729760  1.0  -0.907
  O  O377  1  0.210500  0.605000  0.858500  1.0  -0.7449
  O  O378  1  0.102300  0.451300  0.724100  1.0  -0.7159
  O  O379  1  0.296030  0.047320  0.770240  1.0  -0.9072
  O  O380  1  0.289500  0.105000  0.641500  1.0  -0.7447
  O  O381  1  0.397700  0.951300  0.775900  1.0  -0.7162
  O  O382  1  0.796030  0.547320  0.270240  1.0  -0.9072
  O  O383  1  0.789500  0.605000  0.141500  1.0  -0.7447
  O  O384  1  0.897700  0.451300  0.275900  1.0  -0.7162
  O  O385  1  0.703970  0.770240  0.047320  1.0  -0.9064
  O  O386  1  0.710500  0.641500  0.105000  1.0  -0.7451
  O  O387  1  0.602300  0.775900  0.951300  1.0  -0.7203
  O  O388  1  0.203970  0.270240  0.547320  1.0  -0.9064
  O  O389  1  0.210500  0.141500  0.605000  1.0  -0.7451
  O  O390  1  0.102300  0.275900  0.451300  1.0  -0.7203
  O  O391  1  0.296030  0.229760  0.047320  1.0  -0.9058
  O  O392  1  0.289500  0.358500  0.105000  1.0  -0.7444
  O  O393  1  0.397700  0.224100  0.951300  1.0  -0.7176
  O  O394  1  0.796030  0.729760  0.547320  1.0  -0.9058
  O  O395  1  0.789500  0.858500  0.605000  1.0  -0.7444
  O  O396  1  0.897700  0.724100  0.451300  1.0  -0.7176
  O  O397  1  0.703970  0.229760  0.952680  1.0  -0.9044
  O  O398  1  0.710500  0.358500  0.895000  1.0  -0.7466
  O  O399  1  0.602300  0.224100  0.048700  1.0  -0.7176
  O  O400  1  0.203970  0.729760  0.452680  1.0  -0.9044
  O  O401  1  0.210500  0.858500  0.395000  1.0  -0.7466
  O  O402  1  0.102300  0.724100  0.548700  1.0  -0.7176
  O  O403  1  0.296030  0.770240  0.952680  1.0  -0.906
  O  O404  1  0.289500  0.641500  0.895000  1.0  -0.7461
  O  O405  1  0.397700  0.775900  0.048700  1.0  -0.7188
  O  O406  1  0.796030  0.270240  0.452680  1.0  -0.906
  O  O407  1  0.789500  0.141500  0.395000  1.0  -0.7461
  O  O408  1  0.897700  0.275900  0.548700  1.0  -0.7188
  O  O409  1  0.770240  0.952680  0.296030  1.0  -0.9054
  O  O410  1  0.641500  0.895000  0.289500  1.0  -0.7454
  O  O411  1  0.775900  0.048700  0.397700  1.0  -0.7138
  O  O412  1  0.270240  0.452680  0.796030  1.0  -0.9054
  O  O413  1  0.141500  0.395000  0.789500  1.0  -0.7454
  O  O414  1  0.275900  0.548700  0.897700  1.0  -0.7138
  O  O415  1  0.229760  0.952680  0.703970  1.0  -0.9066
  O  O416  1  0.358500  0.895000  0.710500  1.0  -0.7457
  O  O417  1  0.224100  0.048700  0.602300  1.0  -0.7152
  O  O418  1  0.729760  0.452680  0.203970  1.0  -0.9066
  O  O419  1  0.858500  0.395000  0.210500  1.0  -0.7457
  O  O420  1  0.724100  0.548700  0.102300  1.0  -0.7152
  O  O421  1  0.229760  0.047320  0.296030  1.0  -0.9076
  O  O422  1  0.358500  0.105000  0.289500  1.0  -0.7463
  O  O423  1  0.224100  0.951300  0.397700  1.0  -0.7167
  O  O424  1  0.729760  0.547320  0.796030  1.0  -0.9076
  O  O425  1  0.858500  0.605000  0.789500  1.0  -0.7463
  O  O426  1  0.724100  0.451300  0.897700  1.0  -0.7167
  O  O427  1  0.770240  0.047320  0.703970  1.0  -0.9066
  O  O428  1  0.641500  0.105000  0.710500  1.0  -0.7457
  O  O429  1  0.775900  0.951300  0.602300  1.0  -0.7146
  O  O430  1  0.270240  0.547320  0.203970  1.0  -0.9066
  O  O431  1  0.141500  0.605000  0.210500  1.0  -0.7457
  O  O432  1  0.275900  0.451300  0.102300  1.0  -0.7146
  O  O433  1  0.952680  0.703970  0.229760  1.0  -0.9049
  O  O434  1  0.895000  0.710500  0.358500  1.0  -0.7451
  O  O435  1  0.048700  0.602300  0.224100  1.0  -0.7156
  O  O436  1  0.452680  0.203970  0.729760  1.0  -0.9049
  O  O437  1  0.395000  0.210500  0.858500  1.0  -0.7451
  O  O438  1  0.548700  0.102300  0.724100  1.0  -0.7156
  O  O439  1  0.952680  0.296030  0.770240  1.0  -0.9058
  O  O440  1  0.895000  0.289500  0.641500  1.0  -0.7461
  O  O441  1  0.048700  0.397700  0.775900  1.0  -0.7186
  O  O442  1  0.452680  0.796030  0.270240  1.0  -0.9058
  O  O443  1  0.395000  0.789500  0.141500  1.0  -0.7461
  O  O444  1  0.548700  0.897700  0.275900  1.0  -0.7186
  O  O445  1  0.047320  0.703970  0.770240  1.0  -0.906
  O  O446  1  0.105000  0.710500  0.641500  1.0  -0.7459
  O  O447  1  0.951300  0.602300  0.775900  1.0  -0.7154
  O  O448  1  0.547320  0.203970  0.270240  1.0  -0.906
  O  O449  1  0.605000  0.210500  0.141500  1.0  -0.7459
  O  O450  1  0.451300  0.102300  0.275900  1.0  -0.7154
  O  O451  1  0.047320  0.296030  0.229760  1.0  -0.9055
  O  O452  1  0.105000  0.289500  0.358500  1.0  -0.7451
  O  O453  1  0.951300  0.397700  0.224100  1.0  -0.7154
  O  O454  1  0.547320  0.796030  0.729760  1.0  -0.9055
  O  O455  1  0.605000  0.789500  0.858500  1.0  -0.7451
  O  O456  1  0.451300  0.897700  0.724100  1.0  -0.7154
