# generated using pymatgen
data_NdH10C9BrNO8
_symmetry_space_group_name_H-M   'P 1'
_cell_length_a   12.68100000
_cell_length_b   16.16370000
_cell_length_c   16.16370000
_cell_angle_alpha   66.58320000
_cell_angle_beta   74.84020000
_cell_angle_gamma   105.16000000
_symmetry_Int_Tables_number   1
_chemical_formula_structural   NdH10C9BrNO8
_chemical_formula_sum   'Nd6 H60 C54 Br6 N6 O48'
_cell_volume   2673.00493053
_cell_formula_units_Z   6
loop_
 _symmetry_equiv_pos_site_id
 _symmetry_equiv_pos_as_xyz
  1  'x, y, z'
loop_
 _atom_site_type_symbol
 _atom_site_label
 _atom_site_symmetry_multiplicity
 _atom_site_fract_x
 _atom_site_fract_y
 _atom_site_fract_z
 _atom_site_occupancy
 _atom_site_charge
  Nd  Nd1  1  0.001960  0.136370  0.464640  1.0  2.2982
  Nd  Nd2  1  0.466600  0.464640  0.398990  1.0  2.2971
  Nd  Nd3  1  0.865590  0.398990  0.136370  1.0  2.2967
  Nd  Nd4  1  0.998040  0.863630  0.535360  1.0  2.2969
  Nd  Nd5  1  0.533400  0.535360  0.601010  1.0  2.298
  Nd  Nd6  1  0.134410  0.601010  0.863630  1.0  2.2965
  H  H7  1  0.685700  0.842000  0.536300  1.0  0.1261
  H  H8  1  0.774500  0.885900  0.426900  1.0  0.13
  H  H9  1  0.397200  0.824200  0.592900  1.0  0.1647
  H  H10  1  0.281600  0.761900  0.591200  1.0  0.1784
  H  H11  1  0.696000  0.906500  0.298400  1.0  0.1148
  H  H12  1  0.577400  0.909300  0.290100  1.0  0.1212
  H  H13  1  0.584100  0.936000  0.483000  1.0  0.1132
  H  H14  1  0.674500  0.982900  0.373000  1.0  0.1241
  H  H15  1  0.660400  0.828400  0.231400  1.0  0.1379
  H  H16  1  0.522700  0.778600  0.295000  1.0  0.1233
  H  H17  1  0.222000  0.536300  0.621700  1.0  0.1261
  H  H18  1  0.201400  0.426900  0.687200  1.0  0.1301
  H  H19  1  0.990100  0.592900  0.582900  1.0  0.1645
  H  H20  1  0.872800  0.591200  0.646900  1.0  0.1781
  H  H21  1  0.994400  0.298400  0.795100  1.0  0.1087
  H  H22  1  0.867500  0.290100  0.800600  1.0  0.124
  H  H23  1  0.067100  0.483000  0.581000  1.0  0.113
  H  H24  1  0.047500  0.373000  0.644100  1.0  0.1241
  H  H25  1  0.891800  0.231400  0.940200  1.0  0.1347
  H  H26  1  0.817700  0.295000  0.926400  1.0  0.1283
  H  H27  1  0.843700  0.621700  0.842000  1.0  0.1248
  H  H28  1  0.888600  0.687200  0.885900  1.0  0.1294
  H  H29  1  0.573000  0.582900  0.824200  1.0  0.1661
  H  H30  1  0.519700  0.646900  0.761900  1.0  0.1759
  H  H31  1  0.789500  0.795100  0.906500  1.0  0.1143
  H  H32  1  0.668100  0.800600  0.909300  1.0  0.1238
  H  H33  1  0.648100  0.581000  0.936000  1.0  0.1149
  H  H34  1  0.691600  0.644100  0.982900  1.0  0.1289
  H  H35  1  0.832000  0.940200  0.828400  1.0  0.1387
  H  H36  1  0.744100  0.926400  0.778600  1.0  0.1244
  H  H37  1  0.314300  0.158000  0.463700  1.0  0.1247
  H  H38  1  0.225500  0.114100  0.573100  1.0  0.1313
  H  H39  1  0.602800  0.175800  0.407100  1.0  0.1639
  H  H40  1  0.718400  0.238100  0.408800  1.0  0.1777
  H  H41  1  0.304000  0.093500  0.701600  1.0  0.1163
  H  H42  1  0.422600  0.090700  0.709900  1.0  0.1218
  H  H43  1  0.415900  0.064000  0.517000  1.0  0.1119
  H  H44  1  0.325500  0.017100  0.627000  1.0  0.1248
  H  H45  1  0.339600  0.171600  0.768600  1.0  0.138
  H  H46  1  0.477300  0.221400  0.705000  1.0  0.1242
  H  H47  1  0.778000  0.463700  0.378300  1.0  0.126
  H  H48  1  0.798600  0.573100  0.312800  1.0  0.1314
  H  H49  1  0.009900  0.407100  0.417100  1.0  0.1645
  H  H50  1  0.127200  0.408800  0.353100  1.0  0.1782
  H  H51  1  0.005600  0.701600  0.204900  1.0  0.1118
  H  H52  1  0.132500  0.709900  0.199400  1.0  0.1229
  H  H53  1  0.932900  0.517000  0.419000  1.0  0.116
  H  H54  1  0.952500  0.627000  0.355900  1.0  0.1229
  H  H55  1  0.108200  0.768600  0.059800  1.0  0.1387
  H  H56  1  0.182300  0.705000  0.073600  1.0  0.1308
  H  H57  1  0.156300  0.378300  0.158000  1.0  0.1248
  H  H58  1  0.111400  0.312800  0.114100  1.0  0.1311
  H  H59  1  0.427000  0.417100  0.175800  1.0  0.1652
  H  H60  1  0.480300  0.353100  0.238100  1.0  0.1768
  H  H61  1  0.210500  0.204900  0.093500  1.0  0.113
  H  H62  1  0.331900  0.199400  0.090700  1.0  0.1228
  H  H63  1  0.351900  0.419000  0.064000  1.0  0.1133
  H  H64  1  0.308400  0.355900  0.017100  1.0  0.1284
  H  H65  1  0.168000  0.059800  0.171600  1.0  0.135
  H  H66  1  0.255900  0.073600  0.221400  1.0  0.1269
  C  C67  1  0.806200  0.977000  0.478400  1.0  0.7502
  C  C68  1  0.726500  0.901100  0.471500  1.0  -0.2423
  C  C69  1  0.372400  0.681700  0.640600  1.0  0.7569
  C  C70  1  0.365700  0.775200  0.575400  1.0  -0.4545
  C  C71  1  0.428600  0.820000  0.466900  1.0  -0.0135
  C  C72  1  0.610600  0.866600  0.324800  1.0  0.0641
  C  C73  1  0.635000  0.923400  0.437400  1.0  0.0531
  C  C74  1  0.609600  0.699800  0.359600  1.0  0.7515
  C  C75  1  0.599200  0.796900  0.298300  1.0  -0.2888
  C  C76  1  0.284600  0.478400  0.544600  1.0  0.7552
  C  C77  1  0.198000  0.471500  0.627400  1.0  -0.2367
  C  C78  1  0.013000  0.640600  0.677700  1.0  0.7601
  C  C79  1  0.941100  0.575400  0.649400  1.0  -0.4559
  C  C80  1  0.895500  0.466900  0.713100  1.0  -0.0149
  C  C81  1  0.935400  0.324800  0.808600  1.0  0.0675
  C  C82  1  0.072400  0.437400  0.639200  1.0  0.0531
  C  C83  1  0.969200  0.359600  0.940600  1.0  0.7536
  C  C84  1  0.897500  0.298300  0.904800  1.0  -0.2891
  C  C85  1  0.829200  0.544600  0.977000  1.0  0.7499
  C  C86  1  0.825400  0.627400  0.901100  1.0  -0.2364
  C  C87  1  0.690700  0.677700  0.681700  1.0  0.7579
  C  C88  1  0.590500  0.649400  0.775200  1.0  -0.4559
  C  C89  1  0.608600  0.713100  0.820000  1.0  -0.0158
  C  C90  1  0.744000  0.808600  0.866600  1.0  0.0668
  C  C91  1  0.711600  0.639200  0.923400  1.0  0.0548
  C  C92  1  0.909800  0.940600  0.699800  1.0  0.7523
  C  C93  1  0.802300  0.904800  0.796900  1.0  -0.2918
  C  C94  1  0.193800  0.023000  0.521600  1.0  0.7529
  C  C95  1  0.273500  0.098900  0.528500  1.0  -0.2419
  C  C96  1  0.627600  0.318300  0.359400  1.0  0.7566
  C  C97  1  0.634300  0.224800  0.424600  1.0  -0.4542
  C  C98  1  0.571400  0.180000  0.533100  1.0  -0.0132
  C  C99  1  0.389400  0.133400  0.675200  1.0  0.0654
  C  C100  1  0.365000  0.076600  0.562600  1.0  0.0534
  C  C101  1  0.390400  0.300200  0.640400  1.0  0.7502
  C  C102  1  0.400800  0.203100  0.701700  1.0  -0.2902
  C  C103  1  0.715400  0.521600  0.455400  1.0  0.7526
  C  C104  1  0.802000  0.528500  0.372600  1.0  -0.2386
  C  C105  1  0.987000  0.359400  0.322300  1.0  0.7583
  C  C106  1  0.058900  0.424600  0.350600  1.0  -0.4555
  C  C107  1  0.104500  0.533100  0.286900  1.0  -0.0137
  C  C108  1  0.064600  0.675200  0.191400  1.0  0.0686
  C  C109  1  0.927600  0.562600  0.360800  1.0  0.0551
  C  C110  1  0.030800  0.640400  0.059400  1.0  0.7548
  C  C111  1  0.102500  0.701700  0.095200  1.0  -0.2929
  C  C112  1  0.170800  0.455400  0.023000  1.0  0.7514
  C  C113  1  0.174600  0.372600  0.098900  1.0  -0.2373
  C  C114  1  0.309300  0.322300  0.318300  1.0  0.7577
  C  C115  1  0.409500  0.350600  0.224800  1.0  -0.4572
  C  C116  1  0.391400  0.286900  0.180000  1.0  -0.0115
  C  C117  1  0.256000  0.191400  0.133400  1.0  0.0679
  C  C118  1  0.288400  0.360800  0.076600  1.0  0.0536
  C  C119  1  0.090200  0.059400  0.300200  1.0  0.7499
  C  C120  1  0.197700  0.095200  0.203100  1.0  -0.2909
  Br  Br121  1  0.611080  0.381350  0.930210  1.0  -0.332
  Br  Br122  1  0.541290  0.930210  0.688440  1.0  -0.3332
  Br  Br123  1  0.229730  0.688440  0.381350  1.0  -0.3296
  Br  Br124  1  0.388920  0.618650  0.069790  1.0  -0.3302
  Br  Br125  1  0.458710  0.069790  0.311560  1.0  -0.3345
  Br  Br126  1  0.770270  0.311560  0.618650  1.0  -0.331
  N  N127  1  0.558700  0.841200  0.430200  1.0  -0.1577
  N  N128  1  0.988900  0.430200  0.728600  1.0  -0.1568
  N  N129  1  0.717500  0.728600  0.841200  1.0  -0.1618
  N  N130  1  0.441300  0.158800  0.569800  1.0  -0.1575
  N  N131  1  0.011100  0.569800  0.271400  1.0  -0.1601
  N  N132  1  0.282500  0.271400  0.158800  1.0  -0.1631
  O  O133  1  0.811300  0.063100  0.439100  1.0  -0.6274
  O  O134  1  0.624400  0.686200  0.435100  1.0  -0.6265
  O  O135  1  0.301600  0.629500  0.727600  1.0  -0.6671
  O  O136  1  0.455100  0.660400  0.602800  1.0  -0.7046
  O  O137  1  0.874000  0.957700  0.523000  1.0  -0.7625
  O  O138  1  0.090200  0.240300  0.529000  1.0  -0.2531
  O  O139  1  0.601900  0.643200  0.325200  1.0  -0.6455
  O  O140  1  0.819900  0.139800  0.573100  1.0  -0.2464
  O  O141  1  0.250400  0.439100  0.497800  1.0  -0.628
  O  O142  1  0.059500  0.435100  0.878700  1.0  -0.6256
  O  O143  1  0.029200  0.727600  0.642900  1.0  -0.6654
  O  O144  1  0.057900  0.602800  0.736800  1.0  -0.7034
  O  O145  1  0.397000  0.523000  0.519300  1.0  -0.7617
  O  O146  1  0.619200  0.529000  0.230700  1.0  -0.2544
  O  O147  1  0.927100  0.325200  0.031600  1.0  -0.6453
  O  O148  1  0.393000  0.573100  0.287100  1.0  -0.2434
  O  O149  1  0.748200  0.497800  0.063100  1.0  -0.6282
  O  O150  1  0.938200  0.878700  0.686200  1.0  -0.6245
  O  O151  1  0.672100  0.642900  0.629500  1.0  -0.6656
  O  O152  1  0.794700  0.736800  0.660400  1.0  -0.7036
  O  O153  1  0.916300  0.519300  0.957700  1.0  -0.7609
  O  O154  1  0.849900  0.230700  0.240300  1.0  -0.252
  O  O155  1  0.958700  0.031600  0.643200  1.0  -0.6457
  O  O156  1  0.680100  0.287100  0.139800  1.0  -0.243
  O  O157  1  0.188700  0.936900  0.560900  1.0  -0.6274
  O  O158  1  0.375600  0.313800  0.564900  1.0  -0.6265
  O  O159  1  0.698400  0.370500  0.272400  1.0  -0.6659
  O  O160  1  0.544900  0.339600  0.397200  1.0  -0.7044
  O  O161  1  0.126000  0.042300  0.477000  1.0  -0.7623
  O  O162  1  0.909800  0.759700  0.471000  1.0  -0.2519
  O  O163  1  0.398100  0.356800  0.674800  1.0  -0.6441
  O  O164  1  0.180100  0.860200  0.426900  1.0  -0.2484
  O  O165  1  0.749600  0.560900  0.502200  1.0  -0.6275
  O  O166  1  0.940500  0.564900  0.121300  1.0  -0.6253
  O  O167  1  0.970800  0.272400  0.357100  1.0  -0.6651
  O  O168  1  0.942100  0.397200  0.263200  1.0  -0.7016
  O  O169  1  0.603000  0.477000  0.480700  1.0  -0.7623
  O  O170  1  0.380800  0.471000  0.769300  1.0  -0.2533
  O  O171  1  0.072900  0.674800  0.968400  1.0  -0.6427
  O  O172  1  0.607000  0.426900  0.712900  1.0  -0.2423
  O  O173  1  0.251800  0.502200  0.936900  1.0  -0.6278
  O  O174  1  0.061800  0.121300  0.313800  1.0  -0.6246
  O  O175  1  0.327900  0.357100  0.370500  1.0  -0.6651
  O  O176  1  0.205300  0.263200  0.339600  1.0  -0.7041
  O  O177  1  0.083700  0.480700  0.042300  1.0  -0.761
  O  O178  1  0.150100  0.769300  0.759700  1.0  -0.2528
  O  O179  1  0.041300  0.968400  0.356800  1.0  -0.6476
  O  O180  1  0.319900  0.712900  0.860200  1.0  -0.2429
