# generated using pymatgen
data_Cd2H26C35(N3O4)2
_symmetry_space_group_name_H-M   'P 1'
_cell_length_a   16.09500000
_cell_length_b   16.49200000
_cell_length_c   16.30800000
_cell_angle_alpha   90.00000000
_cell_angle_beta   118.02000000
_cell_angle_gamma   90.00000000
_symmetry_Int_Tables_number   1
_chemical_formula_structural   Cd2H26C35(N3O4)2
_chemical_formula_sum   'Cd8 H104 C140 N24 O32'
_cell_volume   3821.37182419
_cell_formula_units_Z   4
loop_
 _symmetry_equiv_pos_site_id
 _symmetry_equiv_pos_as_xyz
  1  'x, y, z'
loop_
 _atom_site_type_symbol
 _atom_site_label
 _atom_site_symmetry_multiplicity
 _atom_site_fract_x
 _atom_site_fract_y
 _atom_site_fract_z
 _atom_site_occupancy
 _atom_site_charge
  Cd  Cd1  1  0.835250  0.273580  0.175870  1.0  0.9833
  Cd  Cd2  1  0.109880  0.302900  0.290480  1.0  1.0082
  Cd  Cd3  1  0.664750  0.773580  0.824130  1.0  0.9849
  Cd  Cd4  1  0.390120  0.802900  0.709520  1.0  1.006
  Cd  Cd5  1  0.164750  0.726420  0.824130  1.0  0.986
  Cd  Cd6  1  0.890120  0.697100  0.709520  1.0  1.0054
  Cd  Cd7  1  0.335250  0.226420  0.175870  1.0  0.9845
  Cd  Cd8  1  0.609880  0.197100  0.290480  1.0  1.0078
  H  H9  1  0.051700  0.931500  0.766000  1.0  0.113
  H  H10  1  0.941300  0.928900  0.711900  1.0  0.1137
  H  H11  1  0.129500  0.000200  0.694600  1.0  0.1038
  H  H12  1  0.129000  0.080100  0.577600  1.0  0.1171
  H  H13  1  0.862100  0.143000  0.501800  1.0  0.1282
  H  H14  1  0.862700  0.056700  0.613500  1.0  0.0975
  H  H15  1  0.126800  0.042100  0.884400  1.0  0.106
  H  H16  1  0.120100  0.120600  0.998000  1.0  0.1201
  H  H17  1  0.846900  0.078700  0.889500  1.0  0.1262
  H  H18  1  0.852800  0.000700  0.776400  1.0  0.0942
  H  H19  1  0.852700  0.170300  0.361200  1.0  0.1046
  H  H20  1  0.127400  0.194400  0.484500  1.0  0.1055
  H  H21  1  0.117400  0.175900  0.118800  1.0  0.1111
  H  H22  1  0.841000  0.165500  0.993600  1.0  0.1064
  H  H23  1  0.796500  0.515400  0.007000  1.0  0.0994
  H  H24  1  0.980500  0.681600  0.018000  1.0  0.0938
  H  H25  1  0.067700  0.488600  0.184800  1.0  0.1032
  H  H26  1  0.185700  0.574400  0.185000  1.0  0.1419
  H  H27  1  0.154200  0.665500  0.167700  1.0  0.1425
  H  H28  1  0.158600  0.614700  0.088600  1.0  0.1363
  H  H29  1  0.769600  0.406700  0.474900  1.0  0.1067
  H  H30  1  0.911800  0.605000  0.474800  1.0  0.1124
  H  H31  1  0.851500  0.434800  0.280900  1.0  0.0991
  H  H32  1  0.968300  0.623300  0.364500  1.0  0.1333
  H  H33  1  0.898000  0.589100  0.266400  1.0  0.1311
  H  H34  1  0.991400  0.542300  0.329000  1.0  0.1275
  H  H35  1  0.448300  0.431500  0.234000  1.0  0.1131
  H  H36  1  0.558700  0.428900  0.288100  1.0  0.1139
  H  H37  1  0.370500  0.500200  0.305400  1.0  0.1046
  H  H38  1  0.371000  0.580100  0.422400  1.0  0.116
  H  H39  1  0.637900  0.643000  0.498200  1.0  0.1291
  H  H40  1  0.637300  0.556700  0.386500  1.0  0.0969
  H  H41  1  0.373200  0.542100  0.115600  1.0  0.1064
  H  H42  1  0.379900  0.620600  0.002000  1.0  0.12
  H  H43  1  0.653100  0.578700  0.110500  1.0  0.1261
  H  H44  1  0.647200  0.500700  0.223600  1.0  0.0943
  H  H45  1  0.647300  0.670300  0.638800  1.0  0.1055
  H  H46  1  0.372600  0.694400  0.515500  1.0  0.1072
  H  H47  1  0.382600  0.675900  0.881200  1.0  0.1126
  H  H48  1  0.659000  0.665500  0.006400  1.0  0.1053
  H  H49  1  0.703500  0.015400  0.993000  1.0  0.0996
  H  H50  1  0.519500  0.181600  0.982000  1.0  0.0937
  H  H51  1  0.432300  0.988600  0.815200  1.0  0.1033
  H  H52  1  0.314300  0.074400  0.815000  1.0  0.1418
  H  H53  1  0.345800  0.165500  0.832300  1.0  0.1422
  H  H54  1  0.341400  0.114700  0.911400  1.0  0.1374
  H  H55  1  0.730400  0.906700  0.525100  1.0  0.1068
  H  H56  1  0.588200  0.105000  0.525200  1.0  0.1122
  H  H57  1  0.648500  0.934800  0.719100  1.0  0.099
  H  H58  1  0.531700  0.123300  0.635500  1.0  0.1337
  H  H59  1  0.602000  0.089100  0.733600  1.0  0.1311
  H  H60  1  0.508600  0.042300  0.671000  1.0  0.1275
  H  H61  1  0.948300  0.068500  0.234000  1.0  0.1139
  H  H62  1  0.058700  0.071100  0.288100  1.0  0.1141
  H  H63  1  0.870500  0.999800  0.305400  1.0  0.1047
  H  H64  1  0.871000  0.919900  0.422400  1.0  0.1159
  H  H65  1  0.137900  0.857000  0.498200  1.0  0.1286
  H  H66  1  0.137300  0.943300  0.386500  1.0  0.0977
  H  H67  1  0.873200  0.957900  0.115600  1.0  0.1059
  H  H68  1  0.879900  0.879400  0.002000  1.0  0.1201
  H  H69  1  0.153100  0.921300  0.110500  1.0  0.1256
  H  H70  1  0.147200  0.999300  0.223600  1.0  0.0944
  H  H71  1  0.147300  0.829700  0.638800  1.0  0.1053
  H  H72  1  0.872600  0.805600  0.515500  1.0  0.1069
  H  H73  1  0.882600  0.824100  0.881200  1.0  0.1109
  H  H74  1  0.159000  0.834500  0.006400  1.0  0.1055
  H  H75  1  0.203500  0.484600  0.993000  1.0  0.0996
  H  H76  1  0.019500  0.318400  0.982000  1.0  0.0936
  H  H77  1  0.932300  0.511400  0.815200  1.0  0.1037
  H  H78  1  0.814300  0.425600  0.815000  1.0  0.141
  H  H79  1  0.845800  0.334500  0.832300  1.0  0.1403
  H  H80  1  0.841400  0.385300  0.911400  1.0  0.1375
  H  H81  1  0.230400  0.593300  0.525100  1.0  0.1067
  H  H82  1  0.088200  0.395000  0.525200  1.0  0.1121
  H  H83  1  0.148500  0.565200  0.719100  1.0  0.0987
  H  H84  1  0.031700  0.376700  0.635500  1.0  0.1328
  H  H85  1  0.102000  0.410900  0.733600  1.0  0.1311
  H  H86  1  0.008600  0.457700  0.671000  1.0  0.1273
  H  H87  1  0.551700  0.568500  0.766000  1.0  0.1131
  H  H88  1  0.441300  0.571100  0.711900  1.0  0.114
  H  H89  1  0.629500  0.499800  0.694600  1.0  0.1041
  H  H90  1  0.629000  0.419900  0.577600  1.0  0.1167
  H  H91  1  0.362100  0.357000  0.501800  1.0  0.1287
  H  H92  1  0.362700  0.443300  0.613500  1.0  0.0973
  H  H93  1  0.626800  0.457900  0.884400  1.0  0.1056
  H  H94  1  0.620100  0.379400  0.998000  1.0  0.1197
  H  H95  1  0.346900  0.421300  0.889500  1.0  0.1259
  H  H96  1  0.352800  0.499300  0.776400  1.0  0.0942
  H  H97  1  0.352700  0.329700  0.361200  1.0  0.1048
  H  H98  1  0.627400  0.305600  0.484500  1.0  0.1059
  H  H99  1  0.617400  0.324100  0.118800  1.0  0.1122
  H  H100  1  0.341000  0.334500  0.993600  1.0  0.106
  H  H101  1  0.296500  0.984600  0.007000  1.0  0.0995
  H  H102  1  0.480500  0.818400  0.018000  1.0  0.0938
  H  H103  1  0.567700  0.011400  0.184800  1.0  0.1037
  H  H104  1  0.685700  0.925600  0.185000  1.0  0.1411
  H  H105  1  0.654200  0.834500  0.167700  1.0  0.1423
  H  H106  1  0.658600  0.885300  0.088600  1.0  0.1368
  H  H107  1  0.269600  0.093300  0.474900  1.0  0.1068
  H  H108  1  0.411800  0.895000  0.474800  1.0  0.1128
  H  H109  1  0.351500  0.065200  0.280900  1.0  0.0989
  H  H110  1  0.468300  0.876700  0.364500  1.0  0.1329
  H  H111  1  0.398000  0.910900  0.266400  1.0  0.1305
  H  H112  1  0.491400  0.957700  0.329000  1.0  0.1277
  C  C113  1  0.995400  0.964700  0.740000  1.0  -0.2172
  C  C114  1  0.996200  0.019600  0.666800  1.0  0.063
  C  C115  1  0.074900  0.027800  0.654800  1.0  -0.0892
  C  C116  1  0.075400  0.076000  0.585400  1.0  -0.1726
  C  C117  1  0.995400  0.117100  0.528800  1.0  0.1755
  C  C118  1  0.915400  0.112800  0.539300  1.0  -0.2145
  C  C119  1  0.917100  0.062200  0.607500  1.0  -0.0906
  C  C120  1  0.991100  0.013700  0.817600  1.0  0.0563
  C  C121  1  0.069600  0.049200  0.884600  1.0  -0.0976
  C  C122  1  0.065900  0.095700  0.953100  1.0  -0.1047
  C  C123  1  0.983000  0.105200  0.954800  1.0  0.1517
  C  C124  1  0.903900  0.071000  0.888900  1.0  -0.1476
  C  C125  1  0.907500  0.025000  0.821100  1.0  -0.1109
  C  C126  1  0.913500  0.184300  0.373900  1.0  0.1505
  C  C127  1  0.064100  0.197600  0.441100  1.0  0.1536
  C  C128  1  0.054600  0.182700  0.104300  1.0  0.1376
  C  C129  1  0.903000  0.177300  0.036000  1.0  0.1624
  C  C130  1  0.928900  0.491300  0.103800  1.0  -0.192
  C  C131  1  0.857800  0.535000  0.033700  1.0  -0.0285
  C  C132  1  0.875700  0.606300  0.002900  1.0  -0.0823
  C  C133  1  0.968400  0.632700  0.038700  1.0  -0.0864
  C  C134  1  0.044800  0.587500  0.105500  1.0  0.0995
  C  C135  1  0.020000  0.518300  0.137700  1.0  -0.1057
  C  C136  1  0.906700  0.416400  0.141500  1.0  0.6628
  C  C137  1  0.798200  0.656500  0.930000  1.0  0.7065
  C  C138  1  0.144700  0.612800  0.139800  1.0  -0.4069
  C  C139  1  0.803700  0.408400  0.371200  1.0  -0.1994
  C  C140  1  0.799100  0.437500  0.448400  1.0  -0.0093
  C  C141  1  0.837600  0.511600  0.486800  1.0  -0.1939
  C  C142  1  0.884600  0.555500  0.448400  1.0  -0.0782
  C  C143  1  0.892300  0.527700  0.371600  1.0  0.1218
  C  C144  1  0.849400  0.454000  0.333500  1.0  -0.1114
  C  C145  1  0.755500  0.330100  0.328300  1.0  0.6903
  C  C146  1  0.830000  0.545300  0.568300  1.0  0.7057
  C  C147  1  0.941900  0.574800  0.329100  1.0  -0.4208
  C  C148  1  0.504600  0.464700  0.260000  1.0  -0.2171
  C  C149  1  0.503800  0.519600  0.333200  1.0  0.0625
  C  C150  1  0.425100  0.527800  0.345200  1.0  -0.0887
  C  C151  1  0.424600  0.576000  0.414600  1.0  -0.1719
  C  C152  1  0.504600  0.617100  0.471200  1.0  0.1768
  C  C153  1  0.584600  0.612800  0.460700  1.0  -0.2139
  C  C154  1  0.582900  0.562200  0.392500  1.0  -0.0925
  C  C155  1  0.508900  0.513700  0.182400  1.0  0.0562
  C  C156  1  0.430400  0.549200  0.115400  1.0  -0.0958
  C  C157  1  0.434100  0.595700  0.046900  1.0  -0.1028
  C  C158  1  0.517000  0.605200  0.045200  1.0  0.1523
  C  C159  1  0.596100  0.571000  0.111100  1.0  -0.1493
  C  C160  1  0.592500  0.525000  0.178900  1.0  -0.1111
  C  C161  1  0.586500  0.684300  0.626100  1.0  0.1503
  C  C162  1  0.435900  0.697600  0.558900  1.0  0.1542
  C  C163  1  0.445400  0.682700  0.895700  1.0  0.1371
  C  C164  1  0.597000  0.677300  0.964000  1.0  0.1599
  C  C165  1  0.571100  0.991300  0.896200  1.0  -0.1923
  C  C166  1  0.642200  0.035000  0.966300  1.0  -0.0301
  C  C167  1  0.624300  0.106300  0.997100  1.0  -0.0829
  C  C168  1  0.531600  0.132700  0.961300  1.0  -0.0881
  C  C169  1  0.455200  0.087500  0.894500  1.0  0.0995
  C  C170  1  0.480000  0.018300  0.862300  1.0  -0.1076
  C  C171  1  0.593300  0.916400  0.858500  1.0  0.6625
  C  C172  1  0.701800  0.156500  0.070000  1.0  0.7079
  C  C173  1  0.355300  0.112800  0.860200  1.0  -0.4043
  C  C174  1  0.696300  0.908400  0.628800  1.0  -0.1993
  C  C175  1  0.700900  0.937500  0.551600  1.0  -0.0099
  C  C176  1  0.662400  0.011600  0.513200  1.0  -0.1937
  C  C177  1  0.615400  0.055500  0.551600  1.0  -0.0795
  C  C178  1  0.607700  0.027700  0.628400  1.0  0.1222
  C  C179  1  0.650600  0.954000  0.666500  1.0  -0.1118
  C  C180  1  0.744500  0.830100  0.671700  1.0  0.6901
  C  C181  1  0.670000  0.045300  0.431700  1.0  0.7054
  C  C182  1  0.558100  0.074800  0.670900  1.0  -0.4218
  C  C183  1  0.004600  0.035300  0.260000  1.0  -0.2162
  C  C184  1  0.003800  0.980400  0.333200  1.0  0.063
  C  C185  1  0.925100  0.972200  0.345200  1.0  -0.0878
  C  C186  1  0.924600  0.924000  0.414600  1.0  -0.1718
  C  C187  1  0.004600  0.882900  0.471200  1.0  0.1759
  C  C188  1  0.084600  0.887200  0.460700  1.0  -0.2138
  C  C189  1  0.082900  0.937800  0.392500  1.0  -0.094
  C  C190  1  0.008900  0.986300  0.182400  1.0  0.0558
  C  C191  1  0.930400  0.950800  0.115400  1.0  -0.0968
  C  C192  1  0.934100  0.904300  0.046900  1.0  -0.1028
  C  C193  1  0.017000  0.894800  0.045200  1.0  0.153
  C  C194  1  0.096100  0.929000  0.111100  1.0  -0.1492
  C  C195  1  0.092500  0.975000  0.178900  1.0  -0.1112
  C  C196  1  0.086500  0.815700  0.626100  1.0  0.1504
  C  C197  1  0.935900  0.802400  0.558900  1.0  0.1541
  C  C198  1  0.945400  0.817300  0.895700  1.0  0.1368
  C  C199  1  0.097000  0.822700  0.964000  1.0  0.1598
  C  C200  1  0.071100  0.508700  0.896200  1.0  -0.1917
  C  C201  1  0.142200  0.465000  0.966300  1.0  -0.03
  C  C202  1  0.124300  0.393700  0.997100  1.0  -0.083
  C  C203  1  0.031600  0.367300  0.961300  1.0  -0.0891
  C  C204  1  0.955200  0.412500  0.894500  1.0  0.0995
  C  C205  1  0.980000  0.481700  0.862300  1.0  -0.1071
  C  C206  1  0.093300  0.583600  0.858500  1.0  0.6624
  C  C207  1  0.201800  0.343500  0.070000  1.0  0.7081
  C  C208  1  0.855300  0.387200  0.860200  1.0  -0.4054
  C  C209  1  0.196300  0.591600  0.628800  1.0  -0.2013
  C  C210  1  0.200900  0.562500  0.551600  1.0  -0.0097
  C  C211  1  0.162400  0.488400  0.513200  1.0  -0.1946
  C  C212  1  0.115400  0.444500  0.551600  1.0  -0.0809
  C  C213  1  0.107700  0.472300  0.628400  1.0  0.1216
  C  C214  1  0.150600  0.546000  0.666500  1.0  -0.1126
  C  C215  1  0.244500  0.669900  0.671700  1.0  0.6903
  C  C216  1  0.170000  0.454700  0.431700  1.0  0.7052
  C  C217  1  0.058100  0.425200  0.670900  1.0  -0.4212
  C  C218  1  0.495400  0.535300  0.740000  1.0  -0.2165
  C  C219  1  0.496200  0.480400  0.666800  1.0  0.0632
  C  C220  1  0.574900  0.472200  0.654800  1.0  -0.0894
  C  C221  1  0.575400  0.424000  0.585400  1.0  -0.1719
  C  C222  1  0.495400  0.382900  0.528800  1.0  0.1749
  C  C223  1  0.415400  0.387200  0.539300  1.0  -0.2123
  C  C224  1  0.417100  0.437800  0.607500  1.0  -0.0896
  C  C225  1  0.491100  0.486300  0.817600  1.0  0.0559
  C  C226  1  0.569600  0.450800  0.884600  1.0  -0.0992
  C  C227  1  0.565900  0.404300  0.953100  1.0  -0.1057
  C  C228  1  0.483000  0.394800  0.954800  1.0  0.1519
  C  C229  1  0.403900  0.429000  0.888900  1.0  -0.1489
  C  C230  1  0.407500  0.475000  0.821100  1.0  -0.1105
  C  C231  1  0.413500  0.315700  0.373900  1.0  0.1502
  C  C232  1  0.564100  0.302400  0.441100  1.0  0.1522
  C  C233  1  0.554600  0.317300  0.104300  1.0  0.137
  C  C234  1  0.403000  0.322700  0.036000  1.0  0.1625
  C  C235  1  0.428900  0.008700  0.103800  1.0  -0.1919
  C  C236  1  0.357800  0.965000  0.033700  1.0  -0.0284
  C  C237  1  0.375700  0.893700  0.002900  1.0  -0.083
  C  C238  1  0.468400  0.867300  0.038700  1.0  -0.0876
  C  C239  1  0.544800  0.912500  0.105500  1.0  0.0996
  C  C240  1  0.520000  0.981700  0.137700  1.0  -0.1054
  C  C241  1  0.406700  0.083600  0.141500  1.0  0.6622
  C  C242  1  0.298200  0.843500  0.930000  1.0  0.7067
  C  C243  1  0.644700  0.887200  0.139800  1.0  -0.4067
  C  C244  1  0.303700  0.091600  0.371200  1.0  -0.2017
  C  C245  1  0.299100  0.062500  0.448400  1.0  -0.01
  C  C246  1  0.337600  0.988400  0.486800  1.0  -0.1939
  C  C247  1  0.384600  0.944500  0.448400  1.0  -0.0803
  C  C248  1  0.392300  0.972300  0.371600  1.0  0.1212
  C  C249  1  0.349400  0.046000  0.333500  1.0  -0.112
  C  C250  1  0.255500  0.169900  0.328300  1.0  0.6901
  C  C251  1  0.330000  0.954700  0.568300  1.0  0.7056
  C  C252  1  0.441900  0.925200  0.329100  1.0  -0.4214
  N  N253  1  0.935400  0.224600  0.318700  1.0  -0.2257
  N  N254  1  0.031500  0.233000  0.361700  1.0  -0.2121
  N  N255  1  0.991800  0.165500  0.452100  1.0  0.0246
  N  N256  1  0.024800  0.222200  0.155000  1.0  -0.1748
  N  N257  1  0.929600  0.219200  0.112100  1.0  -0.2319
  N  N258  1  0.980800  0.153400  0.028200  1.0  0.0422
  N  N259  1  0.564600  0.724600  0.681300  1.0  -0.2263
  N  N260  1  0.468500  0.733000  0.638300  1.0  -0.2131
  N  N261  1  0.508200  0.665500  0.547900  1.0  0.0244
  N  N262  1  0.475200  0.722200  0.845000  1.0  -0.1742
  N  N263  1  0.570400  0.719200  0.887900  1.0  -0.2294
  N  N264  1  0.519200  0.653400  0.971800  1.0  0.0407
  N  N265  1  0.064600  0.775400  0.681300  1.0  -0.2254
  N  N266  1  0.968500  0.767000  0.638300  1.0  -0.2132
  N  N267  1  0.008200  0.834500  0.547900  1.0  0.024
  N  N268  1  0.975200  0.777800  0.845000  1.0  -0.1754
  N  N269  1  0.070400  0.780800  0.887900  1.0  -0.2297
  N  N270  1  0.019200  0.846600  0.971800  1.0  0.0405
  N  N271  1  0.435400  0.275400  0.318700  1.0  -0.2261
  N  N272  1  0.531500  0.267000  0.361700  1.0  -0.2121
  N  N273  1  0.491800  0.334500  0.452100  1.0  0.0248
  N  N274  1  0.524800  0.277800  0.155000  1.0  -0.1733
  N  N275  1  0.429600  0.280800  0.112100  1.0  -0.2319
  N  N276  1  0.480800  0.346600  0.028200  1.0  0.0417
  O  O277  1  0.971000  0.378700  0.208900  1.0  -0.7913
  O  O278  1  0.823100  0.393100  0.105900  1.0  -0.6
  O  O279  1  0.733200  0.622800  0.862000  1.0  -0.6157
  O  O280  1  0.800200  0.731600  0.943600  1.0  -0.5858
  O  O281  1  0.748900  0.309400  0.250100  1.0  -0.648
  O  O282  1  0.720400  0.289600  0.369000  1.0  -0.6074
  O  O283  1  0.803000  0.500200  0.613400  1.0  -0.556
  O  O284  1  0.848800  0.619500  0.584500  1.0  -0.6571
  O  O285  1  0.529000  0.878700  0.791100  1.0  -0.7922
  O  O286  1  0.676900  0.893100  0.894100  1.0  -0.5995
  O  O287  1  0.766800  0.122800  0.138000  1.0  -0.616
  O  O288  1  0.699800  0.231600  0.056400  1.0  -0.5853
  O  O289  1  0.751100  0.809400  0.749900  1.0  -0.648
  O  O290  1  0.779600  0.789600  0.631000  1.0  -0.6083
  O  O291  1  0.697000  0.000200  0.386600  1.0  -0.556
  O  O292  1  0.651200  0.119500  0.415500  1.0  -0.6569
  O  O293  1  0.029000  0.621300  0.791100  1.0  -0.7916
  O  O294  1  0.176900  0.606900  0.894100  1.0  -0.5981
  O  O295  1  0.266800  0.377200  0.138000  1.0  -0.616
  O  O296  1  0.199800  0.268400  0.056400  1.0  -0.5842
  O  O297  1  0.251100  0.690600  0.749900  1.0  -0.6484
  O  O298  1  0.279600  0.710400  0.631000  1.0  -0.6066
  O  O299  1  0.197000  0.499800  0.386600  1.0  -0.5559
  O  O300  1  0.151200  0.380500  0.415500  1.0  -0.6579
  O  O301  1  0.471000  0.121300  0.208900  1.0  -0.7917
  O  O302  1  0.323100  0.106900  0.105900  1.0  -0.5989
  O  O303  1  0.233200  0.877200  0.862000  1.0  -0.6159
  O  O304  1  0.300200  0.768400  0.943600  1.0  -0.5846
  O  O305  1  0.248900  0.190600  0.250100  1.0  -0.6477
  O  O306  1  0.220400  0.210400  0.369000  1.0  -0.6055
  O  O307  1  0.303000  0.999800  0.613400  1.0  -0.5571
  O  O308  1  0.348800  0.880500  0.584500  1.0  -0.6572
