# generated using pymatgen
data_Zn3P4(HO3)4
_symmetry_space_group_name_H-M   'P 1'
_cell_length_a   7.23380000
_cell_length_b   15.02380000
_cell_length_c   9.21530000
_cell_angle_alpha   90.00000000
_cell_angle_beta   107.74100000
_cell_angle_gamma   90.00000000
_symmetry_Int_Tables_number   1
_chemical_formula_structural   Zn3P4(HO3)4
_chemical_formula_sum   'Zn6 P8 H8 O24'
_cell_volume   953.88291737
_cell_formula_units_Z   2
loop_
 _symmetry_equiv_pos_site_id
 _symmetry_equiv_pos_as_xyz
  1  'x, y, z'
loop_
 _atom_site_type_symbol
 _atom_site_label
 _atom_site_symmetry_multiplicity
 _atom_site_fract_x
 _atom_site_fract_y
 _atom_site_fract_z
 _atom_site_occupancy
 _atom_site_charge
  Zn  Zn1  1  0.487950  0.239940  0.024980  1.0  1.1319
  Zn  Zn2  1  0.512050  0.739940  0.475020  1.0  1.1318
  Zn  Zn3  1  0.512050  0.760060  0.975020  1.0  1.1317
  Zn  Zn4  1  0.487950  0.260060  0.524980  1.0  1.1319
  Zn  Zn5  1  0.000000  0.500000  0.500000  1.0  1.1268
  Zn  Zn6  1  0.000000  0.000000  0.000000  1.0  1.1268
  P  P7  1  0.230970  0.341720  0.725200  1.0  1.5195
  P  P8  1  0.766670  0.317540  0.335300  1.0  1.5965
  P  P9  1  0.769030  0.841720  0.774800  1.0  1.5281
  P  P10  1  0.233330  0.817540  0.164700  1.0  1.5975
  P  P11  1  0.769030  0.658280  0.274800  1.0  1.5263
  P  P12  1  0.233330  0.682460  0.664700  1.0  1.5971
  P  P13  1  0.230970  0.158280  0.225200  1.0  1.5169
  P  P14  1  0.766670  0.182460  0.835300  1.0  1.5966
  H  H15  1  0.111000  0.281000  0.661000  1.0  -0.094
  H  H16  1  0.846000  0.234000  0.388000  1.0  -0.0821
  H  H17  1  0.889000  0.781000  0.839000  1.0  -0.0938
  H  H18  1  0.154000  0.734000  0.112000  1.0  -0.0827
  H  H19  1  0.889000  0.719000  0.339000  1.0  -0.0947
  H  H20  1  0.154000  0.766000  0.612000  1.0  -0.0858
  H  H21  1  0.111000  0.219000  0.161000  1.0  -0.0944
  H  H22  1  0.846000  0.266000  0.888000  1.0  -0.0855
  O  O23  1  0.313400  0.322300  0.893900  1.0  -0.8215
  O  O24  1  0.686300  0.314200  0.161300  1.0  -0.7536
  O  O25  1  0.384500  0.342100  0.641600  1.0  -0.779
  O  O26  1  0.607400  0.336800  0.408800  1.0  -0.77
  O  O27  1  0.119900  0.428700  0.703700  1.0  -0.7329
  O  O28  1  0.933800  0.381200  0.382200  1.0  -0.7805
  O  O29  1  0.686600  0.822300  0.606100  1.0  -0.8179
  O  O30  1  0.313700  0.814200  0.338700  1.0  -0.7522
  O  O31  1  0.615500  0.842100  0.858400  1.0  -0.7791
  O  O32  1  0.392600  0.836800  0.091200  1.0  -0.7712
  O  O33  1  0.880100  0.928700  0.796300  1.0  -0.7326
  O  O34  1  0.066200  0.881200  0.117800  1.0  -0.7815
  O  O35  1  0.686600  0.677700  0.106100  1.0  -0.8174
  O  O36  1  0.313700  0.685800  0.838700  1.0  -0.7517
  O  O37  1  0.615500  0.657900  0.358400  1.0  -0.7786
  O  O38  1  0.392600  0.663200  0.591200  1.0  -0.7719
  O  O39  1  0.880100  0.571300  0.296300  1.0  -0.7329
  O  O40  1  0.066200  0.618800  0.617800  1.0  -0.7822
  O  O41  1  0.313400  0.177700  0.393900  1.0  -0.8212
  O  O42  1  0.686300  0.185800  0.661300  1.0  -0.7534
  O  O43  1  0.384500  0.157900  0.141600  1.0  -0.7791
  O  O44  1  0.607400  0.163200  0.908800  1.0  -0.7702
  O  O45  1  0.119900  0.071300  0.203700  1.0  -0.7333
  O  O46  1  0.933800  0.118800  0.882200  1.0  -0.7825
