# generated using pymatgen
data_FeAgH34C58(N5O2)2
_symmetry_space_group_name_H-M   'P 1'
_cell_length_a   17.32660000
_cell_length_b   21.97860000
_cell_length_c   23.21720000
_cell_angle_alpha   99.59000000
_cell_angle_beta   108.83200000
_cell_angle_gamma   107.22800000
_symmetry_Int_Tables_number   1
_chemical_formula_structural   FeAgH34C58(N5O2)2
_chemical_formula_sum   'Fe4 Ag4 H136 C232 N40 O16'
_cell_volume   7649.12868308
_cell_formula_units_Z   4
loop_
 _symmetry_equiv_pos_site_id
 _symmetry_equiv_pos_as_xyz
  1  'x, y, z'
loop_
 _atom_site_type_symbol
 _atom_site_label
 _atom_site_symmetry_multiplicity
 _atom_site_fract_x
 _atom_site_fract_y
 _atom_site_fract_z
 _atom_site_occupancy
 _atom_site_charge
  Fe  Fe1  1  0.701330  0.778850  0.560340  1.0  0.36
  Fe  Fe2  1  0.675910  0.266490  0.070260  1.0  0.3573
  Fe  Fe3  1  0.298670  0.221150  0.439660  1.0  0.3584
  Fe  Fe4  1  0.324090  0.733510  0.929740  1.0  0.3566
  Ag  Ag5  1  0.071680  0.876550  0.171790  1.0  0.3559
  Ag  Ag6  1  0.098240  0.387450  0.662520  1.0  0.3545
  Ag  Ag7  1  0.928320  0.123450  0.828210  1.0  0.3564
  Ag  Ag8  1  0.901760  0.612550  0.337480  1.0  0.3544
  H  H9  1  0.206900  0.806600  0.220200  1.0  0.0626
  H  H10  1  0.199000  0.960600  0.326200  1.0  0.0552
  H  H11  1  0.949600  0.751900  0.195600  1.0  0.0585
  H  H12  1  0.061600  0.756100  0.073600  1.0  0.0677
  H  H13  1  0.321600  0.804200  0.303600  1.0  0.1121
  H  H14  1  0.308200  0.960500  0.414500  1.0  0.1126
  H  H15  1  0.899800  0.636900  0.169300  1.0  0.1012
  H  H16  1  0.016100  0.641100  0.043400  1.0  0.1029
  H  H17  1  0.415400  0.944500  0.506900  1.0  0.114
  H  H18  1  0.932300  0.519000  0.997500  1.0  0.095
  H  H19  1  0.554200  0.778600  0.441000  1.0  0.09
  H  H20  1  0.557600  0.927000  0.613300  1.0  0.114
  H  H21  1  0.799300  0.413300  0.143600  1.0  0.1014
  H  H22  1  0.837700  0.369900  0.952600  1.0  0.1083
  H  H23  1  0.653400  0.928600  0.711900  1.0  0.1133
  H  H24  1  0.765900  0.256300  0.893100  1.0  0.1027
  H  H25  1  0.805100  0.688600  0.544300  1.0  0.0949
  H  H26  1  0.587100  0.703000  0.622700  1.0  0.0998
  H  H27  1  0.820000  0.926200  0.629000  1.0  0.0922
  H  H28  1  0.752600  0.917800  0.801500  1.0  0.0828
  H  H29  1  0.780000  0.175500  0.059200  1.0  0.0903
  H  H30  1  0.542100  0.272700  0.948000  1.0  0.0941
  H  H31  1  0.544200  0.193300  0.122800  1.0  0.1035
  H  H32  1  0.671100  0.146500  0.837600  1.0  0.0924
  H  H33  1  0.885000  0.768300  0.763900  1.0  0.1053
  H  H34  1  0.832100  0.849800  0.790700  1.0  0.1096
  H  H35  1  0.492500  0.561500  0.417400  1.0  0.1077
  H  H36  1  0.580800  0.600300  0.364700  1.0  0.114
  H  H37  1  0.771100  0.769200  0.373800  1.0  0.1099
  H  H38  1  0.845800  0.880400  0.433000  1.0  0.1075
  H  H39  1  0.849700  0.255100  0.277200  1.0  0.1065
  H  H40  1  0.793500  0.334400  0.301000  1.0  0.1114
  H  H41  1  0.616700  0.412500  0.216100  1.0  0.1123
  H  H42  1  0.533900  0.417900  0.116600  1.0  0.1121
  H  H43  1  0.574600  0.088000  0.878600  1.0  0.1083
  H  H44  1  0.476800  0.047800  0.925300  1.0  0.1071
  H  H45  1  0.671200  0.658800  0.319300  1.0  0.0845
  H  H46  1  0.714100  0.403100  0.308500  1.0  0.081
  H  H47  1  0.972100  0.666900  0.765900  1.0  0.1079
  H  H48  1  0.353600  0.480700  0.456500  1.0  0.1259
  H  H49  1  0.934100  0.030700  0.473100  1.0  0.099
  H  H50  1  0.942400  0.156700  0.283500  1.0  0.1021
  H  H51  1  0.408700  0.444800  0.006300  1.0  0.1134
  H  H52  1  0.328700  0.965900  0.957000  1.0  0.1213
  H  H53  1  0.952100  0.544300  0.575500  1.0  0.0944
  H  H54  1  0.018200  0.575400  0.763500  1.0  0.1093
  H  H55  1  0.395400  0.534500  0.666400  1.0  0.1054
  H  H56  1  0.220700  0.445600  0.484600  1.0  0.0988
  H  H57  1  0.936200  0.146200  0.661100  1.0  0.0963
  H  H58  1  0.005100  0.153000  0.511400  1.0  0.1175
  H  H59  1  0.960000  0.055600  0.099500  1.0  0.1037
  H  H60  1  0.980000  0.055400  0.278300  1.0  0.1135
  H  H61  1  0.304100  0.294900  0.810200  1.0  0.1117
  H  H62  1  0.335900  0.478300  0.906500  1.0  0.1089
  H  H63  1  0.357500  0.026700  0.164200  1.0  0.1154
  H  H64  1  0.185300  0.927500  0.982200  1.0  0.1115
  H  H65  1  0.005000  0.459700  0.574300  1.0  0.0666
  H  H66  1  0.064900  0.487300  0.757000  1.0  0.0625
  H  H67  1  0.291700  0.470400  0.698100  1.0  0.0669
  H  H68  1  0.121400  0.388300  0.521500  1.0  0.0722
  H  H69  1  0.994400  0.261600  0.694500  1.0  0.0631
  H  H70  1  0.062100  0.268000  0.549400  1.0  0.0618
  H  H71  1  0.019200  0.974100  0.097900  1.0  0.069
  H  H72  1  0.035400  0.972500  0.269800  1.0  0.0615
  H  H73  1  0.198800  0.302400  0.723100  1.0  0.0509
  H  H74  1  0.232400  0.480900  0.816400  1.0  0.0655
  H  H75  1  0.254900  0.962100  0.196000  1.0  0.0555
  H  H76  1  0.089000  0.868900  0.020900  1.0  0.062
  H  H77  1  0.793100  0.193400  0.779800  1.0  0.0626
  H  H78  1  0.801000  0.039400  0.673800  1.0  0.0554
  H  H79  1  0.050400  0.248100  0.804400  1.0  0.0587
  H  H80  1  0.938400  0.243900  0.926400  1.0  0.069
  H  H81  1  0.678400  0.195800  0.696400  1.0  0.1127
  H  H82  1  0.691800  0.039500  0.585500  1.0  0.1129
  H  H83  1  0.100200  0.363100  0.830700  1.0  0.1006
  H  H84  1  0.983900  0.358900  0.956600  1.0  0.102
  H  H85  1  0.584600  0.055500  0.493100  1.0  0.1128
  H  H86  1  0.067700  0.481000  0.002500  1.0  0.0942
  H  H87  1  0.445800  0.221400  0.559000  1.0  0.0905
  H  H88  1  0.442400  0.073000  0.386700  1.0  0.1132
  H  H89  1  0.200700  0.586700  0.856400  1.0  0.1008
  H  H90  1  0.162300  0.630100  0.047400  1.0  0.1074
  H  H91  1  0.346600  0.071400  0.288100  1.0  0.1134
  H  H92  1  0.234100  0.743700  0.106900  1.0  0.1025
  H  H93  1  0.194900  0.311400  0.455700  1.0  0.0942
  H  H94  1  0.412900  0.297000  0.377300  1.0  0.1006
  H  H95  1  0.180000  0.073800  0.371000  1.0  0.0925
  H  H96  1  0.247400  0.082200  0.198500  1.0  0.0825
  H  H97  1  0.220000  0.824500  0.940800  1.0  0.0897
  H  H98  1  0.457900  0.727300  0.052000  1.0  0.0951
  H  H99  1  0.455800  0.806700  0.877200  1.0  0.1025
  H  H100  1  0.328900  0.853500  0.162400  1.0  0.0909
  H  H101  1  0.115000  0.231700  0.236100  1.0  0.1061
  H  H102  1  0.167900  0.150200  0.209300  1.0  0.1092
  H  H103  1  0.507500  0.438500  0.582600  1.0  0.1073
  H  H104  1  0.419200  0.399700  0.635300  1.0  0.1143
  H  H105  1  0.228900  0.230800  0.626200  1.0  0.1104
  H  H106  1  0.154200  0.119600  0.567000  1.0  0.1074
  H  H107  1  0.150300  0.744900  0.722800  1.0  0.1066
  H  H108  1  0.206500  0.665600  0.699000  1.0  0.1111
  H  H109  1  0.383300  0.587500  0.783900  1.0  0.1126
  H  H110  1  0.466100  0.582100  0.883400  1.0  0.1088
  H  H111  1  0.425400  0.912000  0.121400  1.0  0.1078
  H  H112  1  0.523200  0.952200  0.074700  1.0  0.1072
  H  H113  1  0.328800  0.341200  0.680700  1.0  0.0862
  H  H114  1  0.285900  0.596900  0.691500  1.0  0.0811
  H  H115  1  0.027900  0.333100  0.234100  1.0  0.1075
  H  H116  1  0.646400  0.519300  0.543500  1.0  0.1252
  H  H117  1  0.065900  0.969300  0.526900  1.0  0.0981
  H  H118  1  0.057600  0.843300  0.716500  1.0  0.1017
  H  H119  1  0.591300  0.555200  0.993700  1.0  0.1127
  H  H120  1  0.671300  0.034100  0.043000  1.0  0.1196
  H  H121  1  0.047900  0.455700  0.424500  1.0  0.0941
  H  H122  1  0.981800  0.424600  0.236500  1.0  0.1092
  H  H123  1  0.604600  0.465500  0.333600  1.0  0.1045
  H  H124  1  0.779300  0.554400  0.515400  1.0  0.0987
  H  H125  1  0.063800  0.853800  0.338900  1.0  0.0943
  H  H126  1  0.994900  0.847000  0.488600  1.0  0.1163
  H  H127  1  0.040000  0.944400  0.900500  1.0  0.1039
  H  H128  1  0.020000  0.944600  0.721700  1.0  0.1139
  H  H129  1  0.695900  0.705100  0.189800  1.0  0.1125
  H  H130  1  0.664100  0.521700  0.093500  1.0  0.1088
  H  H131  1  0.642500  0.973300  0.835800  1.0  0.1148
  H  H132  1  0.814700  0.072500  0.017800  1.0  0.1111
  H  H133  1  0.995000  0.540300  0.425700  1.0  0.0661
  H  H134  1  0.935100  0.512700  0.243000  1.0  0.0628
  H  H135  1  0.708300  0.529600  0.301900  1.0  0.0677
  H  H136  1  0.878600  0.611700  0.478500  1.0  0.0728
  H  H137  1  0.005600  0.738400  0.305500  1.0  0.0638
  H  H138  1  0.937900  0.732000  0.450600  1.0  0.0615
  H  H139  1  0.980800  0.025900  0.902100  1.0  0.0691
  H  H140  1  0.964600  0.027500  0.730200  1.0  0.0615
  H  H141  1  0.801200  0.697600  0.276900  1.0  0.0507
  H  H142  1  0.767600  0.519100  0.183600  1.0  0.0652
  H  H143  1  0.745100  0.037900  0.804000  1.0  0.0551
  H  H144  1  0.911000  0.131100  0.979100  1.0  0.0615
  C  C145  1  0.228800  0.838900  0.260200  1.0  0.1471
  C  C146  1  0.223600  0.927600  0.321800  1.0  0.155
  C  C147  1  0.963300  0.728900  0.164300  1.0  0.1552
  C  C148  1  0.028600  0.731400  0.093400  1.0  0.1507
  C  C149  1  0.296600  0.836600  0.309800  1.0  -0.1693
  C  C150  1  0.289400  0.928700  0.374800  1.0  -0.2112
  C  C151  1  0.933500  0.660300  0.149200  1.0  -0.1632
  C  C152  1  0.001800  0.662700  0.075200  1.0  -0.2041
  C  C153  1  0.327900  0.881800  0.368840  1.0  -0.1135
  C  C154  1  0.954200  0.626000  0.103600  1.0  -0.0919
  C  C155  1  0.398200  0.880300  0.423600  1.0  0.0563
  C  C156  1  0.921300  0.553600  0.082000  1.0  0.0343
  C  C157  1  0.431900  0.912200  0.486600  1.0  -0.1481
  C  C158  1  0.911600  0.508800  0.029300  1.0  -0.1482
  C  C159  1  0.499000  0.842200  0.467260  1.0  0.1905
  C  C160  1  0.497600  0.887300  0.516200  1.0  -0.1187
  C  C161  1  0.851700  0.454600  0.086900  1.0  0.2255
  C  C162  1  0.865100  0.444500  0.030500  1.0  -0.0732
  C  C163  1  0.555000  0.808400  0.476160  1.0  0.141
  C  C164  1  0.555400  0.896800  0.577860  1.0  -0.0809
  C  C165  1  0.804600  0.404480  0.103800  1.0  0.1241
  C  C166  1  0.828300  0.379900  0.990700  1.0  -0.0538
  C  C167  1  0.609300  0.860960  0.585610  1.0  0.1256
  C  C168  1  0.777200  0.330100  0.007900  1.0  0.1343
  C  C169  1  0.670000  0.862920  0.647190  1.0  0.1281
  C  C170  1  0.725800  0.261300  0.967200  1.0  0.149
  C  C171  1  0.684200  0.899900  0.707470  1.0  -0.1105
  C  C172  1  0.727000  0.232000  0.909500  1.0  -0.1508
  C  C173  1  0.820000  0.704110  0.588620  1.0  0.1329
  C  C174  1  0.815700  0.771900  0.675980  1.0  0.1516
  C  C175  1  0.774700  0.818100  0.693700  1.0  0.1158
  C  C176  1  0.567700  0.674700  0.581070  1.0  0.1266
  C  C177  1  0.580700  0.649600  0.482970  1.0  0.1498
  C  C178  1  0.632100  0.676190  0.447390  1.0  0.153
  C  C179  1  0.741000  0.773200  0.452200  1.0  0.1558
  C  C180  1  0.793400  0.842220  0.492410  1.0  0.1073
  C  C181  1  0.823400  0.916700  0.588610  1.0  0.1252
  C  C182  1  0.743600  0.893900  0.760400  1.0  -0.1248
  C  C183  1  0.792300  0.190600  0.103200  1.0  0.1366
  C  C184  1  0.781500  0.257180  0.188160  1.0  0.1521
  C  C185  1  0.741100  0.303580  0.203190  1.0  0.144
  C  C186  1  0.640500  0.350000  0.154690  1.0  0.1393
  C  C187  1  0.585600  0.350480  0.091550  1.0  0.1382
  C  C188  1  0.540300  0.301700  0.982300  1.0  0.1367
  C  C189  1  0.615200  0.163700  0.958300  1.0  0.1469
  C  C190  1  0.558600  0.136900  0.991200  1.0  0.1089
  C  C191  1  0.531300  0.164000  0.082990  1.0  0.1387
  C  C192  1  0.671000  0.167400  0.876800  1.0  -0.1181
  C  C193  1  0.871800  0.681000  0.631000  1.0  0.2426
  C  C194  1  0.868700  0.750900  0.719600  1.0  -0.0955
  C  C195  1  0.790400  0.853300  0.754200  1.0  -0.1036
  C  C196  1  0.497600  0.614900  0.558900  1.0  0.2005
  C  C197  1  0.510300  0.589600  0.459000  1.0  -0.0764
  C  C198  1  0.622300  0.644400  0.387000  1.0  -0.1401
  C  C199  1  0.735500  0.745000  0.392400  1.0  -0.1292
  C  C200  1  0.839400  0.891000  0.472200  1.0  -0.079
  C  C201  1  0.866700  0.966870  0.569100  1.0  0.2618
  C  C202  1  0.842900  0.167500  0.146600  1.0  0.2514
  C  C203  1  0.834700  0.237210  0.233140  1.0  -0.0985
  C  C204  1  0.753900  0.338400  0.263800  1.0  -0.1173
  C  C205  1  0.649300  0.385000  0.213200  1.0  -0.1468
  C  C206  1  0.534500  0.388700  0.081750  1.0  -0.0891
  C  C207  1  0.487000  0.337600  0.971320  1.0  0.1959
  C  C208  1  0.613900  0.132600  0.901100  1.0  -0.1614
  C  C209  1  0.489600  0.076500  0.965400  1.0  -0.06
  C  C210  1  0.463200  0.103700  0.059100  1.0  0.1902
  C  C211  1  0.897800  0.703000  0.696300  1.0  -0.0837
  C  C212  1  0.465800  0.571600  0.498200  1.0  -0.1003
  C  C213  1  0.675600  0.679600  0.360200  1.0  -0.1131
  C  C214  1  0.875900  0.956000  0.511200  1.0  -0.075
  C  C215  1  0.865400  0.190200  0.211900  1.0  -0.1223
  C  C216  1  0.707000  0.379000  0.267900  1.0  -0.1341
  C  C217  1  0.484200  0.383200  0.019410  1.0  -0.0875
  C  C218  1  0.438300  0.058900  0.000800  1.0  -0.1327
  C  C219  1  0.945700  0.623100  0.672500  1.0  0.1176
  C  C220  1  0.945700  0.664200  0.722300  1.0  -0.1247
  C  C221  1  0.382200  0.532400  0.548300  1.0  0.0904
  C  C222  1  0.390500  0.518400  0.492400  1.0  -0.1305
  C  C223  1  0.917600  0.020500  0.506700  1.0  -0.1629
  C  C224  1  0.928900  0.064200  0.560100  1.0  0.0537
  C  C225  1  0.919800  0.112700  0.191100  1.0  0.0847
  C  C226  1  0.916400  0.153100  0.239700  1.0  -0.1158
  C  C227  1  0.424800  0.411400  0.987200  1.0  -0.1265
  C  C228  1  0.396100  0.381900  0.925000  1.0  0.0519
  C  C229  1  0.362000  0.004300  0.992700  1.0  -0.1156
  C  C230  1  0.346800  0.018600  0.046600  1.0  0.0614
  C  C231  1  0.978200  0.569000  0.669100  1.0  -0.0439
  C  C232  1  0.319800  0.496200  0.571800  1.0  -0.0146
  C  C233  1  0.964700  0.137200  0.583500  1.0  -0.0456
  C  C234  1  0.961000  0.063600  0.188400  1.0  -0.0744
  C  C235  1  0.330400  0.385360  0.868230  1.0  -0.0788
  C  C236  1  0.283300  0.982700  0.069000  1.0  -0.0139
  C  C237  1  0.975600  0.533800  0.613900  1.0  -0.1267
  C  C238  1  0.013700  0.551600  0.723700  1.0  -0.2057
  C  C239  1  0.339700  0.504000  0.635600  1.0  -0.1706
  C  C240  1  0.236700  0.452100  0.529000  1.0  -0.2125
  C  C241  1  0.961900  0.170200  0.637200  1.0  -0.1441
  C  C242  1  0.002600  0.174400  0.549400  1.0  -0.2105
  C  C243  1  0.974600  0.039100  0.135200  1.0  -0.1864
  C  C244  1  0.986000  0.038800  0.240200  1.0  -0.2084
  C  C245  1  0.289700  0.333500  0.812700  1.0  -0.1932
  C  C246  1  0.308600  0.441500  0.869200  1.0  -0.2007
  C  C247  1  0.303300  0.994000  0.133600  1.0  -0.2249
  C  C248  1  0.201500  0.935700  0.026700  1.0  -0.2273
  C  C249  1  0.007100  0.483200  0.613400  1.0  0.1217
  C  C250  1  0.042500  0.499500  0.719500  1.0  0.1545
  C  C251  1  0.276900  0.466400  0.654200  1.0  0.1646
  C  C252  1  0.178100  0.418200  0.551200  1.0  0.153
  C  C253  1  0.996900  0.239000  0.656800  1.0  0.1512
  C  C254  1  0.036100  0.242700  0.572400  1.0  0.1516
  C  C255  1  0.009700  0.990200  0.134600  1.0  0.1368
  C  C256  1  0.019400  0.989600  0.234600  1.0  0.1593
  C  C257  1  0.227600  0.338800  0.760800  1.0  0.1445
  C  C258  1  0.247000  0.442400  0.815300  1.0  0.1495
  C  C259  1  0.240400  0.955400  0.151700  1.0  0.1617
  C  C260  1  0.144400  0.901100  0.050300  1.0  0.1357
  C  C261  1  0.771200  0.161100  0.739800  1.0  0.1469
  C  C262  1  0.776400  0.072400  0.678200  1.0  0.1535
  C  C263  1  0.036700  0.271100  0.835700  1.0  0.1539
  C  C264  1  0.971400  0.268600  0.906600  1.0  0.1514
  C  C265  1  0.703400  0.163400  0.690200  1.0  -0.1685
  C  C266  1  0.710600  0.071300  0.625200  1.0  -0.2127
  C  C267  1  0.066500  0.339700  0.850800  1.0  -0.1623
  C  C268  1  0.998200  0.337300  0.924800  1.0  -0.2039
  C  C269  1  0.672100  0.118200  0.631160  1.0  -0.1137
  C  C270  1  0.045800  0.374000  0.896400  1.0  -0.0922
  C  C271  1  0.601800  0.119700  0.576400  1.0  0.0575
  C  C272  1  0.078700  0.446400  0.918000  1.0  0.0368
  C  C273  1  0.568100  0.087800  0.513400  1.0  -0.146
  C  C274  1  0.088400  0.491200  0.970700  1.0  -0.1489
  C  C275  1  0.501000  0.157800  0.532740  1.0  0.1926
  C  C276  1  0.502400  0.112700  0.483800  1.0  -0.1194
  C  C277  1  0.148300  0.545400  0.913100  1.0  0.2239
  C  C278  1  0.134900  0.555500  0.969500  1.0  -0.0727
  C  C279  1  0.445000  0.191600  0.523840  1.0  0.1404
  C  C280  1  0.444600  0.103200  0.422140  1.0  -0.0818
  C  C281  1  0.195400  0.595520  0.896200  1.0  0.1242
  C  C282  1  0.171700  0.620100  0.009300  1.0  -0.0563
  C  C283  1  0.390700  0.139040  0.414390  1.0  0.1262
  C  C284  1  0.222800  0.669900  0.992100  1.0  0.1333
  C  C285  1  0.330000  0.137080  0.352810  1.0  0.1296
  C  C286  1  0.274200  0.738700  0.032800  1.0  0.1476
  C  C287  1  0.315800  0.100100  0.292530  1.0  -0.1086
  C  C288  1  0.273000  0.768000  0.090500  1.0  -0.1512
  C  C289  1  0.180000  0.295890  0.411380  1.0  0.133
  C  C290  1  0.184300  0.228100  0.324020  1.0  0.1516
  C  C291  1  0.225300  0.181900  0.306300  1.0  0.1141
  C  C292  1  0.432300  0.325300  0.418930  1.0  0.1276
  C  C293  1  0.419300  0.350400  0.517030  1.0  0.1523
  C  C294  1  0.367900  0.323810  0.552610  1.0  0.1511
  C  C295  1  0.259000  0.226800  0.547800  1.0  0.1553
  C  C296  1  0.206600  0.157780  0.507590  1.0  0.1074
  C  C297  1  0.176600  0.083300  0.411390  1.0  0.1259
  C  C298  1  0.256400  0.106100  0.239600  1.0  -0.1234
  C  C299  1  0.207700  0.809400  0.896800  1.0  0.1372
  C  C300  1  0.218500  0.742820  0.811840  1.0  0.1512
  C  C301  1  0.258900  0.696420  0.796810  1.0  0.145
  C  C302  1  0.359500  0.650000  0.845310  1.0  0.1393
  C  C303  1  0.414400  0.649520  0.908450  1.0  0.1392
  C  C304  1  0.459700  0.698300  0.017700  1.0  0.1369
  C  C305  1  0.384800  0.836300  0.041700  1.0  0.1472
  C  C306  1  0.441400  0.863100  0.008800  1.0  0.1071
  C  C307  1  0.468700  0.836000  0.917010  1.0  0.139
  C  C308  1  0.329000  0.832600  0.123200  1.0  -0.1179
  C  C309  1  0.128200  0.319000  0.369000  1.0  0.2439
  C  C310  1  0.131300  0.249100  0.280400  1.0  -0.0957
  C  C311  1  0.209600  0.146700  0.245800  1.0  -0.1022
  C  C312  1  0.502400  0.385100  0.441100  1.0  0.1999
  C  C313  1  0.489700  0.410400  0.541000  1.0  -0.0761
  C  C314  1  0.377700  0.355600  0.613000  1.0  -0.1409
  C  C315  1  0.264500  0.255000  0.607600  1.0  -0.1306
  C  C316  1  0.160600  0.109000  0.527800  1.0  -0.0799
  C  C317  1  0.133300  0.033130  0.430900  1.0  0.2606
  C  C318  1  0.157100  0.832500  0.853400  1.0  0.2507
  C  C319  1  0.165300  0.762790  0.766860  1.0  -0.0986
  C  C320  1  0.246100  0.661600  0.736200  1.0  -0.1175
  C  C321  1  0.350700  0.615000  0.786800  1.0  -0.1449
  C  C322  1  0.465500  0.611300  0.918250  1.0  -0.0885
  C  C323  1  0.513000  0.662400  0.028680  1.0  0.1958
  C  C324  1  0.386100  0.867400  0.098900  1.0  -0.1617
  C  C325  1  0.510400  0.923500  0.034600  1.0  -0.0609
  C  C326  1  0.536800  0.896300  0.940900  1.0  0.1909
  C  C327  1  0.102200  0.297000  0.303700  1.0  -0.0815
  C  C328  1  0.534200  0.428400  0.501800  1.0  -0.1021
  C  C329  1  0.324400  0.320400  0.639800  1.0  -0.1153
  C  C330  1  0.124100  0.044000  0.488800  1.0  -0.0766
  C  C331  1  0.134600  0.809800  0.788100  1.0  -0.1197
  C  C332  1  0.293000  0.621000  0.732100  1.0  -0.1337
  C  C333  1  0.515800  0.616800  0.980590  1.0  -0.0866
  C  C334  1  0.561700  0.941100  0.999200  1.0  -0.1357
  C  C335  1  0.054300  0.376900  0.327500  1.0  0.1184
  C  C336  1  0.054300  0.335800  0.277700  1.0  -0.1233
  C  C337  1  0.617800  0.467600  0.451700  1.0  0.0903
  C  C338  1  0.609500  0.481600  0.507600  1.0  -0.1275
  C  C339  1  0.082400  0.979500  0.493300  1.0  -0.1646
  C  C340  1  0.071100  0.935800  0.439900  1.0  0.0534
  C  C341  1  0.080200  0.887300  0.808900  1.0  0.0863
  C  C342  1  0.083600  0.846900  0.760300  1.0  -0.1155
  C  C343  1  0.575200  0.588600  0.012800  1.0  -0.126
  C  C344  1  0.603900  0.618100  0.075000  1.0  0.0521
  C  C345  1  0.638000  0.995700  0.007300  1.0  -0.1121
  C  C346  1  0.653200  0.981400  0.953400  1.0  0.0602
  C  C347  1  0.021800  0.431000  0.330900  1.0  -0.0425
  C  C348  1  0.680200  0.503800  0.428200  1.0  -0.0156
  C  C349  1  0.035300  0.862800  0.416500  1.0  -0.0453
  C  C350  1  0.039000  0.936400  0.811600  1.0  -0.0745
  C  C351  1  0.669600  0.614640  0.131770  1.0  -0.0797
  C  C352  1  0.716700  0.017300  0.931000  1.0  -0.0151
  C  C353  1  0.024400  0.466200  0.386100  1.0  -0.1256
  C  C354  1  0.986300  0.448400  0.276300  1.0  -0.2084
  C  C355  1  0.660300  0.496000  0.364400  1.0  -0.1666
  C  C356  1  0.763300  0.547900  0.471000  1.0  -0.2114
  C  C357  1  0.038100  0.829800  0.362800  1.0  -0.1426
  C  C358  1  0.997400  0.825600  0.450600  1.0  -0.2114
  C  C359  1  0.025400  0.960900  0.864800  1.0  -0.1873
  C  C360  1  0.014000  0.961200  0.759800  1.0  -0.2098
  C  C361  1  0.710300  0.666500  0.187300  1.0  -0.1912
  C  C362  1  0.691400  0.558500  0.130800  1.0  -0.2003
  C  C363  1  0.696700  0.006000  0.866400  1.0  -0.2239
  C  C364  1  0.798500  0.064300  0.973300  1.0  -0.2264
  C  C365  1  0.992900  0.516800  0.386600  1.0  0.1218
  C  C366  1  0.957500  0.500500  0.280500  1.0  0.156
  C  C367  1  0.723100  0.533600  0.345800  1.0  0.1642
  C  C368  1  0.821900  0.581800  0.448800  1.0  0.1525
  C  C369  1  0.003100  0.761000  0.343200  1.0  0.1505
  C  C370  1  0.963900  0.757300  0.427600  1.0  0.1528
  C  C371  1  0.990300  0.009800  0.865400  1.0  0.1379
  C  C372  1  0.980600  0.010400  0.765400  1.0  0.1605
  C  C373  1  0.772400  0.661200  0.239200  1.0  0.1451
  C  C374  1  0.753000  0.557600  0.184700  1.0  0.1487
  C  C375  1  0.759600  0.044600  0.848300  1.0  0.1621
  C  C376  1  0.855600  0.098900  0.949700  1.0  0.1348
  N  N377  1  0.191900  0.884460  0.265210  1.0  -0.3596
  N  N378  1  0.010000  0.764710  0.137710  1.0  -0.3678
  N  N379  1  0.030900  0.964420  0.183170  1.0  -0.3368
  N  N380  1  0.163000  0.910560  0.112760  1.0  -0.3793
  N  N381  1  0.610600  0.818110  0.535130  1.0  -0.2947
  N  N382  1  0.765300  0.341540  0.063300  1.0  -0.4044
  N  N383  1  0.791200  0.748900  0.611560  1.0  -0.3113
  N  N384  1  0.714800  0.822880  0.641610  1.0  -0.2643
  N  N385  1  0.608000  0.691920  0.542450  1.0  -0.2627
  N  N386  1  0.691000  0.737970  0.478480  1.0  -0.2891
  N  N387  1  0.786100  0.854600  0.550430  1.0  -0.3689
  N  N388  1  0.761000  0.234710  0.123850  1.0  -0.3385
  N  N389  1  0.685000  0.309960  0.150700  1.0  -0.2713
  N  N390  1  0.589600  0.308900  0.042620  1.0  -0.2529
  N  N391  1  0.672400  0.226410  0.990720  1.0  -0.2827
  N  N392  1  0.579700  0.180900  0.048800  1.0  -0.2743
  N  N393  1  0.040300  0.465500  0.665600  1.0  -0.3347
  N  N394  1  0.197500  0.425450  0.613090  1.0  -0.3521
  N  N395  1  0.034000  0.275120  0.625120  1.0  -0.3505
  N  N396  1  0.205500  0.392320  0.760480  1.0  -0.365
  N  N397  1  0.808100  0.115540  0.734790  1.0  -0.3598
  N  N398  1  0.990000  0.235290  0.862290  1.0  -0.366
  N  N399  1  0.969100  0.035580  0.816830  1.0  -0.3363
  N  N400  1  0.837000  0.089440  0.887240  1.0  -0.3791
  N  N401  1  0.389400  0.181890  0.464870  1.0  -0.2927
  N  N402  1  0.234700  0.658460  0.936700  1.0  -0.4049
  N  N403  1  0.208800  0.251100  0.388440  1.0  -0.3099
  N  N404  1  0.285200  0.177120  0.358390  1.0  -0.2635
  N  N405  1  0.392000  0.308080  0.457550  1.0  -0.2647
  N  N406  1  0.309000  0.262030  0.521520  1.0  -0.2902
  N  N407  1  0.213900  0.145400  0.449570  1.0  -0.3685
  N  N408  1  0.239000  0.765290  0.876150  1.0  -0.3368
  N  N409  1  0.315000  0.690040  0.849300  1.0  -0.2704
  N  N410  1  0.410400  0.691100  0.957380  1.0  -0.2557
  N  N411  1  0.327600  0.773590  0.009280  1.0  -0.2837
  N  N412  1  0.420300  0.819100  0.951200  1.0  -0.275
  N  N413  1  0.959700  0.534500  0.334400  1.0  -0.3348
  N  N414  1  0.802500  0.574550  0.386910  1.0  -0.3519
  N  N415  1  0.966000  0.724880  0.374880  1.0  -0.3501
  N  N416  1  0.794500  0.607680  0.239520  1.0  -0.3646
  O  O417  1  0.437350  0.836840  0.409720  1.0  -0.208
  O  O418  1  0.886400  0.520900  0.119010  1.0  -0.2513
  O  O419  1  0.900600  0.631460  0.615120  1.0  -0.2138
  O  O420  1  0.448400  0.590880  0.590610  1.0  -0.2203
  O  O421  1  0.898400  0.032440  0.599930  1.0  -0.2396
  O  O422  1  0.876100  0.121000  0.132700  1.0  -0.2345
  O  O423  1  0.432800  0.335520  0.912920  1.0  -0.2104
  O  O424  1  0.408200  0.079350  0.088260  1.0  -0.2162
  O  O425  1  0.562650  0.163160  0.590280  1.0  -0.2117
  O  O426  1  0.113600  0.479100  0.880990  1.0  -0.2509
  O  O427  1  0.099400  0.368540  0.384880  1.0  -0.2148
  O  O428  1  0.551600  0.409120  0.409390  1.0  -0.2215
  O  O429  1  0.101600  0.967560  0.400070  1.0  -0.2409
  O  O430  1  0.123900  0.879000  0.867300  1.0  -0.2351
  O  O431  1  0.567200  0.664480  0.087080  1.0  -0.2096
  O  O432  1  0.591800  0.920650  0.911740  1.0  -0.2158
