# generated using pymatgen
data_ZnH6(C3N2)2
_symmetry_space_group_name_H-M   'P 1'
_cell_length_a   9.62560000
_cell_length_b   23.43600000
_cell_length_c   41.59300000
_cell_angle_alpha   90.00000000
_cell_angle_beta   90.00000000
_cell_angle_gamma   90.00000000
_symmetry_Int_Tables_number   1
_chemical_formula_structural   ZnH6(C3N2)2
_chemical_formula_sum   'Zn24 H144 C144 N96'
_cell_volume   9382.78026363
_cell_formula_units_Z   24
loop_
 _symmetry_equiv_pos_site_id
 _symmetry_equiv_pos_as_xyz
  1  'x, y, z'
loop_
 _atom_site_type_symbol
 _atom_site_label
 _atom_site_symmetry_multiplicity
 _atom_site_fract_x
 _atom_site_fract_y
 _atom_site_fract_z
 _atom_site_occupancy
 _atom_site_charge
  Zn  Zn1  1  0.796590  0.501880  0.917140  1.0  0.8714
  Zn  Zn2  1  0.700940  0.375720  0.039450  1.0  0.883
  Zn  Zn3  1  0.796920  0.374730  0.791790  1.0  0.9065
  Zn  Zn4  1  0.703410  0.498120  0.417140  1.0  0.8724
  Zn  Zn5  1  0.799060  0.624280  0.539450  1.0  0.883
  Zn  Zn6  1  0.703080  0.625270  0.291790  1.0  0.9064
  Zn  Zn7  1  0.203410  0.001880  0.082860  1.0  0.8726
  Zn  Zn8  1  0.299060  0.875720  0.960550  1.0  0.8831
  Zn  Zn9  1  0.203080  0.874730  0.208210  1.0  0.9066
  Zn  Zn10  1  0.296590  0.998120  0.582860  1.0  0.8714
  Zn  Zn11  1  0.200940  0.124280  0.460550  1.0  0.883
  Zn  Zn12  1  0.296920  0.125270  0.708210  1.0  0.9067
  Zn  Zn13  1  0.203410  0.498120  0.082860  1.0  0.8725
  Zn  Zn14  1  0.299060  0.624280  0.960550  1.0  0.8831
  Zn  Zn15  1  0.203080  0.625270  0.208210  1.0  0.9066
  Zn  Zn16  1  0.296590  0.501880  0.582860  1.0  0.8714
  Zn  Zn17  1  0.200940  0.375720  0.460550  1.0  0.883
  Zn  Zn18  1  0.296920  0.374730  0.708210  1.0  0.9068
  Zn  Zn19  1  0.796590  0.998120  0.917140  1.0  0.8713
  Zn  Zn20  1  0.700940  0.124280  0.039450  1.0  0.883
  Zn  Zn21  1  0.796920  0.125270  0.791790  1.0  0.9065
  Zn  Zn22  1  0.703410  0.001880  0.417140  1.0  0.8725
  Zn  Zn23  1  0.799060  0.875720  0.539450  1.0  0.883
  Zn  Zn24  1  0.703080  0.874730  0.291790  1.0  0.9064
  H  H25  1  0.792500  0.473100  0.991100  1.0  0.0681
  H  H26  1  0.636800  0.321300  0.969600  1.0  0.0815
  H  H27  1  0.667700  0.375400  0.918700  1.0  0.0762
  H  H28  1  0.880900  0.409000  0.863900  1.0  0.072
  H  H29  1  0.597500  0.479800  0.806100  1.0  0.0812
  H  H30  1  0.611800  0.538100  0.856200  1.0  0.0783
  H  H31  1  0.516900  0.527400  0.951400  1.0  0.0736
  H  H32  1  0.548100  0.690400  0.924100  1.0  0.0745
  H  H33  1  0.763600  0.639400  0.907400  1.0  0.0797
  H  H34  1  0.003900  0.423300  0.040300  1.0  0.0723
  H  H35  1  0.918500  0.501100  0.123100  1.0  0.0744
  H  H36  1  0.702800  0.453300  0.103400  1.0  0.0747
  H  H37  1  0.501500  0.332400  0.760700  1.0  0.1017
  H  H38  1  0.552400  0.460500  0.697700  1.0  0.0789
  H  H39  1  0.759400  0.462100  0.732300  1.0  0.078
  H  H40  1  0.909800  0.302300  0.082200  1.0  0.079
  H  H41  1  0.709000  0.302400  0.855900  1.0  0.0802
  H  H42  1  0.707500  0.526900  0.491100  1.0  0.0678
  H  H43  1  0.863200  0.678700  0.469600  1.0  0.0821
  H  H44  1  0.832300  0.624600  0.418700  1.0  0.0759
  H  H45  1  0.619100  0.591000  0.363900  1.0  0.0727
  H  H46  1  0.902500  0.520200  0.306100  1.0  0.0811
  H  H47  1  0.888200  0.461900  0.356200  1.0  0.0774
  H  H48  1  0.983100  0.472600  0.451400  1.0  0.0733
  H  H49  1  0.951900  0.309600  0.424100  1.0  0.0741
  H  H50  1  0.736400  0.360600  0.407400  1.0  0.08
  H  H51  1  0.496100  0.576700  0.540300  1.0  0.0721
  H  H52  1  0.581500  0.498900  0.623100  1.0  0.0742
  H  H53  1  0.797200  0.546700  0.603400  1.0  0.0745
  H  H54  1  0.998500  0.667600  0.260700  1.0  0.1012
  H  H55  1  0.947600  0.539500  0.197700  1.0  0.0785
  H  H56  1  0.740600  0.537900  0.232300  1.0  0.0774
  H  H57  1  0.590200  0.697700  0.582200  1.0  0.0798
  H  H58  1  0.791000  0.697600  0.355900  1.0  0.0802
  H  H59  1  0.207500  0.973100  0.008900  1.0  0.0682
  H  H60  1  0.363200  0.821300  0.030400  1.0  0.0813
  H  H61  1  0.332300  0.875400  0.081300  1.0  0.076
  H  H62  1  0.119100  0.909000  0.136100  1.0  0.0713
  H  H63  1  0.402500  0.979800  0.193900  1.0  0.0791
  H  H64  1  0.388200  0.038100  0.143800  1.0  0.0775
  H  H65  1  0.483100  0.027400  0.048600  1.0  0.0734
  H  H66  1  0.451900  0.190400  0.075900  1.0  0.0742
  H  H67  1  0.236400  0.139400  0.092600  1.0  0.0796
  H  H68  1  0.996100  0.923300  0.959700  1.0  0.0734
  H  H69  1  0.081500  0.001100  0.876900  1.0  0.0748
  H  H70  1  0.297200  0.953300  0.896600  1.0  0.0741
  H  H71  1  0.498500  0.832400  0.239300  1.0  0.1012
  H  H72  1  0.447600  0.960500  0.302300  1.0  0.0793
  H  H73  1  0.240600  0.962100  0.267700  1.0  0.0782
  H  H74  1  0.090200  0.802300  0.917800  1.0  0.0796
  H  H75  1  0.291000  0.802400  0.144100  1.0  0.0804
  H  H76  1  0.292500  0.026900  0.508900  1.0  0.0675
  H  H77  1  0.136800  0.178700  0.530400  1.0  0.0827
  H  H78  1  0.167700  0.124600  0.581300  1.0  0.076
  H  H79  1  0.380900  0.091000  0.636100  1.0  0.0717
  H  H80  1  0.097500  0.020200  0.693900  1.0  0.0795
  H  H81  1  0.111800  0.961900  0.643800  1.0  0.0779
  H  H82  1  0.016900  0.972600  0.548600  1.0  0.0735
  H  H83  1  0.048100  0.809600  0.575900  1.0  0.0745
  H  H84  1  0.263600  0.860600  0.592600  1.0  0.08
  H  H85  1  0.503900  0.076700  0.459700  1.0  0.0727
  H  H86  1  0.418500  0.998900  0.376900  1.0  0.0742
  H  H87  1  0.202800  0.046700  0.396600  1.0  0.0745
  H  H88  1  0.001500  0.167600  0.739300  1.0  0.1017
  H  H89  1  0.052400  0.039500  0.802300  1.0  0.079
  H  H90  1  0.259400  0.037900  0.767700  1.0  0.078
  H  H91  1  0.409800  0.197700  0.417800  1.0  0.0796
  H  H92  1  0.209000  0.197600  0.644100  1.0  0.0805
  H  H93  1  0.207500  0.526900  0.008900  1.0  0.0676
  H  H94  1  0.363200  0.678700  0.030400  1.0  0.0818
  H  H95  1  0.332300  0.624600  0.081300  1.0  0.0756
  H  H96  1  0.119100  0.591000  0.136100  1.0  0.0721
  H  H97  1  0.402500  0.520200  0.193900  1.0  0.0812
  H  H98  1  0.388200  0.461900  0.143800  1.0  0.0777
  H  H99  1  0.483100  0.472600  0.048600  1.0  0.0738
  H  H100  1  0.451900  0.309600  0.075900  1.0  0.0744
  H  H101  1  0.236400  0.360600  0.092600  1.0  0.0801
  H  H102  1  0.996100  0.576700  0.959700  1.0  0.0729
  H  H103  1  0.081500  0.498900  0.876900  1.0  0.0745
  H  H104  1  0.297200  0.546700  0.896600  1.0  0.0741
  H  H105  1  0.498500  0.667600  0.239300  1.0  0.1013
  H  H106  1  0.447600  0.539500  0.302300  1.0  0.0791
  H  H107  1  0.240600  0.537900  0.267700  1.0  0.078
  H  H108  1  0.090200  0.697700  0.917800  1.0  0.0816
  H  H109  1  0.291000  0.697600  0.144100  1.0  0.0805
  H  H110  1  0.292500  0.473100  0.508900  1.0  0.068
  H  H111  1  0.136800  0.321300  0.530400  1.0  0.0819
  H  H112  1  0.167700  0.375400  0.581300  1.0  0.0763
  H  H113  1  0.380900  0.409000  0.636100  1.0  0.0712
  H  H114  1  0.097500  0.479800  0.693900  1.0  0.0811
  H  H115  1  0.111800  0.538100  0.643800  1.0  0.078
  H  H116  1  0.016900  0.527400  0.548600  1.0  0.0737
  H  H117  1  0.048100  0.690400  0.575900  1.0  0.0745
  H  H118  1  0.263600  0.639400  0.592600  1.0  0.0793
  H  H119  1  0.503900  0.423300  0.459700  1.0  0.0728
  H  H120  1  0.418500  0.501100  0.376900  1.0  0.0744
  H  H121  1  0.202800  0.453300  0.396600  1.0  0.0745
  H  H122  1  0.001500  0.332400  0.739300  1.0  0.1011
  H  H123  1  0.052400  0.460500  0.802300  1.0  0.079
  H  H124  1  0.259400  0.462100  0.767700  1.0  0.0782
  H  H125  1  0.409800  0.302300  0.417800  1.0  0.0815
  H  H126  1  0.209000  0.302400  0.644100  1.0  0.0803
  H  H127  1  0.792500  0.026900  0.991100  1.0  0.0675
  H  H128  1  0.636800  0.178700  0.969600  1.0  0.0827
  H  H129  1  0.667700  0.124600  0.918700  1.0  0.0762
  H  H130  1  0.880900  0.091000  0.863900  1.0  0.0721
  H  H131  1  0.597500  0.020200  0.806100  1.0  0.0791
  H  H132  1  0.611800  0.961900  0.856200  1.0  0.0777
  H  H133  1  0.516900  0.972600  0.951400  1.0  0.0731
  H  H134  1  0.548100  0.809600  0.924100  1.0  0.0745
  H  H135  1  0.763600  0.860600  0.907400  1.0  0.0799
  H  H136  1  0.003900  0.076700  0.040300  1.0  0.0719
  H  H137  1  0.918500  0.998900  0.123100  1.0  0.0744
  H  H138  1  0.702800  0.046700  0.103400  1.0  0.0746
  H  H139  1  0.501500  0.167600  0.760700  1.0  0.1008
  H  H140  1  0.552400  0.039500  0.697700  1.0  0.0784
  H  H141  1  0.759400  0.037900  0.732300  1.0  0.0776
  H  H142  1  0.909800  0.197700  0.082200  1.0  0.0815
  H  H143  1  0.709000  0.197600  0.855900  1.0  0.0805
  H  H144  1  0.707500  0.973100  0.491100  1.0  0.0682
  H  H145  1  0.863200  0.821300  0.469600  1.0  0.0812
  H  H146  1  0.832300  0.875400  0.418700  1.0  0.076
  H  H147  1  0.619100  0.909000  0.363900  1.0  0.0724
  H  H148  1  0.902500  0.979800  0.306100  1.0  0.0794
  H  H149  1  0.888200  0.038100  0.356200  1.0  0.0778
  H  H150  1  0.983100  0.027400  0.451400  1.0  0.0732
  H  H151  1  0.951900  0.190400  0.424100  1.0  0.0744
  H  H152  1  0.736400  0.139400  0.407400  1.0  0.0799
  H  H153  1  0.496100  0.923300  0.540300  1.0  0.0721
  H  H154  1  0.581500  0.001100  0.623100  1.0  0.0743
  H  H155  1  0.797200  0.953300  0.603400  1.0  0.0745
  H  H156  1  0.998500  0.832400  0.260700  1.0  0.1011
  H  H157  1  0.947600  0.960500  0.197700  1.0  0.0791
  H  H158  1  0.740600  0.962100  0.232300  1.0  0.0778
  H  H159  1  0.590200  0.802300  0.582200  1.0  0.0817
  H  H160  1  0.791000  0.802400  0.355900  1.0  0.0801
  H  H161  1  0.635800  0.250000  0.020100  1.0  0.0523
  H  H162  1  0.826700  0.250000  0.768100  1.0  0.0927
  H  H163  1  0.864200  0.750000  0.520100  1.0  0.0524
  H  H164  1  0.673300  0.750000  0.268100  1.0  0.0929
  H  H165  1  0.364200  0.750000  0.979900  1.0  0.0526
  H  H166  1  0.173300  0.750000  0.231900  1.0  0.0923
  H  H167  1  0.135800  0.250000  0.479900  1.0  0.0525
  H  H168  1  0.326700  0.250000  0.731900  1.0  0.0919
  C  C169  1  0.759100  0.442100  0.979500  1.0  0.1996
  C  C170  1  0.671800  0.358100  0.967900  1.0  -0.0492
  C  C171  1  0.690600  0.388300  0.939200  1.0  -0.0594
  C  C172  1  0.812500  0.433300  0.856000  1.0  0.1441
  C  C173  1  0.656100  0.473200  0.823500  1.0  -0.0509
  C  C174  1  0.661500  0.504900  0.852000  1.0  -0.0407
  C  C175  1  0.552800  0.561300  0.943300  1.0  0.2068
  C  C176  1  0.569200  0.652300  0.928100  1.0  -0.0635
  C  C177  1  0.689200  0.623400  0.918500  1.0  -0.0387
  C  C178  1  0.954800  0.438100  0.057700  1.0  0.208
  C  C179  1  0.908700  0.481300  0.103800  1.0  -0.0542
  C  C180  1  0.788100  0.453800  0.092900  1.0  -0.0512
  C  C181  1  0.538400  0.363400  0.749700  1.0  0.0467
  C  C182  1  0.569800  0.435300  0.714500  1.0  -0.0106
  C  C183  1  0.685600  0.436800  0.734100  1.0  -0.0445
  C  C184  1  0.853300  0.278900  0.069700  1.0  -0.0728
  C  C185  1  0.732700  0.278900  0.838700  1.0  -0.058
  C  C186  1  0.740900  0.557900  0.479500  1.0  0.2013
  C  C187  1  0.828200  0.641900  0.467900  1.0  -0.0481
  C  C188  1  0.809400  0.611700  0.439200  1.0  -0.0583
  C  C189  1  0.687500  0.566700  0.356000  1.0  0.1443
  C  C190  1  0.843900  0.526800  0.323500  1.0  -0.0501
  C  C191  1  0.838500  0.495100  0.352000  1.0  -0.0413
  C  C192  1  0.947200  0.438700  0.443300  1.0  0.2065
  C  C193  1  0.930800  0.347700  0.428100  1.0  -0.0648
  C  C194  1  0.810800  0.376600  0.418500  1.0  -0.0411
  C  C195  1  0.545200  0.561900  0.557700  1.0  0.2099
  C  C196  1  0.591300  0.518700  0.603800  1.0  -0.0543
  C  C197  1  0.711900  0.546200  0.592900  1.0  -0.0498
  C  C198  1  0.961600  0.636600  0.249700  1.0  0.0432
  C  C199  1  0.930200  0.564700  0.214500  1.0  -0.0119
  C  C200  1  0.814400  0.563200  0.234100  1.0  -0.0445
  C  C201  1  0.646700  0.721100  0.569700  1.0  -0.0723
  C  C202  1  0.767300  0.721100  0.338700  1.0  -0.0556
  C  C203  1  0.240900  0.942100  0.020500  1.0  0.2005
  C  C204  1  0.328200  0.858100  0.032100  1.0  -0.049
  C  C205  1  0.309400  0.888300  0.060800  1.0  -0.0598
  C  C206  1  0.187500  0.933300  0.144000  1.0  0.1441
  C  C207  1  0.343900  0.973200  0.176500  1.0  -0.0503
  C  C208  1  0.338500  0.004900  0.148000  1.0  -0.0393
  C  C209  1  0.447200  0.061300  0.056700  1.0  0.2069
  C  C210  1  0.430800  0.152300  0.071900  1.0  -0.0629
  C  C211  1  0.310800  0.123400  0.081500  1.0  -0.0401
  C  C212  1  0.045200  0.938100  0.942300  1.0  0.2089
  C  C213  1  0.091300  0.981300  0.896200  1.0  -0.0539
  C  C214  1  0.211900  0.953800  0.907100  1.0  -0.0502
  C  C215  1  0.461600  0.863400  0.250300  1.0  0.046
  C  C216  1  0.430200  0.935300  0.285500  1.0  -0.0114
  C  C217  1  0.314400  0.936800  0.265900  1.0  -0.0454
  C  C218  1  0.146700  0.778900  0.930300  1.0  -0.0726
  C  C219  1  0.267300  0.778900  0.161300  1.0  -0.0565
  C  C220  1  0.259100  0.057900  0.520500  1.0  0.2006
  C  C221  1  0.171800  0.141900  0.532100  1.0  -0.0483
  C  C222  1  0.190600  0.111700  0.560800  1.0  -0.0616
  C  C223  1  0.312500  0.066700  0.644000  1.0  0.1438
  C  C224  1  0.156100  0.026800  0.676500  1.0  -0.0524
  C  C225  1  0.161500  0.995100  0.648000  1.0  -0.0416
  C  C226  1  0.052800  0.938700  0.556700  1.0  0.208
  C  C227  1  0.069200  0.847700  0.571900  1.0  -0.0644
  C  C228  1  0.189200  0.876600  0.581500  1.0  -0.039
  C  C229  1  0.454800  0.061900  0.442300  1.0  0.2078
  C  C230  1  0.408700  0.018700  0.396200  1.0  -0.054
  C  C231  1  0.288100  0.046200  0.407100  1.0  -0.05
  C  C232  1  0.038400  0.136600  0.750300  1.0  0.043
  C  C233  1  0.069800  0.064700  0.785500  1.0  -0.0115
  C  C234  1  0.185600  0.063200  0.765900  1.0  -0.0445
  C  C235  1  0.353300  0.221100  0.430300  1.0  -0.0723
  C  C236  1  0.232700  0.221100  0.661300  1.0  -0.056
  C  C237  1  0.240900  0.557900  0.020500  1.0  0.2016
  C  C238  1  0.328200  0.641900  0.032100  1.0  -0.0476
  C  C239  1  0.309400  0.611700  0.060800  1.0  -0.0603
  C  C240  1  0.187500  0.566700  0.144000  1.0  0.144
  C  C241  1  0.343900  0.526800  0.176500  1.0  -0.0507
  C  C242  1  0.338500  0.495100  0.148000  1.0  -0.042
  C  C243  1  0.447200  0.438700  0.056700  1.0  0.2074
  C  C244  1  0.430800  0.347700  0.071900  1.0  -0.064
  C  C245  1  0.310800  0.376600  0.081500  1.0  -0.0401
  C  C246  1  0.045200  0.561900  0.942300  1.0  0.2087
  C  C247  1  0.091300  0.518700  0.896200  1.0  -0.0541
  C  C248  1  0.211900  0.546200  0.907100  1.0  -0.0504
  C  C249  1  0.461600  0.636600  0.250300  1.0  0.0429
  C  C250  1  0.430200  0.564700  0.285500  1.0  -0.0114
  C  C251  1  0.314400  0.563200  0.265900  1.0  -0.0441
  C  C252  1  0.146700  0.721100  0.930300  1.0  -0.0722
  C  C253  1  0.267300  0.721100  0.161300  1.0  -0.0559
  C  C254  1  0.259100  0.442100  0.520500  1.0  0.1997
  C  C255  1  0.171800  0.358100  0.532100  1.0  -0.0493
  C  C256  1  0.190600  0.388300  0.560800  1.0  -0.0607
  C  C257  1  0.312500  0.433300  0.644000  1.0  0.1436
  C  C258  1  0.156100  0.473200  0.676500  1.0  -0.0527
  C  C259  1  0.161500  0.504900  0.648000  1.0  -0.0408
  C  C260  1  0.052800  0.561300  0.556700  1.0  0.2073
  C  C261  1  0.069200  0.652300  0.571900  1.0  -0.0631
  C  C262  1  0.189200  0.623400  0.581500  1.0  -0.0385
  C  C263  1  0.454800  0.438100  0.442300  1.0  0.2081
  C  C264  1  0.408700  0.481300  0.396200  1.0  -0.054
  C  C265  1  0.288100  0.453800  0.407100  1.0  -0.0502
  C  C266  1  0.038400  0.363400  0.750300  1.0  0.0462
  C  C267  1  0.069800  0.435300  0.785500  1.0  -0.011
  C  C268  1  0.185600  0.436800  0.765900  1.0  -0.0448
  C  C269  1  0.353300  0.278900  0.430300  1.0  -0.0734
  C  C270  1  0.232700  0.278900  0.661300  1.0  -0.0565
  C  C271  1  0.759100  0.057900  0.979500  1.0  0.2007
  C  C272  1  0.671800  0.141900  0.967900  1.0  -0.0485
  C  C273  1  0.690600  0.111700  0.939200  1.0  -0.0593
  C  C274  1  0.812500  0.066700  0.856000  1.0  0.1442
  C  C275  1  0.656100  0.026800  0.823500  1.0  -0.0517
  C  C276  1  0.661500  0.995100  0.852000  1.0  -0.0411
  C  C277  1  0.552800  0.938700  0.943300  1.0  0.2067
  C  C278  1  0.569200  0.847700  0.928100  1.0  -0.0651
  C  C279  1  0.689200  0.876600  0.918500  1.0  -0.0401
  C  C280  1  0.954800  0.061900  0.057700  1.0  0.2078
  C  C281  1  0.908700  0.018700  0.103800  1.0  -0.0542
  C  C282  1  0.788100  0.046200  0.092900  1.0  -0.0508
  C  C283  1  0.538400  0.136600  0.749700  1.0  0.043
  C  C284  1  0.569800  0.064700  0.714500  1.0  -0.0119
  C  C285  1  0.685600  0.063200  0.734100  1.0  -0.0453
  C  C286  1  0.853300  0.221100  0.069700  1.0  -0.0722
  C  C287  1  0.732700  0.221100  0.838700  1.0  -0.0571
  C  C288  1  0.740900  0.942100  0.479500  1.0  0.1998
  C  C289  1  0.828200  0.858100  0.467900  1.0  -0.049
  C  C290  1  0.809400  0.888300  0.439200  1.0  -0.0588
  C  C291  1  0.687500  0.933300  0.356000  1.0  0.1445
  C  C292  1  0.843900  0.973200  0.323500  1.0  -0.049
  C  C293  1  0.838500  0.004900  0.352000  1.0  -0.0395
  C  C294  1  0.947200  0.061300  0.443300  1.0  0.2065
  C  C295  1  0.930800  0.152300  0.428100  1.0  -0.0633
  C  C296  1  0.810800  0.123400  0.418500  1.0  -0.0402
  C  C297  1  0.545200  0.938100  0.557700  1.0  0.2101
  C  C298  1  0.591300  0.981300  0.603800  1.0  -0.0539
  C  C299  1  0.711900  0.953800  0.592900  1.0  -0.05
  C  C300  1  0.961600  0.863400  0.249700  1.0  0.0466
  C  C301  1  0.930200  0.935300  0.214500  1.0  -0.011
  C  C302  1  0.814400  0.936800  0.234100  1.0  -0.0446
  C  C303  1  0.646700  0.778900  0.569700  1.0  -0.0725
  C  C304  1  0.767300  0.778900  0.338700  1.0  -0.0564
  C  C305  1  0.703900  0.250000  0.036000  1.0  0.2029
  C  C306  1  0.799000  0.250000  0.789500  1.0  0.1584
  C  C307  1  0.796100  0.750000  0.536000  1.0  0.2026
  C  C308  1  0.701000  0.750000  0.289500  1.0  0.1587
  C  C309  1  0.296100  0.750000  0.964000  1.0  0.2026
  C  C310  1  0.201000  0.750000  0.210500  1.0  0.1563
  C  C311  1  0.203900  0.250000  0.464000  1.0  0.2024
  C  C312  1  0.299000  0.250000  0.710500  1.0  0.157
  N  N313  1  0.749700  0.441200  0.946500  1.0  -0.4245
  N  N314  1  0.714200  0.392500  0.993280  1.0  -0.391
  N  N315  1  0.754300  0.478100  0.872990  1.0  -0.3516
  N  N316  1  0.754800  0.429900  0.825950  1.0  -0.3413
  N  N317  1  0.679400  0.566300  0.928300  1.0  -0.3706
  N  N318  1  0.486800  0.612900  0.944600  1.0  -0.3501
  N  N319  1  0.817700  0.427600  0.063700  1.0  -0.3581
  N  N320  1  0.010800  0.473400  0.080700  1.0  -0.3684
  N  N321  1  0.673200  0.394500  0.756800  1.0  -0.3587
  N  N322  1  0.482900  0.390500  0.723600  1.0  -0.3529
  N  N323  1  0.757000  0.296800  0.048300  1.0  -0.4039
  N  N324  1  0.774400  0.296500  0.808500  1.0  -0.3779
  N  N325  1  0.750300  0.558800  0.446500  1.0  -0.4246
  N  N326  1  0.785800  0.607500  0.493280  1.0  -0.3914
  N  N327  1  0.745700  0.521900  0.372990  1.0  -0.3513
  N  N328  1  0.745200  0.570100  0.325950  1.0  -0.3412
  N  N329  1  0.820600  0.433700  0.428300  1.0  -0.37
  N  N330  1  0.013200  0.387100  0.444600  1.0  -0.35
  N  N331  1  0.682300  0.572400  0.563700  1.0  -0.3583
  N  N332  1  0.489200  0.526600  0.580700  1.0  -0.3685
  N  N333  1  0.826800  0.605500  0.256800  1.0  -0.3594
  N  N334  1  0.017100  0.609500  0.223600  1.0  -0.3526
  N  N335  1  0.743000  0.703200  0.548300  1.0  -0.4032
  N  N336  1  0.725600  0.703500  0.308500  1.0  -0.3775
  N  N337  1  0.250300  0.941200  0.053500  1.0  -0.4252
  N  N338  1  0.285800  0.892500  0.006720  1.0  -0.3923
  N  N339  1  0.245700  0.978100  0.127010  1.0  -0.3517
  N  N340  1  0.245200  0.929900  0.174050  1.0  -0.3412
  N  N341  1  0.320600  0.066300  0.071700  1.0  -0.3706
  N  N342  1  0.513200  0.112900  0.055400  1.0  -0.3492
  N  N343  1  0.182300  0.927600  0.936300  1.0  -0.3577
  N  N344  1  0.989200  0.973400  0.919300  1.0  -0.3692
  N  N345  1  0.326800  0.894500  0.243200  1.0  -0.3599
  N  N346  1  0.517100  0.890500  0.276400  1.0  -0.3529
  N  N347  1  0.243000  0.796800  0.951700  1.0  -0.4042
  N  N348  1  0.225600  0.796500  0.191500  1.0  -0.3779
  N  N349  1  0.249700  0.058800  0.553500  1.0  -0.4252
  N  N350  1  0.214200  0.107500  0.506720  1.0  -0.3919
  N  N351  1  0.254300  0.021900  0.627010  1.0  -0.3518
  N  N352  1  0.254800  0.070100  0.674050  1.0  -0.3413
  N  N353  1  0.179400  0.933700  0.571700  1.0  -0.3703
  N  N354  1  0.986800  0.887100  0.555400  1.0  -0.3497
  N  N355  1  0.317700  0.072400  0.436300  1.0  -0.3573
  N  N356  1  0.510800  0.026600  0.419300  1.0  -0.3672
  N  N357  1  0.173200  0.105500  0.743200  1.0  -0.3595
  N  N358  1  0.982900  0.109500  0.776400  1.0  -0.3533
  N  N359  1  0.257000  0.203200  0.451700  1.0  -0.4042
  N  N360  1  0.274400  0.203500  0.691500  1.0  -0.3772
  N  N361  1  0.250300  0.558800  0.053500  1.0  -0.4252
  N  N362  1  0.285800  0.607500  0.006720  1.0  -0.392
  N  N363  1  0.245700  0.521900  0.127010  1.0  -0.3515
  N  N364  1  0.245200  0.570100  0.174050  1.0  -0.3412
  N  N365  1  0.320600  0.433700  0.071700  1.0  -0.3701
  N  N366  1  0.513200  0.387100  0.055400  1.0  -0.3496
  N  N367  1  0.182300  0.572400  0.936300  1.0  -0.3573
  N  N368  1  0.989200  0.526600  0.919300  1.0  -0.3683
  N  N369  1  0.326800  0.605500  0.243200  1.0  -0.36
  N  N370  1  0.517100  0.609500  0.276400  1.0  -0.3534
  N  N371  1  0.243000  0.703200  0.951700  1.0  -0.4036
  N  N372  1  0.225600  0.703500  0.191500  1.0  -0.3773
  N  N373  1  0.249700  0.441200  0.553500  1.0  -0.4247
  N  N374  1  0.214200  0.392500  0.506720  1.0  -0.3922
  N  N375  1  0.254300  0.478100  0.627010  1.0  -0.352
  N  N376  1  0.254800  0.429900  0.674050  1.0  -0.3413
  N  N377  1  0.179400  0.566300  0.571700  1.0  -0.3707
  N  N378  1  0.986800  0.612900  0.555400  1.0  -0.3492
  N  N379  1  0.317700  0.427600  0.436300  1.0  -0.3575
  N  N380  1  0.510800  0.473400  0.419300  1.0  -0.3682
  N  N381  1  0.173200  0.394500  0.743200  1.0  -0.3595
  N  N382  1  0.982900  0.390500  0.776400  1.0  -0.3531
  N  N383  1  0.257000  0.296800  0.451700  1.0  -0.4044
  N  N384  1  0.274400  0.296500  0.691500  1.0  -0.3778
  N  N385  1  0.749700  0.058800  0.946500  1.0  -0.4248
  N  N386  1  0.714200  0.107500  0.993280  1.0  -0.3914
  N  N387  1  0.754300  0.021900  0.872990  1.0  -0.3515
  N  N388  1  0.754800  0.070100  0.825950  1.0  -0.3411
  N  N389  1  0.679400  0.933700  0.928300  1.0  -0.3701
  N  N390  1  0.486800  0.887100  0.944600  1.0  -0.3499
  N  N391  1  0.817700  0.072400  0.063700  1.0  -0.3583
  N  N392  1  0.010800  0.026600  0.080700  1.0  -0.3674
  N  N393  1  0.673200  0.105500  0.756800  1.0  -0.3587
  N  N394  1  0.482900  0.109500  0.723600  1.0  -0.3524
  N  N395  1  0.757000  0.203200  0.048300  1.0  -0.4037
  N  N396  1  0.774400  0.203500  0.808500  1.0  -0.3773
  N  N397  1  0.750300  0.941200  0.446500  1.0  -0.4247
  N  N398  1  0.785800  0.892500  0.493280  1.0  -0.3911
  N  N399  1  0.745700  0.978100  0.372990  1.0  -0.3515
  N  N400  1  0.745200  0.929900  0.325950  1.0  -0.3414
  N  N401  1  0.820600  0.066300  0.428300  1.0  -0.3706
  N  N402  1  0.013200  0.112900  0.444600  1.0  -0.3503
  N  N403  1  0.682300  0.927600  0.563700  1.0  -0.3582
  N  N404  1  0.489200  0.973400  0.580700  1.0  -0.3694
  N  N405  1  0.826800  0.894500  0.256800  1.0  -0.3594
  N  N406  1  0.017100  0.890500  0.223600  1.0  -0.3527
  N  N407  1  0.743000  0.796800  0.548300  1.0  -0.4036
  N  N408  1  0.725600  0.796500  0.308500  1.0  -0.378
