# generated using pymatgen
data_MnH4AuC8N3O2
_symmetry_space_group_name_H-M   'P 1'
_cell_length_a   12.13300000
_cell_length_b   25.15600000
_cell_length_c   7.63730000
_cell_angle_alpha   90.00000000
_cell_angle_beta   93.31700000
_cell_angle_gamma   90.00000000
_symmetry_Int_Tables_number   1
_chemical_formula_structural   MnH4AuC8N3O2
_chemical_formula_sum   'Mn8 H32 Au8 C64 N24 O16'
_cell_volume   2327.13430018
_cell_formula_units_Z   8
loop_
 _symmetry_equiv_pos_site_id
 _symmetry_equiv_pos_as_xyz
  1  'x, y, z'
loop_
 _atom_site_type_symbol
 _atom_site_label
 _atom_site_symmetry_multiplicity
 _atom_site_fract_x
 _atom_site_fract_y
 _atom_site_fract_z
 _atom_site_occupancy
 _atom_site_charge
  Mn  Mn1  1  0.809380  0.623580  0.297140  1.0  1.1349
  Mn  Mn2  1  0.309380  0.123580  0.297140  1.0  1.1349
  Mn  Mn3  1  0.190620  0.623580  0.202860  1.0  1.1346
  Mn  Mn4  1  0.690620  0.123580  0.202860  1.0  1.1346
  Mn  Mn5  1  0.190620  0.376420  0.702860  1.0  1.1355
  Mn  Mn6  1  0.690620  0.876420  0.702860  1.0  1.1355
  Mn  Mn7  1  0.809380  0.376420  0.797140  1.0  1.1352
  Mn  Mn8  1  0.309380  0.876420  0.797140  1.0  1.1352
  H  H9  1  0.578600  0.654300  0.086300  1.0  0.0991
  H  H10  1  0.482600  0.727300  0.976800  1.0  0.0748
  H  H11  1  0.705900  0.822300  0.186600  1.0  0.1245
  H  H12  1  0.793200  0.750700  0.318700  1.0  0.0751
  H  H13  1  0.078600  0.154300  0.086300  1.0  0.0991
  H  H14  1  0.982600  0.227300  0.976800  1.0  0.0748
  H  H15  1  0.205900  0.322300  0.186600  1.0  0.1245
  H  H16  1  0.293200  0.250700  0.318700  1.0  0.0751
  H  H17  1  0.421400  0.654300  0.413700  1.0  0.101
  H  H18  1  0.517400  0.727300  0.523200  1.0  0.0752
  H  H19  1  0.294100  0.822300  0.313400  1.0  0.1251
  H  H20  1  0.206800  0.750700  0.181300  1.0  0.0752
  H  H21  1  0.921400  0.154300  0.413700  1.0  0.101
  H  H22  1  0.017400  0.227300  0.523200  1.0  0.0752
  H  H23  1  0.794100  0.322300  0.313400  1.0  0.1251
  H  H24  1  0.706800  0.250700  0.181300  1.0  0.0752
  H  H25  1  0.421400  0.345700  0.913700  1.0  0.0993
  H  H26  1  0.517400  0.272700  0.023200  1.0  0.0751
  H  H27  1  0.294100  0.177700  0.813400  1.0  0.1248
  H  H28  1  0.206800  0.249300  0.681300  1.0  0.0751
  H  H29  1  0.921400  0.845700  0.913700  1.0  0.0993
  H  H30  1  0.017400  0.772700  0.023200  1.0  0.0751
  H  H31  1  0.794100  0.677700  0.813400  1.0  0.1248
  H  H32  1  0.706800  0.749300  0.681300  1.0  0.0751
  H  H33  1  0.578600  0.345700  0.586300  1.0  0.1002
  H  H34  1  0.482600  0.272700  0.476800  1.0  0.0753
  H  H35  1  0.705900  0.177700  0.686600  1.0  0.1249
  H  H36  1  0.793200  0.249300  0.818700  1.0  0.0755
  H  H37  1  0.078600  0.845700  0.586300  1.0  0.1002
  H  H38  1  0.982600  0.772700  0.476800  1.0  0.0753
  H  H39  1  0.205900  0.677700  0.686600  1.0  0.1249
  H  H40  1  0.293200  0.749300  0.818700  1.0  0.0755
  Au  Au41  1  0.500000  0.607290  0.750000  1.0  0.0632
  Au  Au42  1  0.000000  0.107290  0.750000  1.0  0.0632
  Au  Au43  1  0.500000  0.392710  0.250000  1.0  0.0642
  Au  Au44  1  0.000000  0.892710  0.250000  1.0  0.0642
  Au  Au45  1  0.500000  0.500000  0.000000  1.0  0.1129
  Au  Au46  1  0.000000  0.000000  0.000000  1.0  0.1129
  Au  Au47  1  0.500000  0.500000  0.500000  1.0  0.1129
  Au  Au48  1  0.000000  0.000000  0.500000  1.0  0.1129
  C  C49  1  0.632300  0.612300  0.610800  1.0  0.0688
  C  C50  1  0.630700  0.540700  0.094200  1.0  0.1024
  C  C51  1  0.605700  0.688300  0.110100  1.0  0.1118
  C  C52  1  0.549100  0.732600  0.041200  1.0  -0.1178
  C  C53  1  0.584300  0.779300  0.062500  1.0  0.0377
  C  C54  1  0.678800  0.788000  0.167300  1.0  -0.1689
  C  C55  1  0.731800  0.744800  0.242400  1.0  0.1724
  C  C56  1  0.527900  0.827400  0.969100  1.0  0.6996
  C  C57  1  0.132300  0.112300  0.610800  1.0  0.0688
  C  C58  1  0.130700  0.040700  0.094200  1.0  0.1024
  C  C59  1  0.105700  0.188300  0.110100  1.0  0.1118
  C  C60  1  0.049100  0.232600  0.041200  1.0  -0.1178
  C  C61  1  0.084300  0.279300  0.062500  1.0  0.0377
  C  C62  1  0.178800  0.288000  0.167300  1.0  -0.1689
  C  C63  1  0.231800  0.244800  0.242400  1.0  0.1724
  C  C64  1  0.027900  0.327400  0.969100  1.0  0.6996
  C  C65  1  0.367700  0.612300  0.889200  1.0  0.0715
  C  C66  1  0.369300  0.540700  0.405800  1.0  0.1034
  C  C67  1  0.394300  0.688300  0.389900  1.0  0.1116
  C  C68  1  0.450900  0.732600  0.458800  1.0  -0.117
  C  C69  1  0.415700  0.779300  0.437500  1.0  0.0375
  C  C70  1  0.321200  0.788000  0.332700  1.0  -0.1687
  C  C71  1  0.268200  0.744800  0.257600  1.0  0.1724
  C  C72  1  0.472100  0.827400  0.530900  1.0  0.7006
  C  C73  1  0.867700  0.112300  0.889200  1.0  0.0715
  C  C74  1  0.869300  0.040700  0.405800  1.0  0.1034
  C  C75  1  0.894300  0.188300  0.389900  1.0  0.1116
  C  C76  1  0.950900  0.232600  0.458800  1.0  -0.117
  C  C77  1  0.915700  0.279300  0.437500  1.0  0.0375
  C  C78  1  0.821200  0.288000  0.332700  1.0  -0.1687
  C  C79  1  0.768200  0.244800  0.257600  1.0  0.1724
  C  C80  1  0.972100  0.327400  0.530900  1.0  0.7006
  C  C81  1  0.367700  0.387700  0.389200  1.0  0.0713
  C  C82  1  0.369300  0.459300  0.905800  1.0  0.1011
  C  C83  1  0.394300  0.311700  0.889900  1.0  0.1115
  C  C84  1  0.450900  0.267400  0.958800  1.0  -0.1172
  C  C85  1  0.415700  0.220700  0.937500  1.0  0.0366
  C  C86  1  0.321200  0.212000  0.832700  1.0  -0.1684
  C  C87  1  0.268200  0.255200  0.757600  1.0  0.1724
  C  C88  1  0.472100  0.172600  0.030900  1.0  0.7017
  C  C89  1  0.867700  0.887700  0.389200  1.0  0.0713
  C  C90  1  0.869300  0.959300  0.905800  1.0  0.1011
  C  C91  1  0.894300  0.811700  0.889900  1.0  0.1115
  C  C92  1  0.950900  0.767400  0.958800  1.0  -0.1172
  C  C93  1  0.915700  0.720700  0.937500  1.0  0.0366
  C  C94  1  0.821200  0.712000  0.832700  1.0  -0.1684
  C  C95  1  0.768200  0.755200  0.757600  1.0  0.1724
  C  C96  1  0.972100  0.672600  0.030900  1.0  0.7017
  C  C97  1  0.632300  0.387700  0.110800  1.0  0.071
  C  C98  1  0.630700  0.459300  0.594200  1.0  0.1004
  C  C99  1  0.605700  0.311700  0.610100  1.0  0.1113
  C  C100  1  0.549100  0.267400  0.541200  1.0  -0.1181
  C  C101  1  0.584300  0.220700  0.562500  1.0  0.0368
  C  C102  1  0.678800  0.212000  0.667300  1.0  -0.1699
  C  C103  1  0.731800  0.255200  0.742400  1.0  0.1724
  C  C104  1  0.527900  0.172600  0.469100  1.0  0.6996
  C  C105  1  0.132300  0.887700  0.110800  1.0  0.071
  C  C106  1  0.130700  0.959300  0.594200  1.0  0.1004
  C  C107  1  0.105700  0.811700  0.610100  1.0  0.1113
  C  C108  1  0.049100  0.767400  0.541200  1.0  -0.1181
  C  C109  1  0.084300  0.720700  0.562500  1.0  0.0368
  C  C110  1  0.178800  0.712000  0.667300  1.0  -0.1699
  C  C111  1  0.231800  0.755200  0.742400  1.0  0.1724
  C  C112  1  0.027900  0.672600  0.469100  1.0  0.6996
  N  N113  1  0.705500  0.616600  0.526400  1.0  -0.4131
  N  N114  1  0.703100  0.566200  0.149400  1.0  -0.4191
  N  N115  1  0.699600  0.694750  0.211200  1.0  -0.3521
  N  N116  1  0.205500  0.116600  0.526400  1.0  -0.4131
  N  N117  1  0.203100  0.066200  0.149400  1.0  -0.4191
  N  N118  1  0.199600  0.194750  0.211200  1.0  -0.3521
  N  N119  1  0.294500  0.616600  0.973600  1.0  -0.4156
  N  N120  1  0.296900  0.566200  0.350600  1.0  -0.419
  N  N121  1  0.300400  0.694750  0.288800  1.0  -0.354
  N  N122  1  0.794500  0.116600  0.973600  1.0  -0.4156
  N  N123  1  0.796900  0.066200  0.350600  1.0  -0.419
  N  N124  1  0.800400  0.194750  0.288800  1.0  -0.354
  N  N125  1  0.294500  0.383400  0.473600  1.0  -0.4176
  N  N126  1  0.296900  0.433800  0.850600  1.0  -0.4218
  N  N127  1  0.300400  0.305250  0.788800  1.0  -0.3516
  N  N128  1  0.794500  0.883400  0.473600  1.0  -0.4176
  N  N129  1  0.796900  0.933800  0.850600  1.0  -0.4218
  N  N130  1  0.800400  0.805250  0.788800  1.0  -0.3516
  N  N131  1  0.705500  0.383400  0.026400  1.0  -0.4166
  N  N132  1  0.703100  0.433800  0.649400  1.0  -0.422
  N  N133  1  0.699600  0.305250  0.711200  1.0  -0.3528
  N  N134  1  0.205500  0.883400  0.026400  1.0  -0.4166
  N  N135  1  0.203100  0.933800  0.649400  1.0  -0.422
  N  N136  1  0.199600  0.805250  0.711200  1.0  -0.3528
  O  O137  1  0.426100  0.822930  0.931000  1.0  -0.6143
  O  O138  1  0.587400  0.866910  0.933100  1.0  -0.7029
  O  O139  1  0.926100  0.322930  0.931000  1.0  -0.6143
  O  O140  1  0.087400  0.366910  0.933100  1.0  -0.7029
  O  O141  1  0.573900  0.822930  0.569000  1.0  -0.6131
  O  O142  1  0.412600  0.866910  0.566900  1.0  -0.7036
  O  O143  1  0.073900  0.322930  0.569000  1.0  -0.6131
  O  O144  1  0.912600  0.366910  0.566900  1.0  -0.7036
  O  O145  1  0.573900  0.177070  0.069000  1.0  -0.6137
  O  O146  1  0.412600  0.133090  0.066900  1.0  -0.704
  O  O147  1  0.073900  0.677070  0.069000  1.0  -0.6137
  O  O148  1  0.912600  0.633090  0.066900  1.0  -0.704
  O  O149  1  0.426100  0.177070  0.431000  1.0  -0.6131
  O  O150  1  0.587400  0.133090  0.433100  1.0  -0.7033
  O  O151  1  0.926100  0.677070  0.431000  1.0  -0.6131
  O  O152  1  0.087400  0.633090  0.433100  1.0  -0.7033
