# generated using pymatgen
data_MnAgH4C8N3O2
_symmetry_space_group_name_H-M   'P 1'
_cell_length_a   12.23830000
_cell_length_b   25.49100000
_cell_length_c   7.55390000
_cell_angle_alpha   90.00000000
_cell_angle_beta   94.32900000
_cell_angle_gamma   90.00000000
_symmetry_Int_Tables_number   1
_chemical_formula_structural   MnAgH4C8N3O2
_chemical_formula_sum   'Mn8 Ag8 H32 C64 N24 O16'
_cell_volume   2349.84063906
_cell_formula_units_Z   8
loop_
 _symmetry_equiv_pos_site_id
 _symmetry_equiv_pos_as_xyz
  1  'x, y, z'
loop_
 _atom_site_type_symbol
 _atom_site_label
 _atom_site_symmetry_multiplicity
 _atom_site_fract_x
 _atom_site_fract_y
 _atom_site_fract_z
 _atom_site_occupancy
 _atom_site_charge
  Mn  Mn1  1  0.688090  0.875370  0.703070  1.0  1.1242
  Mn  Mn2  1  0.188090  0.375370  0.703070  1.0  1.1242
  Mn  Mn3  1  0.311910  0.875370  0.796930  1.0  1.1235
  Mn  Mn4  1  0.811910  0.375370  0.796930  1.0  1.1235
  Mn  Mn5  1  0.311910  0.124630  0.296930  1.0  1.1258
  Mn  Mn6  1  0.811910  0.624630  0.296930  1.0  1.1258
  Mn  Mn7  1  0.688090  0.124630  0.203070  1.0  1.1256
  Mn  Mn8  1  0.188090  0.624630  0.203070  1.0  1.1256
  Ag  Ag9  1  0.000000  0.897110  0.250000  1.0  0.3423
  Ag  Ag10  1  0.500000  0.397110  0.250000  1.0  0.3423
  Ag  Ag11  1  0.000000  0.102890  0.750000  1.0  0.341
  Ag  Ag12  1  0.500000  0.602890  0.750000  1.0  0.341
  Ag  Ag13  1  0.000000  0.000000  0.000000  1.0  0.2456
  Ag  Ag14  1  0.500000  0.500000  0.000000  1.0  0.2456
  Ag  Ag15  1  0.000000  0.000000  0.500000  1.0  0.2456
  Ag  Ag16  1  0.500000  0.500000  0.500000  1.0  0.2456
  H  H17  1  0.702800  0.750300  0.682500  1.0  0.065
  H  H18  1  0.795500  0.679000  0.805500  1.0  0.1149
  H  H19  1  0.017700  0.777200  0.034500  1.0  0.1137
  H  H20  1  0.918400  0.845000  0.911200  1.0  0.0635
  H  H21  1  0.202800  0.250300  0.682500  1.0  0.065
  H  H22  1  0.295500  0.179000  0.805500  1.0  0.1149
  H  H23  1  0.517700  0.277200  0.034500  1.0  0.1137
  H  H24  1  0.418400  0.345000  0.911200  1.0  0.0635
  H  H25  1  0.297200  0.750300  0.817500  1.0  0.0657
  H  H26  1  0.204500  0.679000  0.694500  1.0  0.1148
  H  H27  1  0.982300  0.777200  0.465500  1.0  0.1143
  H  H28  1  0.081600  0.845000  0.588800  1.0  0.0631
  H  H29  1  0.797200  0.250300  0.817500  1.0  0.0657
  H  H30  1  0.704500  0.179000  0.694500  1.0  0.1148
  H  H31  1  0.482300  0.277200  0.465500  1.0  0.1143
  H  H32  1  0.581600  0.345000  0.588800  1.0  0.0631
  H  H33  1  0.297200  0.249700  0.317500  1.0  0.0655
  H  H34  1  0.204500  0.321000  0.194500  1.0  0.1145
  H  H35  1  0.982300  0.222800  0.965500  1.0  0.1139
  H  H36  1  0.081600  0.155000  0.088800  1.0  0.0642
  H  H37  1  0.797200  0.749700  0.317500  1.0  0.0655
  H  H38  1  0.704500  0.821000  0.194500  1.0  0.1145
  H  H39  1  0.482300  0.722800  0.965500  1.0  0.1139
  H  H40  1  0.581600  0.655000  0.088800  1.0  0.0642
  H  H41  1  0.702800  0.249700  0.182500  1.0  0.0652
  H  H42  1  0.795500  0.321000  0.305500  1.0  0.1147
  H  H43  1  0.017700  0.222800  0.534500  1.0  0.1137
  H  H44  1  0.918400  0.155000  0.411200  1.0  0.0644
  H  H45  1  0.202800  0.749700  0.182500  1.0  0.0652
  H  H46  1  0.295500  0.821000  0.305500  1.0  0.1147
  H  H47  1  0.517700  0.722800  0.534500  1.0  0.1137
  H  H48  1  0.418400  0.655000  0.411200  1.0  0.0644
  C  C49  1  0.865200  0.889600  0.392800  1.0  0.0296
  C  C50  1  0.864700  0.957400  0.912200  1.0  0.08
  C  C51  1  0.765700  0.755940  0.757100  1.0  0.184
  C  C52  1  0.821500  0.712710  0.830000  1.0  -0.1589
  C  C53  1  0.914800  0.720010  0.937900  1.0  -0.0489
  C  C54  1  0.952700  0.770760  0.966000  1.0  -0.1872
  C  C55  1  0.892500  0.811100  0.890800  1.0  0.1577
  C  C56  1  0.972200  0.673700  0.030300  1.0  0.7068
  C  C57  1  0.365200  0.389600  0.392800  1.0  0.0296
  C  C58  1  0.364700  0.457400  0.912200  1.0  0.08
  C  C59  1  0.265700  0.255940  0.757100  1.0  0.184
  C  C60  1  0.321500  0.212710  0.830000  1.0  -0.1589
  C  C61  1  0.414800  0.220010  0.937900  1.0  -0.0489
  C  C62  1  0.452700  0.270760  0.966000  1.0  -0.1872
  C  C63  1  0.392500  0.311100  0.890800  1.0  0.1577
  C  C64  1  0.472200  0.173700  0.030300  1.0  0.7068
  C  C65  1  0.134800  0.889600  0.107200  1.0  0.0315
  C  C66  1  0.135300  0.957400  0.587800  1.0  0.0807
  C  C67  1  0.234300  0.755940  0.742900  1.0  0.1832
  C  C68  1  0.178500  0.712710  0.670000  1.0  -0.16
  C  C69  1  0.085200  0.720010  0.562100  1.0  -0.049
  C  C70  1  0.047300  0.770760  0.534000  1.0  -0.1873
  C  C71  1  0.107500  0.811100  0.609200  1.0  0.1573
  C  C72  1  0.027800  0.673700  0.469700  1.0  0.7055
  C  C73  1  0.634800  0.389600  0.107200  1.0  0.0315
  C  C74  1  0.635300  0.457400  0.587800  1.0  0.0807
  C  C75  1  0.734300  0.255940  0.742900  1.0  0.1832
  C  C76  1  0.678500  0.212710  0.670000  1.0  -0.16
  C  C77  1  0.585200  0.220010  0.562100  1.0  -0.049
  C  C78  1  0.547300  0.270760  0.534000  1.0  -0.1873
  C  C79  1  0.607500  0.311100  0.609200  1.0  0.1573
  C  C80  1  0.527800  0.173700  0.469700  1.0  0.7055
  C  C81  1  0.134800  0.110400  0.607200  1.0  0.0324
  C  C82  1  0.135300  0.042600  0.087800  1.0  0.0816
  C  C83  1  0.234300  0.244060  0.242900  1.0  0.1829
  C  C84  1  0.178500  0.287290  0.170000  1.0  -0.1598
  C  C85  1  0.085200  0.279990  0.062100  1.0  -0.0479
  C  C86  1  0.047300  0.229240  0.034000  1.0  -0.1875
  C  C87  1  0.107500  0.188900  0.109200  1.0  0.1583
  C  C88  1  0.027800  0.326300  0.969700  1.0  0.709
  C  C89  1  0.634800  0.610400  0.607200  1.0  0.0324
  C  C90  1  0.635300  0.542600  0.087800  1.0  0.0816
  C  C91  1  0.734300  0.744060  0.242900  1.0  0.1829
  C  C92  1  0.678500  0.787290  0.170000  1.0  -0.1598
  C  C93  1  0.585200  0.779990  0.062100  1.0  -0.0479
  C  C94  1  0.547300  0.729240  0.034000  1.0  -0.1875
  C  C95  1  0.607500  0.688900  0.109200  1.0  0.1583
  C  C96  1  0.527800  0.826300  0.969700  1.0  0.709
  C  C97  1  0.865200  0.110400  0.892800  1.0  0.032
  C  C98  1  0.864700  0.042600  0.412200  1.0  0.0817
  C  C99  1  0.765700  0.244060  0.257100  1.0  0.1839
  C  C100  1  0.821500  0.287290  0.330000  1.0  -0.1595
  C  C101  1  0.914800  0.279990  0.437900  1.0  -0.048
  C  C102  1  0.952700  0.229240  0.466000  1.0  -0.1873
  C  C103  1  0.892500  0.188900  0.390800  1.0  0.1587
  C  C104  1  0.972200  0.326300  0.530300  1.0  0.7084
  C  C105  1  0.365200  0.610400  0.892800  1.0  0.032
  C  C106  1  0.364700  0.542600  0.412200  1.0  0.0817
  C  C107  1  0.265700  0.744060  0.257100  1.0  0.1839
  C  C108  1  0.321500  0.787290  0.330000  1.0  -0.1595
  C  C109  1  0.414800  0.779990  0.437900  1.0  -0.048
  C  C110  1  0.452700  0.729240  0.466000  1.0  -0.1873
  C  C111  1  0.392500  0.688900  0.390800  1.0  0.1587
  C  C112  1  0.472200  0.826300  0.530300  1.0  0.7084
  N  N113  1  0.792800  0.883960  0.478400  1.0  -0.4288
  N  N114  1  0.792600  0.931320  0.859700  1.0  -0.433
  N  N115  1  0.797900  0.805160  0.788800  1.0  -0.3485
  N  N116  1  0.292800  0.383960  0.478400  1.0  -0.4288
  N  N117  1  0.292600  0.431320  0.859700  1.0  -0.433
  N  N118  1  0.297900  0.305160  0.788800  1.0  -0.3485
  N  N119  1  0.207200  0.883960  0.021600  1.0  -0.4286
  N  N120  1  0.207400  0.931320  0.640300  1.0  -0.4322
  N  N121  1  0.202100  0.805160  0.711200  1.0  -0.349
  N  N122  1  0.707200  0.383960  0.021600  1.0  -0.4286
  N  N123  1  0.707400  0.431320  0.640300  1.0  -0.4322
  N  N124  1  0.702100  0.305160  0.711200  1.0  -0.349
  N  N125  1  0.207200  0.116040  0.521600  1.0  -0.4294
  N  N126  1  0.207400  0.068680  0.140300  1.0  -0.4295
  N  N127  1  0.202100  0.194840  0.211200  1.0  -0.3484
  N  N128  1  0.707200  0.616040  0.521600  1.0  -0.4294
  N  N129  1  0.707400  0.568680  0.140300  1.0  -0.4295
  N  N130  1  0.702100  0.694840  0.211200  1.0  -0.3484
  N  N131  1  0.792800  0.116040  0.978400  1.0  -0.4297
  N  N132  1  0.792600  0.068680  0.359700  1.0  -0.4296
  N  N133  1  0.797900  0.194840  0.288800  1.0  -0.351
  N  N134  1  0.292800  0.616040  0.978400  1.0  -0.4297
  N  N135  1  0.292600  0.568680  0.359700  1.0  -0.4296
  N  N136  1  0.297900  0.694840  0.288800  1.0  -0.351
  O  O137  1  0.073800  0.677520  0.065200  1.0  -0.6137
  O  O138  1  0.913100  0.634920  0.066100  1.0  -0.7202
  O  O139  1  0.573800  0.177520  0.065200  1.0  -0.6137
  O  O140  1  0.413100  0.134920  0.066100  1.0  -0.7202
  O  O141  1  0.926200  0.677520  0.434800  1.0  -0.6142
  O  O142  1  0.086900  0.634920  0.433900  1.0  -0.7189
  O  O143  1  0.426200  0.177520  0.434800  1.0  -0.6142
  O  O144  1  0.586900  0.134920  0.433900  1.0  -0.7189
  O  O145  1  0.926200  0.322480  0.934800  1.0  -0.6137
  O  O146  1  0.086900  0.365080  0.933900  1.0  -0.7182
  O  O147  1  0.426200  0.822480  0.934800  1.0  -0.6137
  O  O148  1  0.586900  0.865080  0.933900  1.0  -0.7182
  O  O149  1  0.073800  0.322480  0.565200  1.0  -0.6133
  O  O150  1  0.913100  0.365080  0.566100  1.0  -0.719
  O  O151  1  0.573800  0.822480  0.565200  1.0  -0.6133
  O  O152  1  0.413100  0.865080  0.566100  1.0  -0.719
