# generated using pymatgen
data_Cd3H24C36(NO7)2
_symmetry_space_group_name_H-M   'P 1'
_cell_length_a   12.67840000
_cell_length_b   13.54330000
_cell_length_c   17.13220000
_cell_angle_alpha   77.83900000
_cell_angle_beta   76.40400000
_cell_angle_gamma   80.61400000
_symmetry_Int_Tables_number   1
_chemical_formula_structural   Cd3H24C36(NO7)2
_chemical_formula_sum   'Cd6 H48 C72 N4 O28'
_cell_volume   2775.09026090
_cell_formula_units_Z   2
loop_
 _symmetry_equiv_pos_site_id
 _symmetry_equiv_pos_as_xyz
  1  'x, y, z'
loop_
 _atom_site_type_symbol
 _atom_site_label
 _atom_site_symmetry_multiplicity
 _atom_site_fract_x
 _atom_site_fract_y
 _atom_site_fract_z
 _atom_site_occupancy
 _atom_site_charge
  Cd  Cd1  1  0.478320  0.527570  0.738990  1.0  1.071
  Cd  Cd2  1  0.720660  0.245980  0.241180  1.0  1.1076
  Cd  Cd3  1  0.719250  0.300590  0.749050  1.0  1.2277
  Cd  Cd4  1  0.521680  0.472430  0.261010  1.0  1.0709
  Cd  Cd5  1  0.279340  0.754020  0.758820  1.0  1.1075
  Cd  Cd6  1  0.280750  0.699410  0.250950  1.0  1.2282
  H  H7  1  0.800800  0.679600  0.657800  1.0  0.1063
  H  H8  1  0.954400  0.748600  0.657800  1.0  0.1115
  H  H9  1  0.976200  0.567100  0.872300  1.0  0.1071
  H  H10  1  0.721500  0.549200  0.971500  1.0  0.1132
  H  H11  1  0.725500  0.252700  0.069600  1.0  0.1008
  H  H12  1  0.846100  0.213500  0.953200  1.0  0.118
  H  H13  1  0.525800  0.707400  0.450200  1.0  0.1114
  H  H14  1  0.165500  0.850900  0.472900  1.0  0.1133
  H  H15  1  0.221800  0.748300  0.584300  1.0  0.1056
  H  H16  1  0.305000  0.021300  0.413800  1.0  0.1241
  H  H17  1  0.320000  0.116800  0.344100  1.0  0.122
  H  H18  1  0.203100  0.098000  0.395900  1.0  0.1186
  H  H19  1  0.144300  0.085600  0.254500  1.0  0.1235
  H  H20  1  0.257600  0.128000  0.223800  1.0  0.1174
  H  H21  1  0.239900  0.028300  0.198300  1.0  0.119
  H  H22  1  0.675400  0.773600  0.153200  1.0  0.105
  H  H23  1  0.717100  0.937100  0.136400  1.0  0.1104
  H  H24  1  0.500000  0.976200  0.341400  1.0  0.1057
  H  H25  1  0.073400  0.324500  0.687600  1.0  0.121
  H  H26  1  0.174600  0.334200  0.722200  1.0  0.1203
  H  H27  1  0.126300  0.230200  0.741800  1.0  0.119
  H  H28  1  0.134400  0.295700  0.887400  1.0  0.1227
  H  H29  1  0.132200  0.409800  0.843600  1.0  0.1294
  H  H30  1  0.033600  0.374700  0.913000  1.0  0.1203
  H  H31  1  0.199200  0.320400  0.342200  1.0  0.106
  H  H32  1  0.045600  0.251400  0.342200  1.0  0.1121
  H  H33  1  0.023800  0.432900  0.127700  1.0  0.1082
  H  H34  1  0.278500  0.450800  0.028500  1.0  0.1135
  H  H35  1  0.274500  0.747300  0.930400  1.0  0.1014
  H  H36  1  0.153900  0.786500  0.046800  1.0  0.1173
  H  H37  1  0.474200  0.292600  0.549800  1.0  0.1117
  H  H38  1  0.834500  0.149100  0.527100  1.0  0.113
  H  H39  1  0.778200  0.251700  0.415700  1.0  0.1059
  H  H40  1  0.695000  0.978700  0.586200  1.0  0.1239
  H  H41  1  0.680000  0.883200  0.655900  1.0  0.122
  H  H42  1  0.796900  0.902000  0.604100  1.0  0.1177
  H  H43  1  0.855700  0.914400  0.745500  1.0  0.1229
  H  H44  1  0.742400  0.872000  0.776200  1.0  0.117
  H  H45  1  0.760100  0.971700  0.801700  1.0  0.1196
  H  H46  1  0.324600  0.226400  0.846800  1.0  0.1047
  H  H47  1  0.282900  0.062900  0.863600  1.0  0.1102
  H  H48  1  0.500000  0.023800  0.658600  1.0  0.1055
  H  H49  1  0.926600  0.675500  0.312400  1.0  0.1212
  H  H50  1  0.825400  0.665800  0.277800  1.0  0.1206
  H  H51  1  0.873700  0.769800  0.258200  1.0  0.1208
  H  H52  1  0.865600  0.704300  0.112600  1.0  0.1221
  H  H53  1  0.867800  0.590200  0.156400  1.0  0.1295
  H  H54  1  0.966400  0.625300  0.087000  1.0  0.1204
  C  C55  1  0.694800  0.539100  0.759600  1.0  0.7004
  C  C56  1  0.797700  0.579200  0.762300  1.0  -0.1242
  C  C57  1  0.837000  0.655900  0.700700  1.0  -0.0456
  C  C58  1  0.928200  0.698400  0.700900  1.0  -0.0884
  C  C59  1  0.981200  0.665400  0.766400  1.0  -0.1142
  C  C60  1  0.941300  0.588700  0.828600  1.0  -0.0842
  C  C61  1  0.851900  0.543200  0.828100  1.0  0.0134
  C  C62  1  0.082700  0.707700  0.767700  1.0  0.6637
  C  C63  1  0.816800  0.458800  0.896700  1.0  0.0497
  C  C64  1  0.746400  0.481600  0.967500  1.0  -0.0638
  C  C65  1  0.712100  0.404800  0.033200  1.0  -0.1109
  C  C66  1  0.748900  0.304500  0.026900  1.0  -0.0297
  C  C67  1  0.820700  0.281000  0.957000  1.0  -0.1123
  C  C68  1  0.855000  0.358100  0.892600  1.0  -0.1329
  C  C69  1  0.634900  0.432000  0.108300  1.0  0.6814
  C  C70  1  0.930300  0.326700  0.817300  1.0  0.5195
  C  C71  1  0.416900  0.645000  0.599100  1.0  0.6894
  C  C72  1  0.379700  0.715100  0.527700  1.0  -0.1088
  C  C73  1  0.453800  0.737400  0.454600  1.0  -0.0599
  C  C74  1  0.423400  0.803000  0.388100  1.0  0.0105
  C  C75  1  0.312400  0.845400  0.395200  1.0  -0.1506
  C  C76  1  0.238300  0.823100  0.468600  1.0  -0.1005
  C  C77  1  0.271400  0.760500  0.534800  1.0  -0.0556
  C  C78  1  0.273000  0.906800  0.322600  1.0  0.5113
  C  C79  1  0.272900  0.065800  0.371800  1.0  -0.186
  C  C80  1  0.222000  0.067400  0.241300  1.0  -0.1668
  C  C81  1  0.544500  0.666900  0.267700  1.0  0.6951
  C  C82  1  0.561300  0.776500  0.257500  1.0  -0.1328
  C  C83  1  0.640000  0.814300  0.191300  1.0  -0.0744
  C  C84  1  0.666000  0.911700  0.181800  1.0  -0.0735
  C  C85  1  0.616600  0.971300  0.239200  1.0  -0.107
  C  C86  1  0.535600  0.934600  0.304000  1.0  -0.0829
  C  C87  1  0.506700  0.838000  0.314200  1.0  0.0037
  C  C88  1  0.655000  0.071900  0.235200  1.0  0.6629
  C  C89  1  0.108800  0.302800  0.733200  1.0  -0.1707
  C  C90  1  0.088600  0.355200  0.868100  1.0  -0.1854
  C  C91  1  0.305200  0.460900  0.240400  1.0  0.7009
  C  C92  1  0.202300  0.420800  0.237700  1.0  -0.124
  C  C93  1  0.163000  0.344100  0.299300  1.0  -0.046
  C  C94  1  0.071800  0.301600  0.299100  1.0  -0.0869
  C  C95  1  0.018800  0.334600  0.233600  1.0  -0.1221
  C  C96  1  0.058700  0.411300  0.171400  1.0  -0.0848
  C  C97  1  0.148100  0.456800  0.171900  1.0  0.0137
  C  C98  1  0.917300  0.292300  0.232300  1.0  0.6662
  C  C99  1  0.183200  0.541200  0.103300  1.0  0.0503
  C  C100  1  0.253600  0.518400  0.032500  1.0  -0.063
  C  C101  1  0.287900  0.595200  0.966800  1.0  -0.1131
  C  C102  1  0.251100  0.695500  0.973100  1.0  -0.0303
  C  C103  1  0.179300  0.719000  0.043000  1.0  -0.1114
  C  C104  1  0.145000  0.641900  0.107400  1.0  -0.1328
  C  C105  1  0.365100  0.568000  0.891700  1.0  0.6816
  C  C106  1  0.069700  0.673300  0.182700  1.0  0.52
  C  C107  1  0.583100  0.355000  0.400900  1.0  0.6879
  C  C108  1  0.620300  0.284900  0.472300  1.0  -0.1079
  C  C109  1  0.546200  0.262600  0.545400  1.0  -0.0605
  C  C110  1  0.576600  0.197000  0.611900  1.0  0.0106
  C  C111  1  0.687600  0.154600  0.604800  1.0  -0.1498
  C  C112  1  0.761700  0.176900  0.531400  1.0  -0.1007
  C  C113  1  0.728600  0.239500  0.465200  1.0  -0.0577
  C  C114  1  0.727000  0.093200  0.677400  1.0  0.511
  C  C115  1  0.727100  0.934200  0.628200  1.0  -0.185
  C  C116  1  0.778000  0.932600  0.758700  1.0  -0.1676
  C  C117  1  0.455500  0.333100  0.732300  1.0  0.6928
  C  C118  1  0.438700  0.223500  0.742500  1.0  -0.1312
  C  C119  1  0.360000  0.185700  0.808700  1.0  -0.0738
  C  C120  1  0.334000  0.088300  0.818200  1.0  -0.0701
  C  C121  1  0.383400  0.028700  0.760800  1.0  -0.1068
  C  C122  1  0.464400  0.065400  0.696000  1.0  -0.0798
  C  C123  1  0.493300  0.162000  0.685800  1.0  0.0016
  C  C124  1  0.345000  0.928100  0.764800  1.0  0.6642
  C  C125  1  0.891200  0.697200  0.266800  1.0  -0.1698
  C  C126  1  0.911400  0.644800  0.131900  1.0  -0.1838
  N  N127  1  0.035300  0.332700  0.806600  1.0  -0.0688
  N  N128  1  0.258600  0.006900  0.313400  1.0  -0.0617
  N  N129  1  0.964700  0.667300  0.193400  1.0  -0.0685
  N  N130  1  0.741400  0.993100  0.686600  1.0  -0.0627
  O  O131  1  0.893200  0.294000  0.768000  1.0  -0.6069
  O  O132  1  0.675300  0.451900  0.796500  1.0  -0.6634
  O  O133  1  0.632000  0.598000  0.719000  1.0  -0.5706
  O  O134  1  0.615100  0.119200  0.295000  1.0  -0.6046
  O  O135  1  0.727900  0.104400  0.177200  1.0  -0.6003
  O  O136  1  0.502400  0.586100  0.588900  1.0  -0.5867
  O  O137  1  0.357600  0.647500  0.670200  1.0  -0.6749
  O  O138  1  0.595500  0.520000  0.111700  1.0  -0.597
  O  O139  1  0.612500  0.360100  0.169800  1.0  -0.6802
  O  O140  1  0.114600  0.781100  0.713700  1.0  -0.6396
  O  O141  1  0.133800  0.665700  0.822500  1.0  -0.5735
  O  O142  1  0.447800  0.642500  0.286400  1.0  -0.6877
  O  O143  1  0.624900  0.603100  0.257000  1.0  -0.5598
  O  O144  1  0.253700  0.863400  0.271000  1.0  -0.6387
  O  O145  1  0.106800  0.706000  0.232000  1.0  -0.6083
  O  O146  1  0.324700  0.548100  0.203500  1.0  -0.662
  O  O147  1  0.368000  0.402000  0.281000  1.0  -0.5706
  O  O148  1  0.384900  0.880800  0.705000  1.0  -0.6036
  O  O149  1  0.272100  0.895600  0.822800  1.0  -0.6003
  O  O150  1  0.497600  0.413900  0.411100  1.0  -0.5881
  O  O151  1  0.642400  0.352500  0.329800  1.0  -0.6743
  O  O152  1  0.404500  0.480000  0.888300  1.0  -0.6
  O  O153  1  0.387500  0.639900  0.830200  1.0  -0.6796
  O  O154  1  0.885400  0.218900  0.286300  1.0  -0.6397
  O  O155  1  0.866200  0.334300  0.177500  1.0  -0.5695
  O  O156  1  0.552200  0.357500  0.713600  1.0  -0.6886
  O  O157  1  0.375100  0.396900  0.743000  1.0  -0.5596
  O  O158  1  0.746300  0.136600  0.729000  1.0  -0.6378
