# generated using pymatgen
data_CuH18C24(NO)4
_symmetry_space_group_name_H-M   'P 1'
_cell_length_a   12.84540000
_cell_length_b   24.99590000
_cell_length_c   24.99590000
_cell_angle_alpha   62.87170000
_cell_angle_beta   80.13660000
_cell_angle_gamma   99.86340000
_symmetry_Int_Tables_number   1
_chemical_formula_structural   CuH18C24(NO)4
_chemical_formula_sum   'Cu6 H108 C144 N24 O24'
_cell_volume   6746.54377486
_cell_formula_units_Z   6
loop_
 _symmetry_equiv_pos_site_id
 _symmetry_equiv_pos_as_xyz
  1  'x, y, z'
loop_
 _atom_site_type_symbol
 _atom_site_label
 _atom_site_symmetry_multiplicity
 _atom_site_fract_x
 _atom_site_fract_y
 _atom_site_fract_z
 _atom_site_occupancy
 _atom_site_charge
  Cu  Cu1  1  0.546800  0.456880  0.000000  1.0  0.9014
  Cu  Cu2  1  0.546800  0.000000  0.543120  1.0  0.9012
  Cu  Cu3  1  0.089920  0.543120  0.456880  1.0  0.9051
  Cu  Cu4  1  0.453200  0.543110  0.000000  1.0  0.9012
  Cu  Cu5  1  0.910090  0.456890  0.543110  1.0  0.9039
  Cu  Cu6  1  0.453200  0.000000  0.456880  1.0  0.903
  H  H7  1  0.423700  0.429000  0.864600  1.0  0.0866
  H  H8  1  0.285900  0.563800  0.862600  1.0  0.0905
  H  H9  1  0.647100  0.330200  0.781700  1.0  0.0925
  H  H10  1  0.448900  0.305400  0.827100  1.0  0.1063
  H  H11  1  0.815500  0.452200  0.703600  1.0  0.1059
  H  H12  1  0.763400  0.507200  0.699800  1.0  0.1021
  H  H13  1  0.755400  0.483100  0.650800  1.0  0.1205
  H  H14  1  0.301300  0.366300  0.814200  1.0  0.1089
  H  H15  1  0.329800  0.418500  0.741900  1.0  0.1102
  H  H16  1  0.288300  0.864600  0.706400  1.0  0.0862
  H  H17  1  0.148500  0.862600  0.573600  1.0  0.0913
  H  H18  1  0.428800  0.781700  0.888100  1.0  0.0939
  H  H19  1  0.276000  0.827100  0.867500  1.0  0.1061
  H  H20  1  0.519100  0.703600  0.844200  1.0  0.1055
  H  H21  1  0.463200  0.699800  0.793000  1.0  0.1023
  H  H22  1  0.406200  0.650800  0.866100  1.0  0.1223
  H  H23  1  0.115500  0.814200  0.819500  1.0  0.1126
  H  H24  1  0.071700  0.741900  0.839600  1.0  0.1166
  H  H25  1  0.994700  0.706400  0.429000  1.0  0.0844
  H  H26  1  0.722100  0.573600  0.563800  1.0  0.0902
  H  H27  1  0.316900  0.888100  0.330200  1.0  0.0945
  H  H28  1  0.143500  0.867500  0.305400  1.0  0.1043
  H  H29  1  0.363300  0.844200  0.452200  1.0  0.1052
  H  H30  1  0.256200  0.793000  0.507200  1.0  0.1022
  H  H31  1  0.272300  0.866100  0.483100  1.0  0.1215
  H  H32  1  0.935000  0.819500  0.366300  1.0  0.1112
  H  H33  1  0.911300  0.839600  0.418500  1.0  0.1156
  H  H34  1  0.711700  0.706400  0.864600  1.0  0.0866
  H  H35  1  0.851500  0.573600  0.862600  1.0  0.0905
  H  H36  1  0.571200  0.888100  0.781700  1.0  0.0949
  H  H37  1  0.724000  0.867500  0.827100  1.0  0.1049
  H  H38  1  0.480900  0.844200  0.703600  1.0  0.1048
  H  H39  1  0.536800  0.793000  0.699800  1.0  0.1013
  H  H40  1  0.593800  0.866100  0.650800  1.0  0.1228
  H  H41  1  0.884500  0.819500  0.814200  1.0  0.1101
  H  H42  1  0.928300  0.839600  0.741900  1.0  0.115
  H  H43  1  0.005300  0.429000  0.706400  1.0  0.0846
  H  H44  1  0.277900  0.563800  0.573600  1.0  0.0902
  H  H45  1  0.683100  0.330200  0.888100  1.0  0.0958
  H  H46  1  0.856500  0.305400  0.867500  1.0  0.1058
  H  H47  1  0.636700  0.452200  0.844200  1.0  0.1052
  H  H48  1  0.743800  0.507200  0.793000  1.0  0.1019
  H  H49  1  0.727700  0.483100  0.866100  1.0  0.1222
  H  H50  1  0.065000  0.366300  0.819500  1.0  0.108
  H  H51  1  0.088700  0.418500  0.839600  1.0  0.1167
  H  H52  1  0.576300  0.864600  0.429000  1.0  0.0856
  H  H53  1  0.714100  0.862600  0.563800  1.0  0.0917
  H  H54  1  0.352900  0.781700  0.330200  1.0  0.0921
  H  H55  1  0.551100  0.827100  0.305400  1.0  0.106
  H  H56  1  0.184500  0.703600  0.452200  1.0  0.1042
  H  H57  1  0.236600  0.699800  0.507200  1.0  0.1014
  H  H58  1  0.244600  0.650800  0.483100  1.0  0.1202
  H  H59  1  0.698700  0.814200  0.366300  1.0  0.1105
  H  H60  1  0.670200  0.741900  0.418500  1.0  0.1115
  H  H61  1  0.576300  0.571000  0.135400  1.0  0.0862
  H  H62  1  0.714100  0.436200  0.137400  1.0  0.0903
  H  H63  1  0.352900  0.669800  0.218300  1.0  0.0932
  H  H64  1  0.551100  0.694600  0.172900  1.0  0.1063
  H  H65  1  0.184500  0.547800  0.296400  1.0  0.105
  H  H66  1  0.236600  0.492800  0.300200  1.0  0.1023
  H  H67  1  0.244600  0.516900  0.349200  1.0  0.1202
  H  H68  1  0.698700  0.633700  0.185800  1.0  0.1073
  H  H69  1  0.670200  0.581500  0.258100  1.0  0.1123
  H  H70  1  0.711700  0.135400  0.293600  1.0  0.086
  H  H71  1  0.851500  0.137400  0.426400  1.0  0.0915
  H  H72  1  0.571200  0.218300  0.111900  1.0  0.093
  H  H73  1  0.724000  0.172900  0.132500  1.0  0.1047
  H  H74  1  0.480900  0.296400  0.155800  1.0  0.1049
  H  H75  1  0.536800  0.300200  0.207000  1.0  0.1015
  H  H76  1  0.593800  0.349200  0.133900  1.0  0.1226
  H  H77  1  0.884500  0.185800  0.180500  1.0  0.1112
  H  H78  1  0.928300  0.258100  0.160400  1.0  0.1157
  H  H79  1  0.005300  0.293600  0.571000  1.0  0.0845
  H  H80  1  0.277900  0.426400  0.436200  1.0  0.0901
  H  H81  1  0.683100  0.111900  0.669800  1.0  0.0963
  H  H82  1  0.856500  0.132500  0.694600  1.0  0.1047
  H  H83  1  0.636700  0.155800  0.547800  1.0  0.1058
  H  H84  1  0.743800  0.207000  0.492800  1.0  0.1014
  H  H85  1  0.727700  0.133900  0.516900  1.0  0.1217
  H  H86  1  0.065000  0.180500  0.633700  1.0  0.1094
  H  H87  1  0.088700  0.160400  0.581500  1.0  0.1161
  H  H88  1  0.288300  0.293600  0.135400  1.0  0.0868
  H  H89  1  0.148500  0.426400  0.137400  1.0  0.0908
  H  H90  1  0.428800  0.111900  0.218300  1.0  0.0943
  H  H91  1  0.276000  0.132500  0.172900  1.0  0.1044
  H  H92  1  0.519100  0.155800  0.296400  1.0  0.1056
  H  H93  1  0.463200  0.207000  0.300200  1.0  0.1022
  H  H94  1  0.406200  0.133900  0.349200  1.0  0.1224
  H  H95  1  0.115500  0.180500  0.185800  1.0  0.1119
  H  H96  1  0.071700  0.160400  0.258100  1.0  0.1143
  H  H97  1  0.994700  0.571000  0.293600  1.0  0.0844
  H  H98  1  0.722100  0.436200  0.426400  1.0  0.0902
  H  H99  1  0.316900  0.669800  0.111900  1.0  0.0948
  H  H100  1  0.143500  0.694600  0.132500  1.0  0.1062
  H  H101  1  0.363300  0.547800  0.155800  1.0  0.1052
  H  H102  1  0.256200  0.492800  0.207000  1.0  0.1028
  H  H103  1  0.272300  0.516900  0.133900  1.0  0.1218
  H  H104  1  0.935000  0.633700  0.180500  1.0  0.109
  H  H105  1  0.911300  0.581500  0.160400  1.0  0.116
  H  H106  1  0.423700  0.135400  0.571000  1.0  0.0863
  H  H107  1  0.285900  0.137400  0.436200  1.0  0.0917
  H  H108  1  0.647100  0.218300  0.669800  1.0  0.092
  H  H109  1  0.448900  0.172900  0.694600  1.0  0.1064
  H  H110  1  0.815500  0.296400  0.547800  1.0  0.1047
  H  H111  1  0.763400  0.300200  0.492800  1.0  0.1019
  H  H112  1  0.755400  0.349200  0.516900  1.0  0.1201
  H  H113  1  0.301300  0.185800  0.633700  1.0  0.1113
  H  H114  1  0.329800  0.258100  0.581500  1.0  0.1113
  C  C115  1  0.416580  0.499110  0.917970  1.0  0.658
  C  C116  1  0.366010  0.497050  0.868120  1.0  -0.1396
  C  C117  1  0.382260  0.457090  0.846610  1.0  -0.1309
  C  C118  1  0.340250  0.455950  0.799300  1.0  0.0351
  C  C119  1  0.272800  0.496300  0.776200  1.0  -0.0766
  C  C120  1  0.250900  0.540100  0.798100  1.0  -0.0194
  C  C121  1  0.298600  0.537860  0.845360  1.0  -0.0377
  C  C122  1  0.606000  0.359800  0.773800  1.0  -0.0817
  C  C123  1  0.496600  0.345900  0.796800  1.0  -0.0671
  C  C124  1  0.754700  0.470400  0.694200  1.0  -0.1913
  C  C125  1  0.352800  0.407400  0.780600  1.0  -0.1626
  C  C126  1  0.559600  0.442900  0.733000  1.0  0.1206
  C  C127  1  0.334550  0.917970  0.582920  1.0  0.6566
  C  C128  1  0.234130  0.868120  0.634830  1.0  -0.1426
  C  C129  1  0.228870  0.846610  0.696300  1.0  -0.1334
  C  C130  1  0.139550  0.799300  0.744750  1.0  0.0377
  C  C131  1  0.049000  0.776200  0.727500  1.0  -0.0734
  C  C132  1  0.049000  0.798100  0.661800  1.0  -0.0209
  C  C133  1  0.143960  0.845360  0.616780  1.0  -0.0394
  C  C134  1  0.379800  0.773800  0.866400  1.0  -0.0786
  C  C135  1  0.293400  0.796800  0.857300  1.0  -0.0671
  C  C136  1  0.448900  0.694200  0.835400  1.0  -0.1926
  C  C137  1  0.133400  0.780600  0.812000  1.0  -0.1666
  C  C138  1  0.292600  0.733000  0.824100  1.0  0.1213
  C  C139  1  0.917470  0.582920  0.499110  1.0  0.6563
  C  C140  1  0.868960  0.634830  0.497050  1.0  -0.1404
  C  C141  1  0.925170  0.696300  0.457090  1.0  -0.1345
  C  C142  1  0.884300  0.744750  0.455950  1.0  0.0365
  C  C143  1  0.776500  0.727500  0.496300  1.0  -0.0764
  C  C144  1  0.710800  0.661800  0.540100  1.0  -0.0238
  C  C145  1  0.760740  0.616780  0.537860  1.0  -0.0378
  C  C146  1  0.246200  0.866400  0.359800  1.0  -0.0824
  C  C147  1  0.150700  0.857300  0.345900  1.0  -0.0607
  C  C148  1  0.284300  0.835400  0.470400  1.0  -0.1898
  C  C149  1  0.945400  0.812000  0.407400  1.0  -0.1626
  C  C150  1  0.116700  0.824100  0.442900  1.0  0.1248
  C  C151  1  0.665450  0.582920  0.917970  1.0  0.6565
  C  C152  1  0.765870  0.634830  0.868120  1.0  -0.142
  C  C153  1  0.771130  0.696300  0.846610  1.0  -0.1326
  C  C154  1  0.860450  0.744750  0.799300  1.0  0.0363
  C  C155  1  0.951000  0.727500  0.776200  1.0  -0.0759
  C  C156  1  0.951000  0.661800  0.798100  1.0  -0.0195
  C  C157  1  0.856040  0.616780  0.845360  1.0  -0.0372
  C  C158  1  0.620200  0.866400  0.773800  1.0  -0.0854
  C  C159  1  0.706600  0.857300  0.796800  1.0  -0.0641
  C  C160  1  0.551100  0.835400  0.694200  1.0  -0.1924
  C  C161  1  0.866600  0.812000  0.780600  1.0  -0.1614
  C  C162  1  0.707400  0.824100  0.733000  1.0  0.1214
  C  C163  1  0.082530  0.499110  0.582920  1.0  0.6588
  C  C164  1  0.131040  0.497050  0.634830  1.0  -0.1408
  C  C165  1  0.074830  0.457090  0.696300  1.0  -0.1359
  C  C166  1  0.115700  0.455950  0.744750  1.0  0.0351
  C  C167  1  0.223500  0.496300  0.727500  1.0  -0.0768
  C  C168  1  0.289200  0.540100  0.661800  1.0  -0.0213
  C  C169  1  0.239260  0.537860  0.616780  1.0  -0.04
  C  C170  1  0.753800  0.359800  0.866400  1.0  -0.0834
  C  C171  1  0.849300  0.345900  0.857300  1.0  -0.0671
  C  C172  1  0.715700  0.470400  0.835400  1.0  -0.1906
  C  C173  1  0.054600  0.407400  0.812000  1.0  -0.1615
  C  C174  1  0.883300  0.442900  0.824100  1.0  0.1181
  C  C175  1  0.583420  0.917970  0.499110  1.0  0.6574
  C  C176  1  0.633990  0.868120  0.497050  1.0  -0.1386
  C  C177  1  0.617740  0.846610  0.457090  1.0  -0.1307
  C  C178  1  0.659750  0.799300  0.455950  1.0  0.0382
  C  C179  1  0.727200  0.776200  0.496300  1.0  -0.0746
  C  C180  1  0.749100  0.798100  0.540100  1.0  -0.0238
  C  C181  1  0.701400  0.845360  0.537860  1.0  -0.0394
  C  C182  1  0.394000  0.773800  0.359800  1.0  -0.0764
  C  C183  1  0.503400  0.796800  0.345900  1.0  -0.0644
  C  C184  1  0.245300  0.694200  0.470400  1.0  -0.1922
  C  C185  1  0.647200  0.780600  0.407400  1.0  -0.1643
  C  C186  1  0.440400  0.733000  0.442900  1.0  0.1226
  C  C187  1  0.583420  0.500890  0.082030  1.0  0.6583
  C  C188  1  0.633990  0.502950  0.131880  1.0  -0.1396
  C  C189  1  0.617740  0.542910  0.153390  1.0  -0.131
  C  C190  1  0.659750  0.544050  0.200700  1.0  0.0349
  C  C191  1  0.727200  0.503700  0.223800  1.0  -0.079
  C  C192  1  0.749100  0.459900  0.201900  1.0  -0.0219
  C  C193  1  0.701400  0.462140  0.154640  1.0  -0.0376
  C  C194  1  0.394000  0.640200  0.226200  1.0  -0.0838
  C  C195  1  0.503400  0.654100  0.203200  1.0  -0.0672
  C  C196  1  0.245300  0.529600  0.305800  1.0  -0.1915
  C  C197  1  0.647200  0.592600  0.219400  1.0  -0.1612
  C  C198  1  0.440400  0.557100  0.267000  1.0  0.1223
  C  C199  1  0.665450  0.082030  0.417080  1.0  0.6571
  C  C200  1  0.765870  0.131880  0.365170  1.0  -0.1422
  C  C201  1  0.771130  0.153390  0.303700  1.0  -0.1332
  C  C202  1  0.860450  0.200700  0.255250  1.0  0.0376
  C  C203  1  0.951000  0.223800  0.272500  1.0  -0.0744
  C  C204  1  0.951000  0.201900  0.338200  1.0  -0.0244
  C  C205  1  0.856040  0.154640  0.383220  1.0  -0.039
  C  C206  1  0.620200  0.226200  0.133600  1.0  -0.0805
  C  C207  1  0.706600  0.203200  0.142700  1.0  -0.0631
  C  C208  1  0.551100  0.305800  0.164600  1.0  -0.1916
  C  C209  1  0.866600  0.219400  0.188000  1.0  -0.1641
  C  C210  1  0.707400  0.267000  0.175900  1.0  0.1204
  C  C211  1  0.082530  0.417080  0.500890  1.0  0.657
  C  C212  1  0.131040  0.365170  0.502950  1.0  -0.139
  C  C213  1  0.074830  0.303700  0.542910  1.0  -0.1346
  C  C214  1  0.115700  0.255250  0.544050  1.0  0.0361
  C  C215  1  0.223500  0.272500  0.503700  1.0  -0.0748
  C  C216  1  0.289200  0.338200  0.459900  1.0  -0.0201
  C  C217  1  0.239260  0.383220  0.462140  1.0  -0.0395
  C  C218  1  0.753800  0.133600  0.640200  1.0  -0.0826
  C  C219  1  0.849300  0.142700  0.654100  1.0  -0.0621
  C  C220  1  0.715700  0.164600  0.529600  1.0  -0.1925
  C  C221  1  0.054600  0.188000  0.592600  1.0  -0.1617
  C  C222  1  0.883300  0.175900  0.557100  1.0  0.1226
  C  C223  1  0.334550  0.417080  0.082030  1.0  0.6564
  C  C224  1  0.234130  0.365170  0.131880  1.0  -0.1411
  C  C225  1  0.228870  0.303700  0.153390  1.0  -0.1329
  C  C226  1  0.139550  0.255250  0.200700  1.0  0.0363
  C  C227  1  0.049000  0.272500  0.223800  1.0  -0.0761
  C  C228  1  0.049000  0.338200  0.201900  1.0  -0.024
  C  C229  1  0.143960  0.383220  0.154640  1.0  -0.0383
  C  C230  1  0.379800  0.133600  0.226200  1.0  -0.0859
  C  C231  1  0.293400  0.142700  0.203200  1.0  -0.0637
  C  C232  1  0.448900  0.164600  0.305800  1.0  -0.19
  C  C233  1  0.133400  0.188000  0.219400  1.0  -0.1624
  C  C234  1  0.292600  0.175900  0.267000  1.0  0.1215
  C  C235  1  0.917470  0.500890  0.417080  1.0  0.6579
  C  C236  1  0.868960  0.502950  0.365170  1.0  -0.1416
  C  C237  1  0.925170  0.542910  0.303700  1.0  -0.134
  C  C238  1  0.884300  0.544050  0.255250  1.0  0.0348
  C  C239  1  0.776500  0.503700  0.272500  1.0  -0.0788
  C  C240  1  0.710800  0.459900  0.338200  1.0  -0.021
  C  C241  1  0.760740  0.462140  0.383220  1.0  -0.0377
  C  C242  1  0.246200  0.640200  0.133600  1.0  -0.0837
  C  C243  1  0.150700  0.654100  0.142700  1.0  -0.0667
  C  C244  1  0.284300  0.529600  0.164600  1.0  -0.1922
  C  C245  1  0.945400  0.592600  0.188000  1.0  -0.1625
  C  C246  1  0.116700  0.557100  0.175900  1.0  0.117
  C  C247  1  0.416580  0.082030  0.500890  1.0  0.6566
  C  C248  1  0.366010  0.131880  0.502950  1.0  -0.1394
  C  C249  1  0.382260  0.153390  0.542910  1.0  -0.1299
  C  C250  1  0.340250  0.200700  0.544050  1.0  0.038
  C  C251  1  0.272800  0.223800  0.503700  1.0  -0.0734
  C  C252  1  0.250900  0.201900  0.459900  1.0  -0.0199
  C  C253  1  0.298600  0.154640  0.462140  1.0  -0.0388
  C  C254  1  0.606000  0.226200  0.640200  1.0  -0.0767
  C  C255  1  0.496600  0.203200  0.654100  1.0  -0.0645
  C  C256  1  0.754700  0.305800  0.529600  1.0  -0.1911
  C  C257  1  0.352800  0.219400  0.592600  1.0  -0.1663
  C  C258  1  0.559600  0.267000  0.557100  1.0  0.1256
  N  N259  1  0.464400  0.399500  0.769700  1.0  -0.0146
  N  N260  1  0.649400  0.423700  0.736900  1.0  -0.0997
  N  N261  1  0.234100  0.769700  0.830800  1.0  -0.0289
  N  N262  1  0.386300  0.736900  0.839400  1.0  -0.1006
  N  N263  1  0.064900  0.830800  0.399500  1.0  -0.0252
  N  N264  1  0.225700  0.839400  0.423700  1.0  -0.1012
  N  N265  1  0.765900  0.830800  0.769700  1.0  -0.0232
  N  N266  1  0.613700  0.839400  0.736900  1.0  -0.1035
  N  N267  1  0.935100  0.399500  0.830800  1.0  -0.0248
  N  N268  1  0.774300  0.423700  0.839400  1.0  -0.1014
  N  N269  1  0.535600  0.769700  0.399500  1.0  -0.0142
  N  N270  1  0.350600  0.736900  0.423700  1.0  -0.1025
  N  N271  1  0.535600  0.600500  0.230300  1.0  -0.0139
  N  N272  1  0.350600  0.576300  0.263100  1.0  -0.1017
  N  N273  1  0.765900  0.230300  0.169200  1.0  -0.0249
  N  N274  1  0.613700  0.263100  0.160600  1.0  -0.1024
  N  N275  1  0.935100  0.169200  0.600500  1.0  -0.0239
  N  N276  1  0.774300  0.160600  0.576300  1.0  -0.1041
  N  N277  1  0.234100  0.169200  0.230300  1.0  -0.0271
  N  N278  1  0.386300  0.160600  0.263100  1.0  -0.1017
  N  N279  1  0.064900  0.600500  0.169200  1.0  -0.0269
  N  N280  1  0.225700  0.576300  0.160600  1.0  -0.1003
  N  N281  1  0.464400  0.230300  0.600500  1.0  -0.0155
  N  N282  1  0.649400  0.263100  0.576300  1.0  -0.1002
  O  O283  1  0.475350  0.461450  0.936500  1.0  -0.5736
  O  O284  1  0.394300  0.536060  0.936260  1.0  -0.5866
  O  O285  1  0.411850  0.936500  0.602050  1.0  -0.5718
  O  O286  1  0.330560  0.936260  0.527680  1.0  -0.5863
  O  O287  1  0.013900  0.602050  0.461450  1.0  -0.5786
  O  O288  1  0.858240  0.527680  0.536060  1.0  -0.5855
  O  O289  1  0.588150  0.602050  0.936500  1.0  -0.5709
  O  O290  1  0.669440  0.527680  0.936260  1.0  -0.5867
  O  O291  1  0.986100  0.461450  0.602050  1.0  -0.5803
  O  O292  1  0.141760  0.536060  0.527680  1.0  -0.5877
  O  O293  1  0.524650  0.936500  0.461450  1.0  -0.5727
  O  O294  1  0.605700  0.936260  0.536060  1.0  -0.5863
  O  O295  1  0.524650  0.538550  0.063500  1.0  -0.5737
  O  O296  1  0.605700  0.463940  0.063740  1.0  -0.5877
  O  O297  1  0.588150  0.063500  0.397950  1.0  -0.5721
  O  O298  1  0.669440  0.063740  0.472320  1.0  -0.5872
  O  O299  1  0.986100  0.397950  0.538550  1.0  -0.5785
  O  O300  1  0.141760  0.472320  0.463940  1.0  -0.5874
  O  O301  1  0.411850  0.397950  0.063500  1.0  -0.5707
  O  O302  1  0.330560  0.472320  0.063740  1.0  -0.5856
  O  O303  1  0.013900  0.538550  0.397950  1.0  -0.5794
  O  O304  1  0.858240  0.463940  0.472320  1.0  -0.5873
  O  O305  1  0.475350  0.063500  0.538550  1.0  -0.5728
  O  O306  1  0.394300  0.063740  0.463940  1.0  -0.5853
