# generated using pymatgen
data_Mn2H6C18O9F8
_symmetry_space_group_name_H-M   'P 1'
_cell_length_a   8.43750000
_cell_length_b   9.74230000
_cell_length_c   19.51200000
_cell_angle_alpha   90.00000000
_cell_angle_beta   90.00000000
_cell_angle_gamma   101.82400000
_symmetry_Int_Tables_number   1
_chemical_formula_structural   Mn2H6C18O9F8
_chemical_formula_sum   'Mn4 H12 C36 O18 F16'
_cell_volume   1569.86710009
_cell_formula_units_Z   2
loop_
 _symmetry_equiv_pos_site_id
 _symmetry_equiv_pos_as_xyz
  1  'x, y, z'
loop_
 _atom_site_type_symbol
 _atom_site_label
 _atom_site_symmetry_multiplicity
 _atom_site_fract_x
 _atom_site_fract_y
 _atom_site_fract_z
 _atom_site_occupancy
 _atom_site_charge
  Mn  Mn1  1  0.278530  0.158820  0.293860  1.0  1.1079
  Mn  Mn2  1  0.640430  0.046380  0.241780  1.0  1.2036
  Mn  Mn3  1  0.721470  0.841180  0.793860  1.0  1.1097
  Mn  Mn4  1  0.359570  0.953620  0.741780  1.0  1.2042
  H  H5  1  0.136600  0.206200  0.330000  1.0  0.2032
  H  H6  1  0.003800  0.407000  0.366800  1.0  0.0479
  H  H7  1  0.992300  0.267800  0.406800  1.0  0.0259
  H  H8  1  0.230700  0.491400  0.406000  1.0  0.1107
  H  H9  1  0.256300  0.345700  0.432500  1.0  0.1126
  H  H10  1  0.126500  0.417500  0.467200  1.0  0.139
  H  H11  1  0.863400  0.793800  0.830000  1.0  0.2054
  H  H12  1  0.996200  0.593000  0.866800  1.0  0.0484
  H  H13  1  0.007700  0.732200  0.906800  1.0  0.0265
  H  H14  1  0.769300  0.508600  0.906000  1.0  0.1111
  H  H15  1  0.743700  0.654300  0.932500  1.0  0.1126
  H  H16  1  0.873500  0.582500  0.967200  1.0  0.1371
  C  C17  1  0.472700  0.183400  0.047200  1.0  0.2026
  C  C18  1  0.520300  0.149100  0.983500  1.0  0.191
  C  C19  1  0.475700  0.014500  0.958700  1.0  -0.2405
  C  C20  1  0.379600  0.918200  0.999400  1.0  0.2025
  C  C21  1  0.330200  0.952900  0.063000  1.0  0.1843
  C  C22  1  0.377200  0.087300  0.088600  1.0  -0.3021
  C  C23  1  0.328900  0.120400  0.160200  1.0  0.7393
  C  C24  1  0.527800  0.976700  0.888200  1.0  0.7681
  C  C25  1  0.869000  0.707500  0.230700  1.0  0.1907
  C  C26  1  0.790700  0.568200  0.229700  1.0  0.2104
  C  C27  1  0.706300  0.506700  0.285100  1.0  -0.2703
  C  C28  1  0.708500  0.589400  0.342700  1.0  0.193
  C  C29  1  0.788600  0.726900  0.344000  1.0  0.1945
  C  C30  1  0.870400  0.788400  0.287500  1.0  -0.2635
  C  C31  1  0.958000  0.942100  0.288800  1.0  0.7578
  C  C32  1  0.613500  0.357000  0.282500  1.0  0.754
  C  C33  1  0.065400  0.337000  0.380100  1.0  0.2566
  C  C34  1  0.178000  0.403000  0.424600  1.0  -0.421
  C  C35  1  0.527300  0.816600  0.547200  1.0  0.204
  C  C36  1  0.479700  0.850900  0.483500  1.0  0.191
  C  C37  1  0.524300  0.985500  0.458700  1.0  -0.2418
  C  C38  1  0.620400  0.081800  0.499400  1.0  0.2027
  C  C39  1  0.669800  0.047100  0.563000  1.0  0.1855
  C  C40  1  0.622800  0.912700  0.588600  1.0  -0.3015
  C  C41  1  0.671100  0.879600  0.660200  1.0  0.7386
  C  C42  1  0.472200  0.023300  0.388200  1.0  0.7688
  C  C43  1  0.131000  0.292500  0.730700  1.0  0.1895
  C  C44  1  0.209300  0.431800  0.729700  1.0  0.2105
  C  C45  1  0.293700  0.493300  0.785100  1.0  -0.2696
  C  C46  1  0.291500  0.410600  0.842700  1.0  0.1938
  C  C47  1  0.211400  0.273100  0.844000  1.0  0.1943
  C  C48  1  0.129600  0.211600  0.787500  1.0  -0.2665
  C  C49  1  0.042000  0.057900  0.788800  1.0  0.7569
  C  C50  1  0.386500  0.643000  0.782500  1.0  0.7547
  C  C51  1  0.934600  0.663000  0.880100  1.0  0.2562
  C  C52  1  0.822000  0.597000  0.924600  1.0  -0.4223
  O  O53  1  0.401500  0.075800  0.208450  1.0  -0.6811
  O  O54  1  0.225800  0.191000  0.169300  1.0  -0.5486
  O  O55  1  0.627200  0.898500  0.887300  1.0  -0.5979
  O  O56  1  0.467900  0.021900  0.838000  1.0  -0.6342
  O  O57  1  0.106000  0.964200  0.296600  1.0  -0.5606
  O  O58  1  0.874900  0.032700  0.281200  1.0  -0.6021
  O  O59  1  0.694200  0.264400  0.272400  1.0  -0.6264
  O  O60  1  0.464600  0.341900  0.290400  1.0  -0.5981
  O  O61  1  0.092400  0.271600  0.321000  1.0  -0.4351
  O  O62  1  0.598500  0.924200  0.708450  1.0  -0.6815
  O  O63  1  0.774200  0.809000  0.669300  1.0  -0.5499
  O  O64  1  0.372800  0.101500  0.387300  1.0  -0.5977
  O  O65  1  0.532100  0.978100  0.338000  1.0  -0.6342
  O  O66  1  0.894000  0.035800  0.796600  1.0  -0.5607
  O  O67  1  0.125100  0.967300  0.781200  1.0  -0.6037
  O  O68  1  0.305800  0.735600  0.772400  1.0  -0.6274
  O  O69  1  0.535400  0.658100  0.790400  1.0  -0.5993
  O  O70  1  0.907600  0.728400  0.821000  1.0  -0.4366
  F  F71  1  0.525000  0.314800  0.069400  1.0  -0.123
  F  F72  1  0.615300  0.247300  0.945400  1.0  -0.1281
  F  F73  1  0.329400  0.785800  0.977200  1.0  -0.1295
  F  F74  1  0.235000  0.854800  0.100900  1.0  -0.118
  F  F75  1  0.943500  0.763900  0.173400  1.0  -0.1317
  F  F76  1  0.791300  0.496800  0.171600  1.0  -0.1312
  F  F77  1  0.632200  0.534900  0.400000  1.0  -0.1252
  F  F78  1  0.787500  0.802000  0.402000  1.0  -0.1255
  F  F79  1  0.475000  0.685200  0.569400  1.0  -0.1228
  F  F80  1  0.384700  0.752700  0.445400  1.0  -0.1285
  F  F81  1  0.670600  0.214200  0.477200  1.0  -0.1281
  F  F82  1  0.765000  0.145200  0.600900  1.0  -0.1173
  F  F83  1  0.056500  0.236100  0.673400  1.0  -0.1332
  F  F84  1  0.208700  0.503200  0.671600  1.0  -0.131
  F  F85  1  0.367800  0.465100  0.900000  1.0  -0.1248
  F  F86  1  0.212500  0.198000  0.902000  1.0  -0.1252
