# generated using pymatgen
data_Zn2H6C18O9F8
_symmetry_space_group_name_H-M   'P 1'
_cell_length_a   8.23360000
_cell_length_b   9.69700000
_cell_length_c   19.40200000
_cell_angle_alpha   90.00000000
_cell_angle_beta   90.00000000
_cell_angle_gamma   101.72700000
_symmetry_Int_Tables_number   1
_chemical_formula_structural   Zn2H6C18O9F8
_chemical_formula_sum   'Zn4 H12 C36 O18 F16'
_cell_volume   1516.74561982
_cell_formula_units_Z   2
loop_
 _symmetry_equiv_pos_site_id
 _symmetry_equiv_pos_as_xyz
  1  'x, y, z'
loop_
 _atom_site_type_symbol
 _atom_site_label
 _atom_site_symmetry_multiplicity
 _atom_site_fract_x
 _atom_site_fract_y
 _atom_site_fract_z
 _atom_site_occupancy
 _atom_site_charge
  Zn  Zn1  1  0.284910  0.157030  0.295880  1.0  1.0704
  Zn  Zn2  1  0.638150  0.053130  0.239750  1.0  1.1222
  Zn  Zn3  1  0.715090  0.842970  0.795880  1.0  1.0797
  Zn  Zn4  1  0.361850  0.946870  0.739750  1.0  1.1233
  H  H5  1  0.148200  0.197700  0.321500  1.0  0.1523
  H  H6  1  0.986800  0.366300  0.379300  1.0  0.0511
  H  H7  1  0.016900  0.225700  0.409400  1.0  0.0237
  H  H8  1  0.211900  0.469500  0.410200  1.0  0.1119
  H  H9  1  0.260300  0.328600  0.433800  1.0  0.1166
  H  H10  1  0.114700  0.381700  0.470500  1.0  0.1531
  H  H11  1  0.851800  0.802300  0.821500  1.0  0.1529
  H  H12  1  0.013200  0.633700  0.879300  1.0  0.0483
  H  H13  1  0.983100  0.774300  0.909400  1.0  0.027
  H  H14  1  0.788100  0.530500  0.910200  1.0  0.1118
  H  H15  1  0.739700  0.671400  0.933800  1.0  0.1182
  H  H16  1  0.885300  0.618300  0.970500  1.0  0.1507
  C  C17  1  0.468900  0.190100  0.045600  1.0  0.2005
  C  C18  1  0.515400  0.153600  0.981600  1.0  0.1923
  C  C19  1  0.471300  0.015900  0.957400  1.0  -0.2663
  C  C20  1  0.378600  0.918400  0.001200  1.0  0.2024
  C  C21  1  0.330700  0.956000  0.065400  1.0  0.1841
  C  C22  1  0.376200  0.092100  0.089500  1.0  -0.3029
  C  C23  1  0.324800  0.133000  0.160300  1.0  0.731
  C  C24  1  0.520600  0.974400  0.886500  1.0  0.7675
  C  C25  1  0.859400  0.712000  0.226000  1.0  0.1904
  C  C26  1  0.782900  0.572400  0.225800  1.0  0.2102
  C  C27  1  0.707300  0.507800  0.284300  1.0  -0.2682
  C  C28  1  0.713500  0.588800  0.342900  1.0  0.2005
  C  C29  1  0.794400  0.729600  0.342800  1.0  0.2032
  C  C30  1  0.867700  0.793400  0.284600  1.0  -0.2952
  C  C31  1  0.958800  0.947300  0.284600  1.0  0.7495
  C  C32  1  0.612700  0.355200  0.282800  1.0  0.7589
  C  C33  1  0.070900  0.310000  0.385400  1.0  0.2642
  C  C34  1  0.170000  0.376000  0.427300  1.0  -0.4311
  C  C35  1  0.531100  0.809900  0.545600  1.0  0.2016
  C  C36  1  0.484600  0.846400  0.481600  1.0  0.1929
  C  C37  1  0.528700  0.984100  0.457400  1.0  -0.2668
  C  C38  1  0.621400  0.081600  0.501200  1.0  0.2027
  C  C39  1  0.669300  0.044000  0.565400  1.0  0.1861
  C  C40  1  0.623800  0.907900  0.589500  1.0  -0.3046
  C  C41  1  0.675200  0.867000  0.660300  1.0  0.7299
  C  C42  1  0.479400  0.025600  0.386500  1.0  0.7693
  C  C43  1  0.140600  0.288000  0.726000  1.0  0.1895
  C  C44  1  0.217100  0.427600  0.725800  1.0  0.2114
  C  C45  1  0.292700  0.492200  0.784300  1.0  -0.2679
  C  C46  1  0.286500  0.411200  0.842900  1.0  0.2017
  C  C47  1  0.205600  0.270400  0.842800  1.0  0.2031
  C  C48  1  0.132300  0.206600  0.784600  1.0  -0.2968
  C  C49  1  0.041200  0.052700  0.784600  1.0  0.749
  C  C50  1  0.387300  0.644800  0.782800  1.0  0.759
  C  C51  1  0.929100  0.690000  0.885400  1.0  0.2646
  C  C52  1  0.830000  0.624000  0.927300  1.0  -0.4316
  O  O53  1  0.393500  0.086500  0.211580  1.0  -0.6883
  O  O54  1  0.219700  0.203800  0.166100  1.0  -0.4794
  O  O55  1  0.627000  0.900500  0.885530  1.0  -0.5837
  O  O56  1  0.450000  0.016900  0.837010  1.0  -0.6213
  O  O57  1  0.109100  0.967200  0.295000  1.0  -0.5449
  O  O58  1  0.876600  0.040500  0.274200  1.0  -0.5779
  O  O59  1  0.695900  0.263800  0.270200  1.0  -0.6036
  O  O60  1  0.461200  0.341100  0.293300  1.0  -0.5876
  O  O61  1  0.102800  0.265300  0.318800  1.0  -0.4171
  O  O62  1  0.606500  0.913500  0.711580  1.0  -0.689
  O  O63  1  0.780300  0.796200  0.666100  1.0  -0.4818
  O  O64  1  0.373000  0.099500  0.385530  1.0  -0.5841
  O  O65  1  0.550000  0.983100  0.337010  1.0  -0.621
  O  O66  1  0.890900  0.032800  0.795000  1.0  -0.5447
  O  O67  1  0.123400  0.959500  0.774200  1.0  -0.578
  O  O68  1  0.304100  0.736200  0.770200  1.0  -0.6036
  O  O69  1  0.538800  0.658900  0.793300  1.0  -0.5899
  O  O70  1  0.897200  0.734700  0.818800  1.0  -0.4184
  F  F71  1  0.518700  0.323800  0.066000  1.0  -0.122
  F  F72  1  0.605700  0.251800  0.940620  1.0  -0.1252
  F  F73  1  0.330100  0.784100  0.980460  1.0  -0.1276
  F  F74  1  0.236400  0.857900  0.105100  1.0  -0.1229
  F  F75  1  0.926300  0.770300  0.166620  1.0  -0.1305
  F  F76  1  0.779500  0.499100  0.167160  1.0  -0.1275
  F  F77  1  0.646200  0.533200  0.401960  1.0  -0.1225
  F  F78  1  0.800300  0.803700  0.401790  1.0  -0.1149
  F  F79  1  0.481300  0.676200  0.566000  1.0  -0.122
  F  F80  1  0.394300  0.748200  0.440620  1.0  -0.1249
  F  F81  1  0.669900  0.215900  0.480460  1.0  -0.1273
  F  F82  1  0.763600  0.142100  0.605100  1.0  -0.1227
  F  F83  1  0.073700  0.229700  0.666667  1.0  -0.1281
  F  F84  1  0.220500  0.500900  0.667160  1.0  -0.1274
  F  F85  1  0.353800  0.466800  0.901960  1.0  -0.1221
  F  F86  1  0.199700  0.196300  0.901790  1.0  -0.1151
