# generated using pymatgen
data_CuH10C14(NO2)2
_symmetry_space_group_name_H-M   'P 1'
_cell_length_a   18.62100000
_cell_length_b   18.62100000
_cell_length_c   25.62830000
_cell_angle_alpha   68.69760000
_cell_angle_beta   68.69760000
_cell_angle_gamma   60.00000000
_symmetry_Int_Tables_number   1
_chemical_formula_structural   CuH10C14(NO2)2
_chemical_formula_sum   'Cu12 H120 C168 N24 O48'
_cell_volume   6985.97666601
_cell_formula_units_Z   12
loop_
 _symmetry_equiv_pos_site_id
 _symmetry_equiv_pos_as_xyz
  1  'x, y, z'
loop_
 _atom_site_type_symbol
 _atom_site_label
 _atom_site_symmetry_multiplicity
 _atom_site_fract_x
 _atom_site_fract_y
 _atom_site_fract_z
 _atom_site_occupancy
 _atom_site_charge
  Cu  Cu1  1  0.687300  0.272520  0.796540  1.0  0.8381
  Cu  Cu2  1  0.272520  0.243640  0.796540  1.0  0.8384
  Cu  Cu3  1  0.243640  0.687300  0.796540  1.0  0.8399
  Cu  Cu4  1  0.812700  0.256360  0.703460  1.0  0.8375
  Cu  Cu5  1  0.227480  0.812700  0.703460  1.0  0.8406
  Cu  Cu6  1  0.256360  0.227480  0.703460  1.0  0.8393
  Cu  Cu7  1  0.312700  0.727480  0.203460  1.0  0.8376
  Cu  Cu8  1  0.727480  0.756360  0.203460  1.0  0.8391
  Cu  Cu9  1  0.756360  0.312700  0.203460  1.0  0.8394
  Cu  Cu10  1  0.187300  0.743640  0.296540  1.0  0.837
  Cu  Cu11  1  0.772520  0.187300  0.296540  1.0  0.8402
  Cu  Cu12  1  0.743640  0.772520  0.296540  1.0  0.8395
  H  H13  1  0.506300  0.521300  0.740200  1.0  0.1071
  H  H14  1  0.486700  0.729700  0.608800  1.0  0.1025
  H  H15  1  0.712700  0.523500  0.611200  1.0  0.1019
  H  H16  1  0.608000  0.726400  0.534100  1.0  0.1839
  H  H17  1  0.750500  0.602400  0.517900  1.0  0.0671
  H  H18  1  0.753700  0.648000  0.559000  1.0  0.0847
  H  H19  1  0.749100  0.668800  0.420100  1.0  0.0966
  H  H20  1  0.733800  0.797500  0.520300  1.0  0.0898
  H  H21  1  0.727300  0.926000  0.433600  1.0  0.1116
  H  H22  1  0.769800  0.887100  0.344500  1.0  0.0747
  H  H23  1  0.521300  0.232200  0.740200  1.0  0.1137
  H  H24  1  0.729700  0.174800  0.608800  1.0  0.1013
  H  H25  1  0.523500  0.152600  0.611200  1.0  0.1019
  H  H26  1  0.726400  0.131500  0.534100  1.0  0.1695
  H  H27  1  0.602400  0.129200  0.517900  1.0  0.0683
  H  H28  1  0.648000  0.039300  0.559000  1.0  0.0839
  H  H29  1  0.668800  0.162000  0.420100  1.0  0.0971
  H  H30  1  0.797500  0.948400  0.520300  1.0  0.0892
  H  H31  1  0.926000  0.913100  0.433600  1.0  0.1135
  H  H32  1  0.887100  0.998600  0.344500  1.0  0.0768
  H  H33  1  0.232200  0.506300  0.740200  1.0  0.1082
  H  H34  1  0.174800  0.486700  0.608800  1.0  0.1025
  H  H35  1  0.152600  0.712700  0.611200  1.0  0.101
  H  H36  1  0.131500  0.608000  0.534100  1.0  0.1851
  H  H37  1  0.129200  0.750500  0.517900  1.0  0.0656
  H  H38  1  0.039300  0.753700  0.559000  1.0  0.0847
  H  H39  1  0.162000  0.749100  0.420100  1.0  0.0962
  H  H40  1  0.948400  0.733800  0.520300  1.0  0.0892
  H  H41  1  0.913100  0.727300  0.433600  1.0  0.115
  H  H42  1  0.998600  0.769800  0.344500  1.0  0.0765
  H  H43  1  0.993700  0.267800  0.759800  1.0  0.1079
  H  H44  1  0.013300  0.325200  0.891200  1.0  0.1023
  H  H45  1  0.787300  0.347400  0.888800  1.0  0.1037
  H  H46  1  0.892000  0.368500  0.965900  1.0  0.1838
  H  H47  1  0.749500  0.370800  0.982100  1.0  0.0662
  H  H48  1  0.746300  0.460700  0.941000  1.0  0.0835
  H  H49  1  0.750900  0.338000  0.079900  1.0  0.0968
  H  H50  1  0.766200  0.551600  0.979700  1.0  0.0885
  H  H51  1  0.772700  0.586900  0.066400  1.0  0.1113
  H  H52  1  0.730200  0.501400  0.155500  1.0  0.0763
  H  H53  1  0.978700  0.993700  0.759800  1.0  0.1077
  H  H54  1  0.770300  0.013300  0.891200  1.0  0.1015
  H  H55  1  0.976500  0.787300  0.888800  1.0  0.102
  H  H56  1  0.773600  0.892000  0.965900  1.0  0.1834
  H  H57  1  0.897600  0.749500  0.982100  1.0  0.0694
  H  H58  1  0.852000  0.746300  0.941000  1.0  0.0845
  H  H59  1  0.831200  0.750900  0.079900  1.0  0.0951
  H  H60  1  0.702500  0.766200  0.979700  1.0  0.0909
  H  H61  1  0.574000  0.772700  0.066400  1.0  0.1127
  H  H62  1  0.612900  0.730200  0.155500  1.0  0.0735
  H  H63  1  0.267800  0.978700  0.759800  1.0  0.114
  H  H64  1  0.325200  0.770300  0.891200  1.0  0.1027
  H  H65  1  0.347400  0.976500  0.888800  1.0  0.1005
  H  H66  1  0.368500  0.773600  0.965900  1.0  0.1837
  H  H67  1  0.370800  0.897600  0.982100  1.0  0.0688
  H  H68  1  0.460700  0.852000  0.941000  1.0  0.0802
  H  H69  1  0.338000  0.831200  0.079900  1.0  0.0966
  H  H70  1  0.551600  0.702500  0.979700  1.0  0.088
  H  H71  1  0.586900  0.574000  0.066400  1.0  0.1145
  H  H72  1  0.501400  0.612900  0.155500  1.0  0.0762
  H  H73  1  0.493700  0.478700  0.259800  1.0  0.1076
  H  H74  1  0.513300  0.270300  0.391200  1.0  0.1026
  H  H75  1  0.287300  0.476500  0.388800  1.0  0.1015
  H  H76  1  0.392000  0.273600  0.465900  1.0  0.184
  H  H77  1  0.249500  0.397600  0.482100  1.0  0.0687
  H  H78  1  0.246300  0.352000  0.441000  1.0  0.0845
  H  H79  1  0.250900  0.331200  0.579900  1.0  0.0959
  H  H80  1  0.266200  0.202500  0.479700  1.0  0.0898
  H  H81  1  0.272700  0.074000  0.566400  1.0  0.1114
  H  H82  1  0.230200  0.112900  0.655500  1.0  0.0747
  H  H83  1  0.478700  0.767800  0.259800  1.0  0.1146
  H  H84  1  0.270300  0.825200  0.391200  1.0  0.1014
  H  H85  1  0.476500  0.847400  0.388800  1.0  0.101
  H  H86  1  0.273600  0.868500  0.465900  1.0  0.1761
  H  H87  1  0.397600  0.870800  0.482100  1.0  0.0672
  H  H88  1  0.352000  0.960700  0.441000  1.0  0.0833
  H  H89  1  0.331200  0.838000  0.579900  1.0  0.0964
  H  H90  1  0.202500  0.051600  0.479700  1.0  0.0889
  H  H91  1  0.074000  0.086900  0.566400  1.0  0.1127
  H  H92  1  0.112900  0.001400  0.655500  1.0  0.0764
  H  H93  1  0.767800  0.493700  0.259800  1.0  0.1072
  H  H94  1  0.825200  0.513300  0.391200  1.0  0.1026
  H  H95  1  0.847400  0.287300  0.388800  1.0  0.1019
  H  H96  1  0.868500  0.392000  0.465900  1.0  0.1838
  H  H97  1  0.870800  0.249500  0.482100  1.0  0.0659
  H  H98  1  0.960700  0.246300  0.441000  1.0  0.0835
  H  H99  1  0.838000  0.250900  0.579900  1.0  0.095
  H  H100  1  0.051600  0.266200  0.479700  1.0  0.0887
  H  H101  1  0.086900  0.272700  0.566400  1.0  0.1132
  H  H102  1  0.001400  0.230200  0.655500  1.0  0.0765
  H  H103  1  0.006300  0.732200  0.240200  1.0  0.1078
  H  H104  1  0.986700  0.674800  0.108800  1.0  0.1022
  H  H105  1  0.212700  0.652600  0.111200  1.0  0.1016
  H  H106  1  0.108000  0.631500  0.034100  1.0  0.1843
  H  H107  1  0.250500  0.629200  0.017900  1.0  0.0665
  H  H108  1  0.253700  0.539300  0.059000  1.0  0.0839
  H  H109  1  0.249100  0.662000  0.920100  1.0  0.0969
  H  H110  1  0.233800  0.448400  0.020300  1.0  0.0889
  H  H111  1  0.227300  0.413100  0.933600  1.0  0.1138
  H  H112  1  0.269800  0.498600  0.844500  1.0  0.0767
  H  H113  1  0.021300  0.006300  0.240200  1.0  0.1073
  H  H114  1  0.229700  0.986700  0.108800  1.0  0.1014
  H  H115  1  0.023500  0.212700  0.111200  1.0  0.1015
  H  H116  1  0.226400  0.108000  0.034100  1.0  0.1842
  H  H117  1  0.102400  0.250500  0.017900  1.0  0.0695
  H  H118  1  0.148000  0.253700  0.059000  1.0  0.0852
  H  H119  1  0.168800  0.249100  0.920100  1.0  0.0948
  H  H120  1  0.297500  0.233800  0.020300  1.0  0.0902
  H  H121  1  0.426000  0.227300  0.933600  1.0  0.1136
  H  H122  1  0.387100  0.269800  0.844500  1.0  0.0736
  H  H123  1  0.732200  0.021300  0.240200  1.0  0.114
  H  H124  1  0.674800  0.229700  0.108800  1.0  0.1024
  H  H125  1  0.652600  0.023500  0.111200  1.0  0.1015
  H  H126  1  0.631500  0.226400  0.034100  1.0  0.1827
  H  H127  1  0.629200  0.102400  0.017900  1.0  0.0663
  H  H128  1  0.539300  0.148000  0.059000  1.0  0.0819
  H  H129  1  0.662000  0.168800  0.920100  1.0  0.096
  H  H130  1  0.448400  0.297500  0.020300  1.0  0.0886
  H  H131  1  0.413100  0.426000  0.933600  1.0  0.1132
  H  H132  1  0.498600  0.387100  0.844500  1.0  0.0764
  C  C133  1  0.668480  0.419360  0.706240  1.0  0.6812
  C  C134  1  0.616960  0.509160  0.679120  1.0  -0.1447
  C  C135  1  0.531270  0.549570  0.704890  1.0  -0.0142
  C  C136  1  0.482620  0.632120  0.678340  1.0  -0.1644
  C  C137  1  0.520360  0.673760  0.627220  1.0  -0.101
  C  C138  1  0.606640  0.634440  0.602680  1.0  0.1924
  C  C139  1  0.654160  0.551560  0.628420  1.0  -0.0889
  C  C140  1  0.391220  0.675320  0.704740  1.0  0.6837
  C  C141  1  0.724950  0.656550  0.530050  1.0  0.0523
  C  C142  1  0.737340  0.725740  0.478480  1.0  0.0958
  C  C143  1  0.744450  0.719650  0.424450  1.0  0.0839
  C  C144  1  0.735100  0.795100  0.483700  1.0  -0.1132
  C  C145  1  0.736490  0.872490  0.430630  1.0  -0.1112
  C  C146  1  0.752470  0.851970  0.379390  1.0  0.1525
  C  C147  1  0.419360  0.205920  0.706240  1.0  0.68
  C  C148  1  0.509160  0.194760  0.679120  1.0  -0.1445
  C  C149  1  0.549570  0.214270  0.704890  1.0  -0.0087
  C  C150  1  0.632120  0.206920  0.678340  1.0  -0.1642
  C  C151  1  0.673760  0.178660  0.627220  1.0  -0.1085
  C  C152  1  0.634440  0.156240  0.602680  1.0  0.1935
  C  C153  1  0.551560  0.165860  0.628420  1.0  -0.0896
  C  C154  1  0.675320  0.228720  0.704740  1.0  0.6846
  C  C155  1  0.656550  0.088450  0.530050  1.0  0.0546
  C  C156  1  0.725740  0.058440  0.478480  1.0  0.0959
  C  C157  1  0.719650  0.111450  0.424450  1.0  0.0818
  C  C158  1  0.795100  0.986100  0.483700  1.0  -0.1162
  C  C159  1  0.872490  0.960390  0.430630  1.0  -0.1076
  C  C160  1  0.851970  0.016170  0.379390  1.0  0.1511
  C  C161  1  0.205920  0.668480  0.706240  1.0  0.6807
  C  C162  1  0.194760  0.616960  0.679120  1.0  -0.147
  C  C163  1  0.214270  0.531270  0.704890  1.0  -0.0185
  C  C164  1  0.206920  0.482620  0.678340  1.0  -0.1618
  C  C165  1  0.178660  0.520360  0.627220  1.0  -0.1041
  C  C166  1  0.156240  0.606640  0.602680  1.0  0.1904
  C  C167  1  0.165860  0.654160  0.628420  1.0  -0.0891
  C  C168  1  0.228720  0.391220  0.704740  1.0  0.6838
  C  C169  1  0.088450  0.724950  0.530050  1.0  0.0511
  C  C170  1  0.058440  0.737340  0.478480  1.0  0.0967
  C  C171  1  0.111450  0.744450  0.424450  1.0  0.0787
  C  C172  1  0.986100  0.735100  0.483700  1.0  -0.1159
  C  C173  1  0.960390  0.736490  0.430630  1.0  -0.1114
  C  C174  1  0.016170  0.752470  0.379390  1.0  0.1534
  C  C175  1  0.831520  0.294080  0.793760  1.0  0.6796
  C  C176  1  0.883040  0.305240  0.820880  1.0  -0.1455
  C  C177  1  0.968730  0.285730  0.795110  1.0  -0.0168
  C  C178  1  0.017380  0.293080  0.821660  1.0  -0.1614
  C  C179  1  0.979640  0.321340  0.872780  1.0  -0.1045
  C  C180  1  0.893360  0.343760  0.897320  1.0  0.1886
  C  C181  1  0.845840  0.334140  0.871580  1.0  -0.0911
  C  C182  1  0.108780  0.271280  0.795260  1.0  0.6839
  C  C183  1  0.775050  0.411550  0.969950  1.0  0.0505
  C  C184  1  0.762660  0.441560  0.021520  1.0  0.0948
  C  C185  1  0.755550  0.388550  0.075550  1.0  0.0808
  C  C186  1  0.764900  0.513900  0.016300  1.0  -0.1198
  C  C187  1  0.763510  0.539610  0.069370  1.0  -0.1092
  C  C188  1  0.747530  0.483830  0.120610  1.0  0.1503
  C  C189  1  0.080640  0.831520  0.793760  1.0  0.6801
  C  C190  1  0.990840  0.883040  0.820880  1.0  -0.144
  C  C191  1  0.950430  0.968730  0.795110  1.0  -0.0134
  C  C192  1  0.867880  0.017380  0.821660  1.0  -0.1631
  C  C193  1  0.826240  0.979640  0.872780  1.0  -0.1018
  C  C194  1  0.865560  0.893360  0.897320  1.0  0.1916
  C  C195  1  0.948440  0.845840  0.871580  1.0  -0.0885
  C  C196  1  0.824680  0.108780  0.795260  1.0  0.6839
  C  C197  1  0.843450  0.775050  0.969950  1.0  0.0524
  C  C198  1  0.774260  0.762660  0.021520  1.0  0.0948
  C  C199  1  0.780350  0.755550  0.075550  1.0  0.0834
  C  C200  1  0.704900  0.764900  0.016300  1.0  -0.1128
  C  C201  1  0.627510  0.763510  0.069370  1.0  -0.111
  C  C202  1  0.648030  0.747530  0.120610  1.0  0.1526
  C  C203  1  0.294080  0.080640  0.793760  1.0  0.6814
  C  C204  1  0.305240  0.990840  0.820880  1.0  -0.1452
  C  C205  1  0.285730  0.950430  0.795110  1.0  -0.0069
  C  C206  1  0.293080  0.867880  0.821660  1.0  -0.1652
  C  C207  1  0.321340  0.826240  0.872780  1.0  -0.1102
  C  C208  1  0.343760  0.865560  0.897320  1.0  0.1933
  C  C209  1  0.334140  0.948440  0.871580  1.0  -0.0904
  C  C210  1  0.271280  0.824680  0.795260  1.0  0.685
  C  C211  1  0.411550  0.843450  0.969950  1.0  0.0512
  C  C212  1  0.441560  0.774260  0.021520  1.0  0.0962
  C  C213  1  0.388550  0.780350  0.075550  1.0  0.0829
  C  C214  1  0.513900  0.704900  0.016300  1.0  -0.1185
  C  C215  1  0.539610  0.627510  0.069370  1.0  -0.1112
  C  C216  1  0.483830  0.648030  0.120610  1.0  0.153
  C  C217  1  0.331520  0.580640  0.293760  1.0  0.6813
  C  C218  1  0.383040  0.490840  0.320880  1.0  -0.1444
  C  C219  1  0.468730  0.450430  0.295110  1.0  -0.0135
  C  C220  1  0.517380  0.367880  0.321660  1.0  -0.1635
  C  C221  1  0.479640  0.326240  0.372780  1.0  -0.1009
  C  C222  1  0.393360  0.365560  0.397320  1.0  0.1913
  C  C223  1  0.345840  0.448440  0.371580  1.0  -0.0904
  C  C224  1  0.608780  0.324680  0.295260  1.0  0.6838
  C  C225  1  0.275050  0.343450  0.469950  1.0  0.0519
  C  C226  1  0.262660  0.274260  0.521520  1.0  0.095
  C  C227  1  0.255550  0.280350  0.575550  1.0  0.0834
  C  C228  1  0.264900  0.204900  0.516300  1.0  -0.1145
  C  C229  1  0.263510  0.127510  0.569370  1.0  -0.1084
  C  C230  1  0.247530  0.148030  0.620610  1.0  0.1531
  C  C231  1  0.580640  0.794080  0.293760  1.0  0.6795
  C  C232  1  0.490840  0.805240  0.320880  1.0  -0.1441
  C  C233  1  0.450430  0.785730  0.295110  1.0  -0.0058
  C  C234  1  0.367880  0.793080  0.321660  1.0  -0.1651
  C  C235  1  0.326240  0.821340  0.372780  1.0  -0.1085
  C  C236  1  0.365560  0.843760  0.397320  1.0  0.1933
  C  C237  1  0.448440  0.834140  0.371580  1.0  -0.089
  C  C238  1  0.324680  0.771280  0.295260  1.0  0.6843
  C  C239  1  0.343450  0.911550  0.469950  1.0  0.0528
  C  C240  1  0.274260  0.941560  0.521520  1.0  0.0961
  C  C241  1  0.280350  0.888550  0.575550  1.0  0.0814
  C  C242  1  0.204900  0.013900  0.516300  1.0  -0.1185
  C  C243  1  0.127510  0.039610  0.569370  1.0  -0.1102
  C  C244  1  0.148030  0.983830  0.620610  1.0  0.1513
  C  C245  1  0.794080  0.331520  0.293760  1.0  0.6803
  C  C246  1  0.805240  0.383040  0.320880  1.0  -0.1468
  C  C247  1  0.785730  0.468730  0.295110  1.0  -0.0183
  C  C248  1  0.793080  0.517380  0.321660  1.0  -0.1608
  C  C249  1  0.821340  0.479640  0.372780  1.0  -0.1056
  C  C250  1  0.843760  0.393360  0.397320  1.0  0.1893
  C  C251  1  0.834140  0.345840  0.371580  1.0  -0.0922
  C  C252  1  0.771280  0.608780  0.295260  1.0  0.6839
  C  C253  1  0.911550  0.275050  0.469950  1.0  0.0489
  C  C254  1  0.941560  0.262660  0.521520  1.0  0.0947
  C  C255  1  0.888550  0.255550  0.575550  1.0  0.0796
  C  C256  1  0.013900  0.264900  0.516300  1.0  -0.1164
  C  C257  1  0.039610  0.263510  0.569370  1.0  -0.1087
  C  C258  1  0.983830  0.247530  0.620610  1.0  0.153
  C  C259  1  0.168480  0.705920  0.206240  1.0  0.6793
  C  C260  1  0.116960  0.694760  0.179120  1.0  -0.145
  C  C261  1  0.031270  0.714270  0.204890  1.0  -0.0185
  C  C262  1  0.982620  0.706920  0.178340  1.0  -0.1628
  C  C263  1  0.020360  0.678660  0.127220  1.0  -0.1027
  C  C264  1  0.106640  0.656240  0.102680  1.0  0.1895
  C  C265  1  0.154160  0.665860  0.128420  1.0  -0.0872
  C  C266  1  0.891220  0.728720  0.204740  1.0  0.6839
  C  C267  1  0.224950  0.588450  0.030050  1.0  0.0519
  C  C268  1  0.237340  0.558440  0.978480  1.0  0.0963
  C  C269  1  0.244450  0.611450  0.924450  1.0  0.0799
  C  C270  1  0.235100  0.486100  0.983700  1.0  -0.1172
  C  C271  1  0.236490  0.460390  0.930630  1.0  -0.1086
  C  C272  1  0.252470  0.516170  0.879390  1.0  0.1517
  C  C273  1  0.919360  0.168480  0.206240  1.0  0.6809
  C  C274  1  0.009160  0.116960  0.179120  1.0  -0.145
  C  C275  1  0.049570  0.031270  0.204890  1.0  -0.0142
  C  C276  1  0.132120  0.982620  0.178340  1.0  -0.1636
  C  C277  1  0.173760  0.020360  0.127220  1.0  -0.1022
  C  C278  1  0.134440  0.106640  0.102680  1.0  0.1928
  C  C279  1  0.051560  0.154160  0.128420  1.0  -0.0875
  C  C280  1  0.175320  0.891220  0.204740  1.0  0.6838
  C  C281  1  0.156550  0.224950  0.030050  1.0  0.0519
  C  C282  1  0.225740  0.237340  0.978480  1.0  0.0943
  C  C283  1  0.219650  0.244450  0.924450  1.0  0.0827
  C  C284  1  0.295100  0.235100  0.983700  1.0  -0.1099
  C  C285  1  0.372490  0.236490  0.930630  1.0  -0.1074
  C  C286  1  0.351970  0.252470  0.879390  1.0  0.1528
  C  C287  1  0.705920  0.919360  0.206240  1.0  0.681
  C  C288  1  0.694760  0.009160  0.179120  1.0  -0.1451
  C  C289  1  0.714270  0.049570  0.204890  1.0  -0.0076
  C  C290  1  0.706920  0.132120  0.178340  1.0  -0.1643
  C  C291  1  0.678660  0.173760  0.127220  1.0  -0.1087
  C  C292  1  0.656240  0.134440  0.102680  1.0  0.1937
  C  C293  1  0.665860  0.051560  0.128420  1.0  -0.0914
  C  C294  1  0.728720  0.175320  0.204740  1.0  0.6843
  C  C295  1  0.588450  0.156550  0.030050  1.0  0.0514
  C  C296  1  0.558440  0.225740  0.978480  1.0  0.0973
  C  C297  1  0.611450  0.219650  0.924450  1.0  0.0827
  C  C298  1  0.486100  0.295100  0.983700  1.0  -0.1172
  C  C299  1  0.460390  0.372490  0.930630  1.0  -0.114
  C  C300  1  0.516170  0.351970  0.879390  1.0  0.1523
  N  N301  1  0.745190  0.786350  0.375730  1.0  -0.3432
  N  N302  1  0.643150  0.678850  0.552550  1.0  -0.3647
  N  N303  1  0.786350  0.092730  0.375730  1.0  -0.3413
  N  N304  1  0.678850  0.125450  0.552550  1.0  -0.3668
  N  N305  1  0.092730  0.745190  0.375730  1.0  -0.3408
  N  N306  1  0.125450  0.643150  0.552550  1.0  -0.3656
  N  N307  1  0.754810  0.407270  0.124270  1.0  -0.343
  N  N308  1  0.856850  0.374550  0.947450  1.0  -0.3651
  N  N309  1  0.713650  0.754810  0.124270  1.0  -0.3442
  N  N310  1  0.821150  0.856850  0.947450  1.0  -0.3647
  N  N311  1  0.407270  0.713650  0.124270  1.0  -0.3419
  N  N312  1  0.374550  0.821150  0.947450  1.0  -0.365
  N  N313  1  0.254810  0.213650  0.624270  1.0  -0.3426
  N  N314  1  0.356850  0.321150  0.447450  1.0  -0.3629
  N  N315  1  0.213650  0.907270  0.624270  1.0  -0.3437
  N  N316  1  0.321150  0.874550  0.447450  1.0  -0.3654
  N  N317  1  0.907270  0.254810  0.624270  1.0  -0.3416
  N  N318  1  0.874550  0.356850  0.447450  1.0  -0.3661
  N  N319  1  0.245190  0.592730  0.875730  1.0  -0.3416
  N  N320  1  0.143150  0.625450  0.052550  1.0  -0.3657
  N  N321  1  0.286350  0.245190  0.875730  1.0  -0.3444
  N  N322  1  0.178850  0.143150  0.052550  1.0  -0.3652
  N  N323  1  0.592730  0.286350  0.875730  1.0  -0.3399
  N  N324  1  0.625450  0.178850  0.052550  1.0  -0.3641
  O  O325  1  0.634860  0.390120  0.757240  1.0  -0.6065
  O  O326  1  0.740570  0.379490  0.677980  1.0  -0.5788
  O  O327  1  0.362890  0.639920  0.754180  1.0  -0.5718
  O  O328  1  0.348210  0.746130  0.675790  1.0  -0.5917
  O  O329  1  0.390120  0.217780  0.757240  1.0  -0.6064
  O  O330  1  0.379490  0.201960  0.677980  1.0  -0.5794
  O  O331  1  0.639920  0.243010  0.754180  1.0  -0.5698
  O  O332  1  0.746130  0.229870  0.675790  1.0  -0.5893
  O  O333  1  0.217780  0.634860  0.757240  1.0  -0.6057
  O  O334  1  0.201960  0.740570  0.677980  1.0  -0.5802
  O  O335  1  0.243010  0.362890  0.754180  1.0  -0.5695
  O  O336  1  0.229870  0.348210  0.675790  1.0  -0.5906
  O  O337  1  0.865140  0.282220  0.742760  1.0  -0.6071
  O  O338  1  0.759430  0.298040  0.822020  1.0  -0.5777
  O  O339  1  0.137110  0.256990  0.745820  1.0  -0.5715
  O  O340  1  0.151790  0.270130  0.824210  1.0  -0.5923
  O  O341  1  0.109880  0.865140  0.742760  1.0  -0.6084
  O  O342  1  0.120510  0.759430  0.822020  1.0  -0.5811
  O  O343  1  0.860080  0.137110  0.745820  1.0  -0.5712
  O  O344  1  0.753870  0.151790  0.824210  1.0  -0.5912
  O  O345  1  0.282220  0.109880  0.742760  1.0  -0.6051
  O  O346  1  0.298040  0.120510  0.822020  1.0  -0.5781
  O  O347  1  0.256990  0.860080  0.745820  1.0  -0.5717
  O  O348  1  0.270130  0.753870  0.824210  1.0  -0.5928
  O  O349  1  0.365140  0.609880  0.242760  1.0  -0.6063
  O  O350  1  0.259430  0.620510  0.322020  1.0  -0.5797
  O  O351  1  0.637110  0.360080  0.245820  1.0  -0.5717
  O  O352  1  0.651790  0.253870  0.324210  1.0  -0.5926
  O  O353  1  0.609880  0.782220  0.242760  1.0  -0.6064
  O  O354  1  0.620510  0.798040  0.322020  1.0  -0.5781
  O  O355  1  0.360080  0.756990  0.245820  1.0  -0.5708
  O  O356  1  0.253870  0.770130  0.324210  1.0  -0.5887
  O  O357  1  0.782220  0.365140  0.242760  1.0  -0.6084
  O  O358  1  0.798040  0.259430  0.322020  1.0  -0.581
  O  O359  1  0.756990  0.637110  0.245820  1.0  -0.5701
  O  O360  1  0.770130  0.651790  0.324210  1.0  -0.5911
  O  O361  1  0.134860  0.717780  0.257240  1.0  -0.6058
  O  O362  1  0.240570  0.701960  0.177980  1.0  -0.5781
  O  O363  1  0.862890  0.743010  0.254180  1.0  -0.5709
  O  O364  1  0.848210  0.729870  0.175790  1.0  -0.5906
  O  O365  1  0.890120  0.134860  0.257240  1.0  -0.6074
  O  O366  1  0.879490  0.240570  0.177980  1.0  -0.5797
  O  O367  1  0.139920  0.862890  0.254180  1.0  -0.5717
  O  O368  1  0.246130  0.848210  0.175790  1.0  -0.591
  O  O369  1  0.717780  0.890120  0.257240  1.0  -0.6065
  O  O370  1  0.701960  0.879490  0.177980  1.0  -0.5781
  O  O371  1  0.743010  0.139920  0.254180  1.0  -0.5707
  O  O372  1  0.729870  0.246130  0.175790  1.0  -0.5927
