# generated using pymatgen
data_Zn2H6C18O9F8
_symmetry_space_group_name_H-M   'P 1'
_cell_length_a   8.24600000
_cell_length_b   9.70500000
_cell_length_c   19.40800000
_cell_angle_alpha   90.00000000
_cell_angle_beta   90.00000000
_cell_angle_gamma   101.79000000
_symmetry_Int_Tables_number   1
_chemical_formula_structural   Zn2H6C18O9F8
_chemical_formula_sum   'Zn4 H12 C36 O18 F16'
_cell_volume   1520.40518531
_cell_formula_units_Z   2
loop_
 _symmetry_equiv_pos_site_id
 _symmetry_equiv_pos_as_xyz
  1  'x, y, z'
loop_
 _atom_site_type_symbol
 _atom_site_label
 _atom_site_symmetry_multiplicity
 _atom_site_fract_x
 _atom_site_fract_y
 _atom_site_fract_z
 _atom_site_occupancy
 _atom_site_charge
  Zn  Zn1  1  0.285270  0.157850  0.482350  1.0  1.1003
  Zn  Zn2  1  0.638070  0.053710  0.426000  1.0  1.1327
  Zn  Zn3  1  0.714730  0.842150  0.982350  1.0  1.0912
  Zn  Zn4  1  0.361930  0.946290  0.926000  1.0  1.1362
  H  H5  1  0.040100  0.200000  0.602100  1.0  0.064
  H  H6  1  0.952300  0.320900  0.577600  1.0  0.079
  H  H7  1  0.140100  0.448700  0.640600  1.0  0.1284
  H  H8  1  0.247200  0.452200  0.573600  1.0  0.1282
  H  H9  1  0.262500  0.345600  0.632700  1.0  0.1171
  H  H10  1  0.208400  0.248500  0.490700  1.0  0.1291
  H  H11  1  0.959900  0.800000  0.102100  1.0  0.069
  H  H12  1  0.047700  0.679100  0.077600  1.0  0.0746
  H  H13  1  0.859900  0.551300  0.140600  1.0  0.1271
  H  H14  1  0.752800  0.547800  0.073600  1.0  0.1283
  H  H15  1  0.737500  0.654400  0.132700  1.0  0.1193
  H  H16  1  0.791600  0.751500  0.990700  1.0  0.1226
  C  C17  1  0.055700  0.287800  0.576700  1.0  0.2075
  C  C18  1  0.187800  0.392700  0.608700  1.0  -0.4047
  C  C19  1  0.480100  0.027000  0.573020  1.0  0.7692
  C  C20  1  0.529400  0.984000  0.643780  1.0  -0.2608
  C  C21  1  0.484900  0.847600  0.667310  1.0  0.187
  C  C22  1  0.531400  0.809000  0.731790  1.0  0.1948
  C  C23  1  0.624200  0.907200  0.775760  1.0  -0.3039
  C  C24  1  0.668100  0.042900  0.752270  1.0  0.1909
  C  C25  1  0.622300  0.081300  0.687680  1.0  0.1827
  C  C26  1  0.675800  0.867100  0.846490  1.0  0.7248
  C  C27  1  0.612900  0.355700  0.468990  1.0  0.7563
  C  C28  1  0.708000  0.508100  0.470710  1.0  -0.2544
  C  C29  1  0.714900  0.590400  0.529710  1.0  0.2046
  C  C30  1  0.794300  0.730700  0.529080  1.0  0.2095
  C  C31  1  0.867900  0.794500  0.470380  1.0  -0.3021
  C  C32  1  0.859600  0.713300  0.411720  1.0  0.2068
  C  C33  1  0.782200  0.573400  0.412110  1.0  0.2053
  C  C34  1  0.958300  0.948500  0.470370  1.0  0.7498
  C  C35  1  0.944300  0.712200  0.076700  1.0  0.2074
  C  C36  1  0.812200  0.607300  0.108700  1.0  -0.404
  C  C37  1  0.519900  0.973000  0.073020  1.0  0.7689
  C  C38  1  0.470600  0.016000  0.143780  1.0  -0.2604
  C  C39  1  0.515100  0.152400  0.167310  1.0  0.1862
  C  C40  1  0.468600  0.191000  0.231790  1.0  0.1938
  C  C41  1  0.375800  0.092800  0.275760  1.0  -0.3021
  C  C42  1  0.331900  0.957100  0.252270  1.0  0.192
  C  C43  1  0.377700  0.918700  0.187680  1.0  0.1811
  C  C44  1  0.324200  0.132900  0.346490  1.0  0.7258
  C  C45  1  0.387100  0.644300  0.968990  1.0  0.7563
  C  C46  1  0.292000  0.491900  0.970710  1.0  -0.2538
  C  C47  1  0.285100  0.409600  0.029710  1.0  0.2045
  C  C48  1  0.205700  0.269300  0.029080  1.0  0.2097
  C  C49  1  0.132100  0.205500  0.970380  1.0  -0.3043
  C  C50  1  0.140400  0.286700  0.911720  1.0  0.2074
  C  C51  1  0.217800  0.426600  0.912110  1.0  0.2063
  C  C52  1  0.041700  0.051500  0.970370  1.0  0.7498
  O  O53  1  0.549400  0.983000  0.523100  1.0  -0.6223
  O  O54  1  0.373100  0.099700  0.572140  1.0  -0.5775
  O  O55  1  0.781800  0.796800  0.852170  1.0  -0.5004
  O  O56  1  0.605700  0.913700  0.898200  1.0  -0.6851
  O  O57  1  0.461300  0.341800  0.479450  1.0  -0.5979
  O  O58  1  0.695500  0.264700  0.456700  1.0  -0.599
  O  O59  1  0.877100  0.041300  0.460350  1.0  -0.5916
  O  O60  1  0.109500  0.967500  0.481330  1.0  -0.5612
  O  O61  1  0.102600  0.265700  0.505670  1.0  -0.4325
  O  O62  1  0.450600  0.017000  0.023100  1.0  -0.6226
  O  O63  1  0.626900  0.900300  0.072140  1.0  -0.5764
  O  O64  1  0.218200  0.203200  0.352170  1.0  -0.4993
  O  O65  1  0.394300  0.086300  0.398200  1.0  -0.6848
  O  O66  1  0.538700  0.658200  0.979450  1.0  -0.5966
  O  O67  1  0.304500  0.735300  0.956700  1.0  -0.5993
  O  O68  1  0.122900  0.958700  0.960350  1.0  -0.5931
  O  O69  1  0.890500  0.032500  0.981330  1.0  -0.5613
  O  O70  1  0.897400  0.734300  0.005670  1.0  -0.4336
  F  F71  1  0.393700  0.748800  0.626760  1.0  -0.116
  F  F72  1  0.480800  0.675300  0.752330  1.0  -0.1174
  F  F73  1  0.764000  0.141100  0.791560  1.0  -0.1238
  F  F74  1  0.670400  0.215900  0.667210  1.0  -0.1213
  F  F75  1  0.645600  0.534400  0.588440  1.0  -0.1131
  F  F76  1  0.800100  0.805100  0.588110  1.0  -0.1171
  F  F77  1  0.926000  0.771500  0.352820  1.0  -0.1328
  F  F78  1  0.779600  0.499400  0.353300  1.0  -0.129
  F  F79  1  0.606300  0.251200  0.126760  1.0  -0.1147
  F  F80  1  0.519200  0.324700  0.252330  1.0  -0.1163
  F  F81  1  0.236000  0.858900  0.291560  1.0  -0.1244
  F  F82  1  0.329600  0.784100  0.167210  1.0  -0.1229
  F  F83  1  0.354400  0.465600  0.088440  1.0  -0.1129
  F  F84  1  0.199900  0.194900  0.088110  1.0  -0.1173
  F  F85  1  0.074000  0.228500  0.852820  1.0  -0.1323
  F  F86  1  0.220400  0.500600  0.853300  1.0  -0.1292
