# generated using pymatgen
data_DyH9C16O7
_symmetry_space_group_name_H-M   'P 1'
_cell_length_a   18.95840000
_cell_length_b   18.95840000
_cell_length_c   18.95840000
_cell_angle_alpha   62.93120000
_cell_angle_beta   62.93120000
_cell_angle_gamma   62.93120000
_symmetry_Int_Tables_number   1
_chemical_formula_structural   DyH9C16O7
_chemical_formula_sum   'Dy6 H54 C96 O42'
_cell_volume   5131.96887479
_cell_formula_units_Z   6
loop_
 _symmetry_equiv_pos_site_id
 _symmetry_equiv_pos_as_xyz
  1  'x, y, z'
loop_
 _atom_site_type_symbol
 _atom_site_label
 _atom_site_symmetry_multiplicity
 _atom_site_fract_x
 _atom_site_fract_y
 _atom_site_fract_z
 _atom_site_occupancy
 _atom_site_charge
  Dy  Dy1  1  0.995680  0.566380  0.559460  1.0  2.2557
  Dy  Dy2  1  0.559460  0.995680  0.566380  1.0  2.2492
  Dy  Dy3  1  0.566380  0.559460  0.995680  1.0  2.2564
  Dy  Dy4  1  0.004320  0.433620  0.440540  1.0  2.2557
  Dy  Dy5  1  0.440540  0.004320  0.433620  1.0  2.2469
  Dy  Dy6  1  0.433620  0.440540  0.004320  1.0  2.2585
  H  H7  1  0.772600  0.762600  0.483900  1.0  0.1055
  H  H8  1  0.606200  0.839500  0.369700  1.0  0.1174
  H  H9  1  0.802900  0.632900  0.348400  1.0  0.1126
  H  H10  1  0.321200  0.579200  0.633200  1.0  0.0802
  H  H11  1  0.248700  0.559000  0.579500  1.0  0.1024
  H  H12  1  0.053700  0.582700  0.776900  1.0  0.1023
  H  H13  1  0.130500  0.607000  0.828200  1.0  0.1134
  H  H14  1  0.221600  0.642800  0.821900  1.0  0.1444
  H  H15  1  0.301300  0.562800  0.813800  1.0  0.132
  H  H16  1  0.483900  0.772600  0.762600  1.0  0.1061
  H  H17  1  0.369700  0.606200  0.839500  1.0  0.1179
  H  H18  1  0.348400  0.802900  0.632900  1.0  0.1139
  H  H19  1  0.633200  0.321200  0.579200  1.0  0.0798
  H  H20  1  0.579500  0.248700  0.559000  1.0  0.1015
  H  H21  1  0.776900  0.053700  0.582700  1.0  0.1009
  H  H22  1  0.828200  0.130500  0.607000  1.0  0.1135
  H  H23  1  0.821900  0.221600  0.642800  1.0  0.1436
  H  H24  1  0.813800  0.301300  0.562800  1.0  0.1314
  H  H25  1  0.762600  0.483900  0.772600  1.0  0.1065
  H  H26  1  0.839500  0.369700  0.606200  1.0  0.1172
  H  H27  1  0.632900  0.348400  0.802900  1.0  0.1132
  H  H28  1  0.579200  0.633200  0.321200  1.0  0.0805
  H  H29  1  0.559000  0.579500  0.248700  1.0  0.1014
  H  H30  1  0.582700  0.776900  0.053700  1.0  0.1014
  H  H31  1  0.607000  0.828200  0.130500  1.0  0.1143
  H  H32  1  0.642800  0.821900  0.221600  1.0  0.1429
  H  H33  1  0.562800  0.813800  0.301300  1.0  0.132
  H  H34  1  0.227400  0.237400  0.516100  1.0  0.1062
  H  H35  1  0.393800  0.160500  0.630300  1.0  0.1182
  H  H36  1  0.197100  0.367100  0.651600  1.0  0.1135
  H  H37  1  0.678800  0.420800  0.366800  1.0  0.0787
  H  H38  1  0.751300  0.441000  0.420500  1.0  0.1026
  H  H39  1  0.946300  0.417300  0.223100  1.0  0.1017
  H  H40  1  0.869500  0.393000  0.171800  1.0  0.1128
  H  H41  1  0.778400  0.357200  0.178100  1.0  0.1409
  H  H42  1  0.698700  0.437200  0.186200  1.0  0.1323
  H  H43  1  0.516100  0.227400  0.237400  1.0  0.1063
  H  H44  1  0.630300  0.393800  0.160500  1.0  0.1181
  H  H45  1  0.651600  0.197100  0.367100  1.0  0.1141
  H  H46  1  0.366800  0.678800  0.420800  1.0  0.0803
  H  H47  1  0.420500  0.751300  0.441000  1.0  0.1023
  H  H48  1  0.223100  0.946300  0.417300  1.0  0.1003
  H  H49  1  0.171800  0.869500  0.393000  1.0  0.1133
  H  H50  1  0.178100  0.778400  0.357200  1.0  0.141
  H  H51  1  0.186200  0.698700  0.437200  1.0  0.132
  H  H52  1  0.237400  0.516100  0.227400  1.0  0.1068
  H  H53  1  0.160500  0.630300  0.393800  1.0  0.1169
  H  H54  1  0.367100  0.651600  0.197100  1.0  0.1129
  H  H55  1  0.420800  0.366800  0.678800  1.0  0.0812
  H  H56  1  0.441000  0.420500  0.751300  1.0  0.1022
  H  H57  1  0.417300  0.223100  0.946300  1.0  0.1009
  H  H58  1  0.393000  0.171800  0.869500  1.0  0.114
  H  H59  1  0.357200  0.178100  0.778400  1.0  0.1452
  H  H60  1  0.437200  0.186200  0.698700  1.0  0.1324
  C  C61  1  0.879200  0.624200  0.440100  1.0  0.7237
  C  C62  1  0.801600  0.688800  0.417400  1.0  -0.1611
  C  C63  1  0.755290  0.755990  0.449290  1.0  -0.014
  C  C64  1  0.684620  0.811720  0.429520  1.0  -0.1271
  C  C65  1  0.636540  0.882640  0.464940  1.0  0.7243
  C  C66  1  0.655900  0.802400  0.380500  1.0  -0.1521
  C  C67  1  0.702400  0.737200  0.347300  1.0  0.1846
  C  C68  1  0.774000  0.678600  0.367900  1.0  -0.0633
  C  C69  1  0.234200  0.594200  0.735200  1.0  0.1114
  C  C70  1  0.265900  0.581200  0.663400  1.0  -0.1354
  C  C71  1  0.222200  0.570400  0.630000  1.0  -0.1491
  C  C72  1  0.141200  0.576300  0.669700  1.0  -0.0783
  C  C73  1  0.089600  0.571400  0.631100  1.0  0.6823
  C  C74  1  0.107700  0.584800  0.745100  1.0  -0.0907
  C  C75  1  0.155400  0.597000  0.777000  1.0  -0.1426
  C  C76  1  0.266400  0.613100  0.783700  1.0  -0.088
  C  C77  1  0.440100  0.879200  0.624200  1.0  0.7253
  C  C78  1  0.417400  0.801600  0.688800  1.0  -0.1591
  C  C79  1  0.449290  0.755290  0.755990  1.0  -0.0153
  C  C80  1  0.429520  0.684620  0.811720  1.0  -0.1241
  C  C81  1  0.464940  0.636540  0.882640  1.0  0.7262
  C  C82  1  0.380500  0.655900  0.802400  1.0  -0.1534
  C  C83  1  0.347300  0.702400  0.737200  1.0  0.1841
  C  C84  1  0.367900  0.774000  0.678600  1.0  -0.0645
  C  C85  1  0.735200  0.234200  0.594200  1.0  0.1094
  C  C86  1  0.663400  0.265900  0.581200  1.0  -0.1383
  C  C87  1  0.630000  0.222200  0.570400  1.0  -0.1488
  C  C88  1  0.669700  0.141200  0.576300  1.0  -0.0773
  C  C89  1  0.631100  0.089600  0.571400  1.0  0.6803
  C  C90  1  0.745100  0.107700  0.584800  1.0  -0.0904
  C  C91  1  0.777000  0.155400  0.597000  1.0  -0.1447
  C  C92  1  0.783700  0.266400  0.613100  1.0  -0.0882
  C  C93  1  0.624200  0.440100  0.879200  1.0  0.7279
  C  C94  1  0.688800  0.417400  0.801600  1.0  -0.1589
  C  C95  1  0.755990  0.449290  0.755290  1.0  -0.0156
  C  C96  1  0.811720  0.429520  0.684620  1.0  -0.1235
  C  C97  1  0.882640  0.464940  0.636540  1.0  0.7186
  C  C98  1  0.802400  0.380500  0.655900  1.0  -0.1522
  C  C99  1  0.737200  0.347300  0.702400  1.0  0.1869
  C  C100  1  0.678600  0.367900  0.774000  1.0  -0.0645
  C  C101  1  0.594200  0.735200  0.234200  1.0  0.1099
  C  C102  1  0.581200  0.663400  0.265900  1.0  -0.1322
  C  C103  1  0.570400  0.630000  0.222200  1.0  -0.15
  C  C104  1  0.576300  0.669700  0.141200  1.0  -0.0763
  C  C105  1  0.571400  0.631100  0.089600  1.0  0.6839
  C  C106  1  0.584800  0.745100  0.107700  1.0  -0.0923
  C  C107  1  0.597000  0.777000  0.155400  1.0  -0.1456
  C  C108  1  0.613100  0.783700  0.266400  1.0  -0.0872
  C  C109  1  0.120800  0.375800  0.559900  1.0  0.7253
  C  C110  1  0.198400  0.311200  0.582600  1.0  -0.1621
  C  C111  1  0.244710  0.244010  0.550710  1.0  -0.0144
  C  C112  1  0.315380  0.188280  0.570480  1.0  -0.1264
  C  C113  1  0.363460  0.117360  0.535060  1.0  0.7236
  C  C114  1  0.344100  0.197600  0.619500  1.0  -0.151
  C  C115  1  0.297600  0.262800  0.652700  1.0  0.1845
  C  C116  1  0.226000  0.321400  0.632100  1.0  -0.064
  C  C117  1  0.765800  0.405800  0.264800  1.0  0.1092
  C  C118  1  0.734100  0.418800  0.336600  1.0  -0.1379
  C  C119  1  0.777800  0.429600  0.370000  1.0  -0.1479
  C  C120  1  0.858800  0.423700  0.330300  1.0  -0.0769
  C  C121  1  0.910400  0.428600  0.368900  1.0  0.683
  C  C122  1  0.892300  0.415200  0.254900  1.0  -0.0864
  C  C123  1  0.844600  0.403000  0.223000  1.0  -0.1402
  C  C124  1  0.733600  0.386900  0.216300  1.0  -0.0872
  C  C125  1  0.559900  0.120800  0.375800  1.0  0.7259
  C  C126  1  0.582600  0.198400  0.311200  1.0  -0.1608
  C  C127  1  0.550710  0.244710  0.244010  1.0  -0.0146
  C  C128  1  0.570480  0.315380  0.188280  1.0  -0.1242
  C  C129  1  0.535060  0.363460  0.117360  1.0  0.7267
  C  C130  1  0.619500  0.344100  0.197600  1.0  -0.1541
  C  C131  1  0.652700  0.297600  0.262800  1.0  0.1853
  C  C132  1  0.632100  0.226000  0.321400  1.0  -0.0642
  C  C133  1  0.264800  0.765800  0.405800  1.0  0.1114
  C  C134  1  0.336600  0.734100  0.418800  1.0  -0.1373
  C  C135  1  0.370000  0.777800  0.429600  1.0  -0.1493
  C  C136  1  0.330300  0.858800  0.423700  1.0  -0.0752
  C  C137  1  0.368900  0.910400  0.428600  1.0  0.679
  C  C138  1  0.254900  0.892300  0.415200  1.0  -0.0878
  C  C139  1  0.223000  0.844600  0.403000  1.0  -0.1454
  C  C140  1  0.216300  0.733600  0.386900  1.0  -0.0879
  C  C141  1  0.375800  0.559900  0.120800  1.0  0.727
  C  C142  1  0.311200  0.582600  0.198400  1.0  -0.159
  C  C143  1  0.244010  0.550710  0.244710  1.0  -0.0156
  C  C144  1  0.188280  0.570480  0.315380  1.0  -0.1236
  C  C145  1  0.117360  0.535060  0.363460  1.0  0.7176
  C  C146  1  0.197600  0.619500  0.344100  1.0  -0.1518
  C  C147  1  0.262800  0.652700  0.297600  1.0  0.1863
  C  C148  1  0.321400  0.632100  0.226000  1.0  -0.064
  C  C149  1  0.405800  0.264800  0.765800  1.0  0.1097
  C  C150  1  0.418800  0.336600  0.734100  1.0  -0.1321
  C  C151  1  0.429600  0.370000  0.777800  1.0  -0.1531
  C  C152  1  0.423700  0.330300  0.858800  1.0  -0.0759
  C  C153  1  0.428600  0.368900  0.910400  1.0  0.6838
  C  C154  1  0.415200  0.254900  0.892300  1.0  -0.0917
  C  C155  1  0.403000  0.223000  0.844600  1.0  -0.1484
  C  C156  1  0.386900  0.216300  0.733600  1.0  -0.087
  O  O157  1  0.895170  0.631870  0.493770  1.0  -0.7319
  O  O158  1  0.919850  0.569250  0.405950  1.0  -0.6625
  O  O159  1  0.118250  0.578250  0.554950  1.0  -0.6201
  O  O160  1  0.019930  0.561030  0.674630  1.0  -0.6529
  O  O161  1  0.567180  0.928580  0.453980  1.0  -0.782
  O  O162  1  0.664600  0.892400  0.507400  1.0  -0.6291
  O  O163  1  0.668700  0.707500  0.317400  1.0  -0.4122
  O  O164  1  0.493770  0.895170  0.631870  1.0  -0.7287
  O  O165  1  0.405950  0.919850  0.569250  1.0  -0.6658
  O  O166  1  0.554950  0.118250  0.578250  1.0  -0.6165
  O  O167  1  0.674630  0.019930  0.561030  1.0  -0.6509
  O  O168  1  0.453980  0.567180  0.928580  1.0  -0.7832
  O  O169  1  0.507400  0.664600  0.892400  1.0  -0.6283
  O  O170  1  0.317400  0.668700  0.707500  1.0  -0.4084
  O  O171  1  0.631870  0.493770  0.895170  1.0  -0.7351
  O  O172  1  0.569250  0.405950  0.919850  1.0  -0.6614
  O  O173  1  0.578250  0.554950  0.118250  1.0  -0.6231
  O  O174  1  0.561030  0.674630  0.019930  1.0  -0.6553
  O  O175  1  0.928580  0.453980  0.567180  1.0  -0.78
  O  O176  1  0.892400  0.507400  0.664600  1.0  -0.6234
  O  O177  1  0.707500  0.317400  0.668700  1.0  -0.4132
  O  O178  1  0.104830  0.368130  0.506230  1.0  -0.7306
  O  O179  1  0.080150  0.430750  0.594050  1.0  -0.6617
  O  O180  1  0.881750  0.421750  0.445050  1.0  -0.6188
  O  O181  1  0.980070  0.438970  0.325370  1.0  -0.6506
  O  O182  1  0.432820  0.071420  0.546020  1.0  -0.7819
  O  O183  1  0.335400  0.107600  0.492600  1.0  -0.627
  O  O184  1  0.331300  0.292500  0.682600  1.0  -0.4162
  O  O185  1  0.506230  0.104830  0.368130  1.0  -0.7306
  O  O186  1  0.594050  0.080150  0.430750  1.0  -0.6654
  O  O187  1  0.445050  0.881750  0.421750  1.0  -0.6184
  O  O188  1  0.325370  0.980070  0.438970  1.0  -0.6482
  O  O189  1  0.546020  0.432820  0.071420  1.0  -0.7831
  O  O190  1  0.492600  0.335400  0.107600  1.0  -0.629
  O  O191  1  0.682600  0.331300  0.292500  1.0  -0.4119
  O  O192  1  0.368130  0.506230  0.104830  1.0  -0.7338
  O  O193  1  0.430750  0.594050  0.080150  1.0  -0.6615
  O  O194  1  0.421750  0.445050  0.881750  1.0  -0.6236
  O  O195  1  0.438970  0.325370  0.980070  1.0  -0.6547
  O  O196  1  0.071420  0.546020  0.432820  1.0  -0.7824
  O  O197  1  0.107600  0.492600  0.335400  1.0  -0.6246
  O  O198  1  0.292500  0.682600  0.331300  1.0  -0.4155
