# generated using pymatgen
data_ErH9C16O7
_symmetry_space_group_name_H-M   'P 1'
_cell_length_a   18.82260000
_cell_length_b   18.82260000
_cell_length_c   18.82260000
_cell_angle_alpha   62.89810000
_cell_angle_beta   62.89810000
_cell_angle_gamma   62.89810000
_symmetry_Int_Tables_number   1
_chemical_formula_structural   ErH9C16O7
_chemical_formula_sum   'Er6 H54 C96 O42'
_cell_volume   5019.08572148
_cell_formula_units_Z   6
loop_
 _symmetry_equiv_pos_site_id
 _symmetry_equiv_pos_as_xyz
  1  'x, y, z'
loop_
 _atom_site_type_symbol
 _atom_site_label
 _atom_site_symmetry_multiplicity
 _atom_site_fract_x
 _atom_site_fract_y
 _atom_site_fract_z
 _atom_site_occupancy
 _atom_site_charge
  Er  Er1  1  0.995560  0.559320  0.566280  1.0  1.49
  Er  Er2  1  0.566280  0.995560  0.559320  1.0  1.4913
  Er  Er3  1  0.559320  0.566280  0.995560  1.0  1.4916
  Er  Er4  1  0.004440  0.440680  0.433720  1.0  1.4909
  Er  Er5  1  0.433720  0.004440  0.440680  1.0  1.4909
  Er  Er6  1  0.440680  0.433720  0.004440  1.0  1.4913
  H  H7  1  0.225000  0.518100  0.235900  1.0  0.1157
  H  H8  1  0.389900  0.637300  0.155200  1.0  0.1149
  H  H9  1  0.194300  0.655300  0.365800  1.0  0.1283
  H  H10  1  0.439900  0.667000  0.228200  1.0  0.0773
  H  H11  1  0.396400  0.750300  0.167700  1.0  0.0847
  H  H12  1  0.394100  0.879300  0.165800  1.0  0.1167
  H  H13  1  0.404800  0.954700  0.226100  1.0  0.0964
  H  H14  1  0.439000  0.753000  0.421200  1.0  0.1058
  H  H15  1  0.433800  0.675600  0.358300  1.0  0.1095
  H  H16  1  0.235900  0.225000  0.518100  1.0  0.1163
  H  H17  1  0.155200  0.389900  0.637300  1.0  0.1141
  H  H18  1  0.365800  0.194300  0.655300  1.0  0.1279
  H  H19  1  0.228200  0.439900  0.667000  1.0  0.0772
  H  H20  1  0.167700  0.396400  0.750300  1.0  0.0834
  H  H21  1  0.165800  0.394100  0.879300  1.0  0.1186
  H  H22  1  0.226100  0.404800  0.954700  1.0  0.0967
  H  H23  1  0.421200  0.439000  0.753000  1.0  0.1046
  H  H24  1  0.358300  0.433800  0.675600  1.0  0.1118
  H  H25  1  0.518100  0.235900  0.225000  1.0  0.1167
  H  H26  1  0.637300  0.155200  0.389900  1.0  0.1142
  H  H27  1  0.655300  0.365800  0.194300  1.0  0.1264
  H  H28  1  0.667000  0.228200  0.439900  1.0  0.077
  H  H29  1  0.750300  0.167700  0.396400  1.0  0.0822
  H  H30  1  0.879300  0.165800  0.394100  1.0  0.1161
  H  H31  1  0.954700  0.226100  0.404800  1.0  0.0966
  H  H32  1  0.753000  0.421200  0.439000  1.0  0.1057
  H  H33  1  0.675600  0.358300  0.433800  1.0  0.1107
  H  H34  1  0.775000  0.481900  0.764100  1.0  0.116
  H  H35  1  0.610100  0.362700  0.844800  1.0  0.1151
  H  H36  1  0.805700  0.344700  0.634200  1.0  0.129
  H  H37  1  0.560100  0.333000  0.771800  1.0  0.0774
  H  H38  1  0.603600  0.249700  0.832300  1.0  0.0838
  H  H39  1  0.605900  0.120700  0.834200  1.0  0.1167
  H  H40  1  0.595200  0.045300  0.773900  1.0  0.0964
  H  H41  1  0.561000  0.247000  0.578800  1.0  0.1054
  H  H42  1  0.566200  0.324400  0.641700  1.0  0.1097
  H  H43  1  0.764100  0.775000  0.481900  1.0  0.1159
  H  H44  1  0.844800  0.610100  0.362700  1.0  0.1141
  H  H45  1  0.634200  0.805700  0.344700  1.0  0.1278
  H  H46  1  0.771800  0.560100  0.333000  1.0  0.0773
  H  H47  1  0.832300  0.603600  0.249700  1.0  0.0861
  H  H48  1  0.834200  0.605900  0.120700  1.0  0.1185
  H  H49  1  0.773900  0.595200  0.045300  1.0  0.0971
  H  H50  1  0.578800  0.561000  0.247000  1.0  0.1045
  H  H51  1  0.641700  0.566200  0.324400  1.0  0.1106
  H  H52  1  0.481900  0.764100  0.775000  1.0  0.1166
  H  H53  1  0.362700  0.844800  0.610100  1.0  0.1134
  H  H54  1  0.344700  0.634200  0.805700  1.0  0.1265
  H  H55  1  0.333000  0.771800  0.560100  1.0  0.0767
  H  H56  1  0.249700  0.832300  0.603600  1.0  0.0836
  H  H57  1  0.120700  0.834200  0.605900  1.0  0.1169
  H  H58  1  0.045300  0.773900  0.595200  1.0  0.0973
  H  H59  1  0.247000  0.578800  0.561000  1.0  0.1046
  H  H60  1  0.324400  0.641700  0.566200  1.0  0.111
  C  C61  1  0.119560  0.560960  0.375160  1.0  0.734
  C  C62  1  0.196520  0.585420  0.310220  1.0  -0.1255
  C  C63  1  0.243020  0.552420  0.242720  1.0  0.0092
  C  C64  1  0.315640  0.571440  0.186840  1.0  -0.1005
  C  C65  1  0.341790  0.623390  0.194390  1.0  -0.1526
  C  C66  1  0.295410  0.655510  0.262110  1.0  0.2674
  C  C67  1  0.223840  0.635040  0.320040  1.0  -0.1197
  C  C68  1  0.395300  0.720400  0.225700  1.0  0.0793
  C  C69  1  0.406700  0.770700  0.259400  1.0  0.0451
  C  C70  1  0.402200  0.853200  0.218300  1.0  -0.1425
  C  C71  1  0.409400  0.898100  0.254400  1.0  -0.0253
  C  C72  1  0.422820  0.862720  0.328620  1.0  -0.1227
  C  C73  1  0.428210  0.911610  0.368810  1.0  0.687
  C  C74  1  0.430300  0.779000  0.369100  1.0  -0.0427
  C  C75  1  0.424800  0.733100  0.332300  1.0  -0.1392
  C  C76  1  0.363510  0.535010  0.117410  1.0  0.7079
  C  C77  1  0.375160  0.119560  0.560960  1.0  0.7337
  C  C78  1  0.310220  0.196520  0.585420  1.0  -0.1257
  C  C79  1  0.242720  0.243020  0.552420  1.0  0.0105
  C  C80  1  0.186840  0.315640  0.571440  1.0  -0.1013
  C  C81  1  0.194390  0.341790  0.623390  1.0  -0.1557
  C  C82  1  0.262110  0.295410  0.655510  1.0  0.2687
  C  C83  1  0.320040  0.223840  0.635040  1.0  -0.1186
  C  C84  1  0.225700  0.395300  0.720400  1.0  0.0786
  C  C85  1  0.259400  0.406700  0.770700  1.0  0.0461
  C  C86  1  0.218300  0.402200  0.853200  1.0  -0.1364
  C  C87  1  0.254400  0.409400  0.898100  1.0  -0.0241
  C  C88  1  0.328620  0.422820  0.862720  1.0  -0.1212
  C  C89  1  0.368810  0.428210  0.911610  1.0  0.6901
  C  C90  1  0.369100  0.430300  0.779000  1.0  -0.043
  C  C91  1  0.332300  0.424800  0.733100  1.0  -0.14
  C  C92  1  0.117410  0.363510  0.535010  1.0  0.703
  C  C93  1  0.560960  0.375160  0.119560  1.0  0.7333
  C  C94  1  0.585420  0.310220  0.196520  1.0  -0.1233
  C  C95  1  0.552420  0.242720  0.243020  1.0  0.0089
  C  C96  1  0.571440  0.186840  0.315640  1.0  -0.0965
  C  C97  1  0.623390  0.194390  0.341790  1.0  -0.1512
  C  C98  1  0.655510  0.262110  0.295410  1.0  0.2683
  C  C99  1  0.635040  0.320040  0.223840  1.0  -0.1179
  C  C100  1  0.720400  0.225700  0.395300  1.0  0.0779
  C  C101  1  0.770700  0.259400  0.406700  1.0  0.0451
  C  C102  1  0.853200  0.218300  0.402200  1.0  -0.1406
  C  C103  1  0.898100  0.254400  0.409400  1.0  -0.0223
  C  C104  1  0.862720  0.328620  0.422820  1.0  -0.1242
  C  C105  1  0.911610  0.368810  0.428210  1.0  0.6927
  C  C106  1  0.779000  0.369100  0.430300  1.0  -0.044
  C  C107  1  0.733100  0.332300  0.424800  1.0  -0.1421
  C  C108  1  0.535010  0.117410  0.363510  1.0  0.702
  C  C109  1  0.880440  0.439040  0.624840  1.0  0.7332
  C  C110  1  0.803480  0.414580  0.689780  1.0  -0.1245
  C  C111  1  0.756980  0.447580  0.757280  1.0  0.0078
  C  C112  1  0.684360  0.428560  0.813160  1.0  -0.0995
  C  C113  1  0.658210  0.376610  0.805610  1.0  -0.1549
  C  C114  1  0.704590  0.344490  0.737890  1.0  0.2667
  C  C115  1  0.776160  0.364960  0.679960  1.0  -0.1186
  C  C116  1  0.604700  0.279600  0.774300  1.0  0.0782
  C  C117  1  0.593300  0.229300  0.740600  1.0  0.0458
  C  C118  1  0.597800  0.146800  0.781700  1.0  -0.1412
  C  C119  1  0.590600  0.101900  0.745600  1.0  -0.0248
  C  C120  1  0.577180  0.137280  0.671380  1.0  -0.1228
  C  C121  1  0.571790  0.088390  0.631190  1.0  0.6859
  C  C122  1  0.569700  0.221000  0.630900  1.0  -0.0419
  C  C123  1  0.575200  0.266900  0.667700  1.0  -0.1399
  C  C124  1  0.636490  0.464990  0.882590  1.0  0.7058
  C  C125  1  0.624840  0.880440  0.439040  1.0  0.7348
  C  C126  1  0.689780  0.803480  0.414580  1.0  -0.1254
  C  C127  1  0.757280  0.756980  0.447580  1.0  0.009
  C  C128  1  0.813160  0.684360  0.428560  1.0  -0.1025
  C  C129  1  0.805610  0.658210  0.376610  1.0  -0.1541
  C  C130  1  0.737890  0.704590  0.344490  1.0  0.2681
  C  C131  1  0.679960  0.776160  0.364960  1.0  -0.1163
  C  C132  1  0.774300  0.604700  0.279600  1.0  0.0783
  C  C133  1  0.740600  0.593300  0.229300  1.0  0.0452
  C  C134  1  0.781700  0.597800  0.146800  1.0  -0.1369
  C  C135  1  0.745600  0.590600  0.101900  1.0  -0.0256
  C  C136  1  0.671380  0.577180  0.137280  1.0  -0.1221
  C  C137  1  0.631190  0.571790  0.088390  1.0  0.6927
  C  C138  1  0.630900  0.569700  0.221000  1.0  -0.0434
  C  C139  1  0.667700  0.575200  0.266900  1.0  -0.1427
  C  C140  1  0.882590  0.636490  0.464990  1.0  0.7019
  C  C141  1  0.439040  0.624840  0.880440  1.0  0.7326
  C  C142  1  0.414580  0.689780  0.803480  1.0  -0.1229
  C  C143  1  0.447580  0.757280  0.756980  1.0  0.0079
  C  C144  1  0.428560  0.813160  0.684360  1.0  -0.0965
  C  C145  1  0.376610  0.805610  0.658210  1.0  -0.1516
  C  C146  1  0.344490  0.737890  0.704590  1.0  0.2687
  C  C147  1  0.364960  0.679960  0.776160  1.0  -0.118
  C  C148  1  0.279600  0.774300  0.604700  1.0  0.0781
  C  C149  1  0.229300  0.740600  0.593300  1.0  0.0451
  C  C150  1  0.146800  0.781700  0.597800  1.0  -0.1406
  C  C151  1  0.101900  0.745600  0.590600  1.0  -0.0228
  C  C152  1  0.137280  0.671380  0.577180  1.0  -0.1273
  C  C153  1  0.088390  0.631190  0.571790  1.0  0.6882
  C  C154  1  0.221000  0.630900  0.569700  1.0  -0.0431
  C  C155  1  0.266900  0.667700  0.575200  1.0  -0.1406
  C  C156  1  0.464990  0.882590  0.636490  1.0  0.7002
  O  O157  1  0.078710  0.595210  0.430210  1.0  -0.6054
  O  O158  1  0.104720  0.506020  0.368320  1.0  -0.6598
  O  O159  1  0.437920  0.982620  0.325020  1.0  -0.6065
  O  O160  1  0.421280  0.882780  0.444680  1.0  -0.6034
  O  O161  1  0.336390  0.491990  0.107090  1.0  -0.5972
  O  O162  1  0.433220  0.547220  0.070020  1.0  -0.6816
  O  O163  1  0.316350  0.707150  0.276050  1.0  -0.2414
  O  O164  1  0.430210  0.078710  0.595210  1.0  -0.6088
  O  O165  1  0.368320  0.104720  0.506020  1.0  -0.6587
  O  O166  1  0.325020  0.437920  0.982620  1.0  -0.6112
  O  O167  1  0.444680  0.421280  0.882780  1.0  -0.6043
  O  O168  1  0.107090  0.336390  0.491990  1.0  -0.594
  O  O169  1  0.070020  0.433220  0.547220  1.0  -0.683
  O  O170  1  0.276050  0.316350  0.707150  1.0  -0.24
  O  O171  1  0.595210  0.430210  0.078710  1.0  -0.61
  O  O172  1  0.506020  0.368320  0.104720  1.0  -0.6589
  O  O173  1  0.982620  0.325020  0.437920  1.0  -0.6141
  O  O174  1  0.882780  0.444680  0.421280  1.0  -0.605
  O  O175  1  0.491990  0.107090  0.336390  1.0  -0.5942
  O  O176  1  0.547220  0.070020  0.433220  1.0  -0.6825
  O  O177  1  0.707150  0.276050  0.316350  1.0  -0.2425
  O  O178  1  0.921290  0.404790  0.569790  1.0  -0.6085
  O  O179  1  0.895280  0.493980  0.631680  1.0  -0.6591
  O  O180  1  0.562080  0.017380  0.674980  1.0  -0.6051
  O  O181  1  0.578720  0.117220  0.555320  1.0  -0.6035
  O  O182  1  0.663610  0.508010  0.892910  1.0  -0.5974
  O  O183  1  0.566780  0.452780  0.929980  1.0  -0.6807
  O  O184  1  0.683650  0.292850  0.723950  1.0  -0.2412
  O  O185  1  0.569790  0.921290  0.404790  1.0  -0.609
  O  O186  1  0.631680  0.895280  0.493980  1.0  -0.6598
  O  O187  1  0.674980  0.562080  0.017380  1.0  -0.613
  O  O188  1  0.555320  0.578720  0.117220  1.0  -0.6047
  O  O189  1  0.892910  0.663610  0.508010  1.0  -0.5946
  O  O190  1  0.929980  0.566780  0.452780  1.0  -0.6807
  O  O191  1  0.723950  0.683650  0.292850  1.0  -0.2421
  O  O192  1  0.404790  0.569790  0.921290  1.0  -0.6108
  O  O193  1  0.493980  0.631680  0.895280  1.0  -0.6554
  O  O194  1  0.017380  0.674980  0.562080  1.0  -0.6091
  O  O195  1  0.117220  0.555320  0.578720  1.0  -0.6064
  O  O196  1  0.508010  0.892910  0.663610  1.0  -0.596
  O  O197  1  0.452780  0.929980  0.566780  1.0  -0.6822
  O  O198  1  0.292850  0.723950  0.683650  1.0  -0.2406
