# generated using pymatgen
data_TbH9C16O7
_symmetry_space_group_name_H-M   'P 1'
_cell_length_a   19.01200000
_cell_length_b   19.01200000
_cell_length_c   19.01200000
_cell_angle_alpha   62.95870000
_cell_angle_beta   62.95870000
_cell_angle_gamma   62.95870000
_symmetry_Int_Tables_number   1
_chemical_formula_structural   TbH9C16O7
_chemical_formula_sum   'Tb6 H54 C96 O42'
_cell_volume   5178.52047339
_cell_formula_units_Z   6
loop_
 _symmetry_equiv_pos_site_id
 _symmetry_equiv_pos_as_xyz
  1  'x, y, z'
loop_
 _atom_site_type_symbol
 _atom_site_label
 _atom_site_symmetry_multiplicity
 _atom_site_fract_x
 _atom_site_fract_y
 _atom_site_fract_z
 _atom_site_occupancy
 _atom_site_charge
  Tb  Tb1  1  0.504350  0.940530  0.933050  1.0  2.2288
  Tb  Tb2  1  0.933050  0.504350  0.940530  1.0  2.2331
  Tb  Tb3  1  0.940530  0.933050  0.504350  1.0  2.2323
  Tb  Tb4  1  0.495650  0.059470  0.066950  1.0  2.2346
  Tb  Tb5  1  0.066950  0.495650  0.059470  1.0  2.236
  Tb  Tb6  1  0.059470  0.066950  0.495650  1.0  2.2351
  H  H7  1  0.273400  0.983500  0.262600  1.0  0.1089
  H  H8  1  0.108000  0.867200  0.342400  1.0  0.1182
  H  H9  1  0.302000  0.847700  0.134000  1.0  0.1212
  H  H10  1  0.107100  0.627000  0.330600  1.0  0.111
  H  H11  1  0.084900  0.551600  0.276100  1.0  0.1069
  H  H12  1  0.057800  0.749000  0.081200  1.0  0.084
  H  H13  1  0.067500  0.825400  0.140000  1.0  0.0962
  H  H14  1  0.060100  0.808900  0.308500  1.0  0.1207
  H  H15  1  0.136600  0.727900  0.323200  1.0  0.1316
  H  H16  1  0.262600  0.273400  0.983500  1.0  0.1088
  H  H17  1  0.342400  0.108000  0.867200  1.0  0.1163
  H  H18  1  0.134000  0.302000  0.847700  1.0  0.1202
  H  H19  1  0.330600  0.107100  0.627000  1.0  0.1126
  H  H20  1  0.276100  0.084900  0.551600  1.0  0.1069
  H  H21  1  0.081200  0.057800  0.749000  1.0  0.0835
  H  H22  1  0.140000  0.067500  0.825400  1.0  0.0972
  H  H23  1  0.308500  0.060100  0.808900  1.0  0.1211
  H  H24  1  0.323200  0.136600  0.727900  1.0  0.1319
  H  H25  1  0.983500  0.262600  0.273400  1.0  0.1098
  H  H26  1  0.867200  0.342400  0.108000  1.0  0.1164
  H  H27  1  0.847700  0.134000  0.302000  1.0  0.1186
  H  H28  1  0.627000  0.330600  0.107100  1.0  0.1104
  H  H29  1  0.551600  0.276100  0.084900  1.0  0.1073
  H  H30  1  0.749000  0.081200  0.057800  1.0  0.0834
  H  H31  1  0.825400  0.140000  0.067500  1.0  0.0966
  H  H32  1  0.808900  0.308500  0.060100  1.0  0.1208
  H  H33  1  0.727900  0.323200  0.136600  1.0  0.1307
  H  H34  1  0.726600  0.016500  0.737400  1.0  0.109
  H  H35  1  0.892000  0.132800  0.657600  1.0  0.1175
  H  H36  1  0.698000  0.152300  0.866000  1.0  0.121
  H  H37  1  0.892900  0.373000  0.669400  1.0  0.1107
  H  H38  1  0.915100  0.448400  0.723900  1.0  0.1072
  H  H39  1  0.942200  0.251000  0.918800  1.0  0.084
  H  H40  1  0.932500  0.174600  0.860000  1.0  0.0968
  H  H41  1  0.939900  0.191100  0.691500  1.0  0.1209
  H  H42  1  0.863400  0.272100  0.676800  1.0  0.1295
  H  H43  1  0.737400  0.726600  0.016500  1.0  0.1088
  H  H44  1  0.657600  0.892000  0.132800  1.0  0.1164
  H  H45  1  0.866000  0.698000  0.152300  1.0  0.1207
  H  H46  1  0.669400  0.892900  0.373000  1.0  0.1126
  H  H47  1  0.723900  0.915100  0.448400  1.0  0.1067
  H  H48  1  0.918800  0.942200  0.251000  1.0  0.0847
  H  H49  1  0.860000  0.932500  0.174600  1.0  0.0976
  H  H50  1  0.691500  0.939900  0.191100  1.0  0.121
  H  H51  1  0.676800  0.863400  0.272100  1.0  0.1306
  H  H52  1  0.016500  0.737400  0.726600  1.0  0.1096
  H  H53  1  0.132800  0.657600  0.892000  1.0  0.1162
  H  H54  1  0.152300  0.866000  0.698000  1.0  0.1187
  H  H55  1  0.373000  0.669400  0.892900  1.0  0.1101
  H  H56  1  0.448400  0.723900  0.915100  1.0  0.1069
  H  H57  1  0.251000  0.918800  0.942200  1.0  0.0839
  H  H58  1  0.174600  0.860000  0.932500  1.0  0.0967
  H  H59  1  0.191100  0.691500  0.939900  1.0  0.1212
  H  H60  1  0.272100  0.676800  0.863400  1.0  0.13
  C  C61  1  0.379400  0.939800  0.124700  1.0  0.7562
  C  C62  1  0.301440  0.916540  0.189440  1.0  -0.1784
  C  C63  1  0.255700  0.949100  0.256500  1.0  0.0063
  C  C64  1  0.184390  0.929490  0.312890  1.0  -0.1194
  C  C65  1  0.156400  0.879800  0.304200  1.0  -0.1213
  C  C66  1  0.202100  0.848700  0.236800  1.0  0.1924
  C  C67  1  0.273300  0.867700  0.179300  1.0  -0.0633
  C  C68  1  0.090900  0.734600  0.237700  1.0  0.0635
  C  C69  1  0.096300  0.652400  0.280000  1.0  -0.1325
  C  C70  1  0.085600  0.606000  0.245900  1.0  -0.08
  C  C71  1  0.076500  0.642100  0.169100  1.0  -0.1086
  C  C72  1  0.068300  0.722800  0.132000  1.0  -0.0594
  C  C73  1  0.074700  0.769000  0.167300  1.0  -0.1492
  C  C74  1  0.137190  0.965390  0.382090  1.0  0.7033
  C  C75  1  0.071200  0.590800  0.131500  1.0  0.6823
  C  C76  1  0.109900  0.771100  0.282100  1.0  -0.076
  C  C77  1  0.124700  0.379400  0.939800  1.0  0.7589
  C  C78  1  0.189440  0.301440  0.916540  1.0  -0.1789
  C  C79  1  0.256500  0.255700  0.949100  1.0  0.0071
  C  C80  1  0.312890  0.184390  0.929490  1.0  -0.1215
  C  C81  1  0.304200  0.156400  0.879800  1.0  -0.1214
  C  C82  1  0.236800  0.202100  0.848700  1.0  0.1943
  C  C83  1  0.179300  0.273300  0.867700  1.0  -0.062
  C  C84  1  0.237700  0.090900  0.734600  1.0  0.0636
  C  C85  1  0.280000  0.096300  0.652400  1.0  -0.1287
  C  C86  1  0.245900  0.085600  0.606000  1.0  -0.0774
  C  C87  1  0.169100  0.076500  0.642100  1.0  -0.1116
  C  C88  1  0.132000  0.068300  0.722800  1.0  -0.0608
  C  C89  1  0.167300  0.074700  0.769000  1.0  -0.1455
  C  C90  1  0.382090  0.137190  0.965390  1.0  0.7002
  C  C91  1  0.131500  0.071200  0.590800  1.0  0.6888
  C  C92  1  0.282100  0.109900  0.771100  1.0  -0.0713
  C  C93  1  0.939800  0.124700  0.379400  1.0  0.7582
  C  C94  1  0.916540  0.189440  0.301440  1.0  -0.1751
  C  C95  1  0.949100  0.256500  0.255700  1.0  0.0047
  C  C96  1  0.929490  0.312890  0.184390  1.0  -0.1168
  C  C97  1  0.879800  0.304200  0.156400  1.0  -0.1192
  C  C98  1  0.848700  0.236800  0.202100  1.0  0.1926
  C  C99  1  0.867700  0.179300  0.273300  1.0  -0.0617
  C  C100  1  0.734600  0.237700  0.090900  1.0  0.0633
  C  C101  1  0.652400  0.280000  0.096300  1.0  -0.1311
  C  C102  1  0.606000  0.245900  0.085600  1.0  -0.0817
  C  C103  1  0.642100  0.169100  0.076500  1.0  -0.1144
  C  C104  1  0.722800  0.132000  0.068300  1.0  -0.0604
  C  C105  1  0.769000  0.167300  0.074700  1.0  -0.1453
  C  C106  1  0.965390  0.382090  0.137190  1.0  0.6957
  C  C107  1  0.590800  0.131500  0.071200  1.0  0.6847
  C  C108  1  0.771100  0.282100  0.109900  1.0  -0.0722
  C  C109  1  0.620600  0.060200  0.875300  1.0  0.7566
  C  C110  1  0.698560  0.083460  0.810560  1.0  -0.1786
  C  C111  1  0.744300  0.050900  0.743500  1.0  0.0051
  C  C112  1  0.815610  0.070510  0.687110  1.0  -0.1204
  C  C113  1  0.843600  0.120200  0.695800  1.0  -0.1209
  C  C114  1  0.797900  0.151300  0.763200  1.0  0.1933
  C  C115  1  0.726700  0.132300  0.820700  1.0  -0.063
  C  C116  1  0.909100  0.265400  0.762300  1.0  0.0641
  C  C117  1  0.903700  0.347600  0.720000  1.0  -0.1318
  C  C118  1  0.914400  0.394000  0.754100  1.0  -0.0797
  C  C119  1  0.923500  0.357900  0.830900  1.0  -0.1078
  C  C120  1  0.931700  0.277200  0.868000  1.0  -0.059
  C  C121  1  0.925300  0.231000  0.832700  1.0  -0.1493
  C  C122  1  0.862810  0.034610  0.617910  1.0  0.7046
  C  C123  1  0.928800  0.409200  0.868500  1.0  0.6824
  C  C124  1  0.890100  0.228900  0.717900  1.0  -0.0723
  C  C125  1  0.875300  0.620600  0.060200  1.0  0.7586
  C  C126  1  0.810560  0.698560  0.083460  1.0  -0.1796
  C  C127  1  0.743500  0.744300  0.050900  1.0  0.0074
  C  C128  1  0.687110  0.815610  0.070510  1.0  -0.1214
  C  C129  1  0.695800  0.843600  0.120200  1.0  -0.1216
  C  C130  1  0.763200  0.797900  0.151300  1.0  0.1926
  C  C131  1  0.820700  0.726700  0.132300  1.0  -0.0627
  C  C132  1  0.762300  0.909100  0.265400  1.0  0.0634
  C  C133  1  0.720000  0.903700  0.347600  1.0  -0.134
  C  C134  1  0.754100  0.914400  0.394000  1.0  -0.0785
  C  C135  1  0.830900  0.923500  0.357900  1.0  -0.1106
  C  C136  1  0.868000  0.931700  0.277200  1.0  -0.06
  C  C137  1  0.832700  0.925300  0.231000  1.0  -0.1436
  C  C138  1  0.617910  0.862810  0.034610  1.0  0.7011
  C  C139  1  0.868500  0.928800  0.409200  1.0  0.6853
  C  C140  1  0.717900  0.890100  0.228900  1.0  -0.0716
  C  C141  1  0.060200  0.875300  0.620600  1.0  0.7577
  C  C142  1  0.083460  0.810560  0.698560  1.0  -0.1764
  C  C143  1  0.050900  0.743500  0.744300  1.0  0.0043
  C  C144  1  0.070510  0.687110  0.815610  1.0  -0.1163
  C  C145  1  0.120200  0.695800  0.843600  1.0  -0.1178
  C  C146  1  0.151300  0.763200  0.797900  1.0  0.1937
  C  C147  1  0.132300  0.820700  0.726700  1.0  -0.0622
  C  C148  1  0.265400  0.762300  0.909100  1.0  0.064
  C  C149  1  0.347600  0.720000  0.903700  1.0  -0.1282
  C  C150  1  0.394000  0.754100  0.914400  1.0  -0.0781
  C  C151  1  0.357900  0.830900  0.923500  1.0  -0.1136
  C  C152  1  0.277200  0.868000  0.931700  1.0  -0.0623
  C  C153  1  0.231000  0.832700  0.925300  1.0  -0.1474
  C  C154  1  0.034610  0.617910  0.862810  1.0  0.698
  C  C155  1  0.409200  0.868500  0.928800  1.0  0.686
  C  C156  1  0.228900  0.717900  0.890100  1.0  -0.0748
  O  O157  1  0.419830  0.905430  0.070130  1.0  -0.6757
  O  O158  1  0.395450  0.992750  0.132350  1.0  -0.7722
  O  O159  1  0.165150  0.007350  0.392750  1.0  -0.6263
  O  O160  1  0.067980  0.954580  0.428780  1.0  -0.8038
  O  O161  1  0.078080  0.618580  0.056580  1.0  -0.6061
  O  O162  1  0.061410  0.520310  0.175210  1.0  -0.658
  O  O163  1  0.169200  0.817100  0.208300  1.0  -0.4002
  O  O164  1  0.070130  0.419830  0.905430  1.0  -0.677
  O  O165  1  0.132350  0.395450  0.992750  1.0  -0.7799
  O  O166  1  0.392750  0.165150  0.007350  1.0  -0.6225
  O  O167  1  0.428780  0.067980  0.954580  1.0  -0.8056
  O  O168  1  0.056580  0.078080  0.618580  1.0  -0.6087
  O  O169  1  0.175210  0.061410  0.520310  1.0  -0.6637
  O  O170  1  0.208300  0.169200  0.817100  1.0  -0.4032
  O  O171  1  0.905430  0.070130  0.419830  1.0  -0.6795
  O  O172  1  0.992750  0.132350  0.395450  1.0  -0.7765
  O  O173  1  0.007350  0.392750  0.165150  1.0  -0.6239
  O  O174  1  0.954580  0.428780  0.067980  1.0  -0.8065
  O  O175  1  0.618580  0.056580  0.078080  1.0  -0.6114
  O  O176  1  0.520310  0.175210  0.061410  1.0  -0.6626
  O  O177  1  0.817100  0.208300  0.169200  1.0  -0.4028
  O  O178  1  0.580170  0.094570  0.929870  1.0  -0.6748
  O  O179  1  0.604550  0.007250  0.867650  1.0  -0.7761
  O  O180  1  0.834850  0.992650  0.607250  1.0  -0.6249
  O  O181  1  0.932020  0.045420  0.571220  1.0  -0.8054
  O  O182  1  0.921920  0.381420  0.943420  1.0  -0.6068
  O  O183  1  0.938590  0.479690  0.824790  1.0  -0.653
  O  O184  1  0.830800  0.182900  0.791700  1.0  -0.4012
  O  O185  1  0.929870  0.580170  0.094570  1.0  -0.6768
  O  O186  1  0.867650  0.604550  0.007250  1.0  -0.7793
  O  O187  1  0.607250  0.834850  0.992650  1.0  -0.6213
  O  O188  1  0.571220  0.932020  0.045420  1.0  -0.8082
  O  O189  1  0.943420  0.921920  0.381420  1.0  -0.6091
  O  O190  1  0.824790  0.938590  0.479690  1.0  -0.6584
  O  O191  1  0.791700  0.830800  0.182900  1.0  -0.4033
  O  O192  1  0.094570  0.929870  0.580170  1.0  -0.6788
  O  O193  1  0.007250  0.867650  0.604550  1.0  -0.7767
  O  O194  1  0.992650  0.607250  0.834850  1.0  -0.6226
  O  O195  1  0.045420  0.571220  0.932020  1.0  -0.8062
  O  O196  1  0.381420  0.943420  0.921920  1.0  -0.611
  O  O197  1  0.479690  0.824790  0.938590  1.0  -0.661
  O  O198  1  0.182900  0.791700  0.830800  1.0  -0.405
