# generated using pymatgen
data_ZnH22C16(NO)4
_symmetry_space_group_name_H-M   'P 1'
_cell_length_a   6.55680000
_cell_length_b   15.07800000
_cell_length_c   20.54300000
_cell_angle_alpha   90.00000000
_cell_angle_beta   90.00000000
_cell_angle_gamma   90.00000000
_symmetry_Int_Tables_number   1
_chemical_formula_structural   ZnH22C16(NO)4
_chemical_formula_sum   'Zn4 H88 C64 N16 O16'
_cell_volume   2030.95145071
_cell_formula_units_Z   4
loop_
 _symmetry_equiv_pos_site_id
 _symmetry_equiv_pos_as_xyz
  1  'x, y, z'
loop_
 _atom_site_type_symbol
 _atom_site_label
 _atom_site_symmetry_multiplicity
 _atom_site_fract_x
 _atom_site_fract_y
 _atom_site_fract_z
 _atom_site_occupancy
 _atom_site_charge
  Zn  Zn1  1  0.851320  0.486380  0.812170  1.0  0.8631
  Zn  Zn2  1  0.648680  0.513620  0.312170  1.0  0.8633
  Zn  Zn3  1  0.148680  0.986380  0.687830  1.0  0.8631
  Zn  Zn4  1  0.351320  0.013620  0.187830  1.0  0.8628
  H  H5  1  0.201700  0.403200  0.723500  1.0  0.1049
  H  H6  1  0.879400  0.281400  0.857600  1.0  0.0959
  H  H7  1  0.131800  0.172700  0.817700  1.0  0.1286
  H  H8  1  0.371100  0.266600  0.671900  1.0  0.0972
  H  H9  1  0.328000  0.173900  0.702000  1.0  0.0995
  H  H10  1  0.608800  0.300200  0.753000  1.0  0.1007
  H  H11  1  0.554700  0.212900  0.789400  1.0  0.106
  H  H12  1  0.804000  0.087900  0.769600  1.0  0.1176
  H  H13  1  0.769600  0.266100  0.617100  1.0  0.1493
  H  H14  1  0.049900  0.159700  0.600100  1.0  0.1136
  H  H15  1  0.041400  0.463600  0.143900  1.0  0.0993
  H  H16  1  0.926900  0.542300  0.106800  1.0  0.1078
  H  H17  1  0.828700  0.359800  0.093900  1.0  0.0565
  H  H18  1  0.707300  0.437800  0.058100  1.0  0.0684
  H  H19  1  0.018800  0.476100  0.002000  1.0  0.0688
  H  H20  1  0.927800  0.381800  0.981700  1.0  0.0761
  H  H21  1  0.263900  0.407000  0.068200  1.0  0.0651
  H  H22  1  0.168600  0.311800  0.052000  1.0  0.0634
  H  H23  1  0.269300  0.328300  0.940700  1.0  0.0568
  H  H24  1  0.462200  0.330100  0.988400  1.0  0.0675
  H  H25  1  0.278400  0.480900  0.928600  1.0  0.1084
  H  H26  1  0.447700  0.490300  0.984100  1.0  0.103
  H  H27  1  0.298300  0.596800  0.223500  1.0  0.1051
  H  H28  1  0.620600  0.718600  0.357600  1.0  0.0964
  H  H29  1  0.368200  0.827300  0.317700  1.0  0.1286
  H  H30  1  0.128900  0.733400  0.171900  1.0  0.0976
  H  H31  1  0.172000  0.826100  0.202000  1.0  0.0992
  H  H32  1  0.891200  0.699800  0.253000  1.0  0.1011
  H  H33  1  0.945300  0.787100  0.289400  1.0  0.1061
  H  H34  1  0.696000  0.912100  0.269600  1.0  0.117
  H  H35  1  0.730400  0.733900  0.117100  1.0  0.1486
  H  H36  1  0.450100  0.840300  0.100100  1.0  0.1139
  H  H37  1  0.458600  0.536400  0.643900  1.0  0.0996
  H  H38  1  0.573100  0.457700  0.606800  1.0  0.1068
  H  H39  1  0.671300  0.640200  0.593900  1.0  0.0552
  H  H40  1  0.792700  0.562200  0.558100  1.0  0.069
  H  H41  1  0.481200  0.523900  0.502000  1.0  0.0724
  H  H42  1  0.572200  0.618200  0.481700  1.0  0.0749
  H  H43  1  0.236100  0.593000  0.568200  1.0  0.0649
  H  H44  1  0.331400  0.688200  0.552000  1.0  0.0655
  H  H45  1  0.230700  0.671700  0.440700  1.0  0.057
  H  H46  1  0.037800  0.669900  0.488400  1.0  0.068
  H  H47  1  0.221600  0.519100  0.428600  1.0  0.1068
  H  H48  1  0.052300  0.509700  0.484100  1.0  0.1039
  H  H49  1  0.798300  0.903200  0.776500  1.0  0.1045
  H  H50  1  0.120600  0.781400  0.642400  1.0  0.0964
  H  H51  1  0.868200  0.672700  0.682300  1.0  0.1289
  H  H52  1  0.628900  0.766600  0.828100  1.0  0.0978
  H  H53  1  0.672000  0.673900  0.798000  1.0  0.1017
  H  H54  1  0.391200  0.800200  0.747000  1.0  0.1014
  H  H55  1  0.445300  0.712900  0.710600  1.0  0.1061
  H  H56  1  0.196000  0.587900  0.730400  1.0  0.1173
  H  H57  1  0.230400  0.766100  0.882900  1.0  0.1488
  H  H58  1  0.950100  0.659700  0.899900  1.0  0.114
  H  H59  1  0.958600  0.963600  0.356100  1.0  0.1002
  H  H60  1  0.073100  0.042300  0.393200  1.0  0.1077
  H  H61  1  0.171300  0.859800  0.406100  1.0  0.0551
  H  H62  1  0.292700  0.937800  0.441900  1.0  0.0692
  H  H63  1  0.981200  0.976100  0.498000  1.0  0.0698
  H  H64  1  0.072200  0.881800  0.518300  1.0  0.0744
  H  H65  1  0.736100  0.907000  0.431800  1.0  0.0655
  H  H66  1  0.831400  0.811800  0.448000  1.0  0.0637
  H  H67  1  0.730700  0.828300  0.559300  1.0  0.0571
  H  H68  1  0.537800  0.830100  0.511600  1.0  0.0669
  H  H69  1  0.721600  0.980900  0.571400  1.0  0.1076
  H  H70  1  0.552300  0.990300  0.515900  1.0  0.1048
  H  H71  1  0.701700  0.096800  0.276500  1.0  0.1049
  H  H72  1  0.379400  0.218600  0.142400  1.0  0.096
  H  H73  1  0.631800  0.327300  0.182300  1.0  0.1284
  H  H74  1  0.871100  0.233400  0.328100  1.0  0.0979
  H  H75  1  0.828000  0.326100  0.298000  1.0  0.1001
  H  H76  1  0.108800  0.199800  0.247000  1.0  0.1017
  H  H77  1  0.054700  0.287100  0.210600  1.0  0.1061
  H  H78  1  0.304000  0.412100  0.230400  1.0  0.1176
  H  H79  1  0.269600  0.233900  0.382900  1.0  0.1488
  H  H80  1  0.549900  0.340300  0.399900  1.0  0.1143
  H  H81  1  0.541400  0.036400  0.856100  1.0  0.0989
  H  H82  1  0.426900  0.957700  0.893200  1.0  0.1082
  H  H83  1  0.328700  0.140200  0.906100  1.0  0.0562
  H  H84  1  0.207300  0.062200  0.941900  1.0  0.0683
  H  H85  1  0.518800  0.023900  0.998000  1.0  0.0733
  H  H86  1  0.427800  0.118200  0.018300  1.0  0.0745
  H  H87  1  0.763900  0.093000  0.931800  1.0  0.0644
  H  H88  1  0.668600  0.188200  0.948000  1.0  0.0665
  H  H89  1  0.769300  0.171700  0.059300  1.0  0.0572
  H  H90  1  0.962200  0.169900  0.011600  1.0  0.0674
  H  H91  1  0.778400  0.019100  0.071400  1.0  0.1069
  H  H92  1  0.947700  0.009700  0.015900  1.0  0.1035
  C  C93  1  0.151900  0.359900  0.753900  1.0  0.1209
  C  C94  1  0.985500  0.295000  0.827680  1.0  0.0385
  C  C95  1  0.119100  0.236300  0.804460  1.0  -0.1527
  C  C96  1  0.362100  0.234300  0.712000  1.0  -0.0663
  C  C97  1  0.567300  0.239700  0.747200  1.0  -0.0533
  C  C98  1  0.819400  0.116400  0.728100  1.0  0.1489
  C  C99  1  0.795200  0.210300  0.641990  1.0  -0.1936
  C  C100  1  0.949800  0.154300  0.633260  1.0  0.0713
  C  C101  1  0.759500  0.492110  0.183520  1.0  0.697
  C  C102  1  0.907600  0.483100  0.126680  1.0  -0.3272
  C  C103  1  0.842800  0.419700  0.074680  1.0  -0.0728
  C  C104  1  0.992400  0.415100  0.017730  1.0  -0.1195
  C  C105  1  0.194900  0.371700  0.034030  1.0  -0.1287
  C  C106  1  0.338300  0.363000  0.975130  1.0  -0.0662
  C  C107  1  0.400000  0.452300  0.947900  1.0  -0.3363
  C  C108  1  0.565500  0.447700  0.896970  1.0  0.7335
  C  C109  1  0.348100  0.640100  0.253900  1.0  0.122
  C  C110  1  0.514500  0.705000  0.327680  1.0  0.0393
  C  C111  1  0.380900  0.763700  0.304460  1.0  -0.1527
  C  C112  1  0.137900  0.765700  0.212000  1.0  -0.066
  C  C113  1  0.932700  0.760300  0.247200  1.0  -0.055
  C  C114  1  0.680600  0.883600  0.228100  1.0  0.1491
  C  C115  1  0.704800  0.789700  0.141990  1.0  -0.1942
  C  C116  1  0.550200  0.845700  0.133260  1.0  0.0713
  C  C117  1  0.740500  0.507890  0.683520  1.0  0.6998
  C  C118  1  0.592400  0.516900  0.626680  1.0  -0.3311
  C  C119  1  0.657200  0.580300  0.574680  1.0  -0.0736
  C  C120  1  0.507600  0.584900  0.517730  1.0  -0.1195
  C  C121  1  0.305100  0.628300  0.534030  1.0  -0.1284
  C  C122  1  0.161700  0.637000  0.475130  1.0  -0.0657
  C  C123  1  0.100000  0.547700  0.447900  1.0  -0.3349
  C  C124  1  0.934500  0.552300  0.396970  1.0  0.733
  C  C125  1  0.848100  0.859900  0.746100  1.0  0.1218
  C  C126  1  0.014500  0.795000  0.672320  1.0  0.0389
  C  C127  1  0.880900  0.736300  0.695540  1.0  -0.1521
  C  C128  1  0.637900  0.734300  0.788000  1.0  -0.0653
  C  C129  1  0.432700  0.739700  0.752800  1.0  -0.0541
  C  C130  1  0.180600  0.616400  0.771900  1.0  0.1504
  C  C131  1  0.204800  0.710300  0.858010  1.0  -0.1912
  C  C132  1  0.050200  0.654300  0.866740  1.0  0.07
  C  C133  1  0.240500  0.992110  0.316480  1.0  0.6993
  C  C134  1  0.092400  0.983100  0.373320  1.0  -0.3293
  C  C135  1  0.157200  0.919700  0.425320  1.0  -0.0747
  C  C136  1  0.007600  0.915100  0.482270  1.0  -0.1192
  C  C137  1  0.805100  0.871700  0.465970  1.0  -0.1272
  C  C138  1  0.661700  0.863000  0.524870  1.0  -0.0662
  C  C139  1  0.600000  0.952300  0.552100  1.0  -0.3357
  C  C140  1  0.434500  0.947700  0.603030  1.0  0.7318
  C  C141  1  0.651900  0.140100  0.246100  1.0  0.1224
  C  C142  1  0.485500  0.205000  0.172320  1.0  0.0385
  C  C143  1  0.619100  0.263700  0.195540  1.0  -0.1525
  C  C144  1  0.862100  0.265700  0.288000  1.0  -0.0651
  C  C145  1  0.067300  0.260300  0.252800  1.0  -0.0536
  C  C146  1  0.319400  0.383600  0.271900  1.0  0.1507
  C  C147  1  0.295200  0.289700  0.358010  1.0  -0.1914
  C  C148  1  0.449800  0.345700  0.366740  1.0  0.0732
  C  C149  1  0.259500  0.007890  0.816480  1.0  0.6986
  C  C150  1  0.407600  0.016900  0.873320  1.0  -0.3269
  C  C151  1  0.342800  0.080300  0.925320  1.0  -0.0728
  C  C152  1  0.492400  0.084900  0.982270  1.0  -0.1187
  C  C153  1  0.694900  0.128300  0.965970  1.0  -0.1287
  C  C154  1  0.838300  0.137000  0.024870  1.0  -0.0657
  C  C155  1  0.900000  0.047700  0.052100  1.0  -0.3371
  C  C156  1  0.065500  0.052300  0.103030  1.0  0.7329
  N  N157  1  0.022000  0.376860  0.802720  1.0  -0.3762
  N  N158  1  0.203800  0.273600  0.753600  1.0  0.0715
  N  N159  1  0.722800  0.190000  0.708900  1.0  0.0141
  N  N160  1  0.945000  0.087830  0.678600  1.0  -0.4015
  N  N161  1  0.478000  0.623140  0.302720  1.0  -0.3704
  N  N162  1  0.296200  0.726400  0.253600  1.0  0.0713
  N  N163  1  0.777200  0.810000  0.208900  1.0  0.0141
  N  N164  1  0.555000  0.912170  0.178600  1.0  -0.4007
  N  N165  1  0.978000  0.876860  0.697280  1.0  -0.3743
  N  N166  1  0.796200  0.773600  0.746400  1.0  0.0715
  N  N167  1  0.277200  0.690000  0.791100  1.0  0.0145
  N  N168  1  0.055000  0.587830  0.821400  1.0  -0.4018
  N  N169  1  0.522000  0.123140  0.197280  1.0  -0.3723
  N  N170  1  0.703800  0.226400  0.246400  1.0  0.0714
  N  N171  1  0.222800  0.310000  0.291100  1.0  0.0144
  N  N172  1  0.445000  0.412170  0.321400  1.0  -0.4012
  O  O173  1  0.839600  0.495210  0.239450  1.0  -0.6255
  O  O174  1  0.573600  0.493720  0.174600  1.0  -0.6309
  O  O175  1  0.677300  0.516330  0.889710  1.0  -0.6541
  O  O176  1  0.590600  0.382050  0.863420  1.0  -0.6173
  O  O177  1  0.660400  0.504790  0.739450  1.0  -0.6278
  O  O178  1  0.926400  0.506280  0.674600  1.0  -0.6317
  O  O179  1  0.822700  0.483670  0.389710  1.0  -0.6554
  O  O180  1  0.909400  0.617950  0.363420  1.0  -0.6181
  O  O181  1  0.160400  0.995210  0.260550  1.0  -0.627
  O  O182  1  0.426400  0.993720  0.325400  1.0  -0.6298
  O  O183  1  0.322700  0.016330  0.610290  1.0  -0.6529
  O  O184  1  0.409400  0.882050  0.636580  1.0  -0.6172
  O  O185  1  0.339600  0.004790  0.760550  1.0  -0.6249
  O  O186  1  0.073600  0.006280  0.825400  1.0  -0.6306
  O  O187  1  0.177300  0.983670  0.110290  1.0  -0.6557
  O  O188  1  0.090600  0.117950  0.136580  1.0  -0.6172
