# generated using pymatgen
data_AlPO4
_symmetry_space_group_name_H-M   'P 1'
_cell_length_a   13.80000000
_cell_length_b   13.80000000
_cell_length_c   14.82500000
_cell_angle_alpha   90.00000000
_cell_angle_beta   90.00000000
_cell_angle_gamma   120.00000000
_symmetry_Int_Tables_number   1
_chemical_formula_structural   AlPO4
_chemical_formula_sum   'Al18 P18 O72'
_cell_volume   2445.02613982
_cell_formula_units_Z   18
loop_
 _symmetry_equiv_pos_site_id
 _symmetry_equiv_pos_as_xyz
  1  'x, y, z'
loop_
 _atom_site_type_symbol
 _atom_site_label
 _atom_site_symmetry_multiplicity
 _atom_site_fract_x
 _atom_site_fract_y
 _atom_site_fract_z
 _atom_site_occupancy
 _atom_site_charge
  Al  Al1  1  0.995900  0.225000  0.102400  1.0  2.0148
  Al  Al2  1  0.662570  0.558330  0.435730  1.0  2.0148
  Al  Al3  1  0.329230  0.891670  0.769070  1.0  2.0148
  Al  Al4  1  0.775000  0.770900  0.102400  1.0  2.0139
  Al  Al5  1  0.441670  0.104230  0.435730  1.0  2.0139
  Al  Al6  1  0.108330  0.437570  0.769070  1.0  2.0139
  Al  Al7  1  0.229100  0.004100  0.102400  1.0  2.014
  Al  Al8  1  0.895770  0.337430  0.435730  1.0  2.014
  Al  Al9  1  0.562430  0.670770  0.769070  1.0  2.014
  Al  Al10  1  0.004100  0.775000  0.897600  1.0  2.0148
  Al  Al11  1  0.670770  0.108330  0.230930  1.0  2.0148
  Al  Al12  1  0.337430  0.441670  0.564270  1.0  2.0148
  Al  Al13  1  0.225000  0.229100  0.897600  1.0  2.0142
  Al  Al14  1  0.891670  0.562430  0.230930  1.0  2.0142
  Al  Al15  1  0.558330  0.895770  0.564270  1.0  2.0142
  Al  Al16  1  0.770900  0.995900  0.897600  1.0  2.0141
  Al  Al17  1  0.437570  0.329230  0.230930  1.0  2.0141
  Al  Al18  1  0.104230  0.662570  0.564270  1.0  2.0141
  P  P19  1  0.995000  0.223000  0.889000  1.0  2.0856
  P  P20  1  0.661670  0.556330  0.222330  1.0  2.0856
  P  P21  1  0.328330  0.889670  0.555670  1.0  2.0856
  P  P22  1  0.777000  0.772000  0.889000  1.0  2.0897
  P  P23  1  0.443670  0.105330  0.222330  1.0  2.0897
  P  P24  1  0.110330  0.438670  0.555670  1.0  2.0897
  P  P25  1  0.228000  0.005000  0.889000  1.0  2.0888
  P  P26  1  0.894670  0.338330  0.222330  1.0  2.0888
  P  P27  1  0.561330  0.671670  0.555670  1.0  2.0888
  P  P28  1  0.005000  0.777000  0.111000  1.0  2.0868
  P  P29  1  0.671670  0.110330  0.444330  1.0  2.0868
  P  P30  1  0.338330  0.443670  0.777670  1.0  2.0868
  P  P31  1  0.223000  0.228000  0.111000  1.0  2.0895
  P  P32  1  0.889670  0.561330  0.444330  1.0  2.0895
  P  P33  1  0.556330  0.894670  0.777670  1.0  2.0895
  P  P34  1  0.772000  0.995000  0.111000  1.0  2.0883
  P  P35  1  0.438670  0.328330  0.444330  1.0  2.0883
  P  P36  1  0.105330  0.661670  0.777670  1.0  2.0883
  O  O37  1  0.994700  0.253600  0.987100  1.0  -1.0525
  O  O38  1  0.883800  0.123000  0.863000  1.0  -0.9965
  O  O39  1  0.086200  0.194000  0.871700  1.0  -1.0556
  O  O40  1  0.012700  0.320100  0.829700  1.0  -1.0039
  O  O41  1  0.661370  0.586930  0.320430  1.0  -1.0525
  O  O42  1  0.550470  0.456330  0.196330  1.0  -0.9965
  O  O43  1  0.752870  0.527330  0.205030  1.0  -1.0527
  O  O44  1  0.679370  0.653430  0.163030  1.0  -1.0025
  O  O45  1  0.328030  0.920270  0.653770  1.0  -1.0525
  O  O46  1  0.217130  0.789670  0.529670  1.0  -0.9965
  O  O47  1  0.419530  0.860670  0.538370  1.0  -1.0556
  O  O48  1  0.346030  0.986770  0.496370  1.0  -1.0027
  O  O49  1  0.746400  0.741100  0.987100  1.0  -1.0515
  O  O50  1  0.877000  0.760800  0.863000  1.0  -0.9969
  O  O51  1  0.806000  0.892200  0.871700  1.0  -1.0536
  O  O52  1  0.679900  0.692600  0.829700  1.0  -1.0045
  O  O53  1  0.413070  0.074430  0.320430  1.0  -1.0515
  O  O54  1  0.543670  0.094130  0.196330  1.0  -0.9969
  O  O55  1  0.472670  0.225530  0.205030  1.0  -1.0554
  O  O56  1  0.346570  0.025930  0.163030  1.0  -1.0076
  O  O57  1  0.079730  0.407770  0.653770  1.0  -1.0514
  O  O58  1  0.210330  0.427470  0.529670  1.0  -0.9969
  O  O59  1  0.139330  0.558870  0.538370  1.0  -1.0536
  O  O60  1  0.013230  0.359270  0.496370  1.0  -1.0001
  O  O61  1  0.258900  0.005300  0.987100  1.0  -1.0492
  O  O62  1  0.239200  0.116200  0.863000  1.0  -0.998
  O  O63  1  0.107800  0.913800  0.871700  1.0  -1.0452
  O  O64  1  0.307400  0.987300  0.829700  1.0  -0.9975
  O  O65  1  0.925570  0.338630  0.320430  1.0  -1.0492
  O  O66  1  0.905870  0.449530  0.196330  1.0  -0.998
  O  O67  1  0.774470  0.247130  0.205030  1.0  -1.0508
  O  O68  1  0.974070  0.320630  0.163030  1.0  -0.9986
  O  O69  1  0.592230  0.671970  0.653770  1.0  -1.0492
  O  O70  1  0.572530  0.782870  0.529670  1.0  -0.998
  O  O71  1  0.441130  0.580470  0.538370  1.0  -1.0452
  O  O72  1  0.640730  0.653970  0.496370  1.0  -1.0015
  O  O73  1  0.005300  0.746400  0.012900  1.0  -1.0493
  O  O74  1  0.116200  0.877000  0.137000  1.0  -0.9955
  O  O75  1  0.913800  0.806000  0.128300  1.0  -1.0563
  O  O76  1  0.987300  0.679900  0.170300  1.0  -1.0044
  O  O77  1  0.671970  0.079730  0.346230  1.0  -1.0493
  O  O78  1  0.782870  0.210330  0.470330  1.0  -0.9956
  O  O79  1  0.580470  0.139330  0.461630  1.0  -1.0563
  O  O80  1  0.653970  0.013230  0.503630  1.0  -1.0033
  O  O81  1  0.338630  0.413070  0.679570  1.0  -1.0493
  O  O82  1  0.449530  0.543670  0.803670  1.0  -0.9955
  O  O83  1  0.247130  0.472670  0.794970  1.0  -1.0546
  O  O84  1  0.320630  0.346570  0.836970  1.0  -1.0028
  O  O85  1  0.253600  0.258900  0.012900  1.0  -1.0506
  O  O86  1  0.123000  0.239200  0.137000  1.0  -0.997
  O  O87  1  0.194000  0.107800  0.128300  1.0  -1.0538
  O  O88  1  0.320100  0.307400  0.170300  1.0  -1.0079
  O  O89  1  0.920270  0.592230  0.346230  1.0  -1.0506
  O  O90  1  0.789670  0.572530  0.470330  1.0  -0.997
  O  O91  1  0.860670  0.441130  0.461630  1.0  -1.0538
  O  O92  1  0.986770  0.640730  0.503630  1.0  -1.0035
  O  O93  1  0.586930  0.925570  0.679570  1.0  -1.0506
  O  O94  1  0.456330  0.905870  0.803670  1.0  -0.997
  O  O95  1  0.527330  0.774470  0.794970  1.0  -1.0557
  O  O96  1  0.653430  0.974070  0.836970  1.0  -1.0107
  O  O97  1  0.741100  0.994700  0.012900  1.0  -1.0475
  O  O98  1  0.760800  0.883800  0.137000  1.0  -0.9981
  O  O99  1  0.892200  0.086200  0.128300  1.0  -1.0476
  O  O100  1  0.692600  0.012700  0.170300  1.0  -0.9973
  O  O101  1  0.407770  0.328030  0.346230  1.0  -1.0475
  O  O102  1  0.427470  0.217130  0.470330  1.0  -0.9981
  O  O103  1  0.558870  0.419530  0.461630  1.0  -1.0477
  O  O104  1  0.359270  0.346030  0.503630  1.0  -1.0017
  O  O105  1  0.074430  0.661370  0.679570  1.0  -1.0475
  O  O106  1  0.094130  0.550470  0.803670  1.0  -0.9981
  O  O107  1  0.225530  0.752870  0.794970  1.0  -1.0521
  O  O108  1  0.025930  0.679370  0.836970  1.0  -0.9995
