# generated using pymatgen
data_CuH11C18SN5O4
_symmetry_space_group_name_H-M   'P 1'
_cell_length_a   16.63040000
_cell_length_b   12.42360000
_cell_length_c   21.11030000
_cell_angle_alpha   90.00000000
_cell_angle_beta   92.09900000
_cell_angle_gamma   90.00000000
_symmetry_Int_Tables_number   1
_chemical_formula_structural   CuH11C18SN5O4
_chemical_formula_sum   'Cu8 H88 C144 S8 N40 O32'
_cell_volume   4358.66072689
_cell_formula_units_Z   8
loop_
 _symmetry_equiv_pos_site_id
 _symmetry_equiv_pos_as_xyz
  1  'x, y, z'
loop_
 _atom_site_type_symbol
 _atom_site_label
 _atom_site_symmetry_multiplicity
 _atom_site_fract_x
 _atom_site_fract_y
 _atom_site_fract_z
 _atom_site_occupancy
 _atom_site_charge
  Cu  Cu1  1  0.146780  0.264850  0.451670  1.0  0.785
  Cu  Cu2  1  0.638680  0.781720  0.439070  1.0  0.8277
  Cu  Cu3  1  0.353220  0.764850  0.048330  1.0  0.7857
  Cu  Cu4  1  0.861320  0.281720  0.060930  1.0  0.8299
  Cu  Cu5  1  0.853220  0.735150  0.548330  1.0  0.7855
  Cu  Cu6  1  0.361320  0.218280  0.560930  1.0  0.8298
  Cu  Cu7  1  0.646780  0.235150  0.951670  1.0  0.7847
  Cu  Cu8  1  0.138680  0.718280  0.939070  1.0  0.8279
  H  H9  1  0.959400  0.404520  0.181870  1.0  0.2998
  H  H10  1  0.449960  0.902760  0.174800  1.0  0.3009
  H  H11  1  0.281060  0.967680  0.340340  1.0  0.1337
  H  H12  1  0.200240  0.048160  0.413680  1.0  0.0954
  H  H13  1  0.688300  0.567280  0.400940  1.0  0.0924
  H  H14  1  0.774300  0.482710  0.334230  1.0  0.1346
  H  H15  1  0.049310  0.449280  0.098600  1.0  0.1283
  H  H16  1  0.818840  0.770280  0.255720  1.0  0.1401
  H  H17  1  0.298120  0.254970  0.254400  1.0  0.1318
  H  H18  1  0.117300  0.509810  0.012650  1.0  0.0856
  H  H19  1  0.731990  0.846440  0.324660  1.0  0.0879
  H  H20  1  0.218270  0.326460  0.329880  1.0  0.0833
  H  H21  1  0.851730  0.216210  0.331200  1.0  0.12
  H  H22  1  0.610140  0.018800  0.011450  1.0  0.0917
  H  H23  1  0.336090  0.707030  0.332340  1.0  0.1169
  H  H24  1  0.534870  0.950970  0.091910  1.0  0.1271
  H  H25  1  0.742330  0.090730  0.352810  1.0  0.1075
  H  H26  1  0.961070  0.747970  0.118780  1.0  0.1337
  H  H27  1  0.030790  0.799880  0.032240  1.0  0.0949
  H  H28  1  0.236800  0.572270  0.361280  1.0  0.1217
  H  H29  1  0.561150  0.313560  0.060500  1.0  0.0911
  H  H30  1  0.484610  0.254190  0.141650  1.0  0.1346
  H  H31  1  0.540600  0.904520  0.318130  1.0  0.2992
  H  H32  1  0.050040  0.402760  0.325200  1.0  0.3012
  H  H33  1  0.218940  0.467680  0.159660  1.0  0.1331
  H  H34  1  0.299760  0.548160  0.086320  1.0  0.0951
  H  H35  1  0.811700  0.067280  0.099060  1.0  0.0922
  H  H36  1  0.725700  0.982710  0.165770  1.0  0.1343
  H  H37  1  0.450690  0.949280  0.401400  1.0  0.1284
  H  H38  1  0.681160  0.270280  0.244280  1.0  0.1404
  H  H39  1  0.201880  0.754970  0.245600  1.0  0.1319
  H  H40  1  0.382700  0.009810  0.487350  1.0  0.0849
  H  H41  1  0.768010  0.346440  0.175340  1.0  0.0871
  H  H42  1  0.281730  0.826460  0.170120  1.0  0.0825
  H  H43  1  0.648270  0.716210  0.168800  1.0  0.1206
  H  H44  1  0.889860  0.518800  0.488550  1.0  0.0914
  H  H45  1  0.163910  0.207030  0.167660  1.0  0.1166
  H  H46  1  0.965130  0.450970  0.408090  1.0  0.1269
  H  H47  1  0.757670  0.590730  0.147190  1.0  0.1056
  H  H48  1  0.538930  0.247970  0.381220  1.0  0.1336
  H  H49  1  0.469210  0.299880  0.467760  1.0  0.0948
  H  H50  1  0.263200  0.072270  0.138720  1.0  0.1213
  H  H51  1  0.938850  0.813560  0.439500  1.0  0.0907
  H  H52  1  0.015390  0.754190  0.358350  1.0  0.1337
  H  H53  1  0.040600  0.595480  0.818130  1.0  0.2982
  H  H54  1  0.550040  0.097240  0.825200  1.0  0.3016
  H  H55  1  0.718940  0.032320  0.659660  1.0  0.1323
  H  H56  1  0.799760  0.951840  0.586320  1.0  0.0955
  H  H57  1  0.311700  0.432720  0.599060  1.0  0.0934
  H  H58  1  0.225700  0.517290  0.665770  1.0  0.1339
  H  H59  1  0.950690  0.550720  0.901400  1.0  0.1284
  H  H60  1  0.181160  0.229720  0.744280  1.0  0.1402
  H  H61  1  0.701880  0.745030  0.745600  1.0  0.1314
  H  H62  1  0.882700  0.490190  0.987350  1.0  0.0851
  H  H63  1  0.268010  0.153560  0.675340  1.0  0.0876
  H  H64  1  0.781730  0.673540  0.670120  1.0  0.0825
  H  H65  1  0.148270  0.783790  0.668800  1.0  0.1209
  H  H66  1  0.389860  0.981200  0.988550  1.0  0.0915
  H  H67  1  0.663910  0.292970  0.667660  1.0  0.1168
  H  H68  1  0.465130  0.049030  0.908090  1.0  0.1263
  H  H69  1  0.257670  0.909270  0.647190  1.0  0.1077
  H  H70  1  0.038930  0.252030  0.881220  1.0  0.1335
  H  H71  1  0.969210  0.200120  0.967760  1.0  0.0949
  H  H72  1  0.763200  0.427730  0.638720  1.0  0.1213
  H  H73  1  0.438850  0.686440  0.939500  1.0  0.0907
  H  H74  1  0.515390  0.745810  0.858350  1.0  0.1337
  H  H75  1  0.459400  0.095480  0.681870  1.0  0.2985
  H  H76  1  0.949960  0.597240  0.674800  1.0  0.301
  H  H77  1  0.781060  0.532320  0.840340  1.0  0.1327
  H  H78  1  0.700240  0.451840  0.913680  1.0  0.0951
  H  H79  1  0.188300  0.932720  0.900940  1.0  0.0932
  H  H80  1  0.274300  0.017290  0.834230  1.0  0.1345
  H  H81  1  0.549310  0.050720  0.598600  1.0  0.1284
  H  H82  1  0.318840  0.729720  0.755720  1.0  0.1399
  H  H83  1  0.798120  0.245030  0.754400  1.0  0.1316
  H  H84  1  0.617300  0.990190  0.512650  1.0  0.0855
  H  H85  1  0.231990  0.653560  0.824660  1.0  0.0878
  H  H86  1  0.718270  0.173540  0.829880  1.0  0.0828
  H  H87  1  0.351730  0.283790  0.831200  1.0  0.1201
  H  H88  1  0.110140  0.481200  0.511450  1.0  0.0919
  H  H89  1  0.836090  0.792970  0.832340  1.0  0.1169
  H  H90  1  0.034870  0.549030  0.591910  1.0  0.1266
  H  H91  1  0.242330  0.409270  0.852810  1.0  0.1057
  H  H92  1  0.461070  0.752030  0.618780  1.0  0.1333
  H  H93  1  0.530790  0.700120  0.532240  1.0  0.0949
  H  H94  1  0.736800  0.927730  0.861280  1.0  0.1211
  H  H95  1  0.061150  0.186440  0.560500  1.0  0.0909
  H  H96  1  0.984610  0.245810  0.641650  1.0  0.1342
  C  C97  1  0.765900  0.925600  0.444610  1.0  0.6827
  C  C98  1  0.359460  0.061800  0.245110  1.0  0.3513
  C  C99  1  0.302430  0.103900  0.290570  1.0  -0.0537
  C  C100  1  0.865610  0.569900  0.244910  1.0  0.3417
  C  C101  1  0.995870  0.591500  0.118070  1.0  0.0094
  C  C102  1  0.946770  0.561300  0.171600  1.0  0.3072
  C  C103  1  0.276900  0.409500  0.451410  1.0  0.6917
  C  C104  1  0.443850  0.060800  0.173950  1.0  0.3015
  C  C105  1  0.808500  0.617000  0.288660  1.0  -0.0891
  C  C106  1  0.498200  0.095300  0.124420  1.0  0.0331
  C  C107  1  0.270300  0.041100  0.338020  1.0  -0.116
  C  C108  1  0.923300  0.142400  0.398650  1.0  -0.1914
  C  C109  1  0.221700  0.090100  0.381960  1.0  0.1751
  C  C110  1  0.000200  0.203200  0.401660  1.0  0.6433
  C  C111  1  0.715900  0.608500  0.372070  1.0  0.1911
  C  C112  1  0.419700  0.635600  0.391600  1.0  -0.2084
  C  C113  1  0.493500  0.703500  0.387030  1.0  0.673
  C  C114  1  0.767400  0.556900  0.332010  1.0  -0.1214
  C  C115  1  0.044300  0.520600  0.085710  1.0  -0.1769
  C  C116  1  0.793800  0.727800  0.285460  1.0  -0.1099
  C  C117  1  0.319020  0.501300  0.421760  1.0  -0.2148
  C  C118  1  0.280400  0.211800  0.287090  1.0  -0.1466
  C  C119  1  0.085000  0.557700  0.034020  1.0  0.1741
  C  C120  1  0.813780  0.016300  0.419700  1.0  -0.21
  C  C121  1  0.741700  0.772800  0.327060  1.0  0.184
  C  C122  1  0.232200  0.254100  0.332520  1.0  0.181
  C  C123  1  0.855700  0.161600  0.361300  1.0  -0.0471
  C  C124  1  0.583500  0.066500  0.037360  1.0  0.182
  C  C125  1  0.346700  0.651500  0.361000  1.0  -0.0519
  C  C126  1  0.538200  0.024900  0.085680  1.0  -0.1884
  C  C127  1  0.792500  0.089000  0.373670  1.0  -0.0565
  C  C128  1  0.991900  0.698000  0.097580  1.0  -0.1458
  C  C129  1  0.034100  0.728600  0.045620  1.0  0.1846
  C  C130  1  0.289300  0.573900  0.378020  1.0  -0.0617
  C  C131  1  0.554500  0.239900  0.066300  1.0  0.161
  C  C132  1  0.508600  0.204800  0.115120  1.0  -0.1331
  C  C133  1  0.734100  0.425600  0.055390  1.0  0.683
  C  C134  1  0.140540  0.561800  0.254890  1.0  0.3515
  C  C135  1  0.197570  0.603900  0.209430  1.0  -0.0537
  C  C136  1  0.634390  0.069900  0.255090  1.0  0.3423
  C  C137  1  0.504130  0.091500  0.381930  1.0  0.0119
  C  C138  1  0.553230  0.061300  0.328400  1.0  0.3083
  C  C139  1  0.223100  0.909500  0.048590  1.0  0.6925
  C  C140  1  0.056150  0.560800  0.326050  1.0  0.3018
  C  C141  1  0.691500  0.117000  0.211340  1.0  -0.0888
  C  C142  1  0.001800  0.595300  0.375580  1.0  0.034
  C  C143  1  0.229700  0.541100  0.161980  1.0  -0.1146
  C  C144  1  0.576700  0.642400  0.101350  1.0  -0.1912
  C  C145  1  0.278300  0.590100  0.118040  1.0  0.1744
  C  C146  1  0.499800  0.703200  0.098340  1.0  0.6439
  C  C147  1  0.784100  0.108500  0.127930  1.0  0.1896
  C  C148  1  0.080300  0.135600  0.108400  1.0  -0.2087
  C  C149  1  0.006500  0.203500  0.112970  1.0  0.6724
  C  C150  1  0.732600  0.056900  0.167990  1.0  -0.1207
  C  C151  1  0.455700  0.020600  0.414290  1.0  -0.1769
  C  C152  1  0.706200  0.227800  0.214540  1.0  -0.1108
  C  C153  1  0.180980  0.001300  0.078240  1.0  -0.2135
  C  C154  1  0.219600  0.711800  0.212910  1.0  -0.1473
  C  C155  1  0.415000  0.057700  0.465980  1.0  0.1745
  C  C156  1  0.686220  0.516300  0.080300  1.0  -0.2101
  C  C157  1  0.758300  0.272800  0.172940  1.0  0.1845
  C  C158  1  0.267800  0.754100  0.167480  1.0  0.1813
  C  C159  1  0.644300  0.661600  0.138700  1.0  -0.0472
  C  C160  1  0.916500  0.566500  0.462640  1.0  0.1812
  C  C161  1  0.153300  0.151500  0.139000  1.0  -0.0519
  C  C162  1  0.961800  0.524900  0.414320  1.0  -0.1881
  C  C163  1  0.707500  0.589000  0.126330  1.0  -0.055
  C  C164  1  0.508100  0.198000  0.402420  1.0  -0.1453
  C  C165  1  0.465900  0.228600  0.454380  1.0  0.1842
  C  C166  1  0.210700  0.073900  0.121980  1.0  -0.0609
  C  C167  1  0.945500  0.739900  0.433700  1.0  0.1604
  C  C168  1  0.991400  0.704800  0.384880  1.0  -0.1357
  C  C169  1  0.234100  0.074400  0.555390  1.0  0.6825
  C  C170  1  0.640540  0.938200  0.754890  1.0  0.352
  C  C171  1  0.697570  0.896100  0.709430  1.0  -0.0538
  C  C172  1  0.134390  0.430100  0.755090  1.0  0.3429
  C  C173  1  0.004130  0.408500  0.881930  1.0  0.0115
  C  C174  1  0.053230  0.438700  0.828400  1.0  0.3075
  C  C175  1  0.723100  0.590500  0.548590  1.0  0.692
  C  C176  1  0.556150  0.939200  0.826050  1.0  0.3012
  C  C177  1  0.191500  0.383000  0.711340  1.0  -0.0892
  C  C178  1  0.501800  0.904700  0.875580  1.0  0.0336
  C  C179  1  0.729700  0.958900  0.661980  1.0  -0.115
  C  C180  1  0.076700  0.857600  0.601350  1.0  -0.191
  C  C181  1  0.778300  0.909900  0.618040  1.0  0.1742
  C  C182  1  0.999800  0.796800  0.598340  1.0  0.6433
  C  C183  1  0.284100  0.391500  0.627930  1.0  0.1907
  C  C184  1  0.580300  0.364400  0.608400  1.0  -0.2084
  C  C185  1  0.506500  0.296500  0.612970  1.0  0.6722
  C  C186  1  0.232600  0.443100  0.667990  1.0  -0.1215
  C  C187  1  0.955700  0.479400  0.914290  1.0  -0.1766
  C  C188  1  0.206200  0.272200  0.714540  1.0  -0.1096
  C  C189  1  0.680980  0.498700  0.578240  1.0  -0.2126
  C  C190  1  0.719600  0.788200  0.712910  1.0  -0.1459
  C  C191  1  0.915000  0.442300  0.965980  1.0  0.1744
  C  C192  1  0.186220  0.983700  0.580300  1.0  -0.2106
  C  C193  1  0.258300  0.227200  0.672940  1.0  0.1848
  C  C194  1  0.767800  0.745900  0.667480  1.0  0.1813
  C  C195  1  0.144300  0.838400  0.638700  1.0  -0.0473
  C  C196  1  0.416500  0.933500  0.962640  1.0  0.1813
  C  C197  1  0.653300  0.348500  0.639000  1.0  -0.0522
  C  C198  1  0.461800  0.975100  0.914320  1.0  -0.1889
  C  C199  1  0.207500  0.911000  0.626330  1.0  -0.0551
  C  C200  1  0.008100  0.302000  0.902420  1.0  -0.1468
  C  C201  1  0.965900  0.271400  0.954380  1.0  0.1845
  C  C202  1  0.710700  0.426100  0.621980  1.0  -0.061
  C  C203  1  0.445500  0.760100  0.933700  1.0  0.1606
  C  C204  1  0.491400  0.795200  0.884880  1.0  -0.1361
  C  C205  1  0.265900  0.574400  0.944610  1.0  0.6821
  C  C206  1  0.859460  0.438200  0.745110  1.0  0.3518
  C  C207  1  0.802430  0.396100  0.790570  1.0  -0.0537
  C  C208  1  0.365610  0.930100  0.744910  1.0  0.3424
  C  C209  1  0.495870  0.908500  0.618070  1.0  0.0088
  C  C210  1  0.446770  0.938700  0.671600  1.0  0.3064
  C  C211  1  0.776900  0.090500  0.951410  1.0  0.6916
  C  C212  1  0.943850  0.439200  0.673950  1.0  0.3009
  C  C213  1  0.308500  0.883000  0.788660  1.0  -0.0892
  C  C214  1  0.998200  0.404700  0.624420  1.0  0.0326
  C  C215  1  0.770300  0.458900  0.838020  1.0  -0.1152
  C  C216  1  0.423300  0.357600  0.898650  1.0  -0.1912
  C  C217  1  0.721700  0.409900  0.881960  1.0  0.1749
  C  C218  1  0.500200  0.296800  0.901660  1.0  0.643
  C  C219  1  0.215900  0.891500  0.872070  1.0  0.1913
  C  C220  1  0.919700  0.864400  0.891600  1.0  -0.2088
  C  C221  1  0.993500  0.796500  0.887030  1.0  0.6726
  C  C222  1  0.267400  0.943100  0.832010  1.0  -0.1208
  C  C223  1  0.544300  0.979400  0.585710  1.0  -0.1766
  C  C224  1  0.293800  0.772200  0.785460  1.0  -0.1099
  C  C225  1  0.819020  0.998700  0.921760  1.0  -0.2139
  C  C226  1  0.780400  0.288200  0.787090  1.0  -0.1462
  C  C227  1  0.585000  0.942300  0.534020  1.0  0.1741
  C  C228  1  0.313780  0.483700  0.919700  1.0  -0.2108
  C  C229  1  0.241700  0.727200  0.827060  1.0  0.1838
  C  C230  1  0.732200  0.245900  0.832520  1.0  0.1808
  C  C231  1  0.355700  0.338400  0.861300  1.0  -0.0475
  C  C232  1  0.083500  0.433500  0.537360  1.0  0.182
  C  C233  1  0.846700  0.848500  0.861000  1.0  -0.0524
  C  C234  1  0.038200  0.475100  0.585680  1.0  -0.1898
  C  C235  1  0.292500  0.411000  0.873670  1.0  -0.0561
  C  C236  1  0.491900  0.802000  0.597580  1.0  -0.1446
  C  C237  1  0.534100  0.771400  0.545620  1.0  0.1846
  C  C238  1  0.789300  0.926100  0.878020  1.0  -0.0614
  C  C239  1  0.054500  0.260100  0.566300  1.0  0.16
  C  C240  1  0.008600  0.295200  0.615120  1.0  -0.1327
  S  S241  1  0.910560  0.035130  0.448610  1.0  0.1473
  S  S242  1  0.418210  0.526900  0.441840  1.0  0.1503
  S  S243  1  0.589440  0.535130  0.051390  1.0  0.1469
  S  S244  1  0.081790  0.026900  0.058160  1.0  0.1515
  S  S245  1  0.089440  0.964870  0.551390  1.0  0.1476
  S  S246  1  0.581790  0.473100  0.558160  1.0  0.1516
  S  S247  1  0.410560  0.464870  0.948610  1.0  0.1473
  S  S248  1  0.918210  0.973100  0.941840  1.0  0.1502
  N  N249  1  0.936250  0.461800  0.195080  1.0  -0.0863
  N  N250  1  0.079850  0.659700  0.013340  1.0  -0.328
  N  N251  1  0.704100  0.715000  0.371150  1.0  -0.3199
  N  N252  1  0.204570  0.195700  0.380260  1.0  -0.3157
  N  N253  1  0.590330  0.171700  0.026490  1.0  -0.3274
  N  N254  1  0.903290  0.631900  0.202440  1.0  -0.4633
  N  N255  1  0.428390  0.958900  0.190920  1.0  -0.0736
  N  N256  1  0.883470  0.465200  0.242850  1.0  -0.3511
  N  N257  1  0.374000  0.957300  0.237030  1.0  -0.3625
  N  N258  1  0.401050  0.128600  0.207480  1.0  -0.4507
  N  N259  1  0.563750  0.961800  0.304920  1.0  -0.0858
  N  N260  1  0.420150  0.159700  0.486660  1.0  -0.327
  N  N261  1  0.795900  0.215000  0.128850  1.0  -0.3198
  N  N262  1  0.295430  0.695700  0.119740  1.0  -0.3147
  N  N263  1  0.909670  0.671700  0.473510  1.0  -0.3268
  N  N264  1  0.596710  0.131900  0.297560  1.0  -0.4624
  N  N265  1  0.071610  0.458900  0.309080  1.0  -0.073
  N  N266  1  0.616530  0.965200  0.257150  1.0  -0.3501
  N  N267  1  0.126000  0.457300  0.262970  1.0  -0.3614
  N  N268  1  0.098950  0.628600  0.292520  1.0  -0.4504
  N  N269  1  0.063750  0.538200  0.804920  1.0  -0.0865
  N  N270  1  0.920150  0.340300  0.986660  1.0  -0.3268
  N  N271  1  0.295900  0.285000  0.628850  1.0  -0.3194
  N  N272  1  0.795430  0.804300  0.619740  1.0  -0.3152
  N  N273  1  0.409670  0.828300  0.973510  1.0  -0.3263
  N  N274  1  0.096710  0.368100  0.797560  1.0  -0.4627
  N  N275  1  0.571610  0.041100  0.809080  1.0  -0.074
  N  N276  1  0.116530  0.534800  0.757150  1.0  -0.3499
  N  N277  1  0.626000  0.042700  0.762970  1.0  -0.3626
  N  N278  1  0.598950  0.871400  0.792520  1.0  -0.4491
  N  N279  1  0.436250  0.038200  0.695080  1.0  -0.0859
  N  N280  1  0.579850  0.840300  0.513340  1.0  -0.3279
  N  N281  1  0.204100  0.785000  0.871150  1.0  -0.3202
  N  N282  1  0.704570  0.304300  0.880260  1.0  -0.3167
  N  N283  1  0.090330  0.328300  0.526490  1.0  -0.3278
  N  N284  1  0.403290  0.868100  0.702440  1.0  -0.4635
  N  N285  1  0.928390  0.541100  0.690920  1.0  -0.0739
  N  N286  1  0.383470  0.034800  0.742850  1.0  -0.3503
  N  N287  1  0.874000  0.542700  0.737030  1.0  -0.3637
  N  N288  1  0.901050  0.371400  0.707480  1.0  -0.4498
  O  O289  1  0.552430  0.675100  0.423460  1.0  -0.5887
  O  O290  1  0.054810  0.164760  0.438870  1.0  -0.5756
  O  O291  1  0.201590  0.402000  0.436670  1.0  -0.588
  O  O292  1  0.691820  0.921400  0.425290  1.0  -0.5755
  O  O293  1  0.799840  0.859400  0.480090  1.0  -0.6314
  O  O294  1  0.315580  0.348500  0.486810  1.0  -0.6324
  O  O295  1  0.005660  0.286400  0.369660  1.0  -0.618
  O  O296  1  0.491430  0.781900  0.350540  1.0  -0.6216
  O  O297  1  0.947570  0.175100  0.076540  1.0  -0.5899
  O  O298  1  0.445190  0.664760  0.061130  1.0  -0.5769
  O  O299  1  0.298410  0.902000  0.063330  1.0  -0.5892
  O  O300  1  0.808180  0.421400  0.074710  1.0  -0.5749
  O  O301  1  0.700160  0.359400  0.019910  1.0  -0.6318
  O  O302  1  0.184420  0.848500  0.013190  1.0  -0.6321
  O  O303  1  0.494340  0.786400  0.130340  1.0  -0.6182
  O  O304  1  0.008570  0.281900  0.149460  1.0  -0.6213
  O  O305  1  0.447570  0.324900  0.576540  1.0  -0.5882
  O  O306  1  0.945190  0.835240  0.561130  1.0  -0.5769
  O  O307  1  0.798410  0.598000  0.563330  1.0  -0.5893
  O  O308  1  0.308180  0.078600  0.574710  1.0  -0.5748
  O  O309  1  0.200160  0.140600  0.519910  1.0  -0.6328
  O  O310  1  0.684420  0.651500  0.513190  1.0  -0.6331
  O  O311  1  0.994340  0.713600  0.630340  1.0  -0.6181
  O  O312  1  0.508570  0.218100  0.649460  1.0  -0.6205
  O  O313  1  0.052430  0.824900  0.923460  1.0  -0.5875
  O  O314  1  0.554810  0.335240  0.938870  1.0  -0.5763
  O  O315  1  0.701590  0.098000  0.936670  1.0  -0.5884
  O  O316  1  0.191820  0.578600  0.925290  1.0  -0.5753
  O  O317  1  0.299840  0.640600  0.980090  1.0  -0.6319
  O  O318  1  0.815580  0.151500  0.986810  1.0  -0.6333
  O  O319  1  0.505660  0.213600  0.869660  1.0  -0.6172
  O  O320  1  0.991430  0.718100  0.850540  1.0  -0.618
