# generated using pymatgen
data_ZnH20C14N4O9
_symmetry_space_group_name_H-M   'P 1'
_cell_length_a   4.88550000
_cell_length_b   24.08660000
_cell_length_c   22.20250000
_cell_angle_alpha   90.00000000
_cell_angle_beta   90.00000000
_cell_angle_gamma   90.00000000
_symmetry_Int_Tables_number   1
_chemical_formula_structural   ZnH20C14N4O9
_chemical_formula_sum   'Zn4 H80 C56 N16 O36'
_cell_volume   2612.68105917
_cell_formula_units_Z   4
loop_
 _symmetry_equiv_pos_site_id
 _symmetry_equiv_pos_as_xyz
  1  'x, y, z'
loop_
 _atom_site_type_symbol
 _atom_site_label
 _atom_site_symmetry_multiplicity
 _atom_site_fract_x
 _atom_site_fract_y
 _atom_site_fract_z
 _atom_site_occupancy
 _atom_site_charge
  Zn  Zn1  1  0.506900  0.371720  0.627040  1.0  0.948
  Zn  Zn2  1  0.493100  0.628280  0.127040  1.0  0.9485
  Zn  Zn3  1  0.493100  0.871720  0.627040  1.0  0.9479
  Zn  Zn4  1  0.506900  0.128280  0.127040  1.0  0.9485
  H  H5  1  0.410800  0.350000  0.823300  1.0  0.1032
  H  H6  1  0.157200  0.390800  0.811500  1.0  0.1131
  H  H7  1  0.698000  0.429700  0.841500  1.0  0.1027
  H  H8  1  0.437100  0.469200  0.832600  1.0  0.1034
  H  H9  1  0.637600  0.342500  0.078700  1.0  0.0987
  H  H10  1  0.798700  0.323800  0.019200  1.0  0.0917
  H  H11  1  0.457100  0.264400  0.991900  1.0  0.1314
  H  H12  1  0.253600  0.289400  0.041400  1.0  0.1061
  H  H13  1  0.862500  0.466100  0.055900  1.0  0.1011
  H  H14  1  0.852100  0.504200  0.996700  1.0  0.0999
  H  H15  1  0.265100  0.512200  0.087800  1.0  0.1333
  H  H16  1  0.260700  0.549500  0.028400  1.0  0.1311
  H  H17  1  0.589200  0.650000  0.323300  1.0  0.1025
  H  H18  1  0.842800  0.609200  0.311500  1.0  0.1128
  H  H19  1  0.302000  0.570300  0.341500  1.0  0.1024
  H  H20  1  0.562900  0.530800  0.332600  1.0  0.1015
  H  H21  1  0.362400  0.657500  0.578700  1.0  0.0982
  H  H22  1  0.201300  0.676200  0.519200  1.0  0.0921
  H  H23  1  0.542900  0.735600  0.491900  1.0  0.1312
  H  H24  1  0.746400  0.710600  0.541400  1.0  0.1058
  H  H25  1  0.137500  0.533900  0.555900  1.0  0.101
  H  H26  1  0.147900  0.495800  0.496700  1.0  0.0993
  H  H27  1  0.734900  0.487800  0.587800  1.0  0.133
  H  H28  1  0.739300  0.450500  0.528400  1.0  0.131
  H  H29  1  0.589200  0.850000  0.823300  1.0  0.1032
  H  H30  1  0.842800  0.890800  0.811500  1.0  0.1131
  H  H31  1  0.302000  0.929700  0.841500  1.0  0.1023
  H  H32  1  0.562900  0.969200  0.832600  1.0  0.103
  H  H33  1  0.362400  0.842500  0.078700  1.0  0.0981
  H  H34  1  0.201300  0.823800  0.019200  1.0  0.0918
  H  H35  1  0.542900  0.764400  0.991900  1.0  0.1315
  H  H36  1  0.746400  0.789400  0.041400  1.0  0.1062
  H  H37  1  0.137500  0.966100  0.055900  1.0  0.1014
  H  H38  1  0.147900  0.004200  0.996700  1.0  0.0996
  H  H39  1  0.734900  0.012200  0.087800  1.0  0.1332
  H  H40  1  0.739300  0.049500  0.028400  1.0  0.1311
  H  H41  1  0.410800  0.150000  0.323300  1.0  0.1026
  H  H42  1  0.157200  0.109200  0.311500  1.0  0.1124
  H  H43  1  0.698000  0.070300  0.341500  1.0  0.1029
  H  H44  1  0.437100  0.030800  0.332600  1.0  0.1011
  H  H45  1  0.637600  0.157500  0.578700  1.0  0.0983
  H  H46  1  0.798700  0.176200  0.519200  1.0  0.092
  H  H47  1  0.457100  0.235600  0.491900  1.0  0.1311
  H  H48  1  0.253600  0.210600  0.541400  1.0  0.1061
  H  H49  1  0.862500  0.033900  0.555900  1.0  0.1007
  H  H50  1  0.852100  0.995800  0.496700  1.0  0.0996
  H  H51  1  0.265100  0.987800  0.587800  1.0  0.1332
  H  H52  1  0.260700  0.950500  0.528400  1.0  0.1313
  H  H53  1  0.746300  0.706300  0.670000  1.0  0.0893
  H  H54  1  0.720100  0.700200  0.741600  1.0  0.0941
  H  H55  1  0.990900  0.679300  0.708000  1.0  0.1046
  H  H56  1  0.195500  0.803900  0.774600  1.0  0.0916
  H  H57  1  0.263000  0.738900  0.773300  1.0  0.094
  H  H58  1  0.991300  0.760700  0.805900  1.0  0.095
  H  H59  1  0.830200  0.787600  0.714500  1.0  0.185
  H  H60  1  0.083300  0.767900  0.684100  1.0  0.1676
  H  H61  1  0.253700  0.293700  0.170000  1.0  0.0891
  H  H62  1  0.279900  0.299800  0.241600  1.0  0.0935
  H  H63  1  0.009100  0.320700  0.208000  1.0  0.1059
  H  H64  1  0.804500  0.196100  0.274600  1.0  0.0912
  H  H65  1  0.737000  0.261100  0.273300  1.0  0.0921
  H  H66  1  0.008700  0.239300  0.305900  1.0  0.0957
  H  H67  1  0.169800  0.212400  0.214500  1.0  0.1849
  H  H68  1  0.916700  0.232100  0.184100  1.0  0.1666
  H  H69  1  0.253700  0.206300  0.670000  1.0  0.0891
  H  H70  1  0.279900  0.200200  0.741600  1.0  0.094
  H  H71  1  0.009100  0.179300  0.708000  1.0  0.1042
  H  H72  1  0.804500  0.303900  0.774600  1.0  0.0921
  H  H73  1  0.737000  0.238900  0.773300  1.0  0.0921
  H  H74  1  0.008700  0.260700  0.805900  1.0  0.0956
  H  H75  1  0.169800  0.287600  0.714500  1.0  0.1863
  H  H76  1  0.916700  0.267900  0.684100  1.0  0.1672
  H  H77  1  0.746300  0.793700  0.170000  1.0  0.0897
  H  H78  1  0.720100  0.799800  0.241600  1.0  0.0932
  H  H79  1  0.990900  0.820700  0.208000  1.0  0.1062
  H  H80  1  0.195500  0.696100  0.274600  1.0  0.0904
  H  H81  1  0.263000  0.761100  0.273300  1.0  0.0944
  H  H82  1  0.991300  0.739300  0.305900  1.0  0.0953
  H  H83  1  0.830200  0.712400  0.214500  1.0  0.1843
  H  H84  1  0.083300  0.732100  0.184100  1.0  0.1673
  C  C85  1  0.443100  0.392730  0.742850  1.0  0.7213
  C  C86  1  0.358500  0.387200  0.808170  1.0  -0.3789
  C  C87  1  0.496900  0.432050  0.846420  1.0  -0.0192
  C  C88  1  0.614800  0.331230  0.036100  1.0  0.0475
  C  C89  1  0.447100  0.279750  0.033300  1.0  -0.3298
  C  C90  1  0.536800  0.234960  0.077700  1.0  0.7518
  C  C91  1  0.975700  0.486610  0.026420  1.0  0.0145
  C  C92  1  0.143200  0.530650  0.058400  1.0  -0.3867
  C  C93  1  0.975400  0.574020  0.091070  1.0  0.7923
  C  C94  1  0.290000  0.406880  0.029640  1.0  0.5888
  C  C95  1  0.220200  0.456860  0.934590  1.0  0.6125
  C  C96  1  0.572200  0.384820  0.942100  1.0  0.5614
  C  C97  1  0.556900  0.607270  0.242850  1.0  0.7229
  C  C98  1  0.641500  0.612800  0.308170  1.0  -0.3768
  C  C99  1  0.503100  0.567950  0.346420  1.0  -0.0188
  C  C100  1  0.385200  0.668770  0.536100  1.0  0.048
  C  C101  1  0.552900  0.720250  0.533300  1.0  -0.3271
  C  C102  1  0.463200  0.765040  0.577700  1.0  0.7511
  C  C103  1  0.024300  0.513390  0.526420  1.0  0.0177
  C  C104  1  0.856800  0.469350  0.558400  1.0  -0.3872
  C  C105  1  0.024600  0.425980  0.591070  1.0  0.7917
  C  C106  1  0.710000  0.593120  0.529640  1.0  0.5895
  C  C107  1  0.779800  0.543140  0.434590  1.0  0.6155
  C  C108  1  0.427800  0.615180  0.442100  1.0  0.5607
  C  C109  1  0.556900  0.892730  0.742850  1.0  0.722
  C  C110  1  0.641500  0.887200  0.808170  1.0  -0.3771
  C  C111  1  0.503100  0.932050  0.846420  1.0  -0.0195
  C  C112  1  0.385200  0.831230  0.036100  1.0  0.048
  C  C113  1  0.552900  0.779750  0.033300  1.0  -0.3301
  C  C114  1  0.463200  0.734960  0.077700  1.0  0.752
  C  C115  1  0.024300  0.986610  0.026420  1.0  0.0175
  C  C116  1  0.856800  0.030650  0.058400  1.0  -0.3874
  C  C117  1  0.024600  0.074020  0.091070  1.0  0.7929
  C  C118  1  0.710000  0.906880  0.029640  1.0  0.5895
  C  C119  1  0.779800  0.956860  0.934590  1.0  0.6127
  C  C120  1  0.427800  0.884820  0.942100  1.0  0.5603
  C  C121  1  0.443100  0.107270  0.242850  1.0  0.7224
  C  C122  1  0.358500  0.112800  0.308170  1.0  -0.3787
  C  C123  1  0.496900  0.067950  0.346420  1.0  -0.0199
  C  C124  1  0.614800  0.168770  0.536100  1.0  0.0475
  C  C125  1  0.447100  0.220250  0.533300  1.0  -0.3284
  C  C126  1  0.536800  0.265040  0.577700  1.0  0.7512
  C  C127  1  0.975700  0.013390  0.526420  1.0  0.015
  C  C128  1  0.143200  0.969350  0.558400  1.0  -0.3873
  C  C129  1  0.975400  0.925980  0.591070  1.0  0.7911
  C  C130  1  0.290000  0.093120  0.529640  1.0  0.5888
  C  C131  1  0.220200  0.043140  0.434590  1.0  0.6156
  C  C132  1  0.572200  0.115180  0.442100  1.0  0.562
  C  C133  1  0.846500  0.707600  0.708200  1.0  -0.1508
  C  C134  1  0.116200  0.766600  0.772000  1.0  -0.1525
  C  C135  1  0.153500  0.292400  0.208200  1.0  -0.1502
  C  C136  1  0.883800  0.233400  0.272000  1.0  -0.1524
  C  C137  1  0.153500  0.207600  0.708200  1.0  -0.1506
  C  C138  1  0.883800  0.266600  0.772000  1.0  -0.1531
  C  C139  1  0.846500  0.792400  0.208200  1.0  -0.1516
  C  C140  1  0.116200  0.733400  0.272000  1.0  -0.1515
  N  N141  1  0.425100  0.424720  0.910470  1.0  -0.3152
  N  N142  1  0.486000  0.376380  0.002410  1.0  -0.1703
  N  N143  1  0.166300  0.447560  0.995180  1.0  -0.288
  N  N144  1  0.574900  0.575280  0.410470  1.0  -0.3152
  N  N145  1  0.514000  0.623620  0.502410  1.0  -0.1705
  N  N146  1  0.833700  0.552440  0.495180  1.0  -0.2881
  N  N147  1  0.574900  0.924720  0.910470  1.0  -0.3152
  N  N148  1  0.514000  0.876380  0.002410  1.0  -0.1707
  N  N149  1  0.833700  0.947560  0.995180  1.0  -0.2881
  N  N150  1  0.425100  0.075280  0.410470  1.0  -0.3152
  N  N151  1  0.486000  0.123620  0.502410  1.0  -0.1702
  N  N152  1  0.166300  0.052440  0.495180  1.0  -0.288
  N  N153  1  0.966200  0.761190  0.715700  1.0  -0.0421
  N  N154  1  0.033800  0.238810  0.215700  1.0  -0.0417
  N  N155  1  0.033800  0.261190  0.715700  1.0  -0.0419
  N  N156  1  0.966200  0.738810  0.215700  1.0  -0.0417
  O  O157  1  0.408300  0.349110  0.709480  1.0  -0.6368
  O  O158  1  0.530300  0.436210  0.722640  1.0  -0.568
  O  O159  1  0.435400  0.188360  0.070460  1.0  -0.588
  O  O160  1  0.698100  0.247760  0.118230  1.0  -0.6196
  O  O161  1  0.718900  0.568790  0.089800  1.0  -0.5669
  O  O162  1  0.095900  0.612440  0.117940  1.0  -0.5746
  O  O163  1  0.757700  0.359040  0.919760  1.0  -0.4822
  O  O164  1  0.225600  0.398990  0.081700  1.0  -0.5214
  O  O165  1  0.101100  0.491870  0.906120  1.0  -0.4872
  O  O166  1  0.591700  0.650890  0.209480  1.0  -0.6366
  O  O167  1  0.469700  0.563790  0.222640  1.0  -0.5672
  O  O168  1  0.564600  0.811640  0.570460  1.0  -0.5873
  O  O169  1  0.301900  0.752240  0.618230  1.0  -0.619
  O  O170  1  0.281100  0.431210  0.589800  1.0  -0.5673
  O  O171  1  0.904100  0.387560  0.617940  1.0  -0.5739
  O  O172  1  0.242300  0.640960  0.419760  1.0  -0.4821
  O  O173  1  0.774400  0.601010  0.581700  1.0  -0.5201
  O  O174  1  0.898900  0.508130  0.406120  1.0  -0.4898
  O  O175  1  0.591700  0.849110  0.709480  1.0  -0.6366
  O  O176  1  0.469700  0.936210  0.722640  1.0  -0.5679
  O  O177  1  0.564600  0.688360  0.070460  1.0  -0.5871
  O  O178  1  0.301900  0.747760  0.118230  1.0  -0.6196
  O  O179  1  0.281100  0.068790  0.089800  1.0  -0.5674
  O  O180  1  0.904100  0.112440  0.117940  1.0  -0.5742
  O  O181  1  0.242300  0.859040  0.919760  1.0  -0.4829
  O  O182  1  0.774400  0.898990  0.081700  1.0  -0.5207
  O  O183  1  0.898900  0.991870  0.906120  1.0  -0.487
  O  O184  1  0.408300  0.150890  0.209480  1.0  -0.6367
  O  O185  1  0.530300  0.063790  0.222640  1.0  -0.5666
  O  O186  1  0.435400  0.311640  0.570460  1.0  -0.5867
  O  O187  1  0.698100  0.252240  0.618230  1.0  -0.6194
  O  O188  1  0.718900  0.931210  0.589800  1.0  -0.5667
  O  O189  1  0.095900  0.887560  0.617940  1.0  -0.574
  O  O190  1  0.757700  0.140960  0.419760  1.0  -0.4819
  O  O191  1  0.225600  0.101010  0.581700  1.0  -0.5211
  O  O192  1  0.101100  0.008130  0.406120  1.0  -0.4895
