# generated using pymatgen
data_NdH18(C4O)6
_symmetry_space_group_name_H-M   'P 1'
_cell_length_a   30.17400000
_cell_length_b   9.98390000
_cell_length_c   14.09900000
_cell_angle_alpha   90.00000000
_cell_angle_beta   97.35300000
_cell_angle_gamma   90.00000000
_symmetry_Int_Tables_number   1
_chemical_formula_structural   NdH18(C4O)6
_chemical_formula_sum   'Nd8 H144 C192 O48'
_cell_volume   4212.45450900
_cell_formula_units_Z   8
loop_
 _symmetry_equiv_pos_site_id
 _symmetry_equiv_pos_as_xyz
  1  'x, y, z'
loop_
 _atom_site_type_symbol
 _atom_site_label
 _atom_site_symmetry_multiplicity
 _atom_site_fract_x
 _atom_site_fract_y
 _atom_site_fract_z
 _atom_site_occupancy
 _atom_site_charge
  Nd  Nd1  1  0.000000  0.673980  0.250000  1.0  2.2918
  Nd  Nd2  1  0.500000  0.173980  0.250000  1.0  2.2918
  Nd  Nd3  1  0.000000  0.326020  0.750000  1.0  2.2918
  Nd  Nd4  1  0.500000  0.826020  0.750000  1.0  2.2918
  Nd  Nd5  1  0.000000  0.500000  0.000000  1.0  2.2916
  Nd  Nd6  1  0.500000  0.000000  0.000000  1.0  2.2916
  Nd  Nd7  1  0.000000  0.500000  0.500000  1.0  2.2916
  Nd  Nd8  1  0.500000  0.000000  0.500000  1.0  2.2916
  H  H9  1  0.877300  0.569700  0.009800  1.0  0.1487
  H  H10  1  0.882400  0.727300  0.995400  1.0  0.1387
  H  H11  1  0.837200  0.878100  0.092100  1.0  0.1067
  H  H12  1  0.767900  0.910700  0.139800  1.0  0.1054
  H  H13  1  0.744900  0.519800  0.121200  1.0  0.1084
  H  H14  1  0.814700  0.487800  0.076500  1.0  0.0908
  H  H15  1  0.706800  0.938200  0.184500  1.0  0.1081
  H  H16  1  0.637000  0.967800  0.231600  1.0  0.0933
  H  H17  1  0.615100  0.577900  0.212000  1.0  0.0925
  H  H18  1  0.684300  0.545200  0.163400  1.0  0.1143
  H  H19  1  0.558800  0.708600  0.269400  1.0  0.1317
  H  H20  1  0.573500  0.853400  0.312100  1.0  0.1234
  H  H21  1  0.098800  0.840300  0.163000  1.0  0.13
  H  H22  1  0.084600  0.913300  0.063000  1.0  0.1348
  H  H23  1  0.169000  0.727700  0.190700  1.0  0.0919
  H  H24  1  0.239400  0.691500  0.149400  1.0  0.1091
  H  H25  1  0.198900  0.835700  0.887000  1.0  0.1167
  H  H26  1  0.127900  0.868100  0.930100  1.0  0.1074
  H  H27  1  0.377300  0.069700  0.009800  1.0  0.1487
  H  H28  1  0.382400  0.227300  0.995400  1.0  0.1387
  H  H29  1  0.337200  0.378100  0.092100  1.0  0.1067
  H  H30  1  0.267900  0.410700  0.139800  1.0  0.1054
  H  H31  1  0.244900  0.019800  0.121200  1.0  0.1084
  H  H32  1  0.314700  0.987800  0.076500  1.0  0.0908
  H  H33  1  0.206800  0.438200  0.184500  1.0  0.1077
  H  H34  1  0.137000  0.467800  0.231600  1.0  0.0933
  H  H35  1  0.115100  0.077900  0.212000  1.0  0.0925
  H  H36  1  0.184300  0.045200  0.163400  1.0  0.1143
  H  H37  1  0.058800  0.208600  0.269400  1.0  0.1317
  H  H38  1  0.073500  0.353400  0.312100  1.0  0.1234
  H  H39  1  0.598800  0.340300  0.163000  1.0  0.13
  H  H40  1  0.584600  0.413300  0.063000  1.0  0.1348
  H  H41  1  0.669000  0.227700  0.190700  1.0  0.0919
  H  H42  1  0.739400  0.191500  0.149400  1.0  0.1102
  H  H43  1  0.698900  0.335700  0.887000  1.0  0.1171
  H  H44  1  0.627900  0.368100  0.930100  1.0  0.1074
  H  H45  1  0.122700  0.569700  0.490200  1.0  0.1488
  H  H46  1  0.117600  0.727300  0.504600  1.0  0.1387
  H  H47  1  0.162800  0.878100  0.407900  1.0  0.1073
  H  H48  1  0.232100  0.910700  0.360200  1.0  0.105
  H  H49  1  0.255100  0.519800  0.378800  1.0  0.1089
  H  H50  1  0.185300  0.487800  0.423500  1.0  0.0909
  H  H51  1  0.293200  0.938200  0.315500  1.0  0.108
  H  H52  1  0.363000  0.967800  0.268400  1.0  0.0934
  H  H53  1  0.384900  0.577900  0.288000  1.0  0.0933
  H  H54  1  0.315700  0.545200  0.336600  1.0  0.1143
  H  H55  1  0.441200  0.708600  0.230600  1.0  0.1314
  H  H56  1  0.426500  0.853400  0.187900  1.0  0.1208
  H  H57  1  0.901200  0.840300  0.337000  1.0  0.1286
  H  H58  1  0.915400  0.913300  0.437000  1.0  0.1348
  H  H59  1  0.831000  0.727700  0.309300  1.0  0.0927
  H  H60  1  0.760600  0.691500  0.350600  1.0  0.1081
  H  H61  1  0.801100  0.835700  0.613000  1.0  0.116
  H  H62  1  0.872100  0.868100  0.569900  1.0  0.1067
  H  H63  1  0.622700  0.069700  0.490200  1.0  0.1488
  H  H64  1  0.617600  0.227300  0.504600  1.0  0.1387
  H  H65  1  0.662800  0.378100  0.407900  1.0  0.1073
  H  H66  1  0.732100  0.410700  0.360200  1.0  0.105
  H  H67  1  0.755100  0.019800  0.378800  1.0  0.1089
  H  H68  1  0.685300  0.987800  0.423500  1.0  0.0909
  H  H69  1  0.793200  0.438200  0.315500  1.0  0.1076
  H  H70  1  0.863000  0.467800  0.268400  1.0  0.0934
  H  H71  1  0.884900  0.077900  0.288000  1.0  0.0933
  H  H72  1  0.815700  0.045200  0.336600  1.0  0.1143
  H  H73  1  0.941200  0.208600  0.230600  1.0  0.1314
  H  H74  1  0.926500  0.353400  0.187900  1.0  0.1208
  H  H75  1  0.401200  0.340300  0.337000  1.0  0.1286
  H  H76  1  0.415400  0.413300  0.437000  1.0  0.1348
  H  H77  1  0.331000  0.227700  0.309300  1.0  0.0927
  H  H78  1  0.260600  0.191500  0.350600  1.0  0.1092
  H  H79  1  0.301100  0.335700  0.613000  1.0  0.1166
  H  H80  1  0.372100  0.368100  0.569900  1.0  0.1067
  H  H81  1  0.122700  0.430300  0.990200  1.0  0.1477
  H  H82  1  0.117600  0.272700  0.004600  1.0  0.1397
  H  H83  1  0.162800  0.121900  0.907900  1.0  0.1065
  H  H84  1  0.232100  0.089300  0.860200  1.0  0.1036
  H  H85  1  0.255100  0.480200  0.878800  1.0  0.1085
  H  H86  1  0.185300  0.512200  0.923500  1.0  0.0908
  H  H87  1  0.293200  0.061800  0.815500  1.0  0.1074
  H  H88  1  0.363000  0.032200  0.768400  1.0  0.0933
  H  H89  1  0.384900  0.422100  0.788000  1.0  0.0939
  H  H90  1  0.315700  0.454800  0.836600  1.0  0.1148
  H  H91  1  0.441200  0.291400  0.730600  1.0  0.1307
  H  H92  1  0.426500  0.146600  0.687900  1.0  0.1209
  H  H93  1  0.901200  0.159700  0.837000  1.0  0.1285
  H  H94  1  0.915400  0.086700  0.937000  1.0  0.1353
  H  H95  1  0.831000  0.272300  0.809300  1.0  0.0924
  H  H96  1  0.760600  0.308500  0.850600  1.0  0.1088
  H  H97  1  0.801100  0.164300  0.113000  1.0  0.1163
  H  H98  1  0.872100  0.131900  0.069900  1.0  0.107
  H  H99  1  0.622700  0.930300  0.990200  1.0  0.1477
  H  H100  1  0.617600  0.772700  0.004600  1.0  0.1397
  H  H101  1  0.662800  0.621900  0.907900  1.0  0.1065
  H  H102  1  0.732100  0.589300  0.860200  1.0  0.1036
  H  H103  1  0.755100  0.980200  0.878800  1.0  0.1085
  H  H104  1  0.685300  0.012200  0.923500  1.0  0.0908
  H  H105  1  0.793200  0.561800  0.815500  1.0  0.107
  H  H106  1  0.863000  0.532200  0.768400  1.0  0.0933
  H  H107  1  0.884900  0.922100  0.788000  1.0  0.0939
  H  H108  1  0.815700  0.954800  0.836600  1.0  0.1148
  H  H109  1  0.941200  0.791400  0.730600  1.0  0.1307
  H  H110  1  0.926500  0.646600  0.687900  1.0  0.1209
  H  H111  1  0.401200  0.659700  0.837000  1.0  0.1285
  H  H112  1  0.415400  0.586700  0.937000  1.0  0.1353
  H  H113  1  0.331000  0.772300  0.809300  1.0  0.0924
  H  H114  1  0.260600  0.808500  0.850600  1.0  0.1088
  H  H115  1  0.301100  0.664300  0.113000  1.0  0.1157
  H  H116  1  0.372100  0.631900  0.069900  1.0  0.107
  H  H117  1  0.877300  0.430300  0.509800  1.0  0.1478
  H  H118  1  0.882400  0.272700  0.495400  1.0  0.1387
  H  H119  1  0.837200  0.121900  0.592100  1.0  0.1069
  H  H120  1  0.767900  0.089300  0.639800  1.0  0.1038
  H  H121  1  0.744900  0.480200  0.621200  1.0  0.1084
  H  H122  1  0.814700  0.512200  0.576500  1.0  0.0909
  H  H123  1  0.706800  0.061800  0.684500  1.0  0.1076
  H  H124  1  0.637000  0.032200  0.731600  1.0  0.0928
  H  H125  1  0.615100  0.422100  0.712000  1.0  0.0928
  H  H126  1  0.684300  0.454800  0.663400  1.0  0.1148
  H  H127  1  0.558800  0.291400  0.769400  1.0  0.1315
  H  H128  1  0.573500  0.146600  0.812100  1.0  0.123
  H  H129  1  0.098800  0.159700  0.663000  1.0  0.1306
  H  H130  1  0.084600  0.086700  0.563000  1.0  0.1345
  H  H131  1  0.169000  0.272300  0.690700  1.0  0.0919
  H  H132  1  0.239400  0.308500  0.649400  1.0  0.1093
  H  H133  1  0.198900  0.164300  0.387000  1.0  0.1168
  H  H134  1  0.127900  0.131900  0.430100  1.0  0.1072
  H  H135  1  0.377300  0.930300  0.509800  1.0  0.1478
  H  H136  1  0.382400  0.772700  0.495400  1.0  0.1387
  H  H137  1  0.337200  0.621900  0.592100  1.0  0.1069
  H  H138  1  0.267900  0.589300  0.639800  1.0  0.1038
  H  H139  1  0.244900  0.980200  0.621200  1.0  0.1084
  H  H140  1  0.314700  0.012200  0.576500  1.0  0.0909
  H  H141  1  0.206800  0.561800  0.684500  1.0  0.1072
  H  H142  1  0.137000  0.532200  0.731600  1.0  0.0928
  H  H143  1  0.115100  0.922100  0.712000  1.0  0.0928
  H  H144  1  0.184300  0.954800  0.663400  1.0  0.1148
  H  H145  1  0.058800  0.791400  0.769400  1.0  0.1315
  H  H146  1  0.073500  0.646600  0.812100  1.0  0.123
  H  H147  1  0.598800  0.659700  0.663000  1.0  0.1306
  H  H148  1  0.584600  0.586700  0.563000  1.0  0.1345
  H  H149  1  0.669000  0.772300  0.690700  1.0  0.0919
  H  H150  1  0.739400  0.808500  0.649400  1.0  0.1093
  H  H151  1  0.698900  0.664300  0.387000  1.0  0.1162
  H  H152  1  0.627900  0.631900  0.430100  1.0  0.1072
  C  C153  1  0.917100  0.659000  0.119400  1.0  0.7307
  C  C154  1  0.878000  0.657300  0.042900  1.0  -0.3784
  C  C155  1  0.833100  0.679900  0.077400  1.0  0.09
  C  C156  1  0.818400  0.802900  0.097800  1.0  -0.1625
  C  C157  1  0.777000  0.822300  0.126700  1.0  -0.148
  C  C158  1  0.748600  0.717900  0.137200  1.0  0.0457
  C  C159  1  0.763600  0.595300  0.116400  1.0  -0.1484
  C  C160  1  0.805200  0.576200  0.088400  1.0  -0.1609
  C  C161  1  0.704000  0.737200  0.169500  1.0  -0.0078
  C  C162  1  0.688400  0.862200  0.189900  1.0  -0.1639
  C  C163  1  0.646400  0.879900  0.217800  1.0  -0.1398
  C  C164  1  0.618300  0.775400  0.226300  1.0  0.1219
  C  C165  1  0.633600  0.653500  0.206300  1.0  -0.1437
  C  C166  1  0.675400  0.633500  0.177700  1.0  -0.1649
  C  C167  1  0.571900  0.795900  0.254600  1.0  -0.3329
  C  C168  1  0.543400  0.861600  0.172000  1.0  0.7533
  C  C169  1  0.062400  0.724000  0.066300  1.0  0.7351
  C  C170  1  0.095800  0.828000  0.092800  1.0  -0.3789
  C  C171  1  0.141300  0.801700  0.064900  1.0  0.0917
  C  C172  1  0.174800  0.749900  0.128000  1.0  -0.1208
  C  C173  1  0.217000  0.728700  0.103600  1.0  -0.1614
  C  C174  1  0.227100  0.760700  0.013300  1.0  0.0282
  C  C175  1  0.193200  0.812800  0.949800  1.0  -0.1641
  C  C176  1  0.150800  0.832400  0.975700  1.0  -0.1383
  C  C177  1  0.417100  0.159000  0.119400  1.0  0.7307
  C  C178  1  0.378000  0.157300  0.042900  1.0  -0.3784
  C  C179  1  0.333100  0.179900  0.077400  1.0  0.09
  C  C180  1  0.318400  0.302900  0.097800  1.0  -0.1625
  C  C181  1  0.277000  0.322300  0.126700  1.0  -0.148
  C  C182  1  0.248600  0.217900  0.137200  1.0  0.0457
  C  C183  1  0.263600  0.095300  0.116400  1.0  -0.1484
  C  C184  1  0.305200  0.076200  0.088400  1.0  -0.1609
  C  C185  1  0.204000  0.237200  0.169500  1.0  -0.0078
  C  C186  1  0.188400  0.362200  0.189900  1.0  -0.1639
  C  C187  1  0.146400  0.379900  0.217800  1.0  -0.1398
  C  C188  1  0.118300  0.275400  0.226300  1.0  0.1219
  C  C189  1  0.133600  0.153500  0.206300  1.0  -0.1437
  C  C190  1  0.175400  0.133500  0.177700  1.0  -0.1649
  C  C191  1  0.071900  0.295900  0.254600  1.0  -0.3329
  C  C192  1  0.043400  0.361600  0.172000  1.0  0.7533
  C  C193  1  0.562400  0.224000  0.066300  1.0  0.7343
  C  C194  1  0.595800  0.328000  0.092800  1.0  -0.3789
  C  C195  1  0.641300  0.301700  0.064900  1.0  0.0917
  C  C196  1  0.674800  0.249900  0.128000  1.0  -0.1208
  C  C197  1  0.717000  0.228700  0.103600  1.0  -0.1614
  C  C198  1  0.727100  0.260700  0.013300  1.0  0.0282
  C  C199  1  0.693200  0.312800  0.949800  1.0  -0.1641
  C  C200  1  0.650800  0.332400  0.975700  1.0  -0.1383
  C  C201  1  0.082900  0.659000  0.380600  1.0  0.7297
  C  C202  1  0.122000  0.657300  0.457100  1.0  -0.3803
  C  C203  1  0.166900  0.679900  0.422600  1.0  0.0894
  C  C204  1  0.181600  0.802900  0.402200  1.0  -0.1634
  C  C205  1  0.223000  0.822300  0.373300  1.0  -0.1463
  C  C206  1  0.251400  0.717900  0.362800  1.0  0.0454
  C  C207  1  0.236400  0.595300  0.383600  1.0  -0.1473
  C  C208  1  0.194800  0.576200  0.411600  1.0  -0.1608
  C  C209  1  0.296000  0.737200  0.330500  1.0  -0.0092
  C  C210  1  0.311600  0.862200  0.310100  1.0  -0.1663
  C  C211  1  0.353600  0.879900  0.282200  1.0  -0.1393
  C  C212  1  0.381700  0.775400  0.273700  1.0  0.1226
  C  C213  1  0.366400  0.653500  0.293700  1.0  -0.1439
  C  C214  1  0.324600  0.633500  0.322300  1.0  -0.1655
  C  C215  1  0.428100  0.795900  0.245400  1.0  -0.3324
  C  C216  1  0.456600  0.861600  0.328000  1.0  0.7515
  C  C217  1  0.937600  0.724000  0.433700  1.0  0.735
  C  C218  1  0.904200  0.828000  0.407200  1.0  -0.3781
  C  C219  1  0.858700  0.801700  0.435100  1.0  0.0926
  C  C220  1  0.825200  0.749900  0.372000  1.0  -0.1195
  C  C221  1  0.783000  0.728700  0.396400  1.0  -0.161
  C  C222  1  0.772900  0.760700  0.486700  1.0  0.0287
  C  C223  1  0.806800  0.812800  0.550200  1.0  -0.1673
  C  C224  1  0.849200  0.832400  0.524300  1.0  -0.1386
  C  C225  1  0.582900  0.159000  0.380600  1.0  0.7297
  C  C226  1  0.622000  0.157300  0.457100  1.0  -0.3803
  C  C227  1  0.666900  0.179900  0.422600  1.0  0.0894
  C  C228  1  0.681600  0.302900  0.402200  1.0  -0.1634
  C  C229  1  0.723000  0.322300  0.373300  1.0  -0.1463
  C  C230  1  0.751400  0.217900  0.362800  1.0  0.0454
  C  C231  1  0.736400  0.095300  0.383600  1.0  -0.1473
  C  C232  1  0.694800  0.076200  0.411600  1.0  -0.1608
  C  C233  1  0.796000  0.237200  0.330500  1.0  -0.0092
  C  C234  1  0.811600  0.362200  0.310100  1.0  -0.1663
  C  C235  1  0.853600  0.379900  0.282200  1.0  -0.1393
  C  C236  1  0.881700  0.275400  0.273700  1.0  0.1226
  C  C237  1  0.866400  0.153500  0.293700  1.0  -0.1439
  C  C238  1  0.824600  0.133500  0.322300  1.0  -0.1655
  C  C239  1  0.928100  0.295900  0.245400  1.0  -0.3324
  C  C240  1  0.956600  0.361600  0.328000  1.0  0.7515
  C  C241  1  0.437600  0.224000  0.433700  1.0  0.7338
  C  C242  1  0.404200  0.328000  0.407200  1.0  -0.3781
  C  C243  1  0.358700  0.301700  0.435100  1.0  0.0926
  C  C244  1  0.325200  0.249900  0.372000  1.0  -0.1195
  C  C245  1  0.283000  0.228700  0.396400  1.0  -0.161
  C  C246  1  0.272900  0.260700  0.486700  1.0  0.0287
  C  C247  1  0.306800  0.312800  0.550200  1.0  -0.1673
  C  C248  1  0.349200  0.332400  0.524300  1.0  -0.1386
  C  C249  1  0.082900  0.341000  0.880600  1.0  0.7292
  C  C250  1  0.122000  0.342700  0.957100  1.0  -0.381
  C  C251  1  0.166900  0.320100  0.922600  1.0  0.0898
  C  C252  1  0.181600  0.197100  0.902200  1.0  -0.1624
  C  C253  1  0.223000  0.177700  0.873300  1.0  -0.1461
  C  C254  1  0.251400  0.282100  0.862800  1.0  0.0454
  C  C255  1  0.236400  0.404700  0.883600  1.0  -0.1474
  C  C256  1  0.194800  0.423800  0.911600  1.0  -0.1604
  C  C257  1  0.296000  0.262800  0.830500  1.0  -0.0092
  C  C258  1  0.311600  0.137800  0.810100  1.0  -0.1665
  C  C259  1  0.353600  0.120100  0.782200  1.0  -0.1387
  C  C260  1  0.381700  0.224600  0.773700  1.0  0.1228
  C  C261  1  0.366400  0.346500  0.793700  1.0  -0.1449
  C  C262  1  0.324600  0.366500  0.822300  1.0  -0.1664
  C  C263  1  0.428100  0.204100  0.745400  1.0  -0.3326
  C  C264  1  0.456600  0.138400  0.828000  1.0  0.7516
  C  C265  1  0.937600  0.276000  0.933700  1.0  0.735
  C  C266  1  0.904200  0.172000  0.907200  1.0  -0.3784
  C  C267  1  0.858700  0.198300  0.935100  1.0  0.0929
  C  C268  1  0.825200  0.250100  0.872000  1.0  -0.1195
  C  C269  1  0.783000  0.271300  0.896400  1.0  -0.1607
  C  C270  1  0.772900  0.239300  0.986700  1.0  0.0287
  C  C271  1  0.806800  0.187200  0.050200  1.0  -0.1613
  C  C272  1  0.849200  0.167600  0.024300  1.0  -0.1384
  C  C273  1  0.582900  0.841000  0.880600  1.0  0.7292
  C  C274  1  0.622000  0.842700  0.957100  1.0  -0.381
  C  C275  1  0.666900  0.820100  0.922600  1.0  0.0898
  C  C276  1  0.681600  0.697100  0.902200  1.0  -0.1624
  C  C277  1  0.723000  0.677700  0.873300  1.0  -0.1461
  C  C278  1  0.751400  0.782100  0.862800  1.0  0.0454
  C  C279  1  0.736400  0.904700  0.883600  1.0  -0.1474
  C  C280  1  0.694800  0.923800  0.911600  1.0  -0.1604
  C  C281  1  0.796000  0.762800  0.830500  1.0  -0.0092
  C  C282  1  0.811600  0.637800  0.810100  1.0  -0.1665
  C  C283  1  0.853600  0.620100  0.782200  1.0  -0.1387
  C  C284  1  0.881700  0.724600  0.773700  1.0  0.1228
  C  C285  1  0.866400  0.846500  0.793700  1.0  -0.1449
  C  C286  1  0.824600  0.866500  0.822300  1.0  -0.1664
  C  C287  1  0.928100  0.704100  0.745400  1.0  -0.3326
  C  C288  1  0.956600  0.638400  0.828000  1.0  0.7516
  C  C289  1  0.437600  0.776000  0.933700  1.0  0.7337
  C  C290  1  0.404200  0.672000  0.907200  1.0  -0.3784
  C  C291  1  0.358700  0.698300  0.935100  1.0  0.0929
  C  C292  1  0.325200  0.750100  0.872000  1.0  -0.1195
  C  C293  1  0.283000  0.771300  0.896400  1.0  -0.1607
  C  C294  1  0.272900  0.739300  0.986700  1.0  0.0287
  C  C295  1  0.306800  0.687200  0.050200  1.0  -0.1613
  C  C296  1  0.349200  0.667600  0.024300  1.0  -0.1384
  C  C297  1  0.917100  0.341000  0.619400  1.0  0.7303
  C  C298  1  0.878000  0.342700  0.542900  1.0  -0.3785
  C  C299  1  0.833100  0.320100  0.577400  1.0  0.0903
  C  C300  1  0.818400  0.197100  0.597800  1.0  -0.1621
  C  C301  1  0.777000  0.177700  0.626700  1.0  -0.1477
  C  C302  1  0.748600  0.282100  0.637200  1.0  0.0457
  C  C303  1  0.763600  0.404700  0.616400  1.0  -0.1485
  C  C304  1  0.805200  0.423800  0.588400  1.0  -0.1605
  C  C305  1  0.704000  0.262800  0.669500  1.0  -0.0078
  C  C306  1  0.688400  0.137800  0.689900  1.0  -0.1648
  C  C307  1  0.646400  0.120100  0.717800  1.0  -0.1392
  C  C308  1  0.618300  0.224600  0.726300  1.0  0.1218
  C  C309  1  0.633600  0.346500  0.706300  1.0  -0.1453
  C  C310  1  0.675400  0.366500  0.677700  1.0  -0.1659
  C  C311  1  0.571900  0.204100  0.754600  1.0  -0.332
  C  C312  1  0.543400  0.138400  0.672000  1.0  0.7534
  C  C313  1  0.062400  0.276000  0.566300  1.0  0.7357
  C  C314  1  0.095800  0.172000  0.592800  1.0  -0.3792
  C  C315  1  0.141300  0.198300  0.564900  1.0  0.0922
  C  C316  1  0.174800  0.250100  0.628000  1.0  -0.1211
  C  C317  1  0.217000  0.271300  0.603600  1.0  -0.1614
  C  C318  1  0.227100  0.239300  0.513300  1.0  0.0282
  C  C319  1  0.193200  0.187200  0.449800  1.0  -0.1585
  C  C320  1  0.150800  0.167600  0.475700  1.0  -0.1387
  C  C321  1  0.417100  0.841000  0.619400  1.0  0.7303
  C  C322  1  0.378000  0.842700  0.542900  1.0  -0.3785
  C  C323  1  0.333100  0.820100  0.577400  1.0  0.0903
  C  C324  1  0.318400  0.697100  0.597800  1.0  -0.1621
  C  C325  1  0.277000  0.677700  0.626700  1.0  -0.1477
  C  C326  1  0.248600  0.782100  0.637200  1.0  0.0457
  C  C327  1  0.263600  0.904700  0.616400  1.0  -0.1485
  C  C328  1  0.305200  0.923800  0.588400  1.0  -0.1605
  C  C329  1  0.204000  0.762800  0.669500  1.0  -0.0078
  C  C330  1  0.188400  0.637800  0.689900  1.0  -0.1648
  C  C331  1  0.146400  0.620100  0.717800  1.0  -0.1392
  C  C332  1  0.118300  0.724600  0.726300  1.0  0.1218
  C  C333  1  0.133600  0.846500  0.706300  1.0  -0.1453
  C  C334  1  0.175400  0.866500  0.677700  1.0  -0.1659
  C  C335  1  0.071900  0.704100  0.754600  1.0  -0.332
  C  C336  1  0.043400  0.638400  0.672000  1.0  0.7534
  C  C337  1  0.562400  0.776000  0.566300  1.0  0.7348
  C  C338  1  0.595800  0.672000  0.592800  1.0  -0.3792
  C  C339  1  0.641300  0.698300  0.564900  1.0  0.0922
  C  C340  1  0.674800  0.750100  0.628000  1.0  -0.1211
  C  C341  1  0.717000  0.771300  0.603600  1.0  -0.1614
  C  C342  1  0.727100  0.739300  0.513300  1.0  0.0282
  C  C343  1  0.693200  0.687200  0.449800  1.0  -0.1585
  C  C344  1  0.650800  0.667600  0.475700  1.0  -0.1387
  O  O345  1  0.950550  0.589300  0.105400  1.0  -0.7469
  O  O346  1  0.918900  0.718500  0.193900  1.0  -0.6157
  O  O347  1  0.530900  0.805600  0.095900  1.0  -0.6123
  O  O348  1  0.533000  0.981600  0.177400  1.0  -0.7149
  O  O349  1  0.067000  0.639600  0.007900  1.0  -0.5701
  O  O350  1  0.025400  0.730300  0.099100  1.0  -0.762
  O  O351  1  0.450550  0.089300  0.105400  1.0  -0.7469
  O  O352  1  0.418900  0.218500  0.193900  1.0  -0.6157
  O  O353  1  0.030900  0.305600  0.095900  1.0  -0.6123
  O  O354  1  0.033000  0.481600  0.177400  1.0  -0.7149
  O  O355  1  0.567000  0.139600  0.007900  1.0  -0.5701
  O  O356  1  0.525400  0.230300  0.099100  1.0  -0.762
  O  O357  1  0.049450  0.589300  0.394600  1.0  -0.7485
  O  O358  1  0.081100  0.718500  0.306100  1.0  -0.6144
  O  O359  1  0.469100  0.805600  0.404100  1.0  -0.6126
  O  O360  1  0.467000  0.981600  0.322600  1.0  -0.7156
  O  O361  1  0.933000  0.639600  0.492100  1.0  -0.5707
  O  O362  1  0.974600  0.730300  0.400900  1.0  -0.7604
  O  O363  1  0.549450  0.089300  0.394600  1.0  -0.7485
  O  O364  1  0.581100  0.218500  0.306100  1.0  -0.6144
  O  O365  1  0.969100  0.305600  0.404100  1.0  -0.6126
  O  O366  1  0.967000  0.481600  0.322600  1.0  -0.7156
  O  O367  1  0.433000  0.139600  0.492100  1.0  -0.5707
  O  O368  1  0.474600  0.230300  0.400900  1.0  -0.7604
  O  O369  1  0.049450  0.410700  0.894600  1.0  -0.7484
  O  O370  1  0.081100  0.281500  0.806100  1.0  -0.6143
  O  O371  1  0.469100  0.194400  0.904100  1.0  -0.6127
  O  O372  1  0.467000  0.018400  0.822600  1.0  -0.7164
  O  O373  1  0.933000  0.360400  0.992100  1.0  -0.5692
  O  O374  1  0.974600  0.269700  0.900900  1.0  -0.7609
  O  O375  1  0.549450  0.910700  0.894600  1.0  -0.7484
  O  O376  1  0.581100  0.781500  0.806100  1.0  -0.6143
  O  O377  1  0.969100  0.694400  0.904100  1.0  -0.6127
  O  O378  1  0.967000  0.518400  0.822600  1.0  -0.7164
  O  O379  1  0.433000  0.860400  0.992100  1.0  -0.5692
  O  O380  1  0.474600  0.769700  0.900900  1.0  -0.7609
  O  O381  1  0.950550  0.410700  0.605400  1.0  -0.7465
  O  O382  1  0.918900  0.281500  0.693900  1.0  -0.6152
  O  O383  1  0.530900  0.194400  0.595900  1.0  -0.61
  O  O384  1  0.533000  0.018400  0.677400  1.0  -0.7153
  O  O385  1  0.067000  0.360400  0.507900  1.0  -0.5699
  O  O386  1  0.025400  0.269700  0.599100  1.0  -0.7626
  O  O387  1  0.450550  0.910700  0.605400  1.0  -0.7465
  O  O388  1  0.418900  0.781500  0.693900  1.0  -0.6152
  O  O389  1  0.030900  0.694400  0.595900  1.0  -0.61
  O  O390  1  0.033000  0.518400  0.677400  1.0  -0.7153
  O  O391  1  0.567000  0.860400  0.507900  1.0  -0.5699
  O  O392  1  0.525400  0.769700  0.599100  1.0  -0.7626
