# generated using pymatgen
data_PrH18(C4O)6
_symmetry_space_group_name_H-M   'P 1'
_cell_length_a   30.23100000
_cell_length_b   9.87500000
_cell_length_c   14.19100000
_cell_angle_alpha   90.00000000
_cell_angle_beta   97.12800000
_cell_angle_gamma   90.00000000
_symmetry_Int_Tables_number   1
_chemical_formula_structural   PrH18(C4O)6
_chemical_formula_sum   'Pr8 H144 C192 O48'
_cell_volume   4203.71339638
_cell_formula_units_Z   8
loop_
 _symmetry_equiv_pos_site_id
 _symmetry_equiv_pos_as_xyz
  1  'x, y, z'
loop_
 _atom_site_type_symbol
 _atom_site_label
 _atom_site_symmetry_multiplicity
 _atom_site_fract_x
 _atom_site_fract_y
 _atom_site_fract_z
 _atom_site_occupancy
 _atom_site_charge
  Pr  Pr1  1  0.500000  0.177360  0.750000  1.0  2.2502
  Pr  Pr2  1  0.000000  0.677360  0.750000  1.0  2.2502
  Pr  Pr3  1  0.500000  0.822640  0.250000  1.0  2.2496
  Pr  Pr4  1  0.000000  0.322640  0.250000  1.0  2.2496
  Pr  Pr5  1  0.500000  0.000000  0.000000  1.0  2.2425
  Pr  Pr6  1  0.000000  0.500000  0.000000  1.0  2.2425
  Pr  Pr7  1  0.500000  0.000000  0.500000  1.0  2.2425
  Pr  Pr8  1  0.000000  0.500000  0.500000  1.0  2.2425
  H  H9  1  0.622800  0.075400  0.991000  1.0  0.1326
  H  H10  1  0.618600  0.235500  0.003700  1.0  0.134
  H  H11  1  0.662600  0.381100  0.907900  1.0  0.1059
  H  H12  1  0.732200  0.415300  0.858700  1.0  0.0991
  H  H13  1  0.755400  0.024000  0.878300  1.0  0.1082
  H  H14  1  0.687100  0.991700  0.929600  1.0  0.09
  H  H15  1  0.793700  0.443600  0.814600  1.0  0.0987
  H  H16  1  0.863500  0.472000  0.768900  1.0  0.1072
  H  H17  1  0.885100  0.075000  0.784900  1.0  0.1144
  H  H18  1  0.815200  0.044000  0.833800  1.0  0.1131
  H  H19  1  0.940400  0.208800  0.730500  1.0  0.1294
  H  H20  1  0.926400  0.355800  0.688900  1.0  0.1166
  H  H21  1  0.400600  0.343800  0.835800  1.0  0.1322
  H  H22  1  0.414300  0.419100  0.934700  1.0  0.1398
  H  H23  1  0.330200  0.227400  0.809400  1.0  0.1108
  H  H24  1  0.260700  0.195500  0.852000  1.0  0.1082
  H  H25  1  0.301900  0.333100  0.113900  1.0  0.1118
  H  H26  1  0.372200  0.363300  0.070600  1.0  0.115
  H  H27  1  0.122800  0.575400  0.991000  1.0  0.1326
  H  H28  1  0.118600  0.735500  0.003700  1.0  0.134
  H  H29  1  0.162600  0.881100  0.907900  1.0  0.1059
  H  H30  1  0.232200  0.915300  0.858700  1.0  0.0991
  H  H31  1  0.255400  0.524000  0.878300  1.0  0.1082
  H  H32  1  0.187100  0.491700  0.929600  1.0  0.09
  H  H33  1  0.293700  0.943600  0.814600  1.0  0.0987
  H  H34  1  0.363500  0.972000  0.768900  1.0  0.1072
  H  H35  1  0.385100  0.575000  0.784900  1.0  0.1144
  H  H36  1  0.315200  0.544000  0.833800  1.0  0.1131
  H  H37  1  0.440400  0.708800  0.730500  1.0  0.1294
  H  H38  1  0.426400  0.855800  0.688900  1.0  0.1166
  H  H39  1  0.900600  0.843800  0.835800  1.0  0.1322
  H  H40  1  0.914300  0.919100  0.934700  1.0  0.1398
  H  H41  1  0.830200  0.727400  0.809400  1.0  0.1108
  H  H42  1  0.760700  0.695500  0.852000  1.0  0.1101
  H  H43  1  0.801900  0.833100  0.113900  1.0  0.1119
  H  H44  1  0.872200  0.863300  0.070600  1.0  0.115
  H  H45  1  0.377200  0.075400  0.509000  1.0  0.1328
  H  H46  1  0.381400  0.235500  0.496300  1.0  0.1349
  H  H47  1  0.337400  0.381100  0.592100  1.0  0.1057
  H  H48  1  0.267800  0.415300  0.641300  1.0  0.0991
  H  H49  1  0.244600  0.024000  0.621700  1.0  0.1084
  H  H50  1  0.312900  0.991700  0.570400  1.0  0.09
  H  H51  1  0.206300  0.443600  0.685400  1.0  0.0984
  H  H52  1  0.136500  0.472000  0.731100  1.0  0.107
  H  H53  1  0.114900  0.075000  0.715100  1.0  0.1134
  H  H54  1  0.184800  0.044000  0.666200  1.0  0.1127
  H  H55  1  0.059600  0.208800  0.769500  1.0  0.1302
  H  H56  1  0.073600  0.355800  0.811100  1.0  0.1179
  H  H57  1  0.599400  0.343800  0.664200  1.0  0.1327
  H  H58  1  0.585700  0.419100  0.565300  1.0  0.1416
  H  H59  1  0.669800  0.227400  0.690600  1.0  0.1109
  H  H60  1  0.739300  0.195500  0.648000  1.0  0.1091
  H  H61  1  0.698100  0.333100  0.386100  1.0  0.1121
  H  H62  1  0.627800  0.363300  0.429400  1.0  0.1155
  H  H63  1  0.877200  0.575400  0.509000  1.0  0.1328
  H  H64  1  0.881400  0.735500  0.496300  1.0  0.1349
  H  H65  1  0.837400  0.881100  0.592100  1.0  0.1057
  H  H66  1  0.767800  0.915300  0.641300  1.0  0.0991
  H  H67  1  0.744600  0.524000  0.621700  1.0  0.1084
  H  H68  1  0.812900  0.491700  0.570400  1.0  0.09
  H  H69  1  0.706300  0.943600  0.685400  1.0  0.0984
  H  H70  1  0.636500  0.972000  0.731100  1.0  0.107
  H  H71  1  0.614900  0.575000  0.715100  1.0  0.1134
  H  H72  1  0.684800  0.544000  0.666200  1.0  0.1127
  H  H73  1  0.559600  0.708800  0.769500  1.0  0.1302
  H  H74  1  0.573600  0.855800  0.811100  1.0  0.1179
  H  H75  1  0.099400  0.843800  0.664200  1.0  0.1327
  H  H76  1  0.085700  0.919100  0.565300  1.0  0.1416
  H  H77  1  0.169800  0.727400  0.690600  1.0  0.1109
  H  H78  1  0.239300  0.695500  0.648000  1.0  0.1109
  H  H79  1  0.198100  0.833100  0.386100  1.0  0.1121
  H  H80  1  0.127800  0.863300  0.429400  1.0  0.1155
  H  H81  1  0.377200  0.924600  0.009000  1.0  0.1326
  H  H82  1  0.381400  0.764500  0.996300  1.0  0.135
  H  H83  1  0.337400  0.618900  0.092100  1.0  0.1057
  H  H84  1  0.267800  0.584700  0.141300  1.0  0.0982
  H  H85  1  0.244600  0.976000  0.121700  1.0  0.1079
  H  H86  1  0.312900  0.008300  0.070400  1.0  0.0901
  H  H87  1  0.206300  0.556400  0.185400  1.0  0.0981
  H  H88  1  0.136500  0.528000  0.231100  1.0  0.107
  H  H89  1  0.114900  0.925000  0.215100  1.0  0.1133
  H  H90  1  0.184800  0.956000  0.166200  1.0  0.1135
  H  H91  1  0.059600  0.791200  0.269500  1.0  0.1295
  H  H92  1  0.073600  0.644200  0.311100  1.0  0.1172
  H  H93  1  0.599400  0.656200  0.164200  1.0  0.1333
  H  H94  1  0.585700  0.580900  0.065300  1.0  0.1418
  H  H95  1  0.669800  0.772600  0.190600  1.0  0.1109
  H  H96  1  0.739300  0.804500  0.148000  1.0  0.1088
  H  H97  1  0.698100  0.666900  0.886100  1.0  0.1108
  H  H98  1  0.627800  0.636700  0.929400  1.0  0.1153
  H  H99  1  0.877200  0.424600  0.009000  1.0  0.1326
  H  H100  1  0.881400  0.264500  0.996300  1.0  0.135
  H  H101  1  0.837400  0.118900  0.092100  1.0  0.1057
  H  H102  1  0.767800  0.084700  0.141300  1.0  0.0982
  H  H103  1  0.744600  0.476000  0.121700  1.0  0.1079
  H  H104  1  0.812900  0.508300  0.070400  1.0  0.0901
  H  H105  1  0.706300  0.056400  0.185400  1.0  0.0981
  H  H106  1  0.636500  0.028000  0.231100  1.0  0.107
  H  H107  1  0.614900  0.425000  0.215100  1.0  0.1133
  H  H108  1  0.684800  0.456000  0.166200  1.0  0.1135
  H  H109  1  0.559600  0.291200  0.269500  1.0  0.1295
  H  H110  1  0.573600  0.144200  0.311100  1.0  0.1172
  H  H111  1  0.099400  0.156200  0.164200  1.0  0.1333
  H  H112  1  0.085700  0.080900  0.065300  1.0  0.1418
  H  H113  1  0.169800  0.272600  0.190600  1.0  0.1109
  H  H114  1  0.239300  0.304500  0.148000  1.0  0.1088
  H  H115  1  0.198100  0.166900  0.886100  1.0  0.1096
  H  H116  1  0.127800  0.136700  0.929400  1.0  0.1153
  H  H117  1  0.622800  0.924600  0.491000  1.0  0.1321
  H  H118  1  0.618600  0.764500  0.503700  1.0  0.1349
  H  H119  1  0.662600  0.618900  0.407900  1.0  0.1053
  H  H120  1  0.732200  0.584700  0.358700  1.0  0.0981
  H  H121  1  0.755400  0.976000  0.378300  1.0  0.1074
  H  H122  1  0.687100  0.008300  0.429600  1.0  0.0898
  H  H123  1  0.793700  0.556400  0.314600  1.0  0.0981
  H  H124  1  0.863500  0.528000  0.268900  1.0  0.1075
  H  H125  1  0.885100  0.925000  0.284900  1.0  0.1146
  H  H126  1  0.815200  0.956000  0.333800  1.0  0.1136
  H  H127  1  0.940400  0.791200  0.230500  1.0  0.1287
  H  H128  1  0.926400  0.644200  0.188900  1.0  0.1167
  H  H129  1  0.400600  0.656200  0.335800  1.0  0.1318
  H  H130  1  0.414300  0.580900  0.434700  1.0  0.1408
  H  H131  1  0.330200  0.772600  0.309400  1.0  0.1106
  H  H132  1  0.260700  0.804500  0.352000  1.0  0.1084
  H  H133  1  0.301900  0.666900  0.613900  1.0  0.1109
  H  H134  1  0.372200  0.636700  0.570600  1.0  0.1154
  H  H135  1  0.122800  0.424600  0.491000  1.0  0.1321
  H  H136  1  0.118600  0.264500  0.503700  1.0  0.1349
  H  H137  1  0.162600  0.118900  0.407900  1.0  0.1053
  H  H138  1  0.232200  0.084700  0.358700  1.0  0.0981
  H  H139  1  0.255400  0.476000  0.378300  1.0  0.1074
  H  H140  1  0.187100  0.508300  0.429600  1.0  0.0898
  H  H141  1  0.293700  0.056400  0.314600  1.0  0.0981
  H  H142  1  0.363500  0.028000  0.268900  1.0  0.1075
  H  H143  1  0.385100  0.425000  0.284900  1.0  0.1146
  H  H144  1  0.315200  0.456000  0.333800  1.0  0.1136
  H  H145  1  0.440400  0.291200  0.230500  1.0  0.1287
  H  H146  1  0.426400  0.144200  0.188900  1.0  0.1167
  H  H147  1  0.900600  0.156200  0.335800  1.0  0.1318
  H  H148  1  0.914300  0.080900  0.434700  1.0  0.1408
  H  H149  1  0.830200  0.272600  0.309400  1.0  0.1106
  H  H150  1  0.760700  0.304500  0.352000  1.0  0.1084
  H  H151  1  0.801900  0.166900  0.613900  1.0  0.1097
  H  H152  1  0.872200  0.136700  0.570600  1.0  0.1154
  C  C153  1  0.582600  0.165200  0.880700  1.0  0.729
  C  C154  1  0.622300  0.163100  0.957100  1.0  -0.4013
  C  C155  1  0.667000  0.182500  0.919800  1.0  0.1818
  C  C156  1  0.681300  0.305300  0.901100  1.0  -0.159
  C  C157  1  0.723100  0.325800  0.871700  1.0  -0.142
  C  C158  1  0.751100  0.221100  0.861100  1.0  0.0612
  C  C159  1  0.736700  0.100300  0.883200  1.0  -0.1367
  C  C160  1  0.695500  0.080600  0.913200  1.0  -0.1741
  C  C161  1  0.796100  0.240700  0.831100  1.0  0.0115
  C  C162  1  0.812000  0.366300  0.809900  1.0  -0.1626
  C  C163  1  0.853800  0.383400  0.782200  1.0  -0.169
  C  C164  1  0.881000  0.277400  0.773500  1.0  0.0571
  C  C165  1  0.866600  0.151100  0.791800  1.0  -0.1879
  C  C166  1  0.824600  0.133100  0.820700  1.0  -0.1372
  C  C167  1  0.927800  0.297300  0.745800  1.0  -0.3437
  C  C168  1  0.957000  0.362600  0.827700  1.0  0.7633
  C  C169  1  0.437600  0.226000  0.933400  1.0  0.7547
  C  C170  1  0.403500  0.332200  0.905600  1.0  -0.3918
  C  C171  1  0.357800  0.303700  0.933900  1.0  0.1221
  C  C172  1  0.324600  0.250900  0.871800  1.0  -0.2158
  C  C173  1  0.283400  0.231300  0.897700  1.0  -0.1238
  C  C174  1  0.272700  0.260900  0.987200  1.0  0.0416
  C  C175  1  0.307300  0.311500  0.051000  1.0  -0.1685
  C  C176  1  0.349000  0.330700  0.025000  1.0  -0.1318
  C  C177  1  0.082600  0.665200  0.880700  1.0  0.729
  C  C178  1  0.122300  0.663100  0.957100  1.0  -0.4013
  C  C179  1  0.167000  0.682500  0.919800  1.0  0.1818
  C  C180  1  0.181300  0.805300  0.901100  1.0  -0.159
  C  C181  1  0.223100  0.825800  0.871700  1.0  -0.142
  C  C182  1  0.251100  0.721100  0.861100  1.0  0.0612
  C  C183  1  0.236700  0.600300  0.883200  1.0  -0.1367
  C  C184  1  0.195500  0.580600  0.913200  1.0  -0.1741
  C  C185  1  0.296100  0.740700  0.831100  1.0  0.0115
  C  C186  1  0.312000  0.866300  0.809900  1.0  -0.1626
  C  C187  1  0.353800  0.883400  0.782200  1.0  -0.169
  C  C188  1  0.381000  0.777400  0.773500  1.0  0.0571
  C  C189  1  0.366600  0.651100  0.791800  1.0  -0.1879
  C  C190  1  0.324600  0.633100  0.820700  1.0  -0.1372
  C  C191  1  0.427800  0.797300  0.745800  1.0  -0.3437
  C  C192  1  0.457000  0.862600  0.827700  1.0  0.7633
  C  C193  1  0.937600  0.726000  0.933400  1.0  0.7523
  C  C194  1  0.903500  0.832200  0.905600  1.0  -0.3918
  C  C195  1  0.857800  0.803700  0.933900  1.0  0.1221
  C  C196  1  0.824600  0.750900  0.871800  1.0  -0.2158
  C  C197  1  0.783400  0.731300  0.897700  1.0  -0.1238
  C  C198  1  0.772700  0.760900  0.987200  1.0  0.0416
  C  C199  1  0.807300  0.811500  0.051000  1.0  -0.1685
  C  C200  1  0.849000  0.830700  0.025000  1.0  -0.1318
  C  C201  1  0.417400  0.165200  0.619300  1.0  0.7298
  C  C202  1  0.377700  0.163100  0.542900  1.0  -0.3987
  C  C203  1  0.333000  0.182500  0.580200  1.0  0.1824
  C  C204  1  0.318700  0.305300  0.598900  1.0  -0.1586
  C  C205  1  0.276900  0.325800  0.628300  1.0  -0.1431
  C  C206  1  0.248900  0.221100  0.638900  1.0  0.0608
  C  C207  1  0.263300  0.100300  0.616800  1.0  -0.1374
  C  C208  1  0.304500  0.080600  0.586800  1.0  -0.1722
  C  C209  1  0.203900  0.240700  0.668900  1.0  0.0119
  C  C210  1  0.188000  0.366300  0.690100  1.0  -0.1592
  C  C211  1  0.146200  0.383400  0.717800  1.0  -0.1706
  C  C212  1  0.119000  0.277400  0.726500  1.0  0.0568
  C  C213  1  0.133400  0.151100  0.708200  1.0  -0.1884
  C  C214  1  0.175400  0.133100  0.679300  1.0  -0.1366
  C  C215  1  0.072200  0.297300  0.754200  1.0  -0.3446
  C  C216  1  0.043000  0.362600  0.672300  1.0  0.7643
  C  C217  1  0.562400  0.226000  0.566600  1.0  0.7539
  C  C218  1  0.596500  0.332200  0.594400  1.0  -0.3919
  C  C219  1  0.642200  0.303700  0.566100  1.0  0.1211
  C  C220  1  0.675400  0.250900  0.628200  1.0  -0.215
  C  C221  1  0.716600  0.231300  0.602300  1.0  -0.1238
  C  C222  1  0.727300  0.260900  0.512800  1.0  0.0419
  C  C223  1  0.692700  0.311500  0.449000  1.0  -0.1658
  C  C224  1  0.651000  0.330700  0.475000  1.0  -0.1312
  C  C225  1  0.917400  0.665200  0.619300  1.0  0.7298
  C  C226  1  0.877700  0.663100  0.542900  1.0  -0.3987
  C  C227  1  0.833000  0.682500  0.580200  1.0  0.1824
  C  C228  1  0.818700  0.805300  0.598900  1.0  -0.1586
  C  C229  1  0.776900  0.825800  0.628300  1.0  -0.1431
  C  C230  1  0.748900  0.721100  0.638900  1.0  0.0608
  C  C231  1  0.763300  0.600300  0.616800  1.0  -0.1374
  C  C232  1  0.804500  0.580600  0.586800  1.0  -0.1722
  C  C233  1  0.703900  0.740700  0.668900  1.0  0.0119
  C  C234  1  0.688000  0.866300  0.690100  1.0  -0.1592
  C  C235  1  0.646200  0.883400  0.717800  1.0  -0.1706
  C  C236  1  0.619000  0.777400  0.726500  1.0  0.0568
  C  C237  1  0.633400  0.651100  0.708200  1.0  -0.1884
  C  C238  1  0.675400  0.633100  0.679300  1.0  -0.1366
  C  C239  1  0.572200  0.797300  0.754200  1.0  -0.3446
  C  C240  1  0.543000  0.862600  0.672300  1.0  0.7643
  C  C241  1  0.062400  0.726000  0.566600  1.0  0.7514
  C  C242  1  0.096500  0.832200  0.594400  1.0  -0.3919
  C  C243  1  0.142200  0.803700  0.566100  1.0  0.1211
  C  C244  1  0.175400  0.750900  0.628200  1.0  -0.215
  C  C245  1  0.216600  0.731300  0.602300  1.0  -0.1238
  C  C246  1  0.227300  0.760900  0.512800  1.0  0.0419
  C  C247  1  0.192700  0.811500  0.449000  1.0  -0.1658
  C  C248  1  0.151000  0.830700  0.475000  1.0  -0.1312
  C  C249  1  0.417400  0.834800  0.119300  1.0  0.7297
  C  C250  1  0.377700  0.836900  0.042900  1.0  -0.3982
  C  C251  1  0.333000  0.817500  0.080200  1.0  0.1821
  C  C252  1  0.318700  0.694700  0.098900  1.0  -0.1583
  C  C253  1  0.276900  0.674200  0.128300  1.0  -0.1427
  C  C254  1  0.248900  0.778900  0.138900  1.0  0.0606
  C  C255  1  0.263300  0.899700  0.116800  1.0  -0.1372
  C  C256  1  0.304500  0.919400  0.086800  1.0  -0.1729
  C  C257  1  0.203900  0.759300  0.168900  1.0  0.012
  C  C258  1  0.188000  0.633700  0.190100  1.0  -0.1591
  C  C259  1  0.146200  0.616600  0.217800  1.0  -0.1686
  C  C260  1  0.119000  0.722600  0.226500  1.0  0.0565
  C  C261  1  0.133400  0.848900  0.208200  1.0  -0.1911
  C  C262  1  0.175400  0.866900  0.179300  1.0  -0.1388
  C  C263  1  0.072200  0.702700  0.254200  1.0  -0.3435
  C  C264  1  0.043000  0.637400  0.172300  1.0  0.7643
  C  C265  1  0.562400  0.774000  0.066600  1.0  0.754
  C  C266  1  0.596500  0.667800  0.094400  1.0  -0.3923
  C  C267  1  0.642200  0.696300  0.066100  1.0  0.1216
  C  C268  1  0.675400  0.749100  0.128200  1.0  -0.2149
  C  C269  1  0.716600  0.768700  0.102300  1.0  -0.1232
  C  C270  1  0.727300  0.739100  0.012800  1.0  0.042
  C  C271  1  0.692700  0.688500  0.949000  1.0  -0.1617
  C  C272  1  0.651000  0.669300  0.975000  1.0  -0.1313
  C  C273  1  0.917400  0.334800  0.119300  1.0  0.7297
  C  C274  1  0.877700  0.336900  0.042900  1.0  -0.3982
  C  C275  1  0.833000  0.317500  0.080200  1.0  0.1821
  C  C276  1  0.818700  0.194700  0.098900  1.0  -0.1583
  C  C277  1  0.776900  0.174200  0.128300  1.0  -0.1427
  C  C278  1  0.748900  0.278900  0.138900  1.0  0.0606
  C  C279  1  0.763300  0.399700  0.116800  1.0  -0.1372
  C  C280  1  0.804500  0.419400  0.086800  1.0  -0.1729
  C  C281  1  0.703900  0.259300  0.168900  1.0  0.012
  C  C282  1  0.688000  0.133700  0.190100  1.0  -0.1591
  C  C283  1  0.646200  0.116600  0.217800  1.0  -0.1686
  C  C284  1  0.619000  0.222600  0.226500  1.0  0.0565
  C  C285  1  0.633400  0.348900  0.208200  1.0  -0.1911
  C  C286  1  0.675400  0.366900  0.179300  1.0  -0.1388
  C  C287  1  0.572200  0.202700  0.254200  1.0  -0.3435
  C  C288  1  0.543000  0.137400  0.172300  1.0  0.7643
  C  C289  1  0.062400  0.274000  0.066600  1.0  0.7516
  C  C290  1  0.096500  0.167800  0.094400  1.0  -0.3923
  C  C291  1  0.142200  0.196300  0.066100  1.0  0.1216
  C  C292  1  0.175400  0.249100  0.128200  1.0  -0.2149
  C  C293  1  0.216600  0.268700  0.102300  1.0  -0.1232
  C  C294  1  0.227300  0.239100  0.012800  1.0  0.042
  C  C295  1  0.192700  0.188500  0.949000  1.0  -0.1617
  C  C296  1  0.151000  0.169300  0.975000  1.0  -0.1313
  C  C297  1  0.582600  0.834800  0.380700  1.0  0.7282
  C  C298  1  0.622300  0.836900  0.457100  1.0  -0.4017
  C  C299  1  0.667000  0.817500  0.419800  1.0  0.1818
  C  C300  1  0.681300  0.694700  0.401100  1.0  -0.1581
  C  C301  1  0.723100  0.674200  0.371700  1.0  -0.1415
  C  C302  1  0.751100  0.778900  0.361100  1.0  0.0611
  C  C303  1  0.736700  0.899700  0.383200  1.0  -0.1362
  C  C304  1  0.695500  0.919400  0.413200  1.0  -0.175
  C  C305  1  0.796100  0.759300  0.331100  1.0  0.0116
  C  C306  1  0.812000  0.633700  0.309900  1.0  -0.1622
  C  C307  1  0.853800  0.616600  0.282200  1.0  -0.167
  C  C308  1  0.881000  0.722600  0.273500  1.0  0.0572
  C  C309  1  0.866600  0.848900  0.291800  1.0  -0.1894
  C  C310  1  0.824600  0.866900  0.320700  1.0  -0.1388
  C  C311  1  0.927800  0.702700  0.245800  1.0  -0.3437
  C  C312  1  0.957000  0.637400  0.327700  1.0  0.7628
  C  C313  1  0.437600  0.774000  0.433400  1.0  0.755
  C  C314  1  0.403500  0.667800  0.405600  1.0  -0.3919
  C  C315  1  0.357800  0.696300  0.433900  1.0  0.1226
  C  C316  1  0.324600  0.749100  0.371800  1.0  -0.2157
  C  C317  1  0.283400  0.768700  0.397700  1.0  -0.123
  C  C318  1  0.272700  0.739100  0.487200  1.0  0.0416
  C  C319  1  0.307300  0.688500  0.551000  1.0  -0.164
  C  C320  1  0.349000  0.669300  0.525000  1.0  -0.1321
  C  C321  1  0.082600  0.334800  0.380700  1.0  0.7282
  C  C322  1  0.122300  0.336900  0.457100  1.0  -0.4017
  C  C323  1  0.167000  0.317500  0.419800  1.0  0.1818
  C  C324  1  0.181300  0.194700  0.401100  1.0  -0.1581
  C  C325  1  0.223100  0.174200  0.371700  1.0  -0.1415
  C  C326  1  0.251100  0.278900  0.361100  1.0  0.0611
  C  C327  1  0.236700  0.399700  0.383200  1.0  -0.1362
  C  C328  1  0.195500  0.419400  0.413200  1.0  -0.175
  C  C329  1  0.296100  0.259300  0.331100  1.0  0.0116
  C  C330  1  0.312000  0.133700  0.309900  1.0  -0.1622
  C  C331  1  0.353800  0.116600  0.282200  1.0  -0.167
  C  C332  1  0.381000  0.222600  0.273500  1.0  0.0572
  C  C333  1  0.366600  0.348900  0.291800  1.0  -0.1894
  C  C334  1  0.324600  0.366900  0.320700  1.0  -0.1388
  C  C335  1  0.427800  0.202700  0.245800  1.0  -0.3437
  C  C336  1  0.457000  0.137400  0.327700  1.0  0.7628
  C  C337  1  0.937600  0.274000  0.433400  1.0  0.7527
  C  C338  1  0.903500  0.167800  0.405600  1.0  -0.3919
  C  C339  1  0.857800  0.196300  0.433900  1.0  0.1226
  C  C340  1  0.824600  0.249100  0.371800  1.0  -0.2157
  C  C341  1  0.783400  0.268700  0.397700  1.0  -0.123
  C  C342  1  0.772700  0.239100  0.487200  1.0  0.0416
  C  C343  1  0.807300  0.188500  0.551000  1.0  -0.164
  C  C344  1  0.849000  0.169300  0.525000  1.0  -0.1321
  O  O345  1  0.581700  0.223600  0.807100  1.0  -0.6056
  O  O346  1  0.549630  0.093000  0.894700  1.0  -0.7531
  O  O347  1  0.966000  0.483700  0.822500  1.0  -0.7054
  O  O348  1  0.969000  0.301700  0.901800  1.0  -0.6156
  O  O349  1  0.474200  0.232800  0.901200  1.0  -0.7308
  O  O350  1  0.432700  0.138700  0.992300  1.0  -0.5863
  O  O351  1  0.081700  0.723600  0.807100  1.0  -0.6056
  O  O352  1  0.049630  0.593000  0.894700  1.0  -0.7531
  O  O353  1  0.466000  0.983700  0.822500  1.0  -0.7054
  O  O354  1  0.469000  0.801700  0.901800  1.0  -0.6156
  O  O355  1  0.974200  0.732800  0.901200  1.0  -0.7308
  O  O356  1  0.932700  0.638700  0.992300  1.0  -0.5863
  O  O357  1  0.418300  0.223600  0.692900  1.0  -0.6077
  O  O358  1  0.450370  0.093000  0.605300  1.0  -0.7506
  O  O359  1  0.034000  0.483700  0.677500  1.0  -0.7057
  O  O360  1  0.031000  0.301700  0.598200  1.0  -0.6152
  O  O361  1  0.525800  0.232800  0.598800  1.0  -0.7328
  O  O362  1  0.567300  0.138700  0.507700  1.0  -0.5851
  O  O363  1  0.918300  0.723600  0.692900  1.0  -0.6077
  O  O364  1  0.950370  0.593000  0.605300  1.0  -0.7506
  O  O365  1  0.534000  0.983700  0.677500  1.0  -0.7057
  O  O366  1  0.531000  0.801700  0.598200  1.0  -0.6152
  O  O367  1  0.025800  0.732800  0.598800  1.0  -0.7328
  O  O368  1  0.067300  0.638700  0.507700  1.0  -0.5851
  O  O369  1  0.418300  0.776400  0.192900  1.0  -0.6078
  O  O370  1  0.450370  0.907000  0.105300  1.0  -0.7498
  O  O371  1  0.034000  0.516300  0.177500  1.0  -0.706
  O  O372  1  0.031000  0.698300  0.098200  1.0  -0.6133
  O  O373  1  0.525800  0.767200  0.098800  1.0  -0.7326
  O  O374  1  0.567300  0.861300  0.007700  1.0  -0.5859
  O  O375  1  0.918300  0.276400  0.192900  1.0  -0.6078
  O  O376  1  0.950370  0.407000  0.105300  1.0  -0.7498
  O  O377  1  0.534000  0.016300  0.177500  1.0  -0.706
  O  O378  1  0.531000  0.198300  0.098200  1.0  -0.6133
  O  O379  1  0.025800  0.267200  0.098800  1.0  -0.7326
  O  O380  1  0.067300  0.361300  0.007700  1.0  -0.5859
  O  O381  1  0.581700  0.776400  0.307100  1.0  -0.6068
  O  O382  1  0.549630  0.907000  0.394700  1.0  -0.7526
  O  O383  1  0.966000  0.516300  0.322500  1.0  -0.7061
  O  O384  1  0.969000  0.698300  0.401800  1.0  -0.6165
  O  O385  1  0.474200  0.767200  0.401200  1.0  -0.7299
  O  O386  1  0.432700  0.861300  0.492300  1.0  -0.5859
  O  O387  1  0.081700  0.276400  0.307100  1.0  -0.6068
  O  O388  1  0.049630  0.407000  0.394700  1.0  -0.7526
  O  O389  1  0.466000  0.016300  0.322500  1.0  -0.7061
  O  O390  1  0.469000  0.198300  0.401800  1.0  -0.6165
  O  O391  1  0.974200  0.267200  0.401200  1.0  -0.7299
  O  O392  1  0.932700  0.361300  0.492300  1.0  -0.5859
