# generated using pymatgen
data_CuH40C34(N2O)4
_symmetry_space_group_name_H-M   'P 1'
_cell_length_a   13.07850000
_cell_length_b   13.07850000
_cell_length_c   20.08300000
_cell_angle_alpha   90.00000000
_cell_angle_beta   90.00000000
_cell_angle_gamma   120.00000000
_symmetry_Int_Tables_number   1
_chemical_formula_structural   CuH40C34(N2O)4
_chemical_formula_sum   'Cu3 H120 C102 N24 O12'
_cell_volume   2974.91864366
_cell_formula_units_Z   3
loop_
 _symmetry_equiv_pos_site_id
 _symmetry_equiv_pos_as_xyz
  1  'x, y, z'
loop_
 _atom_site_type_symbol
 _atom_site_label
 _atom_site_symmetry_multiplicity
 _atom_site_fract_x
 _atom_site_fract_y
 _atom_site_fract_z
 _atom_site_occupancy
 _atom_site_charge
  Cu  Cu1  1  0.384630  0.000000  0.000000  1.0  0.3344
  Cu  Cu2  1  0.615370  0.615370  0.333333  1.0  0.3342
  Cu  Cu3  1  0.000000  0.384630  0.666667  1.0  0.3337
  H  H4  1  0.434100  0.171900  0.893300  1.0  0.0824
  H  H5  1  0.153400  0.056800  0.773500  1.0  0.1141
  H  H6  1  0.044600  0.915900  0.853000  1.0  0.1067
  H  H7  1  0.135000  0.899800  0.948000  1.0  0.0819
  H  H8  1  0.456300  0.260000  0.794200  1.0  0.3093
  H  H9  1  0.526300  0.353800  0.692100  1.0  0.0833
  H  H10  1  0.433500  0.494500  0.741200  1.0  0.0958
  H  H11  1  0.520700  0.468100  0.780900  1.0  0.0833
  H  H12  1  0.588800  0.594800  0.660400  1.0  0.034
  H  H13  1  0.627800  0.700400  0.786900  1.0  0.099
  H  H14  1  0.544400  0.705000  0.732400  1.0  0.1064
  H  H15  1  0.681200  0.770500  0.720600  1.0  0.1085
  H  H16  1  0.780300  0.656800  0.693300  1.0  0.1046
  H  H17  1  0.708200  0.518500  0.694200  1.0  0.1029
  H  H18  1  0.735800  0.589200  0.761100  1.0  0.1004
  H  H19  1  0.361000  0.383500  0.623600  1.0  0.2897
  H  H20  1  0.604800  0.509500  0.468200  1.0  0.0701
  H  H21  1  0.355800  0.496300  0.355000  1.0  0.0641
  H  H22  1  0.214700  0.386700  0.433200  1.0  0.1131
  H  H23  1  0.272400  0.342900  0.533400  1.0  0.0784
  H  H24  1  0.737800  0.565900  0.226630  1.0  0.0836
  H  H25  1  0.903400  0.846600  0.106830  1.0  0.1142
  H  H26  1  0.871300  0.955400  0.186330  1.0  0.1064
  H  H27  1  0.764800  0.865000  0.281330  1.0  0.0817
  H  H28  1  0.803700  0.543700  0.127530  1.0  0.3086
  H  H29  1  0.827500  0.473700  0.025430  1.0  0.0846
  H  H30  1  0.061000  0.566500  0.074530  1.0  0.0914
  H  H31  1  0.947400  0.479300  0.114230  1.0  0.0839
  H  H32  1  0.006000  0.411200  0.993730  1.0  0.0331
  H  H33  1  0.072600  0.372200  0.120230  1.0  0.0991
  H  H34  1  0.160600  0.455600  0.065730  1.0  0.1056
  H  H35  1  0.089300  0.318800  0.053930  1.0  0.1081
  H  H36  1  0.876500  0.219700  0.026630  1.0  0.1032
  H  H37  1  0.810300  0.291800  0.027530  1.0  0.1023
  H  H38  1  0.853400  0.264200  0.094430  1.0  0.0992
  H  H39  1  0.022500  0.639000  0.956930  1.0  0.2877
  H  H40  1  0.904700  0.395200  0.801530  1.0  0.0726
  H  H41  1  0.140500  0.644200  0.688330  1.0  0.064
  H  H42  1  0.172000  0.785300  0.766530  1.0  0.1127
  H  H43  1  0.070500  0.727600  0.866730  1.0  0.0766
  H  H44  1  0.828100  0.262200  0.559970  1.0  0.0836
  H  H45  1  0.943200  0.096600  0.440170  1.0  0.1142
  H  H46  1  0.084100  0.128700  0.519670  1.0  0.1072
  H  H47  1  0.100200  0.235200  0.614670  1.0  0.0803
  H  H48  1  0.740000  0.196300  0.460870  1.0  0.3087
  H  H49  1  0.646200  0.172500  0.358770  1.0  0.0851
  H  H50  1  0.505500  0.939000  0.407870  1.0  0.0921
  H  H51  1  0.531900  0.052600  0.447570  1.0  0.0836
  H  H52  1  0.405200  0.994000  0.327070  1.0  0.0328
  H  H53  1  0.299600  0.927400  0.453570  1.0  0.0997
  H  H54  1  0.295000  0.839400  0.399070  1.0  0.1042
  H  H55  1  0.229500  0.910700  0.387270  1.0  0.11
  H  H56  1  0.343200  0.123500  0.359970  1.0  0.1043
  H  H57  1  0.481500  0.189700  0.360870  1.0  0.102
  H  H58  1  0.410800  0.146600  0.427770  1.0  0.1001
  H  H59  1  0.616500  0.977500  0.290270  1.0  0.2882
  H  H60  1  0.490500  0.095300  0.134870  1.0  0.0712
  H  H61  1  0.503700  0.859500  0.021670  1.0  0.064
  H  H62  1  0.613300  0.828000  0.099870  1.0  0.1128
  H  H63  1  0.657100  0.929500  0.200070  1.0  0.0762
  H  H64  1  0.262200  0.828100  0.106700  1.0  0.0828
  H  H65  1  0.096600  0.943200  0.226500  1.0  0.1145
  H  H66  1  0.128700  0.084100  0.147000  1.0  0.1069
  H  H67  1  0.235200  0.100200  0.052000  1.0  0.0809
  H  H68  1  0.196300  0.740000  0.205800  1.0  0.3095
  H  H69  1  0.172500  0.646200  0.307900  1.0  0.0828
  H  H70  1  0.939000  0.505500  0.258800  1.0  0.0951
  H  H71  1  0.052600  0.531900  0.219100  1.0  0.0832
  H  H72  1  0.994000  0.405200  0.339600  1.0  0.0315
  H  H73  1  0.927400  0.299600  0.213100  1.0  0.0986
  H  H74  1  0.839400  0.295000  0.267600  1.0  0.1061
  H  H75  1  0.910700  0.229500  0.279400  1.0  0.1094
  H  H76  1  0.123500  0.343200  0.306700  1.0  0.1037
  H  H77  1  0.189700  0.481500  0.305800  1.0  0.1034
  H  H78  1  0.146600  0.410800  0.238900  1.0  0.1016
  H  H79  1  0.977500  0.616500  0.376400  1.0  0.2898
  H  H80  1  0.095300  0.490500  0.531800  1.0  0.0698
  H  H81  1  0.859500  0.503700  0.645000  1.0  0.0648
  H  H82  1  0.828000  0.613300  0.566800  1.0  0.1132
  H  H83  1  0.929500  0.657100  0.466600  1.0  0.0788
  H  H84  1  0.171900  0.434100  0.773370  1.0  0.0838
  H  H85  1  0.056800  0.153400  0.893170  1.0  0.1142
  H  H86  1  0.915900  0.044600  0.813670  1.0  0.1069
  H  H87  1  0.899800  0.135000  0.718670  1.0  0.0805
  H  H88  1  0.260000  0.456300  0.872470  1.0  0.3091
  H  H89  1  0.353800  0.526300  0.974570  1.0  0.0843
  H  H90  1  0.494500  0.433500  0.925470  1.0  0.093
  H  H91  1  0.468100  0.520700  0.885770  1.0  0.0835
  H  H92  1  0.594800  0.588800  0.006270  1.0  0.0321
  H  H93  1  0.700400  0.627800  0.879770  1.0  0.0992
  H  H94  1  0.705000  0.544400  0.934270  1.0  0.1057
  H  H95  1  0.770500  0.681200  0.946070  1.0  0.1089
  H  H96  1  0.656800  0.780300  0.973370  1.0  0.1018
  H  H97  1  0.518500  0.708200  0.972470  1.0  0.1023
  H  H98  1  0.589200  0.735800  0.905570  1.0  0.0993
  H  H99  1  0.383500  0.361000  0.043070  1.0  0.2887
  H  H100  1  0.509500  0.604800  0.198470  1.0  0.0713
  H  H101  1  0.496300  0.355800  0.311670  1.0  0.0653
  H  H102  1  0.386700  0.214700  0.233470  1.0  0.1131
  H  H103  1  0.342900  0.272400  0.133270  1.0  0.0767
  H  H104  1  0.565900  0.737800  0.440030  1.0  0.0837
  H  H105  1  0.846600  0.903400  0.559830  1.0  0.1142
  H  H106  1  0.955400  0.871300  0.480330  1.0  0.1069
  H  H107  1  0.865000  0.764800  0.385330  1.0  0.0805
  H  H108  1  0.543700  0.803700  0.539130  1.0  0.308
  H  H109  1  0.473700  0.827500  0.641230  1.0  0.0852
  H  H110  1  0.566500  0.061000  0.592130  1.0  0.0922
  H  H111  1  0.479300  0.947400  0.552430  1.0  0.0833
  H  H112  1  0.411200  0.006000  0.672930  1.0  0.0319
  H  H113  1  0.372200  0.072600  0.546430  1.0  0.1005
  H  H114  1  0.455600  0.160600  0.600930  1.0  0.1054
  H  H115  1  0.318800  0.089300  0.612730  1.0  0.1101
  H  H116  1  0.219700  0.876500  0.640030  1.0  0.1037
  H  H117  1  0.291800  0.810300  0.639130  1.0  0.1023
  H  H118  1  0.264200  0.853400  0.572230  1.0  0.1017
  H  H119  1  0.639000  0.022500  0.709730  1.0  0.2878
  H  H120  1  0.395200  0.904700  0.865130  1.0  0.071
  H  H121  1  0.644200  0.140500  0.978330  1.0  0.0647
  H  H122  1  0.785300  0.172000  0.900130  1.0  0.1124
  H  H123  1  0.727600  0.070500  0.799930  1.0  0.0765
  C  C124  1  0.355400  0.118100  0.884030  1.0  0.0074
  C  C125  1  0.306400  0.131600  0.824930  1.0  0.1624
  C  C126  1  0.188800  0.052600  0.812760  1.0  -0.1357
  C  C127  1  0.124700  0.967300  0.859670  1.0  -0.1254
  C  C128  1  0.179200  0.958000  0.916820  1.0  0.097
  C  C129  1  0.354500  0.264500  0.727710  1.0  0.4888
  C  C130  1  0.460900  0.370000  0.695190  1.0  0.0438
  C  C131  1  0.499800  0.481300  0.736680  1.0  -0.236
  C  C132  1  0.603800  0.592100  0.708050  1.0  0.1232
  C  C133  1  0.615400  0.702100  0.739900  1.0  -0.3628
  C  C134  1  0.717400  0.588800  0.714800  1.0  -0.3629
  C  C135  1  0.493000  0.400300  0.574720  1.0  0.5327
  C  C136  1  0.445600  0.422500  0.511270  1.0  -0.214
  C  C137  1  0.525600  0.485500  0.461550  1.0  0.1532
  C  C138  1  0.378800  0.477000  0.394620  1.0  0.1082
  C  C139  1  0.293800  0.412100  0.441510  1.0  -0.1455
  C  C140  1  0.328000  0.385400  0.500750  1.0  -0.0543
  C  C141  1  0.762700  0.644600  0.217360  1.0  0.0055
  C  C142  1  0.825200  0.693600  0.158260  1.0  0.1633
  C  C143  1  0.863800  0.811200  0.146090  1.0  -0.1353
  C  C144  1  0.842600  0.875300  0.193000  1.0  -0.1199
  C  C145  1  0.778800  0.820800  0.250150  1.0  0.0978
  C  C146  1  0.910000  0.645500  0.061040  1.0  0.4915
  C  C147  1  0.909100  0.539100  0.028520  1.0  0.0422
  C  C148  1  0.981500  0.500200  0.070010  1.0  -0.2364
  C  C149  1  0.988300  0.396200  0.041380  1.0  0.1266
  C  C150  1  0.086700  0.384600  0.073230  1.0  -0.3655
  C  C151  1  0.871400  0.282600  0.048130  1.0  -0.3615
  C  C152  1  0.907300  0.507000  0.908050  1.0  0.5302
  C  C153  1  0.976900  0.554400  0.844600  1.0  -0.2136
  C  C154  1  0.959900  0.474400  0.794880  1.0  0.1549
  C  C155  1  0.098200  0.621200  0.727950  1.0  0.1066
  C  C156  1  0.118300  0.706200  0.774840  1.0  -0.1404
  C  C157  1  0.057400  0.672000  0.834080  1.0  -0.054
  C  C158  1  0.881900  0.237300  0.550700  1.0  0.0064
  C  C159  1  0.868400  0.174800  0.491600  1.0  0.1632
  C  C160  1  0.947400  0.136200  0.479430  1.0  -0.1351
  C  C161  1  0.032700  0.157400  0.526340  1.0  -0.1265
  C  C162  1  0.042000  0.221200  0.583490  1.0  0.0987
  C  C163  1  0.735500  0.090000  0.394380  1.0  0.491
  C  C164  1  0.630000  0.090900  0.361860  1.0  0.0454
  C  C165  1  0.518700  0.018500  0.403350  1.0  -0.2372
  C  C166  1  0.407900  0.011700  0.374720  1.0  0.1273
  C  C167  1  0.297900  0.913300  0.406570  1.0  -0.3656
  C  C168  1  0.411200  0.128600  0.381470  1.0  -0.365
  C  C169  1  0.599700  0.092700  0.241390  1.0  0.5309
  C  C170  1  0.577500  0.023100  0.177940  1.0  -0.2132
  C  C171  1  0.514500  0.040100  0.128220  1.0  0.1555
  C  C172  1  0.523000  0.901800  0.061290  1.0  0.109
  C  C173  1  0.587900  0.881700  0.108180  1.0  -0.1431
  C  C174  1  0.614600  0.942600  0.167420  1.0  -0.0538
  C  C175  1  0.237300  0.881900  0.115970  1.0  0.0086
  C  C176  1  0.174800  0.868400  0.175070  1.0  0.1625
  C  C177  1  0.136200  0.947400  0.187240  1.0  -0.1351
  C  C178  1  0.157400  0.032700  0.140330  1.0  -0.126
  C  C179  1  0.221200  0.042000  0.083180  1.0  0.0971
  C  C180  1  0.090000  0.735500  0.272290  1.0  0.4898
  C  C181  1  0.090900  0.630000  0.304810  1.0  0.0442
  C  C182  1  0.018500  0.518700  0.263320  1.0  -0.2305
  C  C183  1  0.011700  0.407900  0.291950  1.0  0.1237
  C  C184  1  0.913300  0.297900  0.260100  1.0  -0.3621
  C  C185  1  0.128600  0.411200  0.285200  1.0  -0.3625
  C  C186  1  0.092700  0.599700  0.425280  1.0  0.5339
  C  C187  1  0.023100  0.577500  0.488730  1.0  -0.214
  C  C188  1  0.040100  0.514500  0.538450  1.0  0.1534
  C  C189  1  0.901800  0.523000  0.605380  1.0  0.1087
  C  C190  1  0.881700  0.587900  0.558490  1.0  -0.1463
  C  C191  1  0.942600  0.614600  0.499250  1.0  -0.0546
  C  C192  1  0.118100  0.355400  0.782640  1.0  0.0073
  C  C193  1  0.131600  0.306400  0.841740  1.0  0.1635
  C  C194  1  0.052600  0.188800  0.853910  1.0  -0.1362
  C  C195  1  0.967300  0.124700  0.807000  1.0  -0.1213
  C  C196  1  0.958000  0.179200  0.749850  1.0  0.0974
  C  C197  1  0.264500  0.354500  0.938960  1.0  0.4906
  C  C198  1  0.370000  0.460900  0.971480  1.0  0.0423
  C  C199  1  0.481300  0.499800  0.929990  1.0  -0.2325
  C  C200  1  0.592100  0.603800  0.958620  1.0  0.1274
  C  C201  1  0.702100  0.615400  0.926770  1.0  -0.3656
  C  C202  1  0.588800  0.717400  0.951870  1.0  -0.3614
  C  C203  1  0.400300  0.493000  0.091950  1.0  0.5311
  C  C204  1  0.422500  0.445600  0.155400  1.0  -0.2137
  C  C205  1  0.485500  0.525600  0.205120  1.0  0.1549
  C  C206  1  0.477000  0.378800  0.272050  1.0  0.1074
  C  C207  1  0.412100  0.293800  0.225160  1.0  -0.1421
  C  C208  1  0.385400  0.328000  0.165920  1.0  -0.0542
  C  C209  1  0.644600  0.762700  0.449300  1.0  0.0077
  C  C210  1  0.693600  0.825200  0.508400  1.0  0.1635
  C  C211  1  0.811200  0.863800  0.520570  1.0  -0.1353
  C  C212  1  0.875300  0.842600  0.473660  1.0  -0.1266
  C  C213  1  0.820800  0.778800  0.416510  1.0  0.0988
  C  C214  1  0.645500  0.910000  0.605620  1.0  0.4904
  C  C215  1  0.539100  0.909100  0.638140  1.0  0.0452
  C  C216  1  0.500200  0.981500  0.596650  1.0  -0.234
  C  C217  1  0.396200  0.988300  0.625280  1.0  0.1278
  C  C218  1  0.384600  0.086700  0.593430  1.0  -0.3654
  C  C219  1  0.282600  0.871400  0.618530  1.0  -0.3653
  C  C220  1  0.507000  0.907300  0.758610  1.0  0.533
  C  C221  1  0.554400  0.976900  0.822060  1.0  -0.2129
  C  C222  1  0.474400  0.959900  0.871780  1.0  0.1567
  C  C223  1  0.621200  0.098200  0.938710  1.0  0.1094
  C  C224  1  0.706200  0.118300  0.891820  1.0  -0.1436
  C  C225  1  0.672000  0.057400  0.832580  1.0  -0.0544
  N  N226  1  0.294070  0.031300  0.927630  1.0  -0.2748
  N  N227  1  0.382900  0.224300  0.783410  1.0  -0.4218
  N  N228  1  0.426900  0.384800  0.628590  1.0  -0.4356
  N  N229  1  0.493400  0.513440  0.403970  1.0  -0.306
  N  N230  1  0.737230  0.705930  0.260960  1.0  -0.2764
  N  N231  1  0.841400  0.617100  0.116740  1.0  -0.4218
  N  N232  1  0.957900  0.573100  0.961920  1.0  -0.4326
  N  N233  1  0.020040  0.506600  0.737300  1.0  -0.3073
  N  N234  1  0.968700  0.262770  0.594300  1.0  -0.2762
  N  N235  1  0.775700  0.158600  0.450080  1.0  -0.4209
  N  N236  1  0.615200  0.042100  0.295260  1.0  -0.4337
  N  N237  1  0.486560  0.979960  0.070640  1.0  -0.3067
  N  N238  1  0.262770  0.968700  0.072370  1.0  -0.2768
  N  N239  1  0.158600  0.775700  0.216590  1.0  -0.4214
  N  N240  1  0.042100  0.615200  0.371410  1.0  -0.4363
  N  N241  1  0.979960  0.486560  0.596030  1.0  -0.3066
  N  N242  1  0.031300  0.294070  0.739040  1.0  -0.2773
  N  N243  1  0.224300  0.382900  0.883260  1.0  -0.4253
  N  N244  1  0.384800  0.426900  0.038080  1.0  -0.4323
  N  N245  1  0.513440  0.493400  0.262700  1.0  -0.3076
  N  N246  1  0.705930  0.737230  0.405700  1.0  -0.2776
  N  N247  1  0.617100  0.841400  0.549920  1.0  -0.4212
  N  N248  1  0.573100  0.957900  0.704740  1.0  -0.4339
  N  N249  1  0.506600  0.020040  0.929360  1.0  -0.3075
  O  O250  1  0.255340  0.222940  0.706680  1.0  -0.482
  O  O251  1  0.585800  0.399020  0.575780  1.0  -0.5605
  O  O252  1  0.967600  0.744660  0.040010  1.0  -0.4803
  O  O253  1  0.813220  0.414200  0.909110  1.0  -0.5587
  O  O254  1  0.777060  0.032400  0.373350  1.0  -0.4814
  O  O255  1  0.600980  0.186780  0.242450  1.0  -0.558
  O  O256  1  0.032400  0.777060  0.293320  1.0  -0.481
  O  O257  1  0.186780  0.600980  0.424220  1.0  -0.5605
  O  O258  1  0.222940  0.255340  0.959990  1.0  -0.479
  O  O259  1  0.399020  0.585800  0.090890  1.0  -0.559
  O  O260  1  0.744660  0.967600  0.626650  1.0  -0.4813
  O  O261  1  0.414200  0.813220  0.757550  1.0  -0.5587
