# generated using pymatgen
data_CuC40(N2O)4
_symmetry_space_group_name_H-M   'P 1'
_cell_length_a   13.08420000
_cell_length_b   13.08420000
_cell_length_c   19.87800000
_cell_angle_alpha   90.00000000
_cell_angle_beta   90.00000000
_cell_angle_gamma   120.00000000
_symmetry_Int_Tables_number   1
_chemical_formula_structural   CuC40(N2O)4
_chemical_formula_sum   'Cu3 C120 N24 O12'
_cell_volume   2947.11895626
_cell_formula_units_Z   3
loop_
 _symmetry_equiv_pos_site_id
 _symmetry_equiv_pos_as_xyz
  1  'x, y, z'
loop_
 _atom_site_type_symbol
 _atom_site_label
 _atom_site_symmetry_multiplicity
 _atom_site_fract_x
 _atom_site_fract_y
 _atom_site_fract_z
 _atom_site_occupancy
 _atom_site_charge
  Cu  Cu1  1  0.618400  0.618400  0.000000  1.0  0.4408
  Cu  Cu2  1  0.381600  0.000000  0.666667  1.0  0.4408
  Cu  Cu3  1  0.000000  0.381600  0.333333  1.0  0.441
  C  C4  1  0.178800  0.957300  0.584800  1.0  0.1671
  C  C5  1  0.119200  0.960700  0.527300  1.0  -0.0222
  C  C6  1  0.186500  0.050200  0.476300  1.0  -0.0024
  C  C7  1  0.305300  0.125500  0.490100  1.0  0.1437
  C  C8  1  0.353600  0.116200  0.550600  1.0  0.1128
  C  C9  1  0.358500  0.273200  0.397700  1.0  0.5807
  C  C10  1  0.467400  0.377000  0.366300  1.0  -0.0015
  C  C11  1  0.502200  0.477000  0.411700  1.0  -0.0452
  C  C12  1  0.614200  0.580400  0.399200  1.0  0.1057
  C  C13  1  0.722000  0.583000  0.392400  1.0  -0.008
  C  C14  1  0.838000  0.696000  0.386700  1.0  0.049
  C  C15  1  0.843000  0.799000  0.385800  1.0  0.0734
  C  C16  1  0.735000  0.795000  0.397500  1.0  0.0426
  C  C17  1  0.626000  0.690000  0.400500  1.0  0.0234
  C  C18  1  0.496200  0.407000  0.243900  1.0  0.5858
  C  C19  1  0.447500  0.429000  0.179400  1.0  -0.1262
  C  C20  1  0.331100  0.394300  0.171200  1.0  -0.0172
  C  C21  1  0.297500  0.426000  0.109700  1.0  -0.0084
  C  C22  1  0.385000  0.488500  0.062900  1.0  0.1489
  C  C23  1  0.529300  0.490700  0.127700  1.0  0.1373
  C  C24  1  0.042700  0.221500  0.251470  1.0  0.1659
  C  C25  1  0.039300  0.158500  0.193970  1.0  -0.0237
  C  C26  1  0.949800  0.136300  0.142970  1.0  -0.0031
  C  C27  1  0.874500  0.179800  0.156770  1.0  0.1447
  C  C28  1  0.883800  0.237400  0.217270  1.0  0.1125
  C  C29  1  0.726800  0.085300  0.064370  1.0  0.5826
  C  C30  1  0.623000  0.090400  0.032970  1.0  -0.004
  C  C31  1  0.523000  0.025200  0.078370  1.0  -0.0465
  C  C32  1  0.419600  0.033800  0.065870  1.0  0.1061
  C  C33  1  0.417000  0.139000  0.059070  1.0  -0.0111
  C  C34  1  0.304000  0.142000  0.053370  1.0  0.0467
  C  C35  1  0.201000  0.044000  0.052470  1.0  0.0722
  C  C36  1  0.205000  0.940000  0.064170  1.0  0.0475
  C  C37  1  0.310000  0.936000  0.067170  1.0  0.0224
  C  C38  1  0.593000  0.089200  0.910570  1.0  0.5875
  C  C39  1  0.571000  0.018500  0.846070  1.0  -0.1264
  C  C40  1  0.605700  0.936800  0.837870  1.0  -0.0176
  C  C41  1  0.574000  0.871500  0.776370  1.0  -0.0059
  C  C42  1  0.511500  0.896500  0.729570  1.0  0.1488
  C  C43  1  0.509300  0.038600  0.794370  1.0  0.1396
  C  C44  1  0.778500  0.821200  0.918130  1.0  0.1659
  C  C45  1  0.841500  0.880800  0.860630  1.0  -0.0236
  C  C46  1  0.863700  0.813500  0.809630  1.0  -0.0052
  C  C47  1  0.820200  0.694700  0.823430  1.0  0.1456
  C  C48  1  0.762600  0.646400  0.883930  1.0  0.1123
  C  C49  1  0.914700  0.641500  0.731030  1.0  0.5842
  C  C50  1  0.909600  0.532600  0.699630  1.0  -0.001
  C  C51  1  0.974800  0.497800  0.745030  1.0  -0.0428
  C  C52  1  0.966200  0.385800  0.732530  1.0  0.106
  C  C53  1  0.861000  0.278000  0.725730  1.0  -0.0087
  C  C54  1  0.858000  0.162000  0.720030  1.0  0.051
  C  C55  1  0.956000  0.157000  0.719130  1.0  0.0757
  C  C56  1  0.060000  0.265000  0.730830  1.0  0.0468
  C  C57  1  0.064000  0.374000  0.733830  1.0  0.0223
  C  C58  1  0.910800  0.503800  0.577230  1.0  0.5846
  C  C59  1  0.981500  0.552500  0.512730  1.0  -0.1253
  C  C60  1  0.063200  0.668900  0.504530  1.0  -0.0173
  C  C61  1  0.128500  0.702500  0.443030  1.0  -0.008
  C  C62  1  0.103500  0.615000  0.396230  1.0  0.1474
  C  C63  1  0.961400  0.470700  0.461030  1.0  0.1369
  C  C64  1  0.957300  0.178800  0.415200  1.0  0.1683
  C  C65  1  0.960700  0.119200  0.472700  1.0  -0.022
  C  C66  1  0.050200  0.186500  0.523700  1.0  -0.0067
  C  C67  1  0.125500  0.305300  0.509900  1.0  0.1458
  C  C68  1  0.116200  0.353600  0.449400  1.0  0.1127
  C  C69  1  0.273200  0.358500  0.602300  1.0  0.5836
  C  C70  1  0.377000  0.467400  0.633700  1.0  -0.0015
  C  C71  1  0.477000  0.502200  0.588300  1.0  -0.0432
  C  C72  1  0.580400  0.614200  0.600800  1.0  0.1053
  C  C73  1  0.583000  0.722000  0.607600  1.0  -0.0082
  C  C74  1  0.696000  0.838000  0.613300  1.0  0.0488
  C  C75  1  0.799000  0.843000  0.614200  1.0  0.076
  C  C76  1  0.795000  0.735000  0.602500  1.0  0.0475
  C  C77  1  0.690000  0.626000  0.599500  1.0  0.0242
  C  C78  1  0.407000  0.496200  0.756100  1.0  0.5842
  C  C79  1  0.429000  0.447500  0.820600  1.0  -0.1253
  C  C80  1  0.394300  0.331100  0.828800  1.0  -0.0161
  C  C81  1  0.426000  0.297500  0.890300  1.0  -0.0072
  C  C82  1  0.488500  0.385000  0.937100  1.0  0.148
  C  C83  1  0.490700  0.529300  0.872300  1.0  0.137
  C  C84  1  0.221500  0.042700  0.748530  1.0  0.1666
  C  C85  1  0.158500  0.039300  0.806030  1.0  -0.0219
  C  C86  1  0.136300  0.949800  0.857030  1.0  -0.0064
  C  C87  1  0.179800  0.874500  0.843230  1.0  0.145
  C  C88  1  0.237400  0.883800  0.782730  1.0  0.1135
  C  C89  1  0.085300  0.726800  0.935630  1.0  0.5808
  C  C90  1  0.090400  0.623000  0.967030  1.0  -0.0019
  C  C91  1  0.025200  0.523000  0.921630  1.0  -0.0433
  C  C92  1  0.033800  0.419600  0.934130  1.0  0.106
  C  C93  1  0.139000  0.417000  0.940930  1.0  -0.0092
  C  C94  1  0.142000  0.304000  0.946630  1.0  0.0483
  C  C95  1  0.044000  0.201000  0.947530  1.0  0.0731
  C  C96  1  0.940000  0.205000  0.935830  1.0  0.0456
  C  C97  1  0.936000  0.310000  0.932830  1.0  0.0238
  C  C98  1  0.089200  0.593000  0.089430  1.0  0.5854
  C  C99  1  0.018500  0.571000  0.153930  1.0  -0.1256
  C  C100  1  0.936800  0.605700  0.162130  1.0  -0.0151
  C  C101  1  0.871500  0.574000  0.223630  1.0  -0.0076
  C  C102  1  0.896500  0.511500  0.270430  1.0  0.1477
  C  C103  1  0.038600  0.509300  0.205630  1.0  0.1374
  C  C104  1  0.821200  0.778500  0.081870  1.0  0.1664
  C  C105  1  0.880800  0.841500  0.139370  1.0  -0.0236
  C  C106  1  0.813500  0.863700  0.190370  1.0  -0.0053
  C  C107  1  0.694700  0.820200  0.176570  1.0  0.1454
  C  C108  1  0.646400  0.762600  0.116070  1.0  0.1132
  C  C109  1  0.641500  0.914700  0.268970  1.0  0.5826
  C  C110  1  0.532600  0.909600  0.300370  1.0  -0.0011
  C  C111  1  0.497800  0.974800  0.254970  1.0  -0.0451
  C  C112  1  0.385800  0.966200  0.267470  1.0  0.1059
  C  C113  1  0.278000  0.861000  0.274270  1.0  -0.0086
  C  C114  1  0.162000  0.858000  0.279970  1.0  0.05
  C  C115  1  0.157000  0.956000  0.280870  1.0  0.0718
  C  C116  1  0.265000  0.060000  0.269170  1.0  0.0473
  C  C117  1  0.374000  0.064000  0.266170  1.0  0.0205
  C  C118  1  0.503800  0.910800  0.422770  1.0  0.5879
  C  C119  1  0.552500  0.981500  0.487270  1.0  -0.1261
  C  C120  1  0.668900  0.063200  0.495470  1.0  -0.017
  C  C121  1  0.702500  0.128500  0.556970  1.0  -0.0061
  C  C122  1  0.615000  0.103500  0.603770  1.0  0.1464
  C  C123  1  0.470700  0.961400  0.538970  1.0  0.1399
  N  N124  1  0.288900  0.029100  0.593700  1.0  -0.1843
  N  N125  1  0.383500  0.219600  0.447700  1.0  -0.3838
  N  N126  1  0.435300  0.403500  0.299600  1.0  -0.3922
  N  N127  1  0.500100  0.520300  0.071000  1.0  -0.2199
  N  N128  1  0.970900  0.259800  0.260370  1.0  -0.1845
  N  N129  1  0.780400  0.163900  0.114370  1.0  -0.3858
  N  N130  1  0.596500  0.031800  0.966270  1.0  -0.3945
  N  N131  1  0.479700  0.979800  0.737670  1.0  -0.2192
  N  N132  1  0.740200  0.711100  0.927030  1.0  -0.1848
  N  N133  1  0.836100  0.616500  0.781030  1.0  -0.3868
  N  N134  1  0.968200  0.564700  0.632930  1.0  -0.393
  N  N135  1  0.020200  0.499900  0.404330  1.0  -0.2199
  N  N136  1  0.029100  0.288900  0.406300  1.0  -0.1852
  N  N137  1  0.219600  0.383500  0.552300  1.0  -0.3865
  N  N138  1  0.403500  0.435300  0.700400  1.0  -0.3932
  N  N139  1  0.520300  0.500100  0.929000  1.0  -0.2193
  N  N140  1  0.259800  0.970900  0.739630  1.0  -0.1845
  N  N141  1  0.163900  0.780400  0.885630  1.0  -0.3831
  N  N142  1  0.031800  0.596500  0.033730  1.0  -0.3927
  N  N143  1  0.979800  0.479700  0.262330  1.0  -0.2202
  N  N144  1  0.711100  0.740200  0.072970  1.0  -0.1856
  N  N145  1  0.616500  0.836100  0.218970  1.0  -0.3845
  N  N146  1  0.564700  0.968200  0.367070  1.0  -0.3936
  N  N147  1  0.499900  0.020200  0.595670  1.0  -0.2197
  O  O148  1  0.257100  0.238100  0.377300  1.0  -0.5176
  O  O149  1  0.576600  0.388100  0.243400  1.0  -0.4703
  O  O150  1  0.761900  0.019000  0.043970  1.0  -0.5155
  O  O151  1  0.611900  0.188500  0.910070  1.0  -0.4619
  O  O152  1  0.981000  0.742900  0.710630  1.0  -0.5111
  O  O153  1  0.811500  0.423400  0.576730  1.0  -0.4667
  O  O154  1  0.238100  0.257100  0.622700  1.0  -0.5127
  O  O155  1  0.388100  0.576600  0.756600  1.0  -0.4674
  O  O156  1  0.019000  0.761900  0.956030  1.0  -0.5169
  O  O157  1  0.188500  0.611900  0.089930  1.0  -0.4705
  O  O158  1  0.742900  0.981000  0.289370  1.0  -0.5148
  O  O159  1  0.423400  0.811500  0.423270  1.0  -0.4631
