# generated using pymatgen
data_CuH40C34(N2O)4
_symmetry_space_group_name_H-M   'P 1'
_cell_length_a   12.92920000
_cell_length_b   12.92920000
_cell_length_c   20.10390000
_cell_angle_alpha   90.00000000
_cell_angle_beta   90.00000000
_cell_angle_gamma   120.00000000
_symmetry_Int_Tables_number   1
_chemical_formula_structural   CuH40C34(N2O)4
_chemical_formula_sum   'Cu3 H120 C102 N24 O12'
_cell_volume   2910.41053745
_cell_formula_units_Z   3
loop_
 _symmetry_equiv_pos_site_id
 _symmetry_equiv_pos_as_xyz
  1  'x, y, z'
loop_
 _atom_site_type_symbol
 _atom_site_label
 _atom_site_symmetry_multiplicity
 _atom_site_fract_x
 _atom_site_fract_y
 _atom_site_fract_z
 _atom_site_occupancy
 _atom_site_charge
  Cu  Cu1  1  0.620470  0.000000  0.000000  1.0  0.3582
  Cu  Cu2  1  0.379530  0.379530  0.333333  1.0  0.3571
  Cu  Cu3  1  0.000000  0.620470  0.666667  1.0  0.3578
  H  H4  1  0.871400  0.100100  0.946500  1.0  0.0737
  H  H5  1  0.959100  0.088000  0.849300  1.0  0.1051
  H  H6  1  0.846600  0.945100  0.770200  1.0  0.1179
  H  H7  1  0.568700  0.821700  0.894400  1.0  0.0855
  H  H8  1  0.542300  0.737500  0.792700  1.0  0.3134
  H  H9  1  0.472500  0.640500  0.691600  1.0  0.0831
  H  H10  1  0.478500  0.526100  0.780500  1.0  0.0798
  H  H11  1  0.565500  0.498100  0.740500  1.0  0.0942
  H  H12  1  0.406300  0.394400  0.660500  1.0  0.0308
  H  H13  1  0.213000  0.330600  0.698200  1.0  0.1063
  H  H14  1  0.285500  0.469500  0.688700  1.0  0.103
  H  H15  1  0.265900  0.414400  0.760200  1.0  0.1023
  H  H16  1  0.375900  0.296600  0.788900  1.0  0.1003
  H  H17  1  0.447000  0.280300  0.730600  1.0  0.1045
  H  H18  1  0.307600  0.219700  0.726600  1.0  0.1055
  H  H19  1  0.638400  0.607500  0.623400  1.0  0.2943
  H  H20  1  0.728900  0.649700  0.532500  1.0  0.0781
  H  H21  1  0.785500  0.605700  0.431600  1.0  0.1171
  H  H22  1  0.642200  0.495900  0.354200  1.0  0.0689
  H  H23  1  0.393600  0.489200  0.466900  1.0  0.0665
  H  H24  1  0.228700  0.128600  0.279830  1.0  0.0736
  H  H25  1  0.128900  0.040900  0.182630  1.0  0.106
  H  H26  1  0.098500  0.153400  0.103530  1.0  0.1185
  H  H27  1  0.253000  0.431300  0.227730  1.0  0.0869
  H  H28  1  0.195200  0.457700  0.126030  1.0  0.312
  H  H29  1  0.168000  0.527500  0.024930  1.0  0.0823
  H  H30  1  0.047600  0.521500  0.113830  1.0  0.0791
  H  H31  1  0.932600  0.434500  0.073830  1.0  0.0917
  H  H32  1  0.988100  0.593700  0.993830  1.0  0.0317
  H  H33  1  0.117600  0.787000  0.031530  1.0  0.1076
  H  H34  1  0.184000  0.714500  0.022030  1.0  0.1021
  H  H35  1  0.148500  0.734100  0.093530  1.0  0.1017
  H  H36  1  0.920700  0.624100  0.122230  1.0  0.1009
  H  H37  1  0.833300  0.553000  0.063930  1.0  0.103
  H  H38  1  0.912100  0.692400  0.059930  1.0  0.1073
  H  H39  1  0.969100  0.361600  0.956730  1.0  0.2946
  H  H40  1  0.920800  0.271100  0.865830  1.0  0.0766
  H  H41  1  0.820200  0.214500  0.764930  1.0  0.1169
  H  H42  1  0.853700  0.357800  0.687530  1.0  0.0687
  H  H43  1  0.095600  0.606400  0.800230  1.0  0.0662
  H  H44  1  0.899900  0.771300  0.613170  1.0  0.0733
  H  H45  1  0.912000  0.871100  0.515970  1.0  0.1054
  H  H46  1  0.054900  0.901500  0.436870  1.0  0.1179
  H  H47  1  0.178300  0.747000  0.561070  1.0  0.0878
  H  H48  1  0.262500  0.804800  0.459370  1.0  0.3108
  H  H49  1  0.359500  0.832000  0.358270  1.0  0.0832
  H  H50  1  0.473900  0.952400  0.447170  1.0  0.0792
  H  H51  1  0.501900  0.067400  0.407170  1.0  0.0908
  H  H52  1  0.605600  0.011900  0.327170  1.0  0.0321
  H  H53  1  0.669400  0.882400  0.364870  1.0  0.1098
  H  H54  1  0.530500  0.816000  0.355370  1.0  0.1022
  H  H55  1  0.585600  0.851500  0.426870  1.0  0.1019
  H  H56  1  0.703400  0.079300  0.455570  1.0  0.1007
  H  H57  1  0.719700  0.166700  0.397270  1.0  0.1039
  H  H58  1  0.780300  0.087900  0.393270  1.0  0.1095
  H  H59  1  0.392500  0.030900  0.290070  1.0  0.295
  H  H60  1  0.350300  0.079200  0.199170  1.0  0.0761
  H  H61  1  0.394300  0.179800  0.098270  1.0  0.1164
  H  H62  1  0.504100  0.146300  0.020870  1.0  0.0689
  H  H63  1  0.510800  0.904400  0.133570  1.0  0.0653
  H  H64  1  0.771300  0.899900  0.053500  1.0  0.0733
  H  H65  1  0.871100  0.912000  0.150700  1.0  0.1054
  H  H66  1  0.901500  0.054900  0.229800  1.0  0.1183
  H  H67  1  0.747000  0.178300  0.105600  1.0  0.0858
  H  H68  1  0.804800  0.262500  0.207300  1.0  0.3137
  H  H69  1  0.832000  0.359500  0.308400  1.0  0.0822
  H  H70  1  0.952400  0.473900  0.219500  1.0  0.0796
  H  H71  1  0.067400  0.501900  0.259500  1.0  0.0942
  H  H72  1  0.011900  0.605600  0.339500  1.0  0.0307
  H  H73  1  0.882400  0.669400  0.301800  1.0  0.1081
  H  H74  1  0.816000  0.530500  0.311300  1.0  0.1033
  H  H75  1  0.851500  0.585600  0.239800  1.0  0.1023
  H  H76  1  0.079300  0.703400  0.211100  1.0  0.1003
  H  H77  1  0.166700  0.719700  0.269400  1.0  0.1044
  H  H78  1  0.087900  0.780300  0.273400  1.0  0.1069
  H  H79  1  0.030900  0.392500  0.376600  1.0  0.2946
  H  H80  1  0.079200  0.350300  0.467500  1.0  0.0779
  H  H81  1  0.179800  0.394300  0.568400  1.0  0.1171
  H  H82  1  0.146300  0.504100  0.645800  1.0  0.0689
  H  H83  1  0.904400  0.510800  0.533100  1.0  0.0664
  H  H84  1  0.100100  0.871400  0.720170  1.0  0.0731
  H  H85  1  0.088000  0.959100  0.817370  1.0  0.1049
  H  H86  1  0.945100  0.846600  0.896470  1.0  0.1183
  H  H87  1  0.821700  0.568700  0.772270  1.0  0.0868
  H  H88  1  0.737500  0.542300  0.873970  1.0  0.3124
  H  H89  1  0.640500  0.472500  0.975070  1.0  0.0825
  H  H90  1  0.526100  0.478500  0.886170  1.0  0.0788
  H  H91  1  0.498100  0.565500  0.926170  1.0  0.0909
  H  H92  1  0.394400  0.406300  0.006170  1.0  0.0311
  H  H93  1  0.330600  0.213000  0.968470  1.0  0.1062
  H  H94  1  0.469500  0.285500  0.977970  1.0  0.1023
  H  H95  1  0.414400  0.265900  0.906470  1.0  0.1019
  H  H96  1  0.296600  0.375900  0.877770  1.0  0.1011
  H  H97  1  0.280300  0.447000  0.936070  1.0  0.1029
  H  H98  1  0.219700  0.307600  0.940070  1.0  0.1072
  H  H99  1  0.607500  0.638400  0.043270  1.0  0.2947
  H  H100  1  0.649700  0.728900  0.134170  1.0  0.0764
  H  H101  1  0.605700  0.785500  0.235070  1.0  0.117
  H  H102  1  0.495900  0.642200  0.312470  1.0  0.0684
  H  H103  1  0.489200  0.393600  0.199770  1.0  0.0664
  H  H104  1  0.128600  0.228700  0.386830  1.0  0.0726
  H  H105  1  0.040900  0.128900  0.484030  1.0  0.1056
  H  H106  1  0.153400  0.098500  0.563130  1.0  0.1178
  H  H107  1  0.431300  0.253000  0.438930  1.0  0.0873
  H  H108  1  0.457700  0.195200  0.540630  1.0  0.3108
  H  H109  1  0.527500  0.168000  0.641730  1.0  0.082
  H  H110  1  0.521500  0.047600  0.552830  1.0  0.0796
  H  H111  1  0.434500  0.932600  0.592830  1.0  0.0904
  H  H112  1  0.593700  0.988100  0.672830  1.0  0.0315
  H  H113  1  0.787000  0.117600  0.635130  1.0  0.11
  H  H114  1  0.714500  0.184000  0.644630  1.0  0.1016
  H  H115  1  0.734100  0.148500  0.573130  1.0  0.1041
  H  H116  1  0.624100  0.920700  0.544430  1.0  0.1004
  H  H117  1  0.553000  0.833300  0.602730  1.0  0.1041
  H  H118  1  0.692400  0.912100  0.606730  1.0  0.1094
  H  H119  1  0.361600  0.969100  0.709930  1.0  0.2949
  H  H120  1  0.271100  0.920800  0.800830  1.0  0.0757
  H  H121  1  0.214500  0.820200  0.901730  1.0  0.1161
  H  H122  1  0.357800  0.853700  0.979130  1.0  0.0692
  H  H123  1  0.606400  0.095600  0.866430  1.0  0.065
  C  C124  1  0.825800  0.041600  0.915440  1.0  0.0972
  C  C125  1  0.878700  0.034500  0.857040  1.0  -0.1247
  C  C126  1  0.812400  0.948200  0.810290  1.0  -0.1422
  C  C127  1  0.694900  0.866700  0.824120  1.0  0.1623
  C  C128  1  0.647400  0.877800  0.884140  1.0  0.0068
  C  C129  1  0.646000  0.732400  0.727030  1.0  0.4896
  C  C130  1  0.538800  0.624400  0.695010  1.0  0.0439
  C  C131  1  0.498800  0.512200  0.736250  1.0  -0.2372
  C  C132  1  0.391600  0.399100  0.707880  1.0  0.1256
  C  C133  1  0.278900  0.403800  0.714300  1.0  -0.3667
  C  C134  1  0.379400  0.288800  0.741600  1.0  -0.3648
  C  C135  1  0.507000  0.595400  0.574250  1.0  0.5328
  C  C136  1  0.553700  0.572700  0.510810  1.0  -0.2098
  C  C137  1  0.672100  0.607900  0.499830  1.0  -0.05
  C  C138  1  0.705700  0.580700  0.440130  1.0  -0.1514
  C  C139  1  0.619700  0.516400  0.393750  1.0  0.1099
  C  C140  1  0.473200  0.511200  0.460510  1.0  0.1546
  C  C141  1  0.215800  0.174200  0.248770  1.0  0.0981
  C  C142  1  0.155800  0.121300  0.190370  1.0  -0.1243
  C  C143  1  0.135800  0.187600  0.143620  1.0  -0.145
  C  C144  1  0.171800  0.305100  0.157450  1.0  0.162
  C  C145  1  0.230400  0.352600  0.217470  1.0  0.0056
  C  C146  1  0.086400  0.354000  0.060360  1.0  0.4908
  C  C147  1  0.085600  0.461200  0.028340  1.0  0.0431
  C  C148  1  0.013400  0.501200  0.069580  1.0  -0.2383
  C  C149  1  0.007500  0.608400  0.041210  1.0  0.1272
  C  C150  1  0.124900  0.721100  0.047630  1.0  -0.3649
  C  C151  1  0.909400  0.620600  0.074930  1.0  -0.3671
  C  C152  1  0.088400  0.493000  0.907580  1.0  0.5351
  C  C153  1  0.019000  0.446300  0.844140  1.0  -0.2107
  C  C154  1  0.935800  0.327900  0.833160  1.0  -0.0483
  C  C155  1  0.875000  0.294300  0.773460  1.0  -0.1485
  C  C156  1  0.896700  0.380300  0.727080  1.0  0.1093
  C  C157  1  0.038000  0.526800  0.793840  1.0  0.1552
  C  C158  1  0.958400  0.784200  0.582110  1.0  0.0975
  C  C159  1  0.965500  0.844200  0.523710  1.0  -0.1294
  C  C160  1  0.051800  0.864200  0.476960  1.0  -0.1427
  C  C161  1  0.133300  0.828200  0.490790  1.0  0.1619
  C  C162  1  0.122200  0.769600  0.550810  1.0  0.0041
  C  C163  1  0.267600  0.913600  0.393700  1.0  0.4886
  C  C164  1  0.375600  0.914400  0.361680  1.0  0.0446
  C  C165  1  0.487800  0.986600  0.402920  1.0  -0.2366
  C  C166  1  0.600900  0.992500  0.374550  1.0  0.1272
  C  C167  1  0.596200  0.875100  0.380970  1.0  -0.3681
  C  C168  1  0.711200  0.090600  0.408270  1.0  -0.367
  C  C169  1  0.404600  0.911600  0.240920  1.0  0.5354
  C  C170  1  0.427300  0.981000  0.177480  1.0  -0.2098
  C  C171  1  0.392100  0.064200  0.166500  1.0  -0.0472
  C  C172  1  0.419300  0.125000  0.106800  1.0  -0.1502
  C  C173  1  0.483600  0.103300  0.060420  1.0  0.1102
  C  C174  1  0.488800  0.962000  0.127180  1.0  0.1584
  C  C175  1  0.784200  0.958400  0.084560  1.0  0.0975
  C  C176  1  0.844200  0.965500  0.142960  1.0  -0.126
  C  C177  1  0.864200  0.051800  0.189710  1.0  -0.1429
  C  C178  1  0.828200  0.133300  0.175880  1.0  0.1623
  C  C179  1  0.769600  0.122200  0.115860  1.0  0.0068
  C  C180  1  0.913600  0.267600  0.272970  1.0  0.4902
  C  C181  1  0.914400  0.375600  0.304990  1.0  0.0442
  C  C182  1  0.986600  0.487800  0.263750  1.0  -0.2348
  C  C183  1  0.992500  0.600900  0.292120  1.0  0.1275
  C  C184  1  0.875100  0.596200  0.285700  1.0  -0.3663
  C  C185  1  0.090600  0.711200  0.258400  1.0  -0.3641
  C  C186  1  0.911600  0.404600  0.425750  1.0  0.533
  C  C187  1  0.981000  0.427300  0.489190  1.0  -0.2095
  C  C188  1  0.064200  0.392100  0.500170  1.0  -0.0504
  C  C189  1  0.125000  0.419300  0.559870  1.0  -0.1516
  C  C190  1  0.103300  0.483600  0.606250  1.0  0.1101
  C  C191  1  0.962000  0.488800  0.539490  1.0  0.1543
  C  C192  1  0.041600  0.825800  0.751230  1.0  0.0995
  C  C193  1  0.034500  0.878700  0.809630  1.0  -0.1232
  C  C194  1  0.948200  0.812400  0.856380  1.0  -0.1437
  C  C195  1  0.866700  0.694900  0.842550  1.0  0.1615
  C  C196  1  0.877800  0.647400  0.782530  1.0  0.0046
  C  C197  1  0.732400  0.646000  0.939640  1.0  0.4902
  C  C198  1  0.624400  0.538800  0.971660  1.0  0.0436
  C  C199  1  0.512200  0.498800  0.930420  1.0  -0.2362
  C  C200  1  0.399100  0.391600  0.958790  1.0  0.128
  C  C201  1  0.403800  0.278900  0.952370  1.0  -0.3658
  C  C202  1  0.288800  0.379400  0.925070  1.0  -0.3677
  C  C203  1  0.595400  0.507000  0.092420  1.0  0.5358
  C  C204  1  0.572700  0.553700  0.155860  1.0  -0.21
  C  C205  1  0.607900  0.672100  0.166840  1.0  -0.0487
  C  C206  1  0.580700  0.705700  0.226540  1.0  -0.1485
  C  C207  1  0.516400  0.619700  0.272920  1.0  0.1097
  C  C208  1  0.511200  0.473200  0.206160  1.0  0.1555
  C  C209  1  0.174200  0.215800  0.417890  1.0  0.0979
  C  C210  1  0.121300  0.155800  0.476290  1.0  -0.1292
  C  C211  1  0.187600  0.135800  0.523040  1.0  -0.1427
  C  C212  1  0.305100  0.171800  0.509210  1.0  0.1615
  C  C213  1  0.352600  0.230400  0.449190  1.0  0.0042
  C  C214  1  0.354000  0.086400  0.606300  1.0  0.4884
  C  C215  1  0.461200  0.085600  0.638320  1.0  0.045
  C  C216  1  0.501200  0.013400  0.597080  1.0  -0.2347
  C  C217  1  0.608400  0.007500  0.625450  1.0  0.1288
  C  C218  1  0.721100  0.124900  0.619030  1.0  -0.3681
  C  C219  1  0.620600  0.909400  0.591730  1.0  -0.3669
  C  C220  1  0.493000  0.088400  0.759080  1.0  0.5354
  C  C221  1  0.446300  0.019000  0.822520  1.0  -0.21
  C  C222  1  0.327900  0.935800  0.833500  1.0  -0.0474
  C  C223  1  0.294300  0.875000  0.893200  1.0  -0.1498
  C  C224  1  0.380300  0.896700  0.939580  1.0  0.1109
  C  C225  1  0.526800  0.038000  0.872820  1.0  0.1578
  N  N226  1  0.710400  0.966000  0.927990  1.0  -0.2808
  N  N227  1  0.616800  0.773100  0.782280  1.0  -0.4235
  N  N228  1  0.572800  0.608500  0.628240  1.0  -0.44
  N  N229  1  0.504200  0.481800  0.403150  1.0  -0.3066
  N  N230  1  0.255600  0.289600  0.261320  1.0  -0.2819
  N  N231  1  0.156300  0.383200  0.115610  1.0  -0.428
  N  N232  1  0.035700  0.427200  0.961570  1.0  -0.4355
  N  N233  1  0.977600  0.495800  0.736480  1.0  -0.3061
  N  N234  1  0.034000  0.744400  0.594660  1.0  -0.2812
  N  N235  1  0.226900  0.843700  0.448950  1.0  -0.4237
  N  N236  1  0.391500  0.964300  0.294910  1.0  -0.435
  N  N237  1  0.518200  0.022400  0.069820  1.0  -0.3062
  N  N238  1  0.744400  0.034000  0.072010  1.0  -0.2819
  N  N239  1  0.843700  0.226900  0.217720  1.0  -0.4234
  N  N240  1  0.964300  0.391500  0.371760  1.0  -0.4403
  N  N241  1  0.022400  0.518200  0.596850  1.0  -0.3065
  N  N242  1  0.966000  0.710400  0.738680  1.0  -0.2836
  N  N243  1  0.773100  0.616800  0.884390  1.0  -0.4259
  N  N244  1  0.608500  0.572800  0.038430  1.0  -0.4356
  N  N245  1  0.481800  0.504200  0.263520  1.0  -0.3062
  N  N246  1  0.289600  0.255600  0.405340  1.0  -0.2825
  N  N247  1  0.383200  0.156300  0.551050  1.0  -0.4232
  N  N248  1  0.427200  0.035700  0.705090  1.0  -0.4355
  N  N249  1  0.495800  0.977600  0.930180  1.0  -0.3059
  O  O250  1  0.746200  0.774100  0.705780  1.0  -0.4785
  O  O251  1  0.414900  0.600300  0.575350  1.0  -0.5591
  O  O252  1  0.027900  0.253800  0.039110  1.0  -0.4779
  O  O253  1  0.185400  0.585100  0.908680  1.0  -0.5595
  O  O254  1  0.225900  0.972100  0.372450  1.0  -0.4786
  O  O255  1  0.399700  0.814600  0.242020  1.0  -0.5596
  O  O256  1  0.972100  0.225900  0.294220  1.0  -0.4782
  O  O257  1  0.814600  0.399700  0.424650  1.0  -0.5592
  O  O258  1  0.774100  0.746200  0.960890  1.0  -0.4768
  O  O259  1  0.600300  0.414900  0.091320  1.0  -0.5601
  O  O260  1  0.253800  0.027900  0.627550  1.0  -0.4789
  O  O261  1  0.585100  0.185400  0.757980  1.0  -0.5586
