# generated using pymatgen
data_Tb2Cu3H30C24(NO4)6
_symmetry_space_group_name_H-M   'P 1'
_cell_length_a   13.38600000
_cell_length_b   13.38600000
_cell_length_c   14.46460000
_cell_angle_alpha   90.00000000
_cell_angle_beta   90.00000000
_cell_angle_gamma   120.00000000
_symmetry_Int_Tables_number   1
_chemical_formula_structural   Tb2Cu3H30C24(NO4)6
_chemical_formula_sum   'Tb4 Cu6 H60 C48 N12 O48'
_cell_volume   2244.59867039
_cell_formula_units_Z   2
loop_
 _symmetry_equiv_pos_site_id
 _symmetry_equiv_pos_as_xyz
  1  'x, y, z'
loop_
 _atom_site_type_symbol
 _atom_site_label
 _atom_site_symmetry_multiplicity
 _atom_site_fract_x
 _atom_site_fract_y
 _atom_site_fract_z
 _atom_site_occupancy
 _atom_site_charge
  Tb  Tb1  1  0.333333  0.666667  0.832260  1.0  2.2605
  Tb  Tb2  1  0.666667  0.333333  0.667740  1.0  2.2608
  Tb  Tb3  1  0.666667  0.333333  0.167740  1.0  2.2608
  Tb  Tb4  1  0.333333  0.666667  0.332260  1.0  2.2605
  Cu  Cu5  1  0.000000  0.500000  0.000000  1.0  0.8075
  Cu  Cu6  1  0.500000  0.000000  0.000000  1.0  0.8075
  Cu  Cu7  1  0.500000  0.500000  0.000000  1.0  0.8075
  Cu  Cu8  1  0.500000  0.500000  0.500000  1.0  0.8075
  Cu  Cu9  1  0.500000  0.000000  0.500000  1.0  0.8075
  Cu  Cu10  1  0.000000  0.500000  0.500000  1.0  0.8075
  H  H11  1  0.977100  0.650600  0.078200  1.0  0.2592
  H  H12  1  0.083900  0.684700  0.193800  1.0  0.1435
  H  H13  1  0.192600  0.732600  0.129600  1.0  0.1315
  H  H14  1  0.139400  0.820400  0.019900  1.0  0.1084
  H  H15  1  0.040800  0.746600  0.949100  1.0  0.1249
  H  H16  1  0.673500  0.022900  0.078200  1.0  0.2582
  H  H17  1  0.600800  0.916100  0.193800  1.0  0.1437
  H  H18  1  0.540000  0.807400  0.129600  1.0  0.1326
  H  H19  1  0.681000  0.860600  0.019900  1.0  0.1088
  H  H20  1  0.705800  0.959200  0.949100  1.0  0.1242
  H  H21  1  0.349400  0.326500  0.078200  1.0  0.258
  H  H22  1  0.315300  0.399200  0.193800  1.0  0.1431
  H  H23  1  0.267400  0.460000  0.129600  1.0  0.1361
  H  H24  1  0.179600  0.319000  0.019900  1.0  0.108
  H  H25  1  0.253400  0.294200  0.949100  1.0  0.1247
  H  H26  1  0.326500  0.349400  0.421800  1.0  0.2588
  H  H27  1  0.399200  0.315300  0.306200  1.0  0.1427
  H  H28  1  0.460000  0.267400  0.370400  1.0  0.1325
  H  H29  1  0.319000  0.179600  0.480100  1.0  0.1084
  H  H30  1  0.294200  0.253400  0.550900  1.0  0.1252
  H  H31  1  0.650600  0.977100  0.421800  1.0  0.2587
  H  H32  1  0.684700  0.083900  0.306200  1.0  0.1433
  H  H33  1  0.732600  0.192600  0.370400  1.0  0.1334
  H  H34  1  0.820400  0.139400  0.480100  1.0  0.1088
  H  H35  1  0.746600  0.040800  0.550900  1.0  0.1242
  H  H36  1  0.022900  0.673500  0.421800  1.0  0.2582
  H  H37  1  0.916100  0.600800  0.306200  1.0  0.1425
  H  H38  1  0.807400  0.540000  0.370400  1.0  0.1367
  H  H39  1  0.860600  0.681000  0.480100  1.0  0.1079
  H  H40  1  0.959200  0.705800  0.550900  1.0  0.1244
  H  H41  1  0.022900  0.349400  0.921800  1.0  0.2587
  H  H42  1  0.916100  0.315300  0.806200  1.0  0.1435
  H  H43  1  0.807400  0.267400  0.870400  1.0  0.133
  H  H44  1  0.860600  0.179600  0.980100  1.0  0.1093
  H  H45  1  0.959200  0.253400  0.050900  1.0  0.1227
  H  H46  1  0.326500  0.977100  0.921800  1.0  0.2586
  H  H47  1  0.399200  0.083900  0.806200  1.0  0.1429
  H  H48  1  0.460000  0.192600  0.870400  1.0  0.1337
  H  H49  1  0.319000  0.139400  0.980100  1.0  0.109
  H  H50  1  0.294200  0.040800  0.050900  1.0  0.1225
  H  H51  1  0.650600  0.673500  0.921800  1.0  0.2588
  H  H52  1  0.684700  0.600800  0.806200  1.0  0.1427
  H  H53  1  0.732600  0.540000  0.870400  1.0  0.1378
  H  H54  1  0.820400  0.681000  0.980100  1.0  0.1087
  H  H55  1  0.746600  0.705800  0.050900  1.0  0.1222
  H  H56  1  0.673500  0.650600  0.578200  1.0  0.2587
  H  H57  1  0.600800  0.684700  0.693800  1.0  0.1442
  H  H58  1  0.540000  0.732600  0.629600  1.0  0.1328
  H  H59  1  0.681000  0.820400  0.519900  1.0  0.1079
  H  H60  1  0.705800  0.746600  0.449100  1.0  0.1228
  H  H61  1  0.349400  0.022900  0.578200  1.0  0.2585
  H  H62  1  0.315300  0.916100  0.693800  1.0  0.1437
  H  H63  1  0.267400  0.807400  0.629600  1.0  0.1327
  H  H64  1  0.179600  0.860600  0.519900  1.0  0.1093
  H  H65  1  0.253400  0.959200  0.449100  1.0  0.1223
  H  H66  1  0.977100  0.326500  0.578200  1.0  0.2584
  H  H67  1  0.083900  0.399200  0.693800  1.0  0.143
  H  H68  1  0.192600  0.460000  0.629600  1.0  0.1372
  H  H69  1  0.139400  0.319000  0.519900  1.0  0.1085
  H  H70  1  0.040800  0.294200  0.449100  1.0  0.1224
  C  C71  1  0.125900  0.563600  0.160200  1.0  0.7447
  C  C72  1  0.116000  0.667300  0.140100  1.0  -0.2246
  C  C73  1  0.184000  0.731100  0.929900  1.0  0.7045
  C  C74  1  0.099300  0.746500  0.988600  1.0  -0.1874
  C  C75  1  0.437700  0.874100  0.160200  1.0  0.743
  C  C76  1  0.551300  0.884000  0.140100  1.0  -0.2246
  C  C77  1  0.547100  0.816000  0.929900  1.0  0.706
  C  C78  1  0.647200  0.900700  0.988600  1.0  -0.1899
  C  C79  1  0.436400  0.562300  0.160200  1.0  0.7452
  C  C80  1  0.332700  0.448700  0.140100  1.0  -0.2253
  C  C81  1  0.268900  0.452900  0.929900  1.0  0.7054
  C  C82  1  0.253500  0.352800  0.988600  1.0  -0.188
  C  C83  1  0.562300  0.436400  0.339800  1.0  0.7446
  C  C84  1  0.448700  0.332700  0.359900  1.0  -0.2247
  C  C85  1  0.452900  0.268900  0.570100  1.0  0.7058
  C  C86  1  0.352800  0.253500  0.511400  1.0  -0.1876
  C  C87  1  0.563600  0.125900  0.339800  1.0  0.7428
  C  C88  1  0.667300  0.116000  0.359900  1.0  -0.2246
  C  C89  1  0.731100  0.184000  0.570100  1.0  0.7071
  C  C90  1  0.746500  0.099300  0.511400  1.0  -0.1896
  C  C91  1  0.874100  0.437700  0.339800  1.0  0.7438
  C  C92  1  0.884000  0.551300  0.359900  1.0  -0.2251
  C  C93  1  0.816000  0.547100  0.570100  1.0  0.7055
  C  C94  1  0.900700  0.647200  0.511400  1.0  -0.1886
  C  C95  1  0.874100  0.436400  0.839800  1.0  0.7448
  C  C96  1  0.884000  0.332700  0.859900  1.0  -0.224
  C  C97  1  0.816000  0.268900  0.070100  1.0  0.7049
  C  C98  1  0.900700  0.253500  0.011400  1.0  -0.1877
  C  C99  1  0.562300  0.125900  0.839800  1.0  0.7426
  C  C100  1  0.448700  0.116000  0.859900  1.0  -0.2248
  C  C101  1  0.452900  0.184000  0.070100  1.0  0.7068
  C  C102  1  0.352800  0.099300  0.011400  1.0  -0.1893
  C  C103  1  0.563600  0.437700  0.839800  1.0  0.7438
  C  C104  1  0.667300  0.551300  0.859900  1.0  -0.2246
  C  C105  1  0.731100  0.547100  0.070100  1.0  0.7068
  C  C106  1  0.746500  0.647200  0.011400  1.0  -0.1889
  C  C107  1  0.437700  0.563600  0.660200  1.0  0.7445
  C  C108  1  0.551300  0.667300  0.640100  1.0  -0.2239
  C  C109  1  0.547100  0.731100  0.429900  1.0  0.7045
  C  C110  1  0.647200  0.746500  0.488600  1.0  -0.1879
  C  C111  1  0.436400  0.874100  0.660200  1.0  0.7428
  C  C112  1  0.332700  0.884000  0.640100  1.0  -0.2253
  C  C113  1  0.268900  0.816000  0.429900  1.0  0.7056
  C  C114  1  0.253500  0.900700  0.488600  1.0  -0.1898
  C  C115  1  0.125900  0.562300  0.660200  1.0  0.7454
  C  C116  1  0.116000  0.448700  0.640100  1.0  -0.2243
  C  C117  1  0.184000  0.452900  0.429900  1.0  0.7053
  C  C118  1  0.099300  0.352800  0.488600  1.0  -0.189
  N  N119  1  0.042700  0.652800  0.058400  1.0  -0.268
  N  N120  1  0.610100  0.957300  0.058400  1.0  -0.2697
  N  N121  1  0.347200  0.389900  0.058400  1.0  -0.2692
  N  N122  1  0.389900  0.347200  0.441600  1.0  -0.2683
  N  N123  1  0.652800  0.042700  0.441600  1.0  -0.2708
  N  N124  1  0.957300  0.610100  0.441600  1.0  -0.2691
  N  N125  1  0.957300  0.347200  0.941600  1.0  -0.2687
  N  N126  1  0.389900  0.042700  0.941600  1.0  -0.2696
  N  N127  1  0.652800  0.610100  0.941600  1.0  -0.269
  N  N128  1  0.610100  0.652800  0.558400  1.0  -0.2687
  N  N129  1  0.347200  0.957300  0.558400  1.0  -0.2688
  N  N130  1  0.042700  0.389900  0.558400  1.0  -0.2695
  O  O131  1  0.188500  0.639500  0.941300  1.0  -0.7694
  O  O132  1  0.074400  0.476100  0.108300  1.0  -0.5635
  O  O133  1  0.245800  0.805600  0.872800  1.0  -0.6451
  O  O134  1  0.184200  0.565300  0.228400  1.0  -0.7164
  O  O135  1  0.451000  0.811500  0.941300  1.0  -0.7681
  O  O136  1  0.401700  0.925600  0.108300  1.0  -0.5623
  O  O137  1  0.559800  0.754200  0.872800  1.0  -0.6446
  O  O138  1  0.381100  0.815800  0.228400  1.0  -0.716
  O  O139  1  0.360500  0.549000  0.941300  1.0  -0.7715
  O  O140  1  0.523900  0.598300  0.108300  1.0  -0.5634
  O  O141  1  0.194400  0.440200  0.872800  1.0  -0.6437
  O  O142  1  0.434700  0.618900  0.228400  1.0  -0.7181
  O  O143  1  0.549000  0.360500  0.558700  1.0  -0.7691
  O  O144  1  0.598300  0.523900  0.391700  1.0  -0.5629
  O  O145  1  0.440200  0.194400  0.627200  1.0  -0.646
  O  O146  1  0.618900  0.434700  0.271600  1.0  -0.7143
  O  O147  1  0.639500  0.188500  0.558700  1.0  -0.767
  O  O148  1  0.476100  0.074400  0.391700  1.0  -0.5618
  O  O149  1  0.805600  0.245800  0.627200  1.0  -0.6445
  O  O150  1  0.565300  0.184200  0.271600  1.0  -0.7144
  O  O151  1  0.811500  0.451000  0.558700  1.0  -0.7706
  O  O152  1  0.925600  0.401700  0.391700  1.0  -0.5624
  O  O153  1  0.754200  0.559800  0.627200  1.0  -0.6437
  O  O154  1  0.815800  0.381100  0.271600  1.0  -0.7163
  O  O155  1  0.811500  0.360500  0.058700  1.0  -0.7697
  O  O156  1  0.925600  0.523900  0.891700  1.0  -0.5629
  O  O157  1  0.754200  0.194400  0.127200  1.0  -0.6454
  O  O158  1  0.815800  0.434700  0.771600  1.0  -0.7144
  O  O159  1  0.549000  0.188500  0.058700  1.0  -0.7666
  O  O160  1  0.598300  0.074400  0.891700  1.0  -0.5614
  O  O161  1  0.440200  0.245800  0.127200  1.0  -0.645
  O  O162  1  0.618900  0.184200  0.771600  1.0  -0.7142
  O  O163  1  0.639500  0.451000  0.058700  1.0  -0.7706
  O  O164  1  0.476100  0.401700  0.891700  1.0  -0.5629
  O  O165  1  0.805600  0.559800  0.127200  1.0  -0.6439
  O  O166  1  0.565300  0.381100  0.771600  1.0  -0.7173
  O  O167  1  0.451000  0.639500  0.441300  1.0  -0.7698
  O  O168  1  0.401700  0.476100  0.608300  1.0  -0.5634
  O  O169  1  0.559800  0.805600  0.372800  1.0  -0.6449
  O  O170  1  0.381100  0.565300  0.728400  1.0  -0.7158
  O  O171  1  0.360500  0.811500  0.441300  1.0  -0.7675
  O  O172  1  0.523900  0.925600  0.608300  1.0  -0.5618
  O  O173  1  0.194400  0.754200  0.372800  1.0  -0.6448
  O  O174  1  0.434700  0.815800  0.728400  1.0  -0.7164
  O  O175  1  0.188500  0.549000  0.441300  1.0  -0.7717
  O  O176  1  0.074400  0.598300  0.608300  1.0  -0.5637
  O  O177  1  0.245800  0.440200  0.372800  1.0  -0.6439
  O  O178  1  0.184200  0.618900  0.728400  1.0  -0.719
