# generated using pymatgen
data_La2Ni3H30C24(NO4)6
_symmetry_space_group_name_H-M   'P 1'
_cell_length_a   7.48810000
_cell_length_b   13.25390000
_cell_length_c   13.25390000
_cell_angle_alpha   120.00000000
_cell_angle_beta   90.00000000
_cell_angle_gamma   90.00000000
_symmetry_Int_Tables_number   1
_chemical_formula_structural   La2Ni3H30C24(NO4)6
_chemical_formula_sum   'La2 Ni3 H30 C24 N6 O24'
_cell_volume   1139.17290376
_cell_formula_units_Z   1
loop_
 _symmetry_equiv_pos_site_id
 _symmetry_equiv_pos_as_xyz
  1  'x, y, z'
loop_
 _atom_site_type_symbol
 _atom_site_label
 _atom_site_symmetry_multiplicity
 _atom_site_fract_x
 _atom_site_fract_y
 _atom_site_fract_z
 _atom_site_occupancy
 _atom_site_charge
  La  La1  1  0.330510  0.666667  0.333333  1.0  2.1384
  La  La2  1  0.669490  0.333333  0.666667  1.0  2.1392
  Ni  Ni3  1  0.000000  0.500000  0.500000  1.0  0.771
  Ni  Ni4  1  0.000000  0.000000  0.500000  1.0  0.771
  Ni  Ni5  1  0.000000  0.500000  0.000000  1.0  0.771
  H  H6  1  0.714700  0.731200  0.557500  1.0  0.1166
  H  H7  1  0.605200  0.666500  0.608600  1.0  0.1334
  H  H8  1  0.838900  0.645500  0.682000  1.0  0.2523
  H  H9  1  0.066300  0.755700  0.717800  1.0  0.1186
  H  H10  1  0.935100  0.816300  0.672200  1.0  0.1046
  H  H11  1  0.714700  0.826300  0.268800  1.0  0.1183
  H  H12  1  0.605200  0.942100  0.333500  1.0  0.131
  H  H13  1  0.838900  0.036500  0.354500  1.0  0.2538
  H  H14  1  0.066300  0.962100  0.244300  1.0  0.119
  H  H15  1  0.935100  0.855900  0.183700  1.0  0.1045
  H  H16  1  0.714700  0.442500  0.173700  1.0  0.1187
  H  H17  1  0.605200  0.391400  0.057900  1.0  0.1329
  H  H18  1  0.838900  0.318000  0.963500  1.0  0.2517
  H  H19  1  0.066300  0.282200  0.037900  1.0  0.1185
  H  H20  1  0.935100  0.327800  0.144100  1.0  0.1055
  H  H21  1  0.285300  0.268800  0.442500  1.0  0.1175
  H  H22  1  0.394800  0.333500  0.391400  1.0  0.1334
  H  H23  1  0.161100  0.354500  0.318000  1.0  0.2521
  H  H24  1  0.933700  0.244300  0.282200  1.0  0.1177
  H  H25  1  0.064900  0.183700  0.327800  1.0  0.1053
  H  H26  1  0.285300  0.173700  0.731200  1.0  0.1174
  H  H27  1  0.394800  0.057900  0.666500  1.0  0.1333
  H  H28  1  0.161100  0.963500  0.645500  1.0  0.2533
  H  H29  1  0.933700  0.037900  0.755700  1.0  0.1195
  H  H30  1  0.064900  0.144100  0.816300  1.0  0.106
  H  H31  1  0.285300  0.557500  0.826300  1.0  0.1177
  H  H32  1  0.394800  0.608600  0.942100  1.0  0.1327
  H  H33  1  0.161100  0.682000  0.036500  1.0  0.2511
  H  H34  1  0.933700  0.717800  0.962100  1.0  0.1177
  H  H35  1  0.064900  0.672200  0.855900  1.0  0.106
  C  C36  1  0.676600  0.560400  0.440200  1.0  0.7463
  C  C37  1  0.707600  0.659900  0.560900  1.0  -0.2104
  C  C38  1  0.998500  0.744500  0.650600  1.0  -0.1833
  C  C39  1  0.125800  0.717800  0.551100  1.0  0.6861
  C  C40  1  0.676600  0.879800  0.439600  1.0  0.7476
  C  C41  1  0.707600  0.901000  0.340100  1.0  -0.2084
  C  C42  1  0.998500  0.906100  0.255500  1.0  -0.1837
  C  C43  1  0.125800  0.833300  0.282200  1.0  0.6883
  C  C44  1  0.676600  0.559800  0.120200  1.0  0.7454
  C  C45  1  0.707600  0.439100  0.099000  1.0  -0.2097
  C  C46  1  0.998500  0.349400  0.093900  1.0  -0.1821
  C  C47  1  0.125800  0.448900  0.166700  1.0  0.6858
  C  C48  1  0.323400  0.439600  0.559800  1.0  0.7452
  C  C49  1  0.292400  0.340100  0.439100  1.0  -0.2102
  C  C50  1  0.001500  0.255500  0.349400  1.0  -0.181
  C  C51  1  0.874200  0.282200  0.448900  1.0  0.6864
  C  C52  1  0.323400  0.120200  0.560400  1.0  0.7491
  C  C53  1  0.292400  0.099000  0.659900  1.0  -0.2115
  C  C54  1  0.001500  0.093900  0.744500  1.0  -0.1844
  C  C55  1  0.874200  0.166700  0.717800  1.0  0.6852
  C  C56  1  0.323400  0.440200  0.879800  1.0  0.7452
  C  C57  1  0.292400  0.560900  0.901000  1.0  -0.2101
  C  C58  1  0.001500  0.650600  0.906100  1.0  -0.1819
  C  C59  1  0.874200  0.551100  0.833300  1.0  0.6852
  N  N60  1  0.869500  0.650140  0.618040  1.0  -0.2851
  N  N61  1  0.869500  0.967900  0.349860  1.0  -0.2852
  N  N62  1  0.869500  0.381960  0.032100  1.0  -0.2857
  N  N63  1  0.130500  0.349860  0.381960  1.0  -0.2857
  N  N64  1  0.130500  0.032100  0.650140  1.0  -0.286
  N  N65  1  0.130500  0.618040  0.967900  1.0  -0.2866
  O  O66  1  0.539500  0.565800  0.389700  1.0  -0.722
  O  O67  1  0.785100  0.476440  0.396160  1.0  -0.5734
  O  O68  1  0.110500  0.620270  0.458050  1.0  -0.6643
  O  O69  1  0.239400  0.790120  0.561270  1.0  -0.6213
  O  O70  1  0.539500  0.823900  0.434200  1.0  -0.722
  O  O71  1  0.785100  0.919720  0.523560  1.0  -0.5711
  O  O72  1  0.110500  0.837780  0.379730  1.0  -0.6626
  O  O73  1  0.239400  0.771150  0.209880  1.0  -0.6208
  O  O74  1  0.539500  0.610300  0.176100  1.0  -0.7221
  O  O75  1  0.785100  0.603840  0.080280  1.0  -0.5731
  O  O76  1  0.110500  0.541950  0.162220  1.0  -0.665
  O  O77  1  0.239400  0.438730  0.228850  1.0  -0.6213
  O  O78  1  0.460500  0.434200  0.610300  1.0  -0.7215
  O  O79  1  0.214900  0.523560  0.603840  1.0  -0.5723
  O  O80  1  0.889500  0.379730  0.541950  1.0  -0.6648
  O  O81  1  0.760600  0.209880  0.438730  1.0  -0.6206
  O  O82  1  0.460500  0.176100  0.565800  1.0  -0.7211
  O  O83  1  0.214900  0.080280  0.476440  1.0  -0.5719
  O  O84  1  0.889500  0.162220  0.620270  1.0  -0.6638
  O  O85  1  0.760600  0.228850  0.790120  1.0  -0.6196
  O  O86  1  0.460500  0.389700  0.823900  1.0  -0.7211
  O  O87  1  0.214900  0.396160  0.919720  1.0  -0.5728
  O  O88  1  0.889500  0.458050  0.837780  1.0  -0.6664
  O  O89  1  0.760600  0.561270  0.771150  1.0  -0.6207
