# generated using pymatgen
data_ErH24C27(SO3)2
_symmetry_space_group_name_H-M   'P 1'
_cell_length_a   9.00680000
_cell_length_b   14.80350000
_cell_length_c   22.98370000
_cell_angle_alpha   90.00000000
_cell_angle_beta   90.00000000
_cell_angle_gamma   92.78700000
_symmetry_Int_Tables_number   1
_chemical_formula_structural   ErH24C27(SO3)2
_chemical_formula_sum   'Er4 H96 C108 S8 O24'
_cell_volume   3060.84178779
_cell_formula_units_Z   4
loop_
 _symmetry_equiv_pos_site_id
 _symmetry_equiv_pos_as_xyz
  1  'x, y, z'
loop_
 _atom_site_type_symbol
 _atom_site_label
 _atom_site_symmetry_multiplicity
 _atom_site_fract_x
 _atom_site_fract_y
 _atom_site_fract_z
 _atom_site_occupancy
 _atom_site_charge
  Er  Er1  1  0.210160  0.003960  0.981610  1.0  1.5277
  Er  Er2  1  0.289840  0.496040  0.481610  1.0  1.5283
  Er  Er3  1  0.789840  0.996040  0.018390  1.0  1.5272
  Er  Er4  1  0.710160  0.503960  0.518390  1.0  1.5269
  H  H5  1  0.700400  0.218000  0.499600  1.0  0.1008
  H  H6  1  0.320600  0.250200  0.979500  1.0  0.1064
  H  H7  1  0.428900  0.477600  0.065200  1.0  0.1148
  H  H8  1  0.287000  0.400700  0.995800  1.0  0.1196
  H  H9  1  0.831400  0.359400  0.145300  1.0  0.1207
  H  H10  1  0.708100  0.336900  0.192400  1.0  0.132
  H  H11  1  0.316000  0.243300  0.163400  1.0  0.1176
  H  H12  1  0.336500  0.158400  0.202800  1.0  0.1254
  H  H13  1  0.371700  0.255700  0.227600  1.0  0.1366
  H  H14  1  0.605100  0.404000  0.116900  1.0  0.1141
  H  H15  1  0.297000  0.124200  0.293700  1.0  0.136
  H  H16  1  0.173400  0.104500  0.341100  1.0  0.1349
  H  H17  1  0.394300  0.056100  0.372700  1.0  0.116
  H  H18  1  0.721500  0.064500  0.490200  1.0  0.1185
  H  H19  1  0.567200  0.984100  0.427300  1.0  0.1062
  H  H20  1  0.005300  0.151000  0.379900  1.0  0.1334
  H  H21  1  0.841500  0.129700  0.359200  1.0  0.121
  H  H22  1  0.889600  0.226700  0.381600  1.0  0.1236
  H  H23  1  0.999600  0.310600  0.105500  1.0  0.1286
  H  H24  1  0.117400  0.236100  0.103800  1.0  0.1262
  H  H25  1  0.163000  0.333700  0.126100  1.0  0.1249
  H  H26  1  0.691900  0.224700  0.323300  1.0  0.1211
  H  H27  1  0.632100  0.213800  0.259500  1.0  0.1297
  H  H28  1  0.676200  0.310200  0.284000  1.0  0.1291
  H  H29  1  0.799600  0.282000  0.999600  1.0  0.1005
  H  H30  1  0.179400  0.249800  0.479500  1.0  0.1071
  H  H31  1  0.071100  0.022400  0.565200  1.0  0.1149
  H  H32  1  0.213000  0.099300  0.495800  1.0  0.1195
  H  H33  1  0.668600  0.140600  0.645300  1.0  0.1213
  H  H34  1  0.791900  0.163100  0.692400  1.0  0.1334
  H  H35  1  0.184000  0.256700  0.663400  1.0  0.1181
  H  H36  1  0.163500  0.341600  0.702800  1.0  0.1249
  H  H37  1  0.128300  0.244300  0.727600  1.0  0.1365
  H  H38  1  0.894900  0.096000  0.616900  1.0  0.1142
  H  H39  1  0.203000  0.375800  0.793700  1.0  0.1361
  H  H40  1  0.326600  0.395500  0.841100  1.0  0.1343
  H  H41  1  0.105700  0.443900  0.872700  1.0  0.1164
  H  H42  1  0.778500  0.435500  0.990200  1.0  0.1184
  H  H43  1  0.932800  0.515900  0.927300  1.0  0.1063
  H  H44  1  0.494700  0.349000  0.879900  1.0  0.1335
  H  H45  1  0.658500  0.370300  0.859200  1.0  0.1215
  H  H46  1  0.610400  0.273300  0.881600  1.0  0.1244
  H  H47  1  0.500400  0.189400  0.605500  1.0  0.1277
  H  H48  1  0.382600  0.263900  0.603800  1.0  0.1269
  H  H49  1  0.337000  0.166300  0.626100  1.0  0.1247
  H  H50  1  0.808100  0.275300  0.823300  1.0  0.1218
  H  H51  1  0.867900  0.286200  0.759500  1.0  0.1303
  H  H52  1  0.823800  0.189800  0.784000  1.0  0.1275
  H  H53  1  0.299600  0.782000  0.500400  1.0  0.1001
  H  H54  1  0.679400  0.749800  0.020500  1.0  0.1072
  H  H55  1  0.571100  0.522400  0.934800  1.0  0.1148
  H  H56  1  0.713000  0.599300  0.004200  1.0  0.12
  H  H57  1  0.168600  0.640600  0.854700  1.0  0.1221
  H  H58  1  0.291900  0.663100  0.807600  1.0  0.1324
  H  H59  1  0.684000  0.756700  0.836600  1.0  0.1178
  H  H60  1  0.663500  0.841600  0.797200  1.0  0.1247
  H  H61  1  0.628300  0.744300  0.772400  1.0  0.1367
  H  H62  1  0.394900  0.596000  0.883100  1.0  0.1138
  H  H63  1  0.703000  0.875800  0.706300  1.0  0.1358
  H  H64  1  0.826600  0.895500  0.658900  1.0  0.1335
  H  H65  1  0.605700  0.943900  0.627300  1.0  0.1166
  H  H66  1  0.278500  0.935500  0.509800  1.0  0.1183
  H  H67  1  0.432800  0.015900  0.572700  1.0  0.106
  H  H68  1  0.994700  0.849000  0.620100  1.0  0.1342
  H  H69  1  0.158500  0.870300  0.640800  1.0  0.1241
  H  H70  1  0.110400  0.773300  0.618400  1.0  0.1241
  H  H71  1  0.000400  0.689400  0.894500  1.0  0.1275
  H  H72  1  0.882600  0.763900  0.896200  1.0  0.1259
  H  H73  1  0.837000  0.666300  0.873900  1.0  0.1247
  H  H74  1  0.308100  0.775300  0.676700  1.0  0.1225
  H  H75  1  0.367900  0.786200  0.740500  1.0  0.1293
  H  H76  1  0.323800  0.689800  0.716000  1.0  0.1284
  H  H77  1  0.200400  0.718000  0.000400  1.0  0.101
  H  H78  1  0.820600  0.750200  0.520500  1.0  0.1068
  H  H79  1  0.928900  0.977600  0.434800  1.0  0.1153
  H  H80  1  0.787000  0.900700  0.504200  1.0  0.1199
  H  H81  1  0.331400  0.859400  0.354700  1.0  0.1216
  H  H82  1  0.208100  0.836900  0.307600  1.0  0.1322
  H  H83  1  0.816000  0.743300  0.336600  1.0  0.1178
  H  H84  1  0.836500  0.658400  0.297200  1.0  0.1253
  H  H85  1  0.871700  0.755700  0.272400  1.0  0.1376
  H  H86  1  0.105100  0.904000  0.383100  1.0  0.1142
  H  H87  1  0.797000  0.624200  0.206300  1.0  0.1365
  H  H88  1  0.673400  0.604500  0.158900  1.0  0.1337
  H  H89  1  0.894300  0.556100  0.127300  1.0  0.1169
  H  H90  1  0.221500  0.564500  0.009800  1.0  0.118
  H  H91  1  0.067200  0.484100  0.072700  1.0  0.1065
  H  H92  1  0.505300  0.651000  0.120100  1.0  0.1336
  H  H93  1  0.341500  0.629700  0.140800  1.0  0.124
  H  H94  1  0.389600  0.726700  0.118400  1.0  0.1248
  H  H95  1  0.499600  0.810600  0.394500  1.0  0.1279
  H  H96  1  0.617400  0.736100  0.396200  1.0  0.1267
  H  H97  1  0.663000  0.833700  0.373900  1.0  0.1248
  H  H98  1  0.191900  0.724700  0.176700  1.0  0.1221
  H  H99  1  0.132100  0.713800  0.240500  1.0  0.1295
  H  H100  1  0.176200  0.810200  0.216000  1.0  0.1295
  C  C101  1  0.504800  0.137400  0.020760  1.0  0.7427
  C  C102  1  0.636900  0.185500  0.474530  1.0  0.0083
  C  C103  1  0.436500  0.182600  0.404210  1.0  0.0122
  C  C104  1  0.378900  0.281000  0.007140  1.0  0.0041
  C  C105  1  0.485500  0.234400  0.037590  1.0  -0.1317
  C  C106  1  0.530100  0.230700  0.443700  1.0  -0.1239
  C  C107  1  0.442600  0.416700  0.058230  1.0  -0.0659
  C  C108  1  0.357900  0.371000  0.016920  1.0  -0.0876
  C  C109  1  0.519500  0.330300  0.456060  1.0  0.7743
  C  C110  1  0.569800  0.281100  0.080350  1.0  -0.0606
  C  C111  1  0.784400  0.311400  0.168490  1.0  -0.2016
  C  C112  1  0.307700  0.220000  0.202300  1.0  -0.3462
  C  C113  1  0.108700  0.194500  0.278690  1.0  -0.0101
  C  C114  1  0.149100  0.224000  0.222720  1.0  0.0631
  C  C115  1  0.898400  0.267900  0.206420  1.0  -0.0438
  C  C116  1  0.547800  0.372300  0.089350  1.0  -0.0802
  C  C117  1  0.221600  0.151400  0.317230  1.0  -0.1903
  C  C118  1  0.857300  0.239000  0.262570  1.0  0.0565
  C  C119  1  0.454100  0.089500  0.398680  1.0  -0.0675
  C  C120  1  0.650700  0.093800  0.468770  1.0  -0.0975
  C  C121  1  0.559000  0.046200  0.431170  1.0  -0.0698
  C  C122  1  0.964900  0.203000  0.298930  1.0  0.0548
  C  C123  1  0.921300  0.175000  0.360600  1.0  -0.3412
  C  C124  1  0.042200  0.259300  0.186160  1.0  0.0644
  C  C125  1  0.084400  0.287500  0.124770  1.0  -0.3396
  C  C126  1  0.700000  0.247700  0.284400  1.0  -0.3462
  C  C127  1  0.109500  0.046600  0.097480  1.0  0.4291
  C  C128  1  0.995200  0.362600  0.520760  1.0  0.7463
  C  C129  1  0.863100  0.314500  0.974530  1.0  0.0092
  C  C130  1  0.063500  0.317400  0.904210  1.0  0.0116
  C  C131  1  0.121100  0.219000  0.507140  1.0  0.0027
  C  C132  1  0.014500  0.265600  0.537590  1.0  -0.1326
  C  C133  1  0.969900  0.269300  0.943700  1.0  -0.1249
  C  C134  1  0.057400  0.083300  0.558230  1.0  -0.0668
  C  C135  1  0.142100  0.129000  0.516920  1.0  -0.0865
  C  C136  1  0.980500  0.169700  0.956060  1.0  0.7735
  C  C137  1  0.930200  0.218900  0.580350  1.0  -0.063
  C  C138  1  0.715600  0.188600  0.668490  1.0  -0.2024
  C  C139  1  0.192300  0.280000  0.702300  1.0  -0.3448
  C  C140  1  0.391300  0.305500  0.778690  1.0  -0.01
  C  C141  1  0.350900  0.276000  0.722720  1.0  0.0635
  C  C142  1  0.601600  0.232100  0.706420  1.0  -0.0439
  C  C143  1  0.952200  0.127700  0.589350  1.0  -0.0799
  C  C144  1  0.278400  0.348600  0.817230  1.0  -0.1896
  C  C145  1  0.642700  0.261000  0.762570  1.0  0.0562
  C  C146  1  0.045900  0.410500  0.898680  1.0  -0.0682
  C  C147  1  0.849300  0.406200  0.968770  1.0  -0.0972
  C  C148  1  0.941000  0.453800  0.931170  1.0  -0.0678
  C  C149  1  0.535100  0.297000  0.798930  1.0  0.0547
  C  C150  1  0.578700  0.325000  0.860600  1.0  -0.341
  C  C151  1  0.457800  0.240700  0.686160  1.0  0.0641
  C  C152  1  0.415600  0.212500  0.624770  1.0  -0.3405
  C  C153  1  0.800000  0.252300  0.784400  1.0  -0.3476
  C  C154  1  0.390500  0.453400  0.597480  1.0  0.4295
  C  C155  1  0.495200  0.862600  0.979240  1.0  0.7459
  C  C156  1  0.363100  0.814500  0.525470  1.0  0.0096
  C  C157  1  0.563500  0.817400  0.595790  1.0  0.0126
  C  C158  1  0.621100  0.719000  0.992860  1.0  0.0036
  C  C159  1  0.514500  0.765600  0.962410  1.0  -0.1327
  C  C160  1  0.469900  0.769300  0.556300  1.0  -0.1249
  C  C161  1  0.557400  0.583300  0.941770  1.0  -0.0672
  C  C162  1  0.642100  0.629000  0.983080  1.0  -0.0863
  C  C163  1  0.480500  0.669700  0.543940  1.0  0.7727
  C  C164  1  0.430200  0.718900  0.919650  1.0  -0.0635
  C  C165  1  0.215600  0.688600  0.831510  1.0  -0.203
  C  C166  1  0.692300  0.780000  0.797700  1.0  -0.345
  C  C167  1  0.891300  0.805500  0.721310  1.0  -0.0104
  C  C168  1  0.850900  0.776000  0.777280  1.0  0.0635
  C  C169  1  0.101600  0.732100  0.793580  1.0  -0.0442
  C  C170  1  0.452200  0.627700  0.910650  1.0  -0.0793
  C  C171  1  0.778400  0.848600  0.682770  1.0  -0.1888
  C  C172  1  0.142700  0.761000  0.737430  1.0  0.0558
  C  C173  1  0.545900  0.910500  0.601320  1.0  -0.0689
  C  C174  1  0.349300  0.906200  0.531230  1.0  -0.0976
  C  C175  1  0.441000  0.953800  0.568830  1.0  -0.0675
  C  C176  1  0.035100  0.797000  0.701070  1.0  0.0547
  C  C177  1  0.078700  0.825000  0.639400  1.0  -0.3404
  C  C178  1  0.957800  0.740700  0.813840  1.0  0.0639
  C  C179  1  0.915600  0.712500  0.875230  1.0  -0.3416
  C  C180  1  0.300000  0.752300  0.715600  1.0  -0.3479
  C  C181  1  0.890500  0.953400  0.902520  1.0  0.4277
  C  C182  1  0.004800  0.637400  0.479240  1.0  0.743
  C  C183  1  0.136900  0.685500  0.025470  1.0  0.0086
  C  C184  1  0.936500  0.682600  0.095790  1.0  0.0135
  C  C185  1  0.878900  0.781000  0.492860  1.0  0.0054
  C  C186  1  0.985500  0.734400  0.462410  1.0  -0.1319
  C  C187  1  0.030100  0.730700  0.056300  1.0  -0.1244
  C  C188  1  0.942600  0.916700  0.441770  1.0  -0.0666
  C  C189  1  0.857900  0.871000  0.483080  1.0  -0.0872
  C  C190  1  0.019500  0.830300  0.043940  1.0  0.7735
  C  C191  1  0.069800  0.781100  0.419650  1.0  -0.0607
  C  C192  1  0.284400  0.811400  0.331510  1.0  -0.2021
  C  C193  1  0.807700  0.720000  0.297700  1.0  -0.3463
  C  C194  1  0.608700  0.694500  0.221310  1.0  -0.0104
  C  C195  1  0.649100  0.724000  0.277280  1.0  0.0631
  C  C196  1  0.398400  0.767900  0.293580  1.0  -0.0444
  C  C197  1  0.047800  0.872300  0.410650  1.0  -0.0801
  C  C198  1  0.721600  0.651400  0.182770  1.0  -0.1892
  C  C199  1  0.357300  0.739000  0.237430  1.0  0.0561
  C  C200  1  0.954100  0.589500  0.101320  1.0  -0.0682
  C  C201  1  0.150700  0.593800  0.031230  1.0  -0.0974
  C  C202  1  0.059000  0.546200  0.068830  1.0  -0.0692
  C  C203  1  0.464900  0.703000  0.201070  1.0  0.0551
  C  C204  1  0.421300  0.675000  0.139400  1.0  -0.3406
  C  C205  1  0.542200  0.759300  0.313840  1.0  0.0642
  C  C206  1  0.584400  0.787500  0.375230  1.0  -0.3408
  C  C207  1  0.200000  0.747700  0.215600  1.0  -0.3463
  C  C208  1  0.609500  0.546600  0.402520  1.0  0.4279
  S  S209  1  0.305820  0.240170  0.362920  1.0  -0.0014
  S  S210  1  0.703350  0.222920  0.121660  1.0  0.0015
  S  S211  1  0.194180  0.259830  0.862920  1.0  1e-04
  S  S212  1  0.796650  0.277080  0.621660  1.0  0.0037
  S  S213  1  0.694180  0.759830  0.637080  1.0  0.0
  S  S214  1  0.296650  0.777080  0.878340  1.0  0.0031
  S  S215  1  0.805820  0.740170  0.137080  1.0  -0.0016
  S  S216  1  0.203350  0.722920  0.378340  1.0  0.0018
  O  O217  1  0.245300  0.039200  0.088000  1.0  -0.5963
  O  O218  1  0.411200  0.100150  0.986890  1.0  -0.7142
  O  O219  1  0.393400  0.362060  0.453070  1.0  -0.7217
  O  O220  1  0.638000  0.372320  0.469950  1.0  -0.6774
  O  O221  1  0.616000  0.099870  0.040180  1.0  -0.684
  O  O222  1  0.019200  0.044710  0.055930  1.0  -0.6829
  O  O223  1  0.254700  0.460800  0.588000  1.0  -0.592
  O  O224  1  0.088800  0.399850  0.486890  1.0  -0.7161
  O  O225  1  0.106600  0.137940  0.953070  1.0  -0.7191
  O  O226  1  0.862000  0.127680  0.969950  1.0  -0.6791
  O  O227  1  0.884000  0.400130  0.540180  1.0  -0.6836
  O  O228  1  0.480800  0.455290  0.555930  1.0  -0.6825
  O  O229  1  0.754700  0.960800  0.912000  1.0  -0.5907
  O  O230  1  0.588800  0.899850  0.013110  1.0  -0.7145
  O  O231  1  0.606600  0.637940  0.546930  1.0  -0.7195
  O  O232  1  0.362000  0.627680  0.530050  1.0  -0.6787
  O  O233  1  0.384000  0.900130  0.959820  1.0  -0.6846
  O  O234  1  0.980800  0.955290  0.944070  1.0  -0.6819
  O  O235  1  0.745300  0.539200  0.412000  1.0  -0.5956
  O  O236  1  0.911200  0.600150  0.513110  1.0  -0.7138
  O  O237  1  0.893400  0.862060  0.046930  1.0  -0.7222
  O  O238  1  0.138000  0.872320  0.030050  1.0  -0.6778
  O  O239  1  0.116000  0.599870  0.459820  1.0  -0.6861
  O  O240  1  0.519200  0.544710  0.444070  1.0  -0.6823
