# generated using pymatgen
data_PrH8C13O5
_symmetry_space_group_name_H-M   'P 1'
_cell_length_a   19.86900000
_cell_length_b   19.86900000
_cell_length_c   27.47000000
_cell_angle_alpha   90.00000000
_cell_angle_beta   90.00000000
_cell_angle_gamma   120.00000000
_symmetry_Int_Tables_number   1
_chemical_formula_structural   PrH8C13O5
_chemical_formula_sum   'Pr12 H96 C156 O60'
_cell_volume   9391.63727064
_cell_formula_units_Z   12
loop_
 _symmetry_equiv_pos_site_id
 _symmetry_equiv_pos_as_xyz
  1  'x, y, z'
loop_
 _atom_site_type_symbol
 _atom_site_label
 _atom_site_symmetry_multiplicity
 _atom_site_fract_x
 _atom_site_fract_y
 _atom_site_fract_z
 _atom_site_occupancy
 _atom_site_charge
  Pr  Pr1  1  0.484940  0.527530  0.929780  1.0  1.9344
  Pr  Pr2  1  0.472470  0.957410  0.929780  1.0  1.9325
  Pr  Pr3  1  0.042590  0.515060  0.929780  1.0  1.931
  Pr  Pr4  1  0.515060  0.472470  0.429780  1.0  1.9298
  Pr  Pr5  1  0.527530  0.042590  0.429780  1.0  1.9315
  Pr  Pr6  1  0.957410  0.484940  0.429780  1.0  1.9355
  Pr  Pr7  1  0.515060  0.472470  0.070220  1.0  1.9252
  Pr  Pr8  1  0.527530  0.042590  0.070220  1.0  1.9261
  Pr  Pr9  1  0.957410  0.484940  0.070220  1.0  1.9265
  Pr  Pr10  1  0.484940  0.527530  0.570220  1.0  1.9271
  Pr  Pr11  1  0.472470  0.957410  0.570220  1.0  1.9254
  Pr  Pr12  1  0.042590  0.515060  0.570220  1.0  1.927
  H  H13  1  0.236800  0.486100  0.989600  1.0  0.0717
  H  H14  1  0.310000  0.386400  0.085400  1.0  0.0862
  H  H15  1  0.110000  0.383800  0.106700  1.0  0.0961
  H  H16  1  0.287600  0.346400  0.165800  1.0  0.0413
  H  H17  1  0.239400  0.270700  0.134400  1.0  0.0396
  H  H18  1  0.152800  0.186000  0.132400  1.0  0.0504
  H  H19  1  0.073100  0.119100  0.151900  1.0  0.0973
  H  H20  1  0.146400  0.108800  0.151900  1.0  0.1101
  H  H21  1  0.513900  0.750700  0.989600  1.0  0.0717
  H  H22  1  0.613600  0.923600  0.085400  1.0  0.0857
  H  H23  1  0.616200  0.726200  0.106700  1.0  0.0953
  H  H24  1  0.653600  0.941200  0.165800  1.0  0.0383
  H  H25  1  0.729300  0.968700  0.134400  1.0  0.0388
  H  H26  1  0.814000  0.966800  0.132400  1.0  0.0494
  H  H27  1  0.880900  0.954000  0.151900  1.0  0.0911
  H  H28  1  0.891200  0.037600  0.151900  1.0  0.1097
  H  H29  1  0.249300  0.763200  0.989600  1.0  0.0712
  H  H30  1  0.076400  0.690000  0.085400  1.0  0.0854
  H  H31  1  0.273800  0.890000  0.106700  1.0  0.0951
  H  H32  1  0.058800  0.712400  0.165800  1.0  0.0424
  H  H33  1  0.031300  0.760600  0.134400  1.0  0.0389
  H  H34  1  0.033200  0.847200  0.132400  1.0  0.05
  H  H35  1  0.046000  0.926900  0.151900  1.0  0.095
  H  H36  1  0.962400  0.853600  0.151900  1.0  0.1091
  H  H37  1  0.763200  0.513900  0.489600  1.0  0.0717
  H  H38  1  0.690000  0.613600  0.585400  1.0  0.0873
  H  H39  1  0.890000  0.616200  0.606700  1.0  0.0959
  H  H40  1  0.712400  0.653600  0.665800  1.0  0.0424
  H  H41  1  0.760600  0.729300  0.634400  1.0  0.0381
  H  H42  1  0.847200  0.814000  0.632400  1.0  0.0482
  H  H43  1  0.926900  0.880900  0.651900  1.0  0.0913
  H  H44  1  0.853600  0.891200  0.651900  1.0  0.1087
  H  H45  1  0.486100  0.249300  0.489600  1.0  0.0715
  H  H46  1  0.386400  0.076400  0.585400  1.0  0.0855
  H  H47  1  0.383800  0.273800  0.606700  1.0  0.0953
  H  H48  1  0.346400  0.058800  0.665800  1.0  0.036
  H  H49  1  0.270700  0.031300  0.634400  1.0  0.038
  H  H50  1  0.186000  0.033200  0.632400  1.0  0.0495
  H  H51  1  0.119100  0.046000  0.651900  1.0  0.0961
  H  H52  1  0.108800  0.962400  0.651900  1.0  0.1089
  H  H53  1  0.750700  0.236800  0.489600  1.0  0.0717
  H  H54  1  0.923600  0.310000  0.585400  1.0  0.0854
  H  H55  1  0.726200  0.110000  0.606700  1.0  0.0951
  H  H56  1  0.941200  0.287600  0.665800  1.0  0.0427
  H  H57  1  0.968700  0.239400  0.634400  1.0  0.0389
  H  H58  1  0.966800  0.152800  0.632400  1.0  0.0506
  H  H59  1  0.954000  0.073100  0.651900  1.0  0.0947
  H  H60  1  0.037600  0.146400  0.651900  1.0  0.1101
  H  H61  1  0.763200  0.513900  0.010400  1.0  0.0716
  H  H62  1  0.690000  0.613600  0.914600  1.0  0.0879
  H  H63  1  0.890000  0.616200  0.893300  1.0  0.0955
  H  H64  1  0.712400  0.653600  0.834200  1.0  0.0427
  H  H65  1  0.760600  0.729300  0.865600  1.0  0.0368
  H  H66  1  0.847200  0.814000  0.867600  1.0  0.0503
  H  H67  1  0.926900  0.880900  0.848100  1.0  0.0909
  H  H68  1  0.853600  0.891200  0.848100  1.0  0.1087
  H  H69  1  0.486100  0.249300  0.010400  1.0  0.0717
  H  H70  1  0.386400  0.076400  0.914600  1.0  0.0859
  H  H71  1  0.383800  0.273800  0.893300  1.0  0.0948
  H  H72  1  0.346400  0.058800  0.834200  1.0  0.0369
  H  H73  1  0.270700  0.031300  0.865600  1.0  0.0377
  H  H74  1  0.186000  0.033200  0.867600  1.0  0.051
  H  H75  1  0.119100  0.046000  0.848100  1.0  0.0966
  H  H76  1  0.108800  0.962400  0.848100  1.0  0.1083
  H  H77  1  0.750700  0.236800  0.010400  1.0  0.0717
  H  H78  1  0.923600  0.310000  0.914600  1.0  0.086
  H  H79  1  0.726200  0.110000  0.893300  1.0  0.094
  H  H80  1  0.941200  0.287600  0.834200  1.0  0.0436
  H  H81  1  0.968700  0.239400  0.865600  1.0  0.0377
  H  H82  1  0.966800  0.152800  0.867600  1.0  0.052
  H  H83  1  0.954000  0.073100  0.848100  1.0  0.0943
  H  H84  1  0.037600  0.146400  0.848100  1.0  0.1081
  H  H85  1  0.236800  0.486100  0.510400  1.0  0.0718
  H  H86  1  0.310000  0.386400  0.414600  1.0  0.0867
  H  H87  1  0.110000  0.383800  0.393300  1.0  0.0953
  H  H88  1  0.287600  0.346400  0.334200  1.0  0.0422
  H  H89  1  0.239400  0.270700  0.365600  1.0  0.0389
  H  H90  1  0.152800  0.186000  0.367600  1.0  0.0513
  H  H91  1  0.073100  0.119100  0.348100  1.0  0.0975
  H  H92  1  0.146400  0.108800  0.348100  1.0  0.1089
  H  H93  1  0.513900  0.750700  0.510400  1.0  0.0718
  H  H94  1  0.613600  0.923600  0.414600  1.0  0.0864
  H  H95  1  0.616200  0.726200  0.393300  1.0  0.0947
  H  H96  1  0.653600  0.941200  0.334200  1.0  0.0389
  H  H97  1  0.729300  0.968700  0.365600  1.0  0.038
  H  H98  1  0.814000  0.966800  0.367600  1.0  0.0512
  H  H99  1  0.880900  0.954000  0.348100  1.0  0.0904
  H  H100  1  0.891200  0.037600  0.348100  1.0  0.1088
  H  H101  1  0.249300  0.763200  0.510400  1.0  0.0714
  H  H102  1  0.076400  0.690000  0.414600  1.0  0.086
  H  H103  1  0.273800  0.890000  0.393300  1.0  0.0944
  H  H104  1  0.058800  0.712400  0.334200  1.0  0.0427
  H  H105  1  0.031300  0.760600  0.365600  1.0  0.038
  H  H106  1  0.033200  0.847200  0.367600  1.0  0.0517
  H  H107  1  0.046000  0.926900  0.348100  1.0  0.0941
  H  H108  1  0.962400  0.853600  0.348100  1.0  0.1087
  C  C109  1  0.107500  0.461600  0.030500  1.0  0.7573
  C  C110  1  0.163900  0.437600  0.045400  1.0  -0.2079
  C  C111  1  0.229200  0.458200  0.018300  1.0  -0.0405
  C  C112  1  0.283200  0.439300  0.032000  1.0  -0.1588
  C  C113  1  0.354600  0.463300  0.005300  1.0  0.7017
  C  C114  1  0.272900  0.398400  0.074800  1.0  -0.1973
  C  C115  1  0.207100  0.376400  0.100600  1.0  0.2538
  C  C116  1  0.153200  0.397200  0.087300  1.0  -0.0637
  C  C117  1  0.235900  0.303400  0.159300  1.0  -0.0232
  C  C118  1  0.148800  0.179100  0.205900  1.0  0.1246
  C  C119  1  0.128500  0.145300  0.156100  1.0  -0.4076
  C  C120  1  0.198900  0.255900  0.206300  1.0  -0.0023
  C  C121  1  0.538400  0.645900  0.030500  1.0  0.7547
  C  C122  1  0.562400  0.726300  0.045400  1.0  -0.2087
  C  C123  1  0.541800  0.771000  0.018300  1.0  -0.0403
  C  C124  1  0.560700  0.843900  0.032000  1.0  -0.1583
  C  C125  1  0.536700  0.891300  0.005300  1.0  0.7036
  C  C126  1  0.601600  0.874500  0.074800  1.0  -0.1967
  C  C127  1  0.623600  0.830700  0.100600  1.0  0.2543
  C  C128  1  0.602800  0.756000  0.087300  1.0  -0.0619
  C  C129  1  0.696600  0.932500  0.159300  1.0  -0.0215
  C  C130  1  0.820900  0.969700  0.205900  1.0  0.1214
  C  C131  1  0.854700  0.983200  0.156100  1.0  -0.409
  C  C132  1  0.744100  0.943000  0.206300  1.0  -0.0023
  C  C133  1  0.354100  0.892500  0.030500  1.0  0.7544
  C  C134  1  0.273700  0.836100  0.045400  1.0  -0.2107
  C  C135  1  0.229000  0.770800  0.018300  1.0  -0.0424
  C  C136  1  0.156100  0.716800  0.032000  1.0  -0.159
  C  C137  1  0.108700  0.645400  0.005300  1.0  0.7022
  C  C138  1  0.125500  0.727100  0.074800  1.0  -0.197
  C  C139  1  0.169300  0.792900  0.100600  1.0  0.2531
  C  C140  1  0.244000  0.846800  0.087300  1.0  -0.0625
  C  C141  1  0.067500  0.764100  0.159300  1.0  -0.02
  C  C142  1  0.030300  0.851200  0.205900  1.0  0.1246
  C  C143  1  0.016800  0.871500  0.156100  1.0  -0.4078
  C  C144  1  0.057000  0.801100  0.206300  1.0  -0.0034
  C  C145  1  0.892500  0.538400  0.530500  1.0  0.756
  C  C146  1  0.836100  0.562400  0.545400  1.0  -0.2095
  C  C147  1  0.770800  0.541800  0.518300  1.0  -0.0407
  C  C148  1  0.716800  0.560700  0.532000  1.0  -0.159
  C  C149  1  0.645400  0.536700  0.505300  1.0  0.7013
  C  C150  1  0.727100  0.601600  0.574800  1.0  -0.1979
  C  C151  1  0.792900  0.623600  0.600600  1.0  0.2519
  C  C152  1  0.846800  0.602800  0.587300  1.0  -0.0631
  C  C153  1  0.764100  0.696600  0.659300  1.0  -0.0202
  C  C154  1  0.851200  0.820900  0.705900  1.0  0.1254
  C  C155  1  0.871500  0.854700  0.656100  1.0  -0.4055
  C  C156  1  0.801100  0.744100  0.706300  1.0  -0.0038
  C  C157  1  0.461600  0.354100  0.530500  1.0  0.7555
  C  C158  1  0.437600  0.273700  0.545400  1.0  -0.2089
  C  C159  1  0.458200  0.229000  0.518300  1.0  -0.0418
  C  C160  1  0.439300  0.156100  0.532000  1.0  -0.1591
  C  C161  1  0.463300  0.108700  0.505300  1.0  0.7019
  C  C162  1  0.398400  0.125500  0.574800  1.0  -0.1969
  C  C163  1  0.376400  0.169300  0.600600  1.0  0.2547
  C  C164  1  0.397200  0.244000  0.587300  1.0  -0.0634
  C  C165  1  0.303400  0.067500  0.659300  1.0  -0.0229
  C  C166  1  0.179100  0.030300  0.705900  1.0  0.1243
  C  C167  1  0.145300  0.016800  0.656100  1.0  -0.4101
  C  C168  1  0.255900  0.057000  0.706300  1.0  -0.0026
  C  C169  1  0.645900  0.107500  0.530500  1.0  0.7547
  C  C170  1  0.726300  0.163900  0.545400  1.0  -0.2094
  C  C171  1  0.771000  0.229200  0.518300  1.0  -0.041
  C  C172  1  0.843900  0.283200  0.532000  1.0  -0.1586
  C  C173  1  0.891300  0.354600  0.505300  1.0  0.7024
  C  C174  1  0.874500  0.272900  0.574800  1.0  -0.1953
  C  C175  1  0.830700  0.207100  0.600600  1.0  0.2535
  C  C176  1  0.756000  0.153200  0.587300  1.0  -0.0625
  C  C177  1  0.932500  0.235900  0.659300  1.0  -0.0205
  C  C178  1  0.969700  0.148800  0.705900  1.0  0.1233
  C  C179  1  0.983200  0.128500  0.656100  1.0  -0.4088
  C  C180  1  0.943000  0.198900  0.706300  1.0  -0.0027
  C  C181  1  0.892500  0.538400  0.969500  1.0  0.756
  C  C182  1  0.836100  0.562400  0.954600  1.0  -0.2099
  C  C183  1  0.770800  0.541800  0.981700  1.0  -0.0405
  C  C184  1  0.716800  0.560700  0.968000  1.0  -0.1585
  C  C185  1  0.645400  0.536700  0.994700  1.0  0.6999
  C  C186  1  0.727100  0.601600  0.925200  1.0  -0.1987
  C  C187  1  0.792900  0.623600  0.899400  1.0  0.2517
  C  C188  1  0.846800  0.602800  0.912700  1.0  -0.0631
  C  C189  1  0.764100  0.696600  0.840700  1.0  -0.0212
  C  C190  1  0.851200  0.820900  0.794100  1.0  0.125
  C  C191  1  0.871500  0.854700  0.843900  1.0  -0.4068
  C  C192  1  0.801100  0.744100  0.793700  1.0  -0.0066
  C  C193  1  0.461600  0.354100  0.969500  1.0  0.7556
  C  C194  1  0.437600  0.273700  0.954600  1.0  -0.209
  C  C195  1  0.458200  0.229000  0.981700  1.0  -0.0413
  C  C196  1  0.439300  0.156100  0.968000  1.0  -0.1585
  C  C197  1  0.463300  0.108700  0.994700  1.0  0.7012
  C  C198  1  0.398400  0.125500  0.925200  1.0  -0.1974
  C  C199  1  0.376400  0.169300  0.899400  1.0  0.2548
  C  C200  1  0.397200  0.244000  0.912700  1.0  -0.0628
  C  C201  1  0.303400  0.067500  0.840700  1.0  -0.0233
  C  C202  1  0.179100  0.030300  0.794100  1.0  0.1232
  C  C203  1  0.145300  0.016800  0.843900  1.0  -0.4111
  C  C204  1  0.255900  0.057000  0.793700  1.0  -0.0047
  C  C205  1  0.645900  0.107500  0.969500  1.0  0.755
  C  C206  1  0.726300  0.163900  0.954600  1.0  -0.2093
  C  C207  1  0.771000  0.229200  0.981700  1.0  -0.0418
  C  C208  1  0.843900  0.283200  0.968000  1.0  -0.1588
  C  C209  1  0.891300  0.354600  0.994700  1.0  0.7012
  C  C210  1  0.874500  0.272900  0.925200  1.0  -0.1957
  C  C211  1  0.830700  0.207100  0.899400  1.0  0.2532
  C  C212  1  0.756000  0.153200  0.912700  1.0  -0.0615
  C  C213  1  0.932500  0.235900  0.840700  1.0  -0.0203
  C  C214  1  0.969700  0.148800  0.794100  1.0  0.1223
  C  C215  1  0.983200  0.128500  0.843900  1.0  -0.4084
  C  C216  1  0.943000  0.198900  0.793700  1.0  -0.0046
  C  C217  1  0.107500  0.461600  0.469500  1.0  0.7576
  C  C218  1  0.163900  0.437600  0.454600  1.0  -0.2079
  C  C219  1  0.229200  0.458200  0.481700  1.0  -0.0412
  C  C220  1  0.283200  0.439300  0.468000  1.0  -0.1587
  C  C221  1  0.354600  0.463300  0.494700  1.0  0.7011
  C  C222  1  0.272900  0.398400  0.425200  1.0  -0.1978
  C  C223  1  0.207100  0.376400  0.399400  1.0  0.2536
  C  C224  1  0.153200  0.397200  0.412700  1.0  -0.0634
  C  C225  1  0.235900  0.303400  0.340700  1.0  -0.0232
  C  C226  1  0.148800  0.179100  0.294100  1.0  0.1229
  C  C227  1  0.128500  0.145300  0.343900  1.0  -0.4072
  C  C228  1  0.198900  0.255900  0.293700  1.0  -0.0041
  C  C229  1  0.538400  0.645900  0.469500  1.0  0.7549
  C  C230  1  0.562400  0.726300  0.454600  1.0  -0.2088
  C  C231  1  0.541800  0.771000  0.481700  1.0  -0.0412
  C  C232  1  0.560700  0.843900  0.468000  1.0  -0.1583
  C  C233  1  0.536700  0.891300  0.494700  1.0  0.702
  C  C234  1  0.601600  0.874500  0.425200  1.0  -0.1972
  C  C235  1  0.623600  0.830700  0.399400  1.0  0.254
  C  C236  1  0.602800  0.756000  0.412700  1.0  -0.0618
  C  C237  1  0.696600  0.932500  0.340700  1.0  -0.0223
  C  C238  1  0.820900  0.969700  0.294100  1.0  0.1209
  C  C239  1  0.854700  0.983200  0.343900  1.0  -0.4096
  C  C240  1  0.744100  0.943000  0.293700  1.0  -0.0052
  C  C241  1  0.354100  0.892500  0.469500  1.0  0.7544
  C  C242  1  0.273700  0.836100  0.454600  1.0  -0.2109
  C  C243  1  0.229000  0.770800  0.481700  1.0  -0.0415
  C  C244  1  0.156100  0.716800  0.468000  1.0  -0.1583
  C  C245  1  0.108700  0.645400  0.494700  1.0  0.7013
  C  C246  1  0.125500  0.727100  0.425200  1.0  -0.1977
  C  C247  1  0.169300  0.792900  0.399400  1.0  0.253
  C  C248  1  0.244000  0.846800  0.412700  1.0  -0.0631
  C  C249  1  0.067500  0.764100  0.340700  1.0  -0.0203
  C  C250  1  0.030300  0.851200  0.294100  1.0  0.1237
  C  C251  1  0.016800  0.871500  0.343900  1.0  -0.4098
  C  C252  1  0.057000  0.801100  0.293700  1.0  -0.0055
  C  C253  1  0.127200  0.144700  0.250000  1.0  0.021
  C  C254  1  0.223900  0.302500  0.250000  1.0  -0.0596
  C  C255  1  0.855300  0.982500  0.250000  1.0  0.0169
  C  C256  1  0.697500  0.921400  0.250000  1.0  -0.0592
  C  C257  1  0.017500  0.872800  0.250000  1.0  0.0177
  C  C258  1  0.078600  0.776100  0.250000  1.0  -0.0597
  C  C259  1  0.872800  0.855300  0.750000  1.0  0.0187
  C  C260  1  0.776100  0.697500  0.750000  1.0  -0.0592
  C  C261  1  0.144700  0.017500  0.750000  1.0  0.0171
  C  C262  1  0.302500  0.078600  0.750000  1.0  -0.0611
  C  C263  1  0.982500  0.127200  0.750000  1.0  0.0175
  C  C264  1  0.921400  0.223900  0.750000  1.0  -0.0578
  O  O265  1  0.355700  0.487300  0.962900  1.0  -0.6146
  O  O266  1  0.411300  0.460800  0.022300  1.0  -0.8001
  O  O267  1  0.054600  0.450300  0.059500  1.0  -0.7876
  O  O268  1  0.116500  0.490600  0.991000  1.0  -0.6931
  O  O269  1  0.185000  0.331400  0.144100  1.0  -0.3304
  O  O270  1  0.512700  0.868400  0.962900  1.0  -0.6137
  O  O271  1  0.539200  0.950500  0.022300  1.0  -0.8014
  O  O272  1  0.549700  0.604300  0.059500  1.0  -0.7896
  O  O273  1  0.509400  0.625900  0.991000  1.0  -0.6909
  O  O274  1  0.668600  0.853600  0.144100  1.0  -0.3281
  O  O275  1  0.131600  0.644300  0.962900  1.0  -0.615
  O  O276  1  0.049500  0.588700  0.022300  1.0  -0.8032
  O  O277  1  0.395700  0.945400  0.059500  1.0  -0.7875
  O  O278  1  0.374100  0.883500  0.991000  1.0  -0.692
  O  O279  1  0.146400  0.815000  0.144100  1.0  -0.3302
  O  O280  1  0.644300  0.512700  0.462900  1.0  -0.6158
  O  O281  1  0.588700  0.539200  0.522300  1.0  -0.8011
  O  O282  1  0.945400  0.549700  0.559500  1.0  -0.7877
  O  O283  1  0.883500  0.509400  0.491000  1.0  -0.6925
  O  O284  1  0.815000  0.668600  0.644100  1.0  -0.3323
  O  O285  1  0.487300  0.131600  0.462900  1.0  -0.6134
  O  O286  1  0.460800  0.049500  0.522300  1.0  -0.8003
  O  O287  1  0.450300  0.395700  0.559500  1.0  -0.789
  O  O288  1  0.490600  0.374100  0.491000  1.0  -0.692
  O  O289  1  0.331400  0.146400  0.644100  1.0  -0.3284
  O  O290  1  0.868400  0.355700  0.462900  1.0  -0.6144
  O  O291  1  0.950500  0.411300  0.522300  1.0  -0.8056
  O  O292  1  0.604300  0.054600  0.559500  1.0  -0.7891
  O  O293  1  0.625900  0.116500  0.491000  1.0  -0.691
  O  O294  1  0.853600  0.185000  0.644100  1.0  -0.3296
  O  O295  1  0.644300  0.512700  0.037100  1.0  -0.6098
  O  O296  1  0.588700  0.539200  0.977700  1.0  -0.8007
  O  O297  1  0.945400  0.549700  0.940500  1.0  -0.7876
  O  O298  1  0.883500  0.509400  0.009000  1.0  -0.6954
  O  O299  1  0.815000  0.668600  0.855900  1.0  -0.3326
  O  O300  1  0.487300  0.131600  0.037100  1.0  -0.6088
  O  O301  1  0.460800  0.049500  0.977700  1.0  -0.8008
  O  O302  1  0.450300  0.395700  0.940500  1.0  -0.788
  O  O303  1  0.490600  0.374100  0.009000  1.0  -0.6947
  O  O304  1  0.331400  0.146400  0.855900  1.0  -0.3279
  O  O305  1  0.868400  0.355700  0.037100  1.0  -0.6101
  O  O306  1  0.950500  0.411300  0.977700  1.0  -0.8047
  O  O307  1  0.604300  0.054600  0.940500  1.0  -0.7889
  O  O308  1  0.625900  0.116500  0.009000  1.0  -0.6946
  O  O309  1  0.853600  0.185000  0.855900  1.0  -0.3296
  O  O310  1  0.355700  0.487300  0.537100  1.0  -0.6121
  O  O311  1  0.411300  0.460800  0.477700  1.0  -0.7997
  O  O312  1  0.054600  0.450300  0.440500  1.0  -0.7878
  O  O313  1  0.116500  0.490600  0.509000  1.0  -0.6964
  O  O314  1  0.185000  0.331400  0.355900  1.0  -0.3297
  O  O315  1  0.512700  0.868400  0.537100  1.0  -0.6091
  O  O316  1  0.539200  0.950500  0.477700  1.0  -0.8004
  O  O317  1  0.549700  0.604300  0.440500  1.0  -0.7894
  O  O318  1  0.509400  0.625900  0.509000  1.0  -0.6944
  O  O319  1  0.668600  0.853600  0.355900  1.0  -0.3282
  O  O320  1  0.131600  0.644300  0.537100  1.0  -0.6084
  O  O321  1  0.049500  0.588700  0.477700  1.0  -0.8034
  O  O322  1  0.395700  0.945400  0.440500  1.0  -0.7878
  O  O323  1  0.374100  0.883500  0.509000  1.0  -0.6945
  O  O324  1  0.146400  0.815000  0.355900  1.0  -0.3303
