# generated using pymatgen
data_TmH24C27(SO3)2
_symmetry_space_group_name_H-M   'P 1'
_cell_length_a   9.02460000
_cell_length_b   14.81110000
_cell_length_c   23.06100000
_cell_angle_alpha   90.00000000
_cell_angle_beta   90.00000000
_cell_angle_gamma   92.77320000
_symmetry_Int_Tables_number   1
_chemical_formula_structural   TmH24C27(SO3)2
_chemical_formula_sum   'Tm4 H96 C108 S8 O24'
_cell_volume   3078.82143503
_cell_formula_units_Z   4
loop_
 _symmetry_equiv_pos_site_id
 _symmetry_equiv_pos_as_xyz
  1  'x, y, z'
loop_
 _atom_site_type_symbol
 _atom_site_label
 _atom_site_symmetry_multiplicity
 _atom_site_fract_x
 _atom_site_fract_y
 _atom_site_fract_z
 _atom_site_occupancy
 _atom_site_charge
  Tm  Tm1  1  0.790090  0.996160  0.018430  1.0  2.2082
  Tm  Tm2  1  0.709910  0.503840  0.518430  1.0  2.2082
  Tm  Tm3  1  0.209910  0.003840  0.981570  1.0  2.2087
  Tm  Tm4  1  0.290090  0.496160  0.481570  1.0  2.2091
  H  H5  1  0.633100  0.806000  0.768700  1.0  0.1085
  H  H6  1  0.689600  0.815300  0.832900  1.0  0.1174
  H  H7  1  0.654100  0.719300  0.806200  1.0  0.1133
  H  H8  1  0.999100  0.688500  0.893700  1.0  0.107
  H  H9  1  0.836400  0.665800  0.872700  1.0  0.1077
  H  H10  1  0.881600  0.763000  0.895500  1.0  0.1181
  H  H11  1  0.678800  0.751000  0.020600  1.0  0.0937
  H  H12  1  0.292800  0.663500  0.807900  1.0  0.1194
  H  H13  1  0.169300  0.641000  0.854700  1.0  0.1058
  H  H14  1  0.181700  0.815500  0.633000  1.0  0.1026
  H  H15  1  0.064500  0.890200  0.635300  1.0  0.1089
  H  H16  1  0.018500  0.793200  0.612300  1.0  0.1134
  H  H17  1  0.308000  0.776800  0.676800  1.0  0.1048
  H  H18  1  0.325200  0.691400  0.715900  1.0  0.1128
  H  H19  1  0.367700  0.787900  0.740400  1.0  0.1103
  H  H20  1  0.704000  0.871000  0.707000  1.0  0.1163
  H  H21  1  0.280000  0.936000  0.508000  1.0  0.1029
  H  H22  1  0.408000  0.593000  0.885000  1.0  0.1045
  H  H23  1  0.825000  0.893000  0.659000  1.0  0.1127
  H  H24  1  0.715000  0.605000  0.006000  1.0  0.0951
  H  H25  1  0.305000  0.786000  0.498000  1.0  0.0816
  H  H26  1  0.574000  0.520000  0.935000  1.0  0.0902
  H  H27  1  0.436000  0.010000  0.572000  1.0  0.0863
  H  H28  1  0.591000  0.937000  0.626000  1.0  0.0892
  H  H29  1  0.866900  0.694000  0.268700  1.0  0.1076
  H  H30  1  0.810400  0.684700  0.332900  1.0  0.1181
  H  H31  1  0.845900  0.780700  0.306200  1.0  0.1134
  H  H32  1  0.500900  0.811500  0.393700  1.0  0.1078
  H  H33  1  0.663600  0.834200  0.372700  1.0  0.108
  H  H34  1  0.618400  0.737000  0.395500  1.0  0.1186
  H  H35  1  0.821200  0.749000  0.520600  1.0  0.0934
  H  H36  1  0.207200  0.836500  0.307900  1.0  0.1201
  H  H37  1  0.330700  0.859000  0.354700  1.0  0.106
  H  H38  1  0.318300  0.684500  0.133000  1.0  0.1032
  H  H39  1  0.435500  0.609800  0.135300  1.0  0.1074
  H  H40  1  0.481500  0.706800  0.112300  1.0  0.1133
  H  H41  1  0.192000  0.723200  0.176800  1.0  0.1046
  H  H42  1  0.174800  0.808600  0.215900  1.0  0.1137
  H  H43  1  0.132300  0.712100  0.240400  1.0  0.1108
  H  H44  1  0.796000  0.629000  0.207000  1.0  0.1161
  H  H45  1  0.220000  0.564000  0.008000  1.0  0.1025
  H  H46  1  0.092000  0.907000  0.385000  1.0  0.1028
  H  H47  1  0.675000  0.607000  0.159000  1.0  0.1124
  H  H48  1  0.785000  0.895000  0.506000  1.0  0.0945
  H  H49  1  0.195000  0.714000  0.998000  1.0  0.0821
  H  H50  1  0.926000  0.980000  0.435000  1.0  0.0901
  H  H51  1  0.064000  0.490000  0.072000  1.0  0.0866
  H  H52  1  0.909000  0.563000  0.126000  1.0  0.0906
  H  H53  1  0.366900  0.194000  0.231300  1.0  0.1077
  H  H54  1  0.310400  0.184700  0.167100  1.0  0.1181
  H  H55  1  0.345900  0.280700  0.193800  1.0  0.1128
  H  H56  1  0.000900  0.311500  0.106300  1.0  0.1089
  H  H57  1  0.163600  0.334200  0.127300  1.0  0.1078
  H  H58  1  0.118400  0.237000  0.104500  1.0  0.1177
  H  H59  1  0.321200  0.249000  0.979400  1.0  0.093
  H  H60  1  0.707200  0.336500  0.192100  1.0  0.1202
  H  H61  1  0.830700  0.359000  0.145300  1.0  0.1061
  H  H62  1  0.818300  0.184500  0.367000  1.0  0.1033
  H  H63  1  0.935500  0.109800  0.364700  1.0  0.1074
  H  H64  1  0.981500  0.206800  0.387700  1.0  0.1135
  H  H65  1  0.692000  0.223200  0.323200  1.0  0.105
  H  H66  1  0.674800  0.308600  0.284100  1.0  0.1129
  H  H67  1  0.632300  0.212100  0.259600  1.0  0.1102
  H  H68  1  0.296000  0.129000  0.293000  1.0  0.1153
  H  H69  1  0.720000  0.064000  0.492000  1.0  0.1029
  H  H70  1  0.592000  0.407000  0.115000  1.0  0.1043
  H  H71  1  0.175000  0.107000  0.341000  1.0  0.1127
  H  H72  1  0.285000  0.395000  0.994000  1.0  0.0943
  H  H73  1  0.695000  0.214000  0.502000  1.0  0.0816
  H  H74  1  0.426000  0.480000  0.065000  1.0  0.0896
  H  H75  1  0.564000  0.990000  0.428000  1.0  0.0863
  H  H76  1  0.409000  0.063000  0.374000  1.0  0.0884
  H  H77  1  0.133100  0.306000  0.731300  1.0  0.1083
  H  H78  1  0.189600  0.315300  0.667100  1.0  0.1178
  H  H79  1  0.154100  0.219300  0.693800  1.0  0.1132
  H  H80  1  0.499100  0.188500  0.606300  1.0  0.1078
  H  H81  1  0.336400  0.165800  0.627300  1.0  0.1077
  H  H82  1  0.381600  0.263000  0.604500  1.0  0.1182
  H  H83  1  0.178800  0.251000  0.479400  1.0  0.0938
  H  H84  1  0.792800  0.163500  0.692100  1.0  0.1201
  H  H85  1  0.669300  0.141000  0.645300  1.0  0.1058
  H  H86  1  0.681700  0.315500  0.867000  1.0  0.1036
  H  H87  1  0.564500  0.390200  0.864700  1.0  0.1096
  H  H88  1  0.518500  0.293200  0.887700  1.0  0.1142
  H  H89  1  0.808000  0.276800  0.823200  1.0  0.1056
  H  H90  1  0.825200  0.191400  0.784100  1.0  0.112
  H  H91  1  0.867700  0.287900  0.759600  1.0  0.1106
  H  H92  1  0.204000  0.371000  0.793000  1.0  0.1162
  H  H93  1  0.780000  0.436000  0.992000  1.0  0.1029
  H  H94  1  0.908000  0.093000  0.615000  1.0  0.1067
  H  H95  1  0.325000  0.393000  0.841000  1.0  0.1124
  H  H96  1  0.215000  0.105000  0.494000  1.0  0.0951
  H  H97  1  0.805000  0.286000  0.002000  1.0  0.0816
  H  H98  1  0.074000  0.020000  0.565000  1.0  0.09
  H  H99  1  0.936000  0.510000  0.928000  1.0  0.0866
  H  H100  1  0.091000  0.437000  0.874000  1.0  0.0873
  C  C101  1  0.480400  0.669600  0.543500  1.0  0.7766
  C  C102  1  0.470900  0.769100  0.556300  1.0  -0.1803
  C  C103  1  0.364500  0.814000  0.525400  1.0  0.0044
  C  C104  1  0.348200  0.905100  0.530800  1.0  -0.143
  C  C105  1  0.438400  0.952100  0.569100  1.0  -0.0468
  C  C106  1  0.544900  0.909600  0.600800  1.0  -0.1219
  C  C107  1  0.562600  0.817700  0.595720  1.0  0.0588
  C  C108  1  0.778000  0.848200  0.683100  1.0  -0.1338
  C  C109  1  0.891500  0.806400  0.721600  1.0  -0.0614
  C  C110  1  0.036000  0.797100  0.701600  1.0  0.0252
  C  C111  1  0.851100  0.776500  0.777200  1.0  0.0233
  C  C112  1  0.692500  0.779600  0.798200  1.0  -0.342
  C  C113  1  0.958000  0.740600  0.813900  1.0  0.0263
  C  C114  1  0.914900  0.711900  0.874400  1.0  -0.3404
  C  C115  1  0.495200  0.862700  0.979500  1.0  0.8249
  C  C116  1  0.515000  0.765700  0.962270  1.0  -0.1924
  C  C117  1  0.621000  0.719900  0.993000  1.0  -0.0088
  C  C118  1  0.642300  0.629100  0.983500  1.0  -0.1099
  C  C119  1  0.558100  0.583200  0.941900  1.0  -0.0664
  C  C120  1  0.453900  0.628300  0.910300  1.0  -0.1265
  C  C121  1  0.430200  0.719600  0.918850  1.0  0.0759
  C  C122  1  0.216400  0.689000  0.831600  1.0  -0.153
  C  C123  1  0.102600  0.732200  0.793400  1.0  -0.0581
  C  C124  1  0.141800  0.761500  0.737600  1.0  0.0289
  C  C125  1  0.079200  0.826800  0.639700  1.0  -0.3314
  C  C126  1  0.300500  0.753700  0.715700  1.0  -0.3342
  C  C127  1  0.890500  0.953600  0.902200  1.0  0.4373
  C  C128  1  0.019600  0.830400  0.043500  1.0  0.7781
  C  C129  1  0.029100  0.730900  0.056300  1.0  -0.18
  C  C130  1  0.135500  0.686000  0.025400  1.0  0.004
  C  C131  1  0.151800  0.594900  0.030800  1.0  -0.1427
  C  C132  1  0.061600  0.547900  0.069100  1.0  -0.0416
  C  C133  1  0.955100  0.590400  0.100800  1.0  -0.1208
  C  C134  1  0.937400  0.682300  0.095720  1.0  0.057
  C  C135  1  0.722000  0.651800  0.183100  1.0  -0.1377
  C  C136  1  0.608500  0.693600  0.221600  1.0  -0.061
  C  C137  1  0.464000  0.702900  0.201600  1.0  0.0255
  C  C138  1  0.648900  0.723500  0.277200  1.0  0.0232
  C  C139  1  0.807500  0.720400  0.298200  1.0  -0.3412
  C  C140  1  0.542000  0.759400  0.313900  1.0  0.0259
  C  C141  1  0.585100  0.788100  0.374400  1.0  -0.3405
  C  C142  1  0.004800  0.637300  0.479500  1.0  0.8205
  C  C143  1  0.985000  0.734300  0.462270  1.0  -0.1932
  C  C144  1  0.879000  0.780100  0.493000  1.0  -0.0093
  C  C145  1  0.857700  0.870900  0.483500  1.0  -0.1123
  C  C146  1  0.941900  0.916800  0.441900  1.0  -0.0649
  C  C147  1  0.046100  0.871700  0.410300  1.0  -0.1264
  C  C148  1  0.069800  0.780400  0.418850  1.0  0.0781
  C  C149  1  0.283600  0.811000  0.331600  1.0  -0.1503
  C  C150  1  0.397400  0.767800  0.293400  1.0  -0.0589
  C  C151  1  0.358200  0.738500  0.237600  1.0  0.0296
  C  C152  1  0.420800  0.673200  0.139700  1.0  -0.3307
  C  C153  1  0.199500  0.746300  0.215700  1.0  -0.3344
  C  C154  1  0.609500  0.546400  0.402200  1.0  0.4382
  C  C155  1  0.519600  0.330400  0.456500  1.0  0.7784
  C  C156  1  0.529100  0.230900  0.443700  1.0  -0.18
  C  C157  1  0.635500  0.186000  0.474600  1.0  0.0048
  C  C158  1  0.651800  0.094900  0.469200  1.0  -0.1426
  C  C159  1  0.561600  0.047900  0.430900  1.0  -0.0416
  C  C160  1  0.455100  0.090400  0.399200  1.0  -0.117
  C  C161  1  0.437400  0.182300  0.404280  1.0  0.0557
  C  C162  1  0.222000  0.151800  0.316900  1.0  -0.1391
  C  C163  1  0.108500  0.193600  0.278400  1.0  -0.0611
  C  C164  1  0.964000  0.202900  0.298400  1.0  0.0262
  C  C165  1  0.148900  0.223500  0.222800  1.0  0.0232
  C  C166  1  0.307500  0.220400  0.201800  1.0  -0.3413
  C  C167  1  0.042000  0.259400  0.186100  1.0  0.0261
  C  C168  1  0.085100  0.288100  0.125600  1.0  -0.3404
  C  C169  1  0.504800  0.137300  0.020500  1.0  0.8204
  C  C170  1  0.485000  0.234300  0.037730  1.0  -0.1938
  C  C171  1  0.379000  0.280100  0.007000  1.0  -0.0091
  C  C172  1  0.357700  0.370900  0.016500  1.0  -0.1125
  C  C173  1  0.441900  0.416800  0.058100  1.0  -0.0644
  C  C174  1  0.546100  0.371700  0.089700  1.0  -0.1261
  C  C175  1  0.569800  0.280400  0.081150  1.0  0.0801
  C  C176  1  0.783600  0.311000  0.168400  1.0  -0.149
  C  C177  1  0.897400  0.267800  0.206600  1.0  -0.0584
  C  C178  1  0.858200  0.238500  0.262400  1.0  0.03
  C  C179  1  0.920800  0.173200  0.360300  1.0  -0.3312
  C  C180  1  0.699500  0.246300  0.284300  1.0  -0.3346
  C  C181  1  0.109500  0.046400  0.097800  1.0  0.4377
  C  C182  1  0.980400  0.169600  0.956500  1.0  0.777
  C  C183  1  0.970900  0.269100  0.943700  1.0  -0.1802
  C  C184  1  0.864500  0.314000  0.974600  1.0  0.0059
  C  C185  1  0.848200  0.405100  0.969200  1.0  -0.1432
  C  C186  1  0.938400  0.452100  0.930900  1.0  -0.0462
  C  C187  1  0.044900  0.409600  0.899200  1.0  -0.1196
  C  C188  1  0.062600  0.317700  0.904280  1.0  0.0576
  C  C189  1  0.278000  0.348200  0.816900  1.0  -0.1345
  C  C190  1  0.391500  0.306400  0.778400  1.0  -0.0615
  C  C191  1  0.536000  0.297100  0.798400  1.0  0.0258
  C  C192  1  0.351100  0.276500  0.722800  1.0  0.0234
  C  C193  1  0.192500  0.279600  0.701800  1.0  -0.342
  C  C194  1  0.458000  0.240600  0.686100  1.0  0.0262
  C  C195  1  0.414900  0.211900  0.625600  1.0  -0.34
  C  C196  1  0.995200  0.362700  0.520500  1.0  0.8254
  C  C197  1  0.015000  0.265700  0.537730  1.0  -0.1926
  C  C198  1  0.121000  0.219900  0.507000  1.0  -0.0086
  C  C199  1  0.142300  0.129100  0.516500  1.0  -0.1101
  C  C200  1  0.058100  0.083200  0.558100  1.0  -0.0656
  C  C201  1  0.953900  0.128300  0.589700  1.0  -0.1273
  C  C202  1  0.930200  0.219600  0.581150  1.0  0.0784
  C  C203  1  0.716400  0.189000  0.668400  1.0  -0.1508
  C  C204  1  0.602600  0.232200  0.706600  1.0  -0.0579
  C  C205  1  0.641800  0.261500  0.762400  1.0  0.0291
  C  C206  1  0.579200  0.326800  0.860300  1.0  -0.3319
  C  C207  1  0.800500  0.253700  0.784300  1.0  -0.3343
  C  C208  1  0.390500  0.453600  0.597800  1.0  0.4382
  S  S209  1  0.694100  0.759660  0.637070  1.0  -0.0228
  S  S210  1  0.297210  0.777260  0.878360  1.0  -0.0196
  S  S211  1  0.805900  0.740340  0.137070  1.0  -0.0226
  S  S212  1  0.202790  0.722740  0.378360  1.0  -0.0207
  S  S213  1  0.305900  0.240340  0.362930  1.0  -0.0225
  S  S214  1  0.702790  0.222740  0.121640  1.0  -0.0209
  S  S215  1  0.194100  0.259660  0.862930  1.0  -0.0227
  S  S216  1  0.797210  0.277260  0.621640  1.0  -0.0193
  O  O217  1  0.362000  0.626900  0.529610  1.0  -0.7004
  O  O218  1  0.607300  0.637700  0.546750  1.0  -0.7308
  O  O219  1  0.383100  0.900500  0.960540  1.0  -0.7458
  O  O220  1  0.589400  0.901000  0.012900  1.0  -0.7703
  O  O221  1  0.754800  0.960800  0.912000  1.0  -0.5163
  O  O222  1  0.980900  0.955500  0.944480  1.0  -0.7561
  O  O223  1  0.138000  0.873100  0.029610  1.0  -0.6995
  O  O224  1  0.892700  0.862300  0.046750  1.0  -0.7339
  O  O225  1  0.116900  0.599500  0.460540  1.0  -0.7466
  O  O226  1  0.910600  0.599000  0.512900  1.0  -0.7703
  O  O227  1  0.745200  0.539200  0.412000  1.0  -0.5242
  O  O228  1  0.519100  0.544500  0.444480  1.0  -0.7542
  O  O229  1  0.638000  0.373100  0.470390  1.0  -0.6998
  O  O230  1  0.392700  0.362300  0.453250  1.0  -0.7327
  O  O231  1  0.616900  0.099500  0.039460  1.0  -0.7453
  O  O232  1  0.410600  0.099000  0.987100  1.0  -0.7712
  O  O233  1  0.245200  0.039200  0.088000  1.0  -0.5276
  O  O234  1  0.019100  0.044500  0.055520  1.0  -0.7554
  O  O235  1  0.862000  0.126900  0.970390  1.0  -0.6998
  O  O236  1  0.107300  0.137700  0.953250  1.0  -0.7292
  O  O237  1  0.883100  0.400500  0.539460  1.0  -0.745
  O  O238  1  0.089400  0.401000  0.487100  1.0  -0.772
  O  O239  1  0.254800  0.460800  0.588000  1.0  -0.5192
  O  O240  1  0.480900  0.455500  0.555520  1.0  -0.7574
