# generated using pymatgen
data_CdH22C28S2(N3O)2
_symmetry_space_group_name_H-M   'P 1'
_cell_length_a   10.88800000
_cell_length_b   12.82200000
_cell_length_c   13.47830000
_cell_angle_alpha   118.40200000
_cell_angle_beta   109.35300000
_cell_angle_gamma   90.00000000
_symmetry_Int_Tables_number   1
_chemical_formula_structural   CdH22C28S2(N3O)2
_chemical_formula_sum   'Cd2 H44 C56 S4 N12 O4'
_cell_volume   1533.21034704
_cell_formula_units_Z   2
loop_
 _symmetry_equiv_pos_site_id
 _symmetry_equiv_pos_as_xyz
  1  'x, y, z'
loop_
 _atom_site_type_symbol
 _atom_site_label
 _atom_site_symmetry_multiplicity
 _atom_site_fract_x
 _atom_site_fract_y
 _atom_site_fract_z
 _atom_site_occupancy
 _atom_site_charge
  Cd  Cd1  1  0.750000  0.920860  0.000000  1.0  0.7827
  Cd  Cd2  1  0.250000  0.079140  0.000000  1.0  0.7824
  H  H3  1  0.892900  0.784400  0.140000  1.0  0.0846
  H  H4  1  0.879600  0.710200  0.262800  1.0  0.1085
  H  H5  1  0.699400  0.733000  0.325800  1.0  0.0959
  H  H6  1  0.558600  0.900900  0.135600  1.0  0.087
  H  H7  1  0.409200  0.807400  0.201200  1.0  0.0705
  H  H8  1  0.495900  0.930200  0.323000  1.0  0.0613
  H  H9  1  0.535300  0.754400  0.517400  1.0  0.1083
  H  H10  1  0.419300  0.799700  0.645200  1.0  0.1011
  H  H11  1  0.235200  0.891200  0.618800  1.0  0.0999
  H  H12  1  0.287300  0.894200  0.334600  1.0  0.1174
  H  H13  1  0.100800  0.976600  0.392000  1.0  0.083
  H  H14  1  0.607100  0.644400  0.860000  1.0  0.084
  H  H15  1  0.620400  0.447400  0.737200  1.0  0.108
  H  H16  1  0.800600  0.407200  0.674200  1.0  0.0981
  H  H17  1  0.941400  0.765300  0.864400  1.0  0.0875
  H  H18  1  0.090800  0.606200  0.798800  1.0  0.0689
  H  H19  1  0.004100  0.607200  0.677000  1.0  0.0607
  H  H20  1  0.964700  0.237000  0.482600  1.0  0.1081
  H  H21  1  0.080700  0.154500  0.354800  1.0  0.1022
  H  H22  1  0.264800  0.272400  0.381200  1.0  0.0992
  H  H23  1  0.212700  0.559600  0.665400  1.0  0.1173
  H  H24  1  0.399200  0.584600  0.608000  1.0  0.0845
  H  H25  1  0.107100  0.215600  0.860000  1.0  0.0845
  H  H26  1  0.120400  0.289800  0.737200  1.0  0.1089
  H  H27  1  0.300600  0.267000  0.674200  1.0  0.0968
  H  H28  1  0.441400  0.099100  0.864400  1.0  0.0869
  H  H29  1  0.590800  0.192600  0.798800  1.0  0.0681
  H  H30  1  0.504100  0.069800  0.677000  1.0  0.0633
  H  H31  1  0.464700  0.245600  0.482600  1.0  0.1083
  H  H32  1  0.580700  0.200300  0.354800  1.0  0.1011
  H  H33  1  0.764800  0.108800  0.381200  1.0  0.1006
  H  H34  1  0.712700  0.105800  0.665400  1.0  0.117
  H  H35  1  0.899200  0.023400  0.608000  1.0  0.0828
  H  H36  1  0.392900  0.355600  0.140000  1.0  0.0839
  H  H37  1  0.379600  0.552600  0.262800  1.0  0.1075
  H  H38  1  0.199400  0.592800  0.325800  1.0  0.098
  H  H39  1  0.058600  0.234700  0.135600  1.0  0.0877
  H  H40  1  0.909200  0.393800  0.201200  1.0  0.0695
  H  H41  1  0.995900  0.392800  0.323000  1.0  0.0614
  H  H42  1  0.035300  0.763000  0.517400  1.0  0.1086
  H  H43  1  0.919300  0.845500  0.645200  1.0  0.1027
  H  H44  1  0.735200  0.727600  0.618800  1.0  0.0995
  H  H45  1  0.787300  0.440400  0.334600  1.0  0.1177
  H  H46  1  0.600800  0.415400  0.392000  1.0  0.0838
  C  C47  1  0.819300  0.793560  0.164520  1.0  0.1528
  C  C48  1  0.812300  0.749500  0.237800  1.0  -0.1504
  C  C49  1  0.706000  0.762900  0.275000  1.0  -0.0283
  C  C50  1  0.609600  0.820760  0.236920  1.0  -0.0481
  C  C51  1  0.624700  0.861600  0.162400  1.0  0.1275
  C  C52  1  0.492400  0.842430  0.274260  1.0  0.0787
  C  C53  1  0.421700  0.820480  0.415360  1.0  0.2656
  C  C54  1  0.460800  0.792200  0.506800  1.0  -0.2048
  C  C55  1  0.391800  0.818740  0.582080  1.0  -0.0429
  C  C56  1  0.282500  0.873000  0.566400  1.0  -0.1369
  C  C57  1  0.242000  0.901020  0.473640  1.0  0.0328
  C  C58  1  0.313200  0.874780  0.397560  1.0  -0.2411
  C  C59  1  0.124800  0.955140  0.453480  1.0  0.1526
  C  C60  1  0.908800  0.016940  0.875480  1.0  0.3218
  C  C61  1  0.680700  0.629040  0.835480  1.0  0.1531
  C  C62  1  0.687700  0.511700  0.762200  1.0  -0.1479
  C  C63  1  0.794000  0.487900  0.725000  1.0  -0.03
  C  C64  1  0.890400  0.583840  0.763080  1.0  -0.0485
  C  C65  1  0.875300  0.699200  0.837600  1.0  0.1242
  C  C66  1  0.007600  0.568170  0.725740  1.0  0.0619
  C  C67  1  0.078300  0.405120  0.584640  1.0  0.2661
  C  C68  1  0.039200  0.285400  0.493200  1.0  -0.2009
  C  C69  1  0.108200  0.236660  0.417920  1.0  -0.0374
  C  C70  1  0.217500  0.306600  0.433600  1.0  -0.1342
  C  C71  1  0.258000  0.427380  0.526360  1.0  0.0321
  C  C72  1  0.186800  0.477220  0.602440  1.0  -0.2436
  C  C73  1  0.375200  0.501660  0.546520  1.0  0.1526
  C  C74  1  0.591200  0.141460  0.124520  1.0  0.3226
  C  C75  1  0.180700  0.206440  0.835480  1.0  0.1528
  C  C76  1  0.187700  0.250500  0.762200  1.0  -0.1491
  C  C77  1  0.294000  0.237100  0.725000  1.0  -0.0278
  C  C78  1  0.390400  0.179240  0.763080  1.0  -0.0496
  C  C79  1  0.375300  0.138400  0.837600  1.0  0.1274
  C  C80  1  0.507600  0.157570  0.725740  1.0  0.0675
  C  C81  1  0.578300  0.179520  0.584640  1.0  0.2664
  C  C82  1  0.539200  0.207800  0.493200  1.0  -0.202
  C  C83  1  0.608200  0.181260  0.417920  1.0  -0.042
  C  C84  1  0.717500  0.127000  0.433600  1.0  -0.1346
  C  C85  1  0.758000  0.098980  0.526360  1.0  0.0321
  C  C86  1  0.686800  0.125220  0.602440  1.0  -0.2439
  C  C87  1  0.875200  0.044860  0.546520  1.0  0.1511
  C  C88  1  0.091200  0.983060  0.124520  1.0  0.3216
  C  C89  1  0.319300  0.370960  0.164520  1.0  0.1506
  C  C90  1  0.312300  0.488300  0.237800  1.0  -0.1477
  C  C91  1  0.206000  0.512100  0.275000  1.0  -0.0291
  C  C92  1  0.109600  0.416160  0.236920  1.0  -0.0471
  C  C93  1  0.124700  0.300800  0.162400  1.0  0.1236
  C  C94  1  0.992400  0.431830  0.274260  1.0  0.0777
  C  C95  1  0.921700  0.594880  0.415360  1.0  0.2665
  C  C96  1  0.960800  0.714600  0.506800  1.0  -0.2022
  C  C97  1  0.891800  0.763340  0.582080  1.0  -0.0368
  C  C98  1  0.782500  0.693400  0.566400  1.0  -0.1359
  C  C99  1  0.742000  0.572620  0.473640  1.0  0.0319
  C  C100  1  0.813200  0.522780  0.397560  1.0  -0.2435
  C  C101  1  0.624800  0.498340  0.453480  1.0  0.1501
  C  C102  1  0.408800  0.858540  0.875480  1.0  0.3224
  S  S103  1  0.747870  0.982710  0.833040  1.0  -0.3491
  S  S104  1  0.752130  0.149670  0.166960  1.0  -0.3493
  S  S105  1  0.252130  0.017290  0.166960  1.0  -0.3492
  S  S106  1  0.247870  0.850330  0.833040  1.0  -0.3501
  N  N107  1  0.726600  0.849020  0.126040  1.0  -0.331
  N  N108  1  0.054100  0.974030  0.517060  1.0  -0.2399
  N  N109  1  0.021900  0.039120  0.902040  1.0  -0.4986
  N  N110  1  0.773400  0.722980  0.873960  1.0  -0.3293
  N  N111  1  0.445900  0.456970  0.482940  1.0  -0.2397
  N  N112  1  0.478100  0.137080  0.097960  1.0  -0.5
  N  N113  1  0.273400  0.150980  0.873960  1.0  -0.3314
  N  N114  1  0.945900  0.025970  0.482940  1.0  -0.2378
  N  N115  1  0.978100  0.960880  0.097960  1.0  -0.4995
  N  N116  1  0.226600  0.277020  0.126040  1.0  -0.3293
  N  N117  1  0.554100  0.543030  0.517060  1.0  -0.2398
  N  N118  1  0.521900  0.862920  0.902040  1.0  -0.4992
  O  O119  1  0.496200  0.787200  0.344200  1.0  -0.2679
  O  O120  1  0.003800  0.443000  0.655800  1.0  -0.2651
  O  O121  1  0.503800  0.212800  0.655800  1.0  -0.2661
  O  O122  1  0.996200  0.557000  0.344200  1.0  -0.267
