# generated using pymatgen
data_AlPO4
_symmetry_space_group_name_H-M   'P 1'
_cell_length_a   12.72600000
_cell_length_b   12.72600000
_cell_length_c   30.93900000
_cell_angle_alpha   90.00000000
_cell_angle_beta   90.00000000
_cell_angle_gamma   120.00000000
_symmetry_Int_Tables_number   1
_chemical_formula_structural   AlPO4
_chemical_formula_sum   'Al36 P36 O144'
_cell_volume   4339.31064707
_cell_formula_units_Z   36
loop_
 _symmetry_equiv_pos_site_id
 _symmetry_equiv_pos_as_xyz
  1  'x, y, z'
loop_
 _atom_site_type_symbol
 _atom_site_label
 _atom_site_symmetry_multiplicity
 _atom_site_fract_x
 _atom_site_fract_y
 _atom_site_fract_z
 _atom_site_occupancy
 _atom_site_charge
  Al  Al1  1  0.753300  0.757220  0.295400  1.0  1.9861
  Al  Al2  1  0.576160  0.902300  0.216460  1.0  1.9521
  Al  Al3  1  0.419970  0.090550  0.628730  1.0  1.9863
  Al  Al4  1  0.242830  0.235630  0.549790  1.0  1.9528
  Al  Al5  1  0.086630  0.423890  0.962070  1.0  1.9861
  Al  Al6  1  0.909490  0.568970  0.883130  1.0  1.9523
  Al  Al7  1  0.242780  0.996080  0.295400  1.0  1.9864
  Al  Al8  1  0.097700  0.673860  0.216460  1.0  1.9517
  Al  Al9  1  0.909450  0.329410  0.628730  1.0  1.9864
  Al  Al10  1  0.764370  0.007190  0.549790  1.0  1.9515
  Al  Al11  1  0.576110  0.662750  0.962070  1.0  1.9865
  Al  Al12  1  0.431030  0.340530  0.883130  1.0  1.9517
  Al  Al13  1  0.003920  0.246700  0.295400  1.0  1.986
  Al  Al14  1  0.326140  0.423840  0.216460  1.0  1.9517
  Al  Al15  1  0.670590  0.580030  0.628730  1.0  1.986
  Al  Al16  1  0.992810  0.757170  0.549790  1.0  1.9521
  Al  Al17  1  0.337250  0.913370  0.962070  1.0  1.986
  Al  Al18  1  0.659470  0.090510  0.883130  1.0  1.9517
  Al  Al19  1  0.246700  0.242780  0.704600  1.0  1.9863
  Al  Al20  1  0.423840  0.097700  0.783540  1.0  1.9528
  Al  Al21  1  0.913370  0.576110  0.037930  1.0  1.9863
  Al  Al22  1  0.090510  0.431030  0.116870  1.0  1.9528
  Al  Al23  1  0.580030  0.909450  0.371270  1.0  1.9865
  Al  Al24  1  0.757170  0.764370  0.450210  1.0  1.9531
  Al  Al25  1  0.757220  0.003920  0.704600  1.0  1.9882
  Al  Al26  1  0.902300  0.326140  0.783540  1.0  1.9518
  Al  Al27  1  0.423890  0.337250  0.037930  1.0  1.9882
  Al  Al28  1  0.568970  0.659470  0.116870  1.0  1.9518
  Al  Al29  1  0.090550  0.670590  0.371270  1.0  1.9882
  Al  Al30  1  0.235630  0.992810  0.450210  1.0  1.9516
  Al  Al31  1  0.996080  0.753300  0.704600  1.0  1.9858
  Al  Al32  1  0.673860  0.576160  0.783540  1.0  1.9515
  Al  Al33  1  0.662750  0.086630  0.037930  1.0  1.9858
  Al  Al34  1  0.340530  0.909490  0.116870  1.0  1.9515
  Al  Al35  1  0.329410  0.419970  0.371270  1.0  1.9858
  Al  Al36  1  0.007190  0.242830  0.450210  1.0  1.9519
  P  P37  1  0.577830  0.904320  0.114440  1.0  2.0514
  P  P38  1  0.756820  0.001270  0.291400  1.0  2.0701
  P  P39  1  0.244500  0.237650  0.447770  1.0  2.0513
  P  P40  1  0.423490  0.334600  0.624730  1.0  2.0607
  P  P41  1  0.911160  0.570990  0.781110  1.0  2.0514
  P  P42  1  0.090150  0.667940  0.958070  1.0  2.0606
  P  P43  1  0.095680  0.673510  0.114440  1.0  2.0436
  P  P44  1  0.998730  0.755550  0.291400  1.0  2.056
  P  P45  1  0.762350  0.006840  0.447770  1.0  2.0435
  P  P46  1  0.665400  0.088880  0.624730  1.0  2.056
  P  P47  1  0.429010  0.340180  0.781110  1.0  2.0436
  P  P48  1  0.332060  0.422220  0.958070  1.0  2.0542
  P  P49  1  0.326490  0.422170  0.114440  1.0  2.049
  P  P50  1  0.244450  0.243180  0.291400  1.0  2.0585
  P  P51  1  0.993160  0.755500  0.447770  1.0  2.049
  P  P52  1  0.911120  0.576510  0.624730  1.0  2.0585
  P  P53  1  0.659820  0.088840  0.781110  1.0  2.049
  P  P54  1  0.577780  0.909850  0.958070  1.0  2.0584
  P  P55  1  0.422170  0.095680  0.885560  1.0  2.0452
  P  P56  1  0.243180  0.998730  0.708600  1.0  2.0585
  P  P57  1  0.088840  0.429010  0.218890  1.0  2.0452
  P  P58  1  0.909850  0.332060  0.041930  1.0  2.0584
  P  P59  1  0.755500  0.762350  0.552230  1.0  2.045
  P  P60  1  0.576510  0.665400  0.375270  1.0  2.0585
  P  P61  1  0.904320  0.326490  0.885560  1.0  2.0543
  P  P62  1  0.001270  0.244450  0.708600  1.0  2.0667
  P  P63  1  0.570990  0.659820  0.218890  1.0  2.0543
  P  P64  1  0.667940  0.577780  0.041930  1.0  2.0666
  P  P65  1  0.237650  0.993160  0.552230  1.0  2.0542
  P  P66  1  0.334600  0.911120  0.375270  1.0  2.0667
  P  P67  1  0.673510  0.577830  0.885560  1.0  2.054
  P  P68  1  0.755550  0.756820  0.708600  1.0  2.0561
  P  P69  1  0.340180  0.911160  0.218890  1.0  2.054
  P  P70  1  0.422220  0.090150  0.041930  1.0  2.056
  P  P71  1  0.006840  0.244500  0.552230  1.0  2.054
  P  P72  1  0.088880  0.423490  0.375270  1.0  2.0561
  O  O73  1  0.613760  0.939300  0.161680  1.0  -1.049
  O  O74  1  0.534140  0.753250  0.225060  1.0  -1.0404
  O  O75  1  0.792830  0.907170  0.293950  1.0  -0.9932
  O  O76  1  0.461250  0.927990  0.231030  1.0  -1.0254
  O  O77  1  0.701430  0.995880  0.247200  1.0  -0.96
  O  O78  1  0.877600  0.742020  0.296790  1.0  -0.9452
  O  O79  1  0.664410  0.683550  0.339930  1.0  -1.0405
  O  O80  1  0.675900  0.686270  0.247780  1.0  -0.9967
  O  O81  1  0.280430  0.272630  0.495010  1.0  -1.057
  O  O82  1  0.200810  0.086580  0.558390  1.0  -1.0305
  O  O83  1  0.459500  0.240500  0.627280  1.0  -0.9932
  O  O84  1  0.127920  0.261320  0.564360  1.0  -1.0211
  O  O85  1  0.368100  0.329210  0.580530  1.0  -0.96
  O  O86  1  0.544270  0.075350  0.630120  1.0  -0.9452
  O  O87  1  0.331080  0.016880  0.673260  1.0  -1.0404
  O  O88  1  0.342570  0.019600  0.581110  1.0  -0.9967
  O  O89  1  0.947090  0.605970  0.828350  1.0  -1.049
  O  O90  1  0.867470  0.419920  0.891730  1.0  -1.0423
  O  O91  1  0.126160  0.573840  0.960620  1.0  -0.9948
  O  O92  1  0.794580  0.594660  0.897700  1.0  -1.0255
  O  O93  1  0.034760  0.662550  0.913870  1.0  -0.96
  O  O94  1  0.210930  0.408690  0.963460  1.0  -0.9353
  O  O95  1  0.997740  0.350220  0.006600  1.0  -1.0336
  O  O96  1  0.009230  0.352940  0.914450  1.0  -0.9967
  O  O97  1  0.060700  0.674460  0.161680  1.0  -1.0536
  O  O98  1  0.246750  0.780890  0.225060  1.0  -1.0442
  O  O99  1  0.092830  0.885660  0.293950  1.0  -0.9977
  O  O100  1  0.072010  0.533260  0.231030  1.0  -1.0262
  O  O101  1  0.004120  0.705550  0.247200  1.0  -0.9595
  O  O102  1  0.257980  0.135580  0.296790  1.0  -0.9457
  O  O103  1  0.316450  0.980860  0.339930  1.0  -1.0374
  O  O104  1  0.313730  0.989630  0.247780  1.0  -0.9973
  O  O105  1  0.727370  0.007790  0.495010  1.0  -1.049
  O  O106  1  0.913420  0.114220  0.558390  1.0  -1.0486
  O  O107  1  0.759500  0.218990  0.627280  1.0  -0.9978
  O  O108  1  0.738680  0.866590  0.564360  1.0  -1.0047
  O  O109  1  0.670790  0.038880  0.580530  1.0  -0.9592
  O  O110  1  0.924650  0.468910  0.630120  1.0  -0.9457
  O  O111  1  0.983120  0.314190  0.673260  1.0  -1.0375
  O  O112  1  0.980400  0.322960  0.581110  1.0  -0.9982
  O  O113  1  0.394030  0.341130  0.828350  1.0  -1.0536
  O  O114  1  0.580080  0.447560  0.891730  1.0  -1.0422
  O  O115  1  0.426160  0.552330  0.960620  1.0  -1.0016
  O  O116  1  0.405340  0.199930  0.897700  1.0  -1.0263
  O  O117  1  0.337450  0.372220  0.913870  1.0  -0.9595
  O  O118  1  0.591310  0.802250  0.963460  1.0  -0.9308
  O  O119  1  0.649780  0.647530  0.006600  1.0  -1.0398
  O  O120  1  0.647060  0.656300  0.914450  1.0  -0.9973
  O  O121  1  0.325540  0.386240  0.161680  1.0  -1.0615
  O  O122  1  0.219110  0.465860  0.225060  1.0  -1.0416
  O  O123  1  0.114340  0.207170  0.293950  1.0  -0.9983
  O  O124  1  0.466740  0.538750  0.231030  1.0  -1.023
  O  O125  1  0.294450  0.298570  0.247200  1.0  -0.9596
  O  O126  1  0.864420  0.122400  0.296790  1.0  -0.9354
  O  O127  1  0.019140  0.335590  0.339930  1.0  -1.0304
  O  O128  1  0.010370  0.324100  0.247780  1.0  -0.9977
  O  O129  1  0.992210  0.719570  0.495010  1.0  -1.0542
  O  O130  1  0.885780  0.799190  0.558390  1.0  -1.0412
  O  O131  1  0.781010  0.540500  0.627280  1.0  -0.9983
  O  O132  1  0.133410  0.872080  0.564360  1.0  -1.0248
  O  O133  1  0.961120  0.631900  0.580530  1.0  -0.9596
  O  O134  1  0.531090  0.455730  0.630120  1.0  -0.9354
  O  O135  1  0.685810  0.668920  0.673260  1.0  -1.0304
  O  O136  1  0.677040  0.657430  0.581110  1.0  -0.9977
  O  O137  1  0.658870  0.052910  0.828350  1.0  -1.0615
  O  O138  1  0.552440  0.132530  0.891730  1.0  -1.039
  O  O139  1  0.447670  0.873840  0.960620  1.0  -0.9983
  O  O140  1  0.800070  0.205420  0.897700  1.0  -1.0231
  O  O141  1  0.627780  0.965240  0.913870  1.0  -0.9596
  O  O142  1  0.197750  0.789070  0.963460  1.0  -0.9414
  O  O143  1  0.352470  0.002260  0.006600  1.0  -1.0442
  O  O144  1  0.343700  0.990770  0.914450  1.0  -0.9977
  O  O145  1  0.386240  0.060700  0.838320  1.0  -1.0475
  O  O146  1  0.465860  0.246750  0.774940  1.0  -1.0418
  O  O147  1  0.207170  0.092830  0.706050  1.0  -0.9931
  O  O148  1  0.538750  0.072010  0.768970  1.0  -1.0251
  O  O149  1  0.298570  0.004120  0.752800  1.0  -0.9614
  O  O150  1  0.122400  0.257980  0.703210  1.0  -0.9475
  O  O151  1  0.335590  0.316450  0.660070  1.0  -1.043
  O  O152  1  0.324100  0.313730  0.752220  1.0  -0.9961
  O  O153  1  0.052910  0.394030  0.171650  1.0  -1.0475
  O  O154  1  0.132530  0.580080  0.108270  1.0  -1.0448
  O  O155  1  0.873840  0.426160  0.039380  1.0  -0.9946
  O  O156  1  0.205420  0.405340  0.102300  1.0  -1.0252
  O  O157  1  0.965240  0.337450  0.086130  1.0  -0.9614
  O  O158  1  0.789070  0.591310  0.036540  1.0  -0.9371
  O  O159  1  0.002260  0.649780  0.993400  1.0  -1.0361
  O  O160  1  0.990770  0.647060  0.085550  1.0  -0.9961
  O  O161  1  0.719570  0.727370  0.504990  1.0  -1.0547
  O  O162  1  0.799190  0.913420  0.441610  1.0  -1.0333
  O  O163  1  0.540500  0.759500  0.372720  1.0  -0.993
  O  O164  1  0.872080  0.738680  0.435640  1.0  -1.0222
  O  O165  1  0.631900  0.670790  0.419470  1.0  -0.9614
  O  O166  1  0.455730  0.924650  0.369880  1.0  -0.9475
  O  O167  1  0.668920  0.983120  0.326740  1.0  -1.0429
  O  O168  1  0.657430  0.980400  0.418890  1.0  -0.9961
  O  O169  1  0.939300  0.325540  0.838320  1.0  -1.0547
  O  O170  1  0.753250  0.219110  0.774940  1.0  -1.0449
  O  O171  1  0.907170  0.114340  0.706050  1.0  -0.995
  O  O172  1  0.927990  0.466740  0.768970  1.0  -1.0251
  O  O173  1  0.995880  0.294450  0.752800  1.0  -0.9598
  O  O174  1  0.742020  0.864420  0.703210  1.0  -0.9466
  O  O175  1  0.683550  0.019140  0.660070  1.0  -1.036
  O  O176  1  0.686270  0.010370  0.752220  1.0  -0.9983
  O  O177  1  0.605970  0.658870  0.171650  1.0  -1.0547
  O  O178  1  0.419920  0.552440  0.108270  1.0  -1.0427
  O  O179  1  0.573840  0.447670  0.039380  1.0  -0.9992
  O  O180  1  0.594660  0.800070  0.102300  1.0  -1.0252
  O  O181  1  0.662550  0.627780  0.086130  1.0  -0.9585
  O  O182  1  0.408690  0.197750  0.036540  1.0  -0.9322
  O  O183  1  0.350220  0.352470  0.993400  1.0  -1.0381
  O  O184  1  0.352940  0.343700  0.085550  1.0  -0.9978
  O  O185  1  0.272630  0.992210  0.504990  1.0  -1.0484
  O  O186  1  0.086580  0.885780  0.441610  1.0  -1.0486
  O  O187  1  0.240500  0.781010  0.372720  1.0  -0.995
  O  O188  1  0.261320  0.133410  0.435640  1.0  -1.0037
  O  O189  1  0.329210  0.961120  0.419470  1.0  -0.9585
  O  O190  1  0.075350  0.531090  0.369880  1.0  -0.9466
  O  O191  1  0.016880  0.685810  0.326740  1.0  -1.0356
  O  O192  1  0.019600  0.677040  0.418890  1.0  -0.9976
  O  O193  1  0.674460  0.613760  0.838320  1.0  -1.0563
  O  O194  1  0.780890  0.534140  0.774940  1.0  -1.0423
  O  O195  1  0.885660  0.792830  0.706050  1.0  -0.9997
  O  O196  1  0.533260  0.461250  0.768970  1.0  -1.0222
  O  O197  1  0.705550  0.701430  0.752800  1.0  -0.9605
  O  O198  1  0.135580  0.877600  0.703210  1.0  -0.9332
  O  O199  1  0.980860  0.664410  0.660070  1.0  -1.0307
  O  O200  1  0.989630  0.675900  0.752220  1.0  -0.9958
  O  O201  1  0.341130  0.947090  0.171650  1.0  -1.0563
  O  O202  1  0.447560  0.867470  0.108270  1.0  -1.0397
  O  O203  1  0.552330  0.126160  0.039380  1.0  -0.9992
  O  O204  1  0.199930  0.794580  0.102300  1.0  -1.0223
  O  O205  1  0.372220  0.034760  0.086130  1.0  -0.9605
  O  O206  1  0.802250  0.210930  0.036540  1.0  -0.9391
  O  O207  1  0.647530  0.997740  0.993400  1.0  -1.0443
  O  O208  1  0.656300  0.009230  0.085550  1.0  -0.9958
  O  O209  1  0.007790  0.280430  0.504990  1.0  -1.0484
  O  O210  1  0.114220  0.200810  0.441610  1.0  -1.0422
  O  O211  1  0.218990  0.459500  0.372720  1.0  -0.9997
  O  O212  1  0.866590  0.127920  0.435640  1.0  -1.0234
  O  O213  1  0.038880  0.368100  0.419470  1.0  -0.9604
  O  O214  1  0.468910  0.544270  0.369880  1.0  -0.9332
  O  O215  1  0.314190  0.331080  0.326740  1.0  -1.0301
  O  O216  1  0.322960  0.342570  0.418890  1.0  -0.9958
