# generated using pymatgen
data_Mn3Mo12(P4O25)2
_symmetry_space_group_name_H-M   'P 1'
_cell_length_a   16.24690000
_cell_length_b   11.87750000
_cell_length_c   18.02800000
_cell_angle_alpha   90.00000000
_cell_angle_beta   103.74900000
_cell_angle_gamma   90.00000000
_symmetry_Int_Tables_number   1
_chemical_formula_structural   Mn3Mo12(P4O25)2
_chemical_formula_sum   'Mn6 Mo24 P16 O100'
_cell_volume   3379.22531096
_cell_formula_units_Z   2
loop_
 _symmetry_equiv_pos_site_id
 _symmetry_equiv_pos_as_xyz
  1  'x, y, z'
loop_
 _atom_site_type_symbol
 _atom_site_label
 _atom_site_symmetry_multiplicity
 _atom_site_fract_x
 _atom_site_fract_y
 _atom_site_fract_z
 _atom_site_occupancy
 _atom_site_charge
  Mn  Mn1  1  0.875510  0.003040  0.865460  1.0  1.2171
  Mn  Mn2  1  0.624490  0.503040  0.634540  1.0  1.218
  Mn  Mn3  1  0.124490  0.996960  0.134540  1.0  1.2174
  Mn  Mn4  1  0.375510  0.496960  0.365460  1.0  1.2167
  Mn  Mn5  1  0.500000  0.000000  0.000000  1.0  0.9986
  Mn  Mn6  1  0.000000  0.500000  0.500000  1.0  0.9986
  Mo  Mo7  1  0.617680  0.267300  0.966850  1.0  1.3228
  Mo  Mo8  1  0.479310  0.146210  0.805250  1.0  1.2998
  Mo  Mo9  1  0.476220  0.929600  0.786930  1.0  1.285
  Mo  Mo10  1  0.611010  0.755710  0.921630  1.0  1.3036
  Mo  Mo11  1  0.715610  0.848170  0.036840  1.0  1.2616
  Mo  Mo12  1  0.716780  0.141430  0.067530  1.0  1.3461
  Mo  Mo13  1  0.882320  0.767300  0.533150  1.0  1.3228
  Mo  Mo14  1  0.020690  0.646210  0.694750  1.0  1.2951
  Mo  Mo15  1  0.023780  0.429600  0.713070  1.0  1.2816
  Mo  Mo16  1  0.888990  0.255710  0.578370  1.0  1.3047
  Mo  Mo17  1  0.784390  0.348170  0.463160  1.0  1.2625
  Mo  Mo18  1  0.783220  0.641430  0.432470  1.0  1.3445
  Mo  Mo19  1  0.382320  0.732700  0.033150  1.0  1.3234
  Mo  Mo20  1  0.520690  0.853790  0.194750  1.0  1.2944
  Mo  Mo21  1  0.523780  0.070400  0.213070  1.0  1.2809
  Mo  Mo22  1  0.388990  0.244290  0.078370  1.0  1.3041
  Mo  Mo23  1  0.284390  0.151830  0.963160  1.0  1.265
  Mo  Mo24  1  0.283220  0.858570  0.932470  1.0  1.3442
  Mo  Mo25  1  0.117680  0.232700  0.466850  1.0  1.322
  Mo  Mo26  1  0.979310  0.353790  0.305250  1.0  1.2997
  Mo  Mo27  1  0.976220  0.570400  0.286930  1.0  1.2852
  Mo  Mo28  1  0.111010  0.744290  0.421630  1.0  1.304
  Mo  Mo29  1  0.215610  0.651830  0.536840  1.0  1.2642
  Mo  Mo30  1  0.216780  0.358570  0.567530  1.0  1.3428
  P  P31  1  0.672560  0.025210  0.885770  1.0  1.8017
  P  P32  1  0.623160  0.337100  0.789950  1.0  1.6915
  P  P33  1  0.561020  0.701510  0.737120  1.0  1.7732
  P  P34  1  0.889030  0.008000  0.058620  1.0  1.751
  P  P35  1  0.827440  0.525210  0.614230  1.0  1.8022
  P  P36  1  0.876840  0.837100  0.710050  1.0  1.691
  P  P37  1  0.938980  0.201510  0.762880  1.0  1.7733
  P  P38  1  0.610970  0.508000  0.441380  1.0  1.7481
  P  P39  1  0.327440  0.974790  0.114230  1.0  1.8022
  P  P40  1  0.376840  0.662900  0.210050  1.0  1.6909
  P  P41  1  0.438980  0.298490  0.262880  1.0  1.7733
  P  P42  1  0.110970  0.992000  0.941380  1.0  1.7483
  P  P43  1  0.172560  0.474790  0.385770  1.0  1.8016
  P  P44  1  0.123160  0.162900  0.289950  1.0  1.6915
  P  P45  1  0.061020  0.798490  0.237120  1.0  1.773
  P  P46  1  0.389030  0.492000  0.558620  1.0  1.751
  O  O47  1  0.740000  0.040300  0.842100  1.0  -0.7632
  O  O48  1  0.613700  0.922600  0.858500  1.0  -0.8379
  O  O49  1  0.615400  0.132400  0.876800  1.0  -0.7501
  O  O50  1  0.711800  0.010000  0.973200  1.0  -0.7687
  O  O51  1  0.630100  0.444400  0.748000  1.0  -0.6968
  O  O52  1  0.538500  0.275800  0.760500  1.0  -0.6663
  O  O53  1  0.699400  0.259500  0.780200  1.0  -0.46
  O  O54  1  0.634400  0.363200  0.876200  1.0  -0.6766
  O  O55  1  0.608300  0.670400  0.677100  1.0  -0.656
  O  O56  1  0.484900  0.622500  0.733900  1.0  -0.4422
  O  O57  1  0.529200  0.824900  0.721800  1.0  -0.65
  O  O58  1  0.621800  0.696100  0.818000  1.0  -0.6635
  O  O59  1  0.977500  0.996400  0.117400  1.0  -0.7893
  O  O60  1  0.901900  0.039000  0.981700  1.0  -0.7022
  O  O61  1  0.841100  0.101100  0.091700  1.0  -0.6634
  O  O62  1  0.843100  0.894000  0.060500  1.0  -0.6955
  O  O63  1  0.738800  0.245700  0.992400  1.0  -0.6016
  O  O64  1  0.593000  0.135300  0.024200  1.0  -0.7259
  O  O65  1  0.491800  0.254800  0.901100  1.0  -0.5389
  O  O66  1  0.517300  0.050600  0.733000  1.0  -0.6094
  O  O67  1  0.464200  0.023300  0.875100  1.0  -0.7186
  O  O68  1  0.486000  0.791000  0.862400  1.0  -0.5717
  O  O69  1  0.591700  0.860900  0.000800  1.0  -0.7254
  O  O70  1  0.733700  0.773900  0.946100  1.0  -0.5933
  O  O71  1  0.704100  0.980300  0.114500  1.0  -0.5805
  O  O72  1  0.760000  0.540300  0.657900  1.0  -0.7625
  O  O73  1  0.886300  0.422600  0.641500  1.0  -0.8396
  O  O74  1  0.884600  0.632400  0.623200  1.0  -0.7513
  O  O75  1  0.788200  0.510000  0.526800  1.0  -0.7671
  O  O76  1  0.869900  0.944400  0.752000  1.0  -0.6984
  O  O77  1  0.961500  0.775800  0.739500  1.0  -0.666
  O  O78  1  0.800600  0.759500  0.719800  1.0  -0.4598
  O  O79  1  0.865600  0.863200  0.623800  1.0  -0.6766
  O  O80  1  0.891700  0.170400  0.822900  1.0  -0.6564
  O  O81  1  0.015100  0.122500  0.766100  1.0  -0.4407
  O  O82  1  0.970800  0.324900  0.778200  1.0  -0.6473
  O  O83  1  0.878200  0.196100  0.682000  1.0  -0.6615
  O  O84  1  0.522500  0.496400  0.382600  1.0  -0.7905
  O  O85  1  0.598100  0.539000  0.518300  1.0  -0.7022
  O  O86  1  0.658900  0.601100  0.408300  1.0  -0.667
  O  O87  1  0.656900  0.394000  0.439500  1.0  -0.6964
  O  O88  1  0.761200  0.745700  0.507600  1.0  -0.6002
  O  O89  1  0.907000  0.635300  0.475800  1.0  -0.7252
  O  O90  1  0.008200  0.754800  0.598900  1.0  -0.5397
  O  O91  1  0.982700  0.550600  0.767000  1.0  -0.6021
  O  O92  1  0.035800  0.523300  0.624900  1.0  -0.72
  O  O93  1  0.014000  0.291000  0.637600  1.0  -0.5712
  O  O94  1  0.908300  0.360900  0.499200  1.0  -0.7252
  O  O95  1  0.766300  0.273900  0.553900  1.0  -0.5945
  O  O96  1  0.795900  0.480300  0.385500  1.0  -0.5789
  O  O97  1  0.260000  0.959700  0.157900  1.0  -0.7626
  O  O98  1  0.386300  0.077400  0.141500  1.0  -0.8399
  O  O99  1  0.384600  0.867600  0.123200  1.0  -0.7519
  O  O100  1  0.288200  0.990000  0.026800  1.0  -0.7671
  O  O101  1  0.369900  0.555600  0.252000  1.0  -0.6987
  O  O102  1  0.461500  0.724200  0.239500  1.0  -0.6668
  O  O103  1  0.300600  0.740500  0.219800  1.0  -0.4593
  O  O104  1  0.365600  0.636800  0.123800  1.0  -0.6746
  O  O105  1  0.391700  0.329600  0.322900  1.0  -0.6563
  O  O106  1  0.515100  0.377500  0.266100  1.0  -0.4405
  O  O107  1  0.470800  0.175100  0.278200  1.0  -0.6484
  O  O108  1  0.378200  0.303900  0.182000  1.0  -0.6628
  O  O109  1  0.022500  0.003600  0.882600  1.0  -0.7907
  O  O110  1  0.098100  0.961000  0.018300  1.0  -0.7022
  O  O111  1  0.158900  0.898900  0.908300  1.0  -0.6654
  O  O112  1  0.156900  0.106000  0.939500  1.0  -0.6957
  O  O113  1  0.261200  0.754300  0.007600  1.0  -0.6071
  O  O114  1  0.407000  0.864700  0.975800  1.0  -0.7247
  O  O115  1  0.508200  0.745200  0.098900  1.0  -0.5403
  O  O116  1  0.482700  0.949400  0.267000  1.0  -0.6025
  O  O117  1  0.535800  0.976700  0.124900  1.0  -0.72
  O  O118  1  0.514000  0.209000  0.137600  1.0  -0.5713
  O  O119  1  0.408300  0.139100  0.999200  1.0  -0.726
  O  O120  1  0.266300  0.226100  0.053900  1.0  -0.593
  O  O121  1  0.295900  0.019700  0.885500  1.0  -0.5783
  O  O122  1  0.240000  0.459700  0.342100  1.0  -0.7634
  O  O123  1  0.113700  0.577400  0.358500  1.0  -0.8377
  O  O124  1  0.115400  0.367600  0.376800  1.0  -0.7515
  O  O125  1  0.211800  0.490000  0.473200  1.0  -0.7688
  O  O126  1  0.130100  0.055600  0.248000  1.0  -0.6969
  O  O127  1  0.038500  0.224200  0.260500  1.0  -0.6669
  O  O128  1  0.199400  0.240500  0.280200  1.0  -0.4593
  O  O129  1  0.134400  0.136800  0.376200  1.0  -0.677
  O  O130  1  0.108300  0.829600  0.177100  1.0  -0.6561
  O  O131  1  0.984900  0.877500  0.233900  1.0  -0.442
  O  O132  1  0.029200  0.675100  0.221800  1.0  -0.6502
  O  O133  1  0.121800  0.803900  0.318000  1.0  -0.6637
  O  O134  1  0.477500  0.503600  0.617400  1.0  -0.7897
  O  O135  1  0.401900  0.461000  0.481700  1.0  -0.7027
  O  O136  1  0.341100  0.398900  0.591700  1.0  -0.6644
  O  O137  1  0.343100  0.606000  0.560500  1.0  -0.6944
  O  O138  1  0.238800  0.254300  0.492400  1.0  -0.6069
  O  O139  1  0.093000  0.364700  0.524200  1.0  -0.7267
  O  O140  1  0.991800  0.245200  0.401100  1.0  -0.5404
  O  O141  1  0.017300  0.449400  0.233000  1.0  -0.6092
  O  O142  1  0.964200  0.476700  0.375100  1.0  -0.7188
  O  O143  1  0.986000  0.709000  0.362400  1.0  -0.5708
  O  O144  1  0.091700  0.639100  0.500800  1.0  -0.7265
  O  O145  1  0.233700  0.726100  0.446100  1.0  -0.593
  O  O146  1  0.204100  0.519700  0.614500  1.0  -0.58
