# generated using pymatgen
data_V3P3O13
_symmetry_space_group_name_H-M   'P 1'
_cell_length_a   10.18700000
_cell_length_b   10.24100000
_cell_length_c   8.21370000
_cell_angle_alpha   90.39800000
_cell_angle_beta   95.93000000
_cell_angle_gamma   117.32500000
_symmetry_Int_Tables_number   1
_chemical_formula_structural   V3P3O13
_chemical_formula_sum   'V6 P6 O26'
_cell_volume   755.77152614
_cell_formula_units_Z   2
loop_
 _symmetry_equiv_pos_site_id
 _symmetry_equiv_pos_as_xyz
  1  'x, y, z'
loop_
 _atom_site_type_symbol
 _atom_site_label
 _atom_site_symmetry_multiplicity
 _atom_site_fract_x
 _atom_site_fract_y
 _atom_site_fract_z
 _atom_site_occupancy
 _atom_site_charge
  V  V1  1  0.986560  0.215300  0.354320  1.0  1.9211
  V  V2  1  0.519730  0.783460  0.152040  1.0  1.3301
  V  V3  1  0.786840  0.147980  0.693500  1.0  1.3369
  V  V4  1  0.013440  0.784700  0.645680  1.0  1.9191
  V  V5  1  0.480270  0.216540  0.847960  1.0  1.3298
  V  V6  1  0.213160  0.852020  0.306500  1.0  1.3358
  P  P7  1  0.783100  0.884300  0.455700  1.0  1.8575
  P  P8  1  0.185900  0.536800  0.205300  1.0  1.7186
  P  P9  1  0.286700  0.879300  0.941000  1.0  1.8251
  P  P10  1  0.216900  0.115700  0.544300  1.0  1.8584
  P  P11  1  0.814100  0.463200  0.794700  1.0  1.7176
  P  P12  1  0.713300  0.120700  0.059000  1.0  1.825
  O  O13  1  0.119800  0.430500  0.338300  1.0  -0.7697
  O  O14  1  0.366200  0.784800  0.980900  1.0  -0.807
  O  O15  1  0.888000  0.997500  0.347200  1.0  -0.7716
  O  O16  1  0.627200  0.794200  0.368200  1.0  -0.7572
  O  O17  1  0.136300  0.774000  0.841200  1.0  -0.8113
  O  O18  1  0.772800  0.958600  0.614800  1.0  -0.7984
  O  O19  1  0.260600  0.941600  0.097100  1.0  -0.7491
  O  O20  1  0.126000  0.444500  0.034600  1.0  -0.5323
  O  O21  1  0.895200  0.236000  0.497000  1.0  -0.8685
  O  O22  1  0.353000  0.601800  0.224800  1.0  -0.7567
  O  O23  1  0.127600  0.650400  0.202200  1.0  -0.7591
  O  O24  1  0.844300  0.776900  0.505000  1.0  -0.7761
  O  O25  1  0.378200  0.002800  0.836200  1.0  -0.8287
  O  O26  1  0.880200  0.569500  0.661700  1.0  -0.768
  O  O27  1  0.633800  0.215200  0.019100  1.0  -0.8084
  O  O28  1  0.112000  0.002500  0.652800  1.0  -0.7744
  O  O29  1  0.372800  0.205800  0.631800  1.0  -0.7571
  O  O30  1  0.863700  0.226000  0.158800  1.0  -0.811
  O  O31  1  0.227200  0.041400  0.385200  1.0  -0.797
  O  O32  1  0.739400  0.058400  0.902900  1.0  -0.7479
  O  O33  1  0.874000  0.555500  0.965400  1.0  -0.5354
  O  O34  1  0.104800  0.764000  0.503000  1.0  -0.8669
  O  O35  1  0.647000  0.398200  0.775200  1.0  -0.7569
  O  O36  1  0.872400  0.349600  0.797800  1.0  -0.7599
  O  O37  1  0.155700  0.223100  0.495000  1.0  -0.7752
  O  O38  1  0.621800  0.997200  0.163800  1.0  -0.8314
