# generated using pymatgen
data_KFeNiH24C48(NO2)4
_symmetry_space_group_name_H-M   'P 1'
_cell_length_a   7.22800000
_cell_length_b   24.99700000
_cell_length_c   30.90200000
_cell_angle_alpha   90.00000000
_cell_angle_beta   93.16700000
_cell_angle_gamma   90.00000000
_symmetry_Int_Tables_number   1
_chemical_formula_structural   KFeNiH24C48(NO2)4
_chemical_formula_sum   'K4 Fe4 Ni4 H96 C192 N16 O32'
_cell_volume   5574.79419049
_cell_formula_units_Z   4
loop_
 _symmetry_equiv_pos_site_id
 _symmetry_equiv_pos_as_xyz
  1  'x, y, z'
loop_
 _atom_site_type_symbol
 _atom_site_label
 _atom_site_symmetry_multiplicity
 _atom_site_fract_x
 _atom_site_fract_y
 _atom_site_fract_z
 _atom_site_occupancy
 _atom_site_charge
  K  K1  1  0.000000  0.264890  0.750000  1.0  0.9192
  K  K2  1  0.500000  0.764890  0.750000  1.0  0.9192
  K  K3  1  0.000000  0.735110  0.250000  1.0  0.9183
  K  K4  1  0.500000  0.235110  0.250000  1.0  0.9183
  Fe  Fe5  1  0.500000  0.336180  0.750000  1.0  1.0536
  Fe  Fe6  1  0.000000  0.836180  0.750000  1.0  1.0536
  Fe  Fe7  1  0.500000  0.663820  0.250000  1.0  1.0536
  Fe  Fe8  1  0.000000  0.163820  0.250000  1.0  1.0536
  Ni  Ni9  1  0.500000  0.500000  0.000000  1.0  0.5544
  Ni  Ni10  1  0.000000  0.000000  0.000000  1.0  0.5544
  Ni  Ni11  1  0.500000  0.500000  0.500000  1.0  0.5544
  Ni  Ni12  1  0.000000  0.000000  0.500000  1.0  0.5544
  H  H13  1  0.942100  0.610000  0.039100  1.0  0.1322
  H  H14  1  0.010500  0.643200  0.967300  1.0  0.1278
  H  H15  1  0.513200  0.596300  0.854700  1.0  0.1283
  H  H16  1  0.762200  0.531100  0.852700  1.0  0.1232
  H  H17  1  0.996600  0.601600  0.885900  1.0  0.1029
  H  H18  1  0.875500  0.664300  0.836900  1.0  0.1102
  H  H19  1  0.331500  0.752700  0.855900  1.0  0.1155
  H  H20  1  0.453800  0.690000  0.905300  1.0  0.1274
  H  H21  1  0.248400  0.586000  0.146000  1.0  0.1111
  H  H22  1  0.055000  0.615700  0.198300  1.0  0.0993
  H  H23  1  0.617100  0.548200  0.133900  1.0  0.1213
  H  H24  1  0.809600  0.519200  0.081100  1.0  0.1129
  H  H25  1  0.442100  0.110000  0.039100  1.0  0.1322
  H  H26  1  0.510500  0.143200  0.967300  1.0  0.1278
  H  H27  1  0.013200  0.096300  0.854700  1.0  0.1283
  H  H28  1  0.262200  0.031100  0.852700  1.0  0.1232
  H  H29  1  0.496600  0.101600  0.885900  1.0  0.1029
  H  H30  1  0.375500  0.164300  0.836900  1.0  0.1102
  H  H31  1  0.831500  0.252700  0.855900  1.0  0.1155
  H  H32  1  0.953800  0.190000  0.905300  1.0  0.1274
  H  H33  1  0.748400  0.086000  0.146000  1.0  0.1111
  H  H34  1  0.555000  0.115700  0.198300  1.0  0.0993
  H  H35  1  0.117100  0.048200  0.133900  1.0  0.1213
  H  H36  1  0.309600  0.019200  0.081100  1.0  0.1129
  H  H37  1  0.057900  0.610000  0.460900  1.0  0.133
  H  H38  1  0.989500  0.643200  0.532700  1.0  0.1276
  H  H39  1  0.486800  0.596300  0.645300  1.0  0.1279
  H  H40  1  0.237800  0.531100  0.647300  1.0  0.121
  H  H41  1  0.003400  0.601600  0.614100  1.0  0.1031
  H  H42  1  0.124500  0.664300  0.663100  1.0  0.1102
  H  H43  1  0.668500  0.752700  0.644100  1.0  0.1153
  H  H44  1  0.546200  0.690000  0.594700  1.0  0.127
  H  H45  1  0.751600  0.586000  0.354000  1.0  0.1102
  H  H46  1  0.945000  0.615700  0.301700  1.0  0.0996
  H  H47  1  0.382900  0.548200  0.366100  1.0  0.1218
  H  H48  1  0.190400  0.519200  0.418900  1.0  0.1126
  H  H49  1  0.557900  0.110000  0.460900  1.0  0.133
  H  H50  1  0.489500  0.143200  0.532700  1.0  0.1276
  H  H51  1  0.986800  0.096300  0.645300  1.0  0.1279
  H  H52  1  0.737800  0.031100  0.647300  1.0  0.121
  H  H53  1  0.503400  0.101600  0.614100  1.0  0.1031
  H  H54  1  0.624500  0.164300  0.663100  1.0  0.1102
  H  H55  1  0.168500  0.252700  0.644100  1.0  0.1153
  H  H56  1  0.046200  0.190000  0.594700  1.0  0.127
  H  H57  1  0.251600  0.086000  0.354000  1.0  0.1102
  H  H58  1  0.445000  0.115700  0.301700  1.0  0.0996
  H  H59  1  0.882900  0.048200  0.366100  1.0  0.1218
  H  H60  1  0.690400  0.019200  0.418900  1.0  0.1126
  H  H61  1  0.057900  0.390000  0.960900  1.0  0.1327
  H  H62  1  0.989500  0.356800  0.032700  1.0  0.1273
  H  H63  1  0.486800  0.403700  0.145300  1.0  0.128
  H  H64  1  0.237800  0.468900  0.147300  1.0  0.121
  H  H65  1  0.003400  0.398400  0.114100  1.0  0.1026
  H  H66  1  0.124500  0.335700  0.163100  1.0  0.1102
  H  H67  1  0.668500  0.247300  0.144100  1.0  0.1147
  H  H68  1  0.546200  0.310000  0.094700  1.0  0.1271
  H  H69  1  0.751600  0.414000  0.854000  1.0  0.1102
  H  H70  1  0.945000  0.384300  0.801700  1.0  0.0997
  H  H71  1  0.382900  0.451800  0.866100  1.0  0.1215
  H  H72  1  0.190400  0.480800  0.918900  1.0  0.1127
  H  H73  1  0.557900  0.890000  0.960900  1.0  0.1327
  H  H74  1  0.489500  0.856800  0.032700  1.0  0.1273
  H  H75  1  0.986800  0.903700  0.145300  1.0  0.128
  H  H76  1  0.737800  0.968900  0.147300  1.0  0.121
  H  H77  1  0.503400  0.898400  0.114100  1.0  0.1026
  H  H78  1  0.624500  0.835700  0.163100  1.0  0.1102
  H  H79  1  0.168500  0.747300  0.144100  1.0  0.1147
  H  H80  1  0.046200  0.810000  0.094700  1.0  0.1271
  H  H81  1  0.251600  0.914000  0.854000  1.0  0.1102
  H  H82  1  0.445000  0.884300  0.801700  1.0  0.0997
  H  H83  1  0.882900  0.951800  0.866100  1.0  0.1215
  H  H84  1  0.690400  0.980800  0.918900  1.0  0.1127
  H  H85  1  0.942100  0.390000  0.539100  1.0  0.1323
  H  H86  1  0.010500  0.356800  0.467300  1.0  0.1269
  H  H87  1  0.513200  0.403700  0.354700  1.0  0.1282
  H  H88  1  0.762200  0.468900  0.352700  1.0  0.1233
  H  H89  1  0.996600  0.398400  0.385900  1.0  0.1031
  H  H90  1  0.875500  0.335700  0.336900  1.0  0.1104
  H  H91  1  0.331500  0.247300  0.355900  1.0  0.1154
  H  H92  1  0.453800  0.310000  0.405300  1.0  0.1271
  H  H93  1  0.248400  0.414000  0.646000  1.0  0.1112
  H  H94  1  0.055000  0.384300  0.698300  1.0  0.0997
  H  H95  1  0.617100  0.451800  0.633900  1.0  0.1213
  H  H96  1  0.809600  0.480800  0.581100  1.0  0.1127
  H  H97  1  0.442100  0.890000  0.539100  1.0  0.1323
  H  H98  1  0.510500  0.856800  0.467300  1.0  0.1269
  H  H99  1  0.013200  0.903700  0.354700  1.0  0.1282
  H  H100  1  0.262200  0.968900  0.352700  1.0  0.1233
  H  H101  1  0.496600  0.898400  0.385900  1.0  0.1031
  H  H102  1  0.375500  0.835700  0.336900  1.0  0.1104
  H  H103  1  0.831500  0.747300  0.355900  1.0  0.1154
  H  H104  1  0.953800  0.810000  0.405300  1.0  0.1271
  H  H105  1  0.748400  0.914000  0.646000  1.0  0.1112
  H  H106  1  0.555000  0.884300  0.698300  1.0  0.0997
  H  H107  1  0.117100  0.951800  0.633900  1.0  0.1213
  H  H108  1  0.309600  0.980800  0.581100  1.0  0.1127
  C  C109  1  0.168400  0.557200  0.033520  1.0  0.1969
  C  C110  1  0.036700  0.598200  0.022260  1.0  -0.1506
  C  C111  1  0.074500  0.616500  0.982900  1.0  -0.1609
  C  C112  1  0.233300  0.587100  0.969230  1.0  0.1982
  C  C113  1  0.318100  0.596400  0.930910  1.0  -0.1003
  C  C114  1  0.468100  0.567200  0.918590  1.0  0.196
  C  C115  1  0.549600  0.572400  0.876630  1.0  -0.1626
  C  C116  1  0.686000  0.536600  0.875560  1.0  -0.1616
  C  C117  1  0.694600  0.507700  0.916130  1.0  0.2185
  C  C118  1  0.180100  0.531700  0.073460  1.0  -0.0657
  C  C119  1  0.238300  0.638500  0.899990  1.0  0.034
  C  C120  1  0.065800  0.631800  0.879900  1.0  -0.0931
  C  C121  1  0.992300  0.670000  0.850300  1.0  -0.0014
  C  C122  1  0.085800  0.714000  0.841000  1.0  -0.1242
  C  C123  1  0.264000  0.722200  0.861900  1.0  -0.0506
  C  C124  1  0.338000  0.684400  0.891400  1.0  -0.074
  C  C125  1  0.008000  0.756600  0.807000  1.0  0.6102
  C  C126  1  0.050200  0.548600  0.108030  1.0  0.0779
  C  C127  1  0.122400  0.578300  0.143390  1.0  -0.0983
  C  C128  1  0.005600  0.596400  0.174700  1.0  -0.0206
  C  C129  1  0.818600  0.586180  0.171110  1.0  -0.1306
  C  C130  1  0.743000  0.556100  0.136140  1.0  -0.0505
  C  C131  1  0.859600  0.538400  0.104760  1.0  -0.0815
  C  C132  1  0.690300  0.609460  0.203040  1.0  0.6693
  C  C133  1  0.668400  0.057200  0.033520  1.0  0.1969
  C  C134  1  0.536700  0.098200  0.022260  1.0  -0.1506
  C  C135  1  0.574500  0.116500  0.982900  1.0  -0.1609
  C  C136  1  0.733300  0.087100  0.969230  1.0  0.1982
  C  C137  1  0.818100  0.096400  0.930910  1.0  -0.1003
  C  C138  1  0.968100  0.067200  0.918590  1.0  0.196
  C  C139  1  0.049600  0.072400  0.876630  1.0  -0.1626
  C  C140  1  0.186000  0.036600  0.875560  1.0  -0.1616
  C  C141  1  0.194600  0.007700  0.916130  1.0  0.2185
  C  C142  1  0.680100  0.031700  0.073460  1.0  -0.0657
  C  C143  1  0.738300  0.138500  0.899990  1.0  0.034
  C  C144  1  0.565800  0.131800  0.879900  1.0  -0.0931
  C  C145  1  0.492300  0.170000  0.850300  1.0  -0.0014
  C  C146  1  0.585800  0.214000  0.841000  1.0  -0.1242
  C  C147  1  0.764000  0.222200  0.861900  1.0  -0.0506
  C  C148  1  0.838000  0.184400  0.891400  1.0  -0.074
  C  C149  1  0.508000  0.256600  0.807000  1.0  0.6121
  C  C150  1  0.550200  0.048600  0.108030  1.0  0.0779
  C  C151  1  0.622400  0.078300  0.143390  1.0  -0.0983
  C  C152  1  0.505600  0.096400  0.174700  1.0  -0.0206
  C  C153  1  0.318600  0.086180  0.171110  1.0  -0.1306
  C  C154  1  0.243000  0.056100  0.136140  1.0  -0.0505
  C  C155  1  0.359600  0.038400  0.104760  1.0  -0.0815
  C  C156  1  0.190300  0.109460  0.203040  1.0  0.6693
  C  C157  1  0.831600  0.557200  0.466480  1.0  0.1972
  C  C158  1  0.963300  0.598200  0.477740  1.0  -0.1509
  C  C159  1  0.925500  0.616500  0.517100  1.0  -0.1597
  C  C160  1  0.766700  0.587100  0.530770  1.0  0.1977
  C  C161  1  0.681900  0.596400  0.569090  1.0  -0.1004
  C  C162  1  0.531900  0.567200  0.581410  1.0  0.1968
  C  C163  1  0.450400  0.572400  0.623370  1.0  -0.1627
  C  C164  1  0.314000  0.536600  0.624440  1.0  -0.1629
  C  C165  1  0.305400  0.507700  0.583870  1.0  0.2183
  C  C166  1  0.819900  0.531700  0.426540  1.0  -0.0673
  C  C167  1  0.761700  0.638500  0.600010  1.0  0.0331
  C  C168  1  0.934200  0.631800  0.620100  1.0  -0.0917
  C  C169  1  0.007700  0.670000  0.649700  1.0  -0.0008
  C  C170  1  0.914200  0.714000  0.659000  1.0  -0.1252
  C  C171  1  0.736000  0.722200  0.638100  1.0  -0.0504
  C  C172  1  0.662000  0.684400  0.608600  1.0  -0.074
  C  C173  1  0.992000  0.756600  0.693000  1.0  0.6105
  C  C174  1  0.949800  0.548600  0.391970  1.0  0.078
  C  C175  1  0.877600  0.578300  0.356610  1.0  -0.099
  C  C176  1  0.994400  0.596400  0.325300  1.0  -0.0196
  C  C177  1  0.181400  0.586180  0.328890  1.0  -0.1294
  C  C178  1  0.257000  0.556100  0.363860  1.0  -0.0498
  C  C179  1  0.140400  0.538400  0.395240  1.0  -0.0823
  C  C180  1  0.309700  0.609460  0.296960  1.0  0.6696
  C  C181  1  0.331600  0.057200  0.466480  1.0  0.1972
  C  C182  1  0.463300  0.098200  0.477740  1.0  -0.1509
  C  C183  1  0.425500  0.116500  0.517100  1.0  -0.1597
  C  C184  1  0.266700  0.087100  0.530770  1.0  0.1977
  C  C185  1  0.181900  0.096400  0.569090  1.0  -0.1004
  C  C186  1  0.031900  0.067200  0.581410  1.0  0.1968
  C  C187  1  0.950400  0.072400  0.623370  1.0  -0.1627
  C  C188  1  0.814000  0.036600  0.624440  1.0  -0.1629
  C  C189  1  0.805400  0.007700  0.583870  1.0  0.2183
  C  C190  1  0.319900  0.031700  0.426540  1.0  -0.0673
  C  C191  1  0.261700  0.138500  0.600010  1.0  0.0331
  C  C192  1  0.434200  0.131800  0.620100  1.0  -0.0917
  C  C193  1  0.507700  0.170000  0.649700  1.0  -0.0008
  C  C194  1  0.414200  0.214000  0.659000  1.0  -0.1252
  C  C195  1  0.236000  0.222200  0.638100  1.0  -0.0504
  C  C196  1  0.162000  0.184400  0.608600  1.0  -0.074
  C  C197  1  0.492000  0.256600  0.693000  1.0  0.6123
  C  C198  1  0.449800  0.048600  0.391970  1.0  0.078
  C  C199  1  0.377600  0.078300  0.356610  1.0  -0.099
  C  C200  1  0.494400  0.096400  0.325300  1.0  -0.0196
  C  C201  1  0.681400  0.086180  0.328890  1.0  -0.1294
  C  C202  1  0.757000  0.056100  0.363860  1.0  -0.0498
  C  C203  1  0.640400  0.038400  0.395240  1.0  -0.0823
  C  C204  1  0.809700  0.109460  0.296960  1.0  0.6696
  C  C205  1  0.831600  0.442800  0.966480  1.0  0.1981
  C  C206  1  0.963300  0.401800  0.977740  1.0  -0.1519
  C  C207  1  0.925500  0.383500  0.017100  1.0  -0.1628
  C  C208  1  0.766700  0.412900  0.030770  1.0  0.198
  C  C209  1  0.681900  0.403600  0.069090  1.0  -0.1014
  C  C210  1  0.531900  0.432800  0.081410  1.0  0.1971
  C  C211  1  0.450400  0.427600  0.123370  1.0  -0.1623
  C  C212  1  0.314000  0.463400  0.124440  1.0  -0.1625
  C  C213  1  0.305400  0.492300  0.083870  1.0  0.2187
  C  C214  1  0.819900  0.468300  0.926540  1.0  -0.067
  C  C215  1  0.761700  0.361500  0.100010  1.0  0.0329
  C  C216  1  0.934200  0.368200  0.120100  1.0  -0.0922
  C  C217  1  0.007700  0.330000  0.149700  1.0  -0.0009
  C  C218  1  0.914200  0.286000  0.159000  1.0  -0.1246
  C  C219  1  0.736000  0.277800  0.138100  1.0  -0.0488
  C  C220  1  0.662000  0.315600  0.108600  1.0  -0.0736
  C  C221  1  0.992000  0.243400  0.193000  1.0  0.61
  C  C222  1  0.949800  0.451400  0.891970  1.0  0.0778
  C  C223  1  0.877600  0.421700  0.856610  1.0  -0.0981
  C  C224  1  0.994400  0.403600  0.825300  1.0  -0.0201
  C  C225  1  0.181400  0.413820  0.828890  1.0  -0.1295
  C  C226  1  0.257000  0.443900  0.863860  1.0  -0.05
  C  C227  1  0.140400  0.461600  0.895240  1.0  -0.0824
  C  C228  1  0.309700  0.390540  0.796960  1.0  0.669
  C  C229  1  0.331600  0.942800  0.966480  1.0  0.1981
  C  C230  1  0.463300  0.901800  0.977740  1.0  -0.1519
  C  C231  1  0.425500  0.883500  0.017100  1.0  -0.1628
  C  C232  1  0.266700  0.912900  0.030770  1.0  0.198
  C  C233  1  0.181900  0.903600  0.069090  1.0  -0.1014
  C  C234  1  0.031900  0.932800  0.081410  1.0  0.1971
  C  C235  1  0.950400  0.927600  0.123370  1.0  -0.1623
  C  C236  1  0.814000  0.963400  0.124440  1.0  -0.1625
  C  C237  1  0.805400  0.992300  0.083870  1.0  0.2187
  C  C238  1  0.319900  0.968300  0.926540  1.0  -0.067
  C  C239  1  0.261700  0.861500  0.100010  1.0  0.0329
  C  C240  1  0.434200  0.868200  0.120100  1.0  -0.0922
  C  C241  1  0.507700  0.830000  0.149700  1.0  -0.0009
  C  C242  1  0.414200  0.786000  0.159000  1.0  -0.1246
  C  C243  1  0.236000  0.777800  0.138100  1.0  -0.0488
  C  C244  1  0.162000  0.815600  0.108600  1.0  -0.0736
  C  C245  1  0.492000  0.743400  0.193000  1.0  0.6118
  C  C246  1  0.449800  0.951400  0.891970  1.0  0.0778
  C  C247  1  0.377600  0.921700  0.856610  1.0  -0.0981
  C  C248  1  0.494400  0.903600  0.825300  1.0  -0.0201
  C  C249  1  0.681400  0.913820  0.828890  1.0  -0.1295
  C  C250  1  0.757000  0.943900  0.863860  1.0  -0.05
  C  C251  1  0.640400  0.961600  0.895240  1.0  -0.0824
  C  C252  1  0.809700  0.890540  0.796960  1.0  0.669
  C  C253  1  0.168400  0.442800  0.533520  1.0  0.1973
  C  C254  1  0.036700  0.401800  0.522260  1.0  -0.1496
  C  C255  1  0.074500  0.383500  0.482900  1.0  -0.1615
  C  C256  1  0.233300  0.412900  0.469230  1.0  0.1978
  C  C257  1  0.318100  0.403600  0.430910  1.0  -0.1011
  C  C258  1  0.468100  0.432800  0.418590  1.0  0.1966
  C  C259  1  0.549600  0.427600  0.376630  1.0  -0.1633
  C  C260  1  0.686000  0.463400  0.375560  1.0  -0.161
  C  C261  1  0.694600  0.492300  0.416130  1.0  0.2185
  C  C262  1  0.180100  0.468300  0.573460  1.0  -0.0659
  C  C263  1  0.238300  0.361500  0.399990  1.0  0.0336
  C  C264  1  0.065800  0.368200  0.379900  1.0  -0.0934
  C  C265  1  0.992300  0.330000  0.350300  1.0  -0.0016
  C  C266  1  0.085800  0.286000  0.341000  1.0  -0.1243
  C  C267  1  0.264000  0.277800  0.361900  1.0  -0.0491
  C  C268  1  0.338000  0.315600  0.391400  1.0  -0.0734
  C  C269  1  0.008000  0.243400  0.307000  1.0  0.61
  C  C270  1  0.050200  0.451400  0.608030  1.0  0.0779
  C  C271  1  0.122400  0.421700  0.643390  1.0  -0.0971
  C  C272  1  0.005600  0.403600  0.674700  1.0  -0.0212
  C  C273  1  0.818600  0.413820  0.671110  1.0  -0.1305
  C  C274  1  0.743000  0.443900  0.636140  1.0  -0.0509
  C  C275  1  0.859600  0.461600  0.604760  1.0  -0.0811
  C  C276  1  0.690300  0.390540  0.703040  1.0  0.6687
  C  C277  1  0.668400  0.942800  0.533520  1.0  0.1973
  C  C278  1  0.536700  0.901800  0.522260  1.0  -0.1496
  C  C279  1  0.574500  0.883500  0.482900  1.0  -0.1615
  C  C280  1  0.733300  0.912900  0.469230  1.0  0.1978
  C  C281  1  0.818100  0.903600  0.430910  1.0  -0.1011
  C  C282  1  0.968100  0.932800  0.418590  1.0  0.1966
  C  C283  1  0.049600  0.927600  0.376630  1.0  -0.1633
  C  C284  1  0.186000  0.963400  0.375560  1.0  -0.161
  C  C285  1  0.194600  0.992300  0.416130  1.0  0.2185
  C  C286  1  0.680100  0.968300  0.573460  1.0  -0.0659
  C  C287  1  0.738300  0.861500  0.399990  1.0  0.0336
  C  C288  1  0.565800  0.868200  0.379900  1.0  -0.0934
  C  C289  1  0.492300  0.830000  0.350300  1.0  -0.0016
  C  C290  1  0.585800  0.786000  0.341000  1.0  -0.1243
  C  C291  1  0.764000  0.777800  0.361900  1.0  -0.0491
  C  C292  1  0.838000  0.815600  0.391400  1.0  -0.0734
  C  C293  1  0.508000  0.743400  0.307000  1.0  0.6118
  C  C294  1  0.550200  0.951400  0.608030  1.0  0.0779
  C  C295  1  0.622400  0.921700  0.643390  1.0  -0.0971
  C  C296  1  0.505600  0.903600  0.674700  1.0  -0.0212
  C  C297  1  0.318600  0.913820  0.671110  1.0  -0.1305
  C  C298  1  0.243000  0.943900  0.636140  1.0  -0.0509
  C  C299  1  0.359600  0.961600  0.604760  1.0  -0.0811
  C  C300  1  0.190300  0.890540  0.703040  1.0  0.6687
  N  N301  1  0.289500  0.549990  0.000720  1.0  -0.4524
  N  N302  1  0.558200  0.526540  0.942400  1.0  -0.4088
  N  N303  1  0.789500  0.049990  0.000720  1.0  -0.4524
  N  N304  1  0.058200  0.026540  0.942400  1.0  -0.4088
  N  N305  1  0.710500  0.549990  0.499280  1.0  -0.4517
  N  N306  1  0.441800  0.526540  0.557600  1.0  -0.41
  N  N307  1  0.210500  0.049990  0.499280  1.0  -0.4517
  N  N308  1  0.941800  0.026540  0.557600  1.0  -0.41
  N  N309  1  0.710500  0.450010  0.999280  1.0  -0.451
  N  N310  1  0.441800  0.473460  0.057600  1.0  -0.4097
  N  N311  1  0.210500  0.950010  0.999280  1.0  -0.451
  N  N312  1  0.941800  0.973460  0.057600  1.0  -0.4097
  N  N313  1  0.289500  0.450010  0.500720  1.0  -0.4517
  N  N314  1  0.558200  0.473460  0.442400  1.0  -0.4088
  N  N315  1  0.789500  0.950010  0.500720  1.0  -0.4517
  N  N316  1  0.058200  0.973460  0.442400  1.0  -0.4088
  O  O317  1  0.117700  0.790300  0.793970  1.0  -0.6065
  O  O318  1  0.833300  0.748800  0.795900  1.0  -0.671
  O  O319  1  0.759900  0.640220  0.233470  1.0  -0.6374
  O  O320  1  0.518300  0.603080  0.200550  1.0  -0.5725
  O  O321  1  0.617700  0.290300  0.793970  1.0  -0.6065
  O  O322  1  0.333333  0.248800  0.795900  1.0  -0.6713
  O  O323  1  0.259900  0.140220  0.233470  1.0  -0.6374
  O  O324  1  0.018300  0.103080  0.200550  1.0  -0.5725
  O  O325  1  0.882300  0.790300  0.706030  1.0  -0.6077
  O  O326  1  0.166700  0.748800  0.704100  1.0  -0.6715
  O  O327  1  0.240100  0.640220  0.266530  1.0  -0.637
  O  O328  1  0.481700  0.603080  0.299450  1.0  -0.5727
  O  O329  1  0.382300  0.290300  0.706030  1.0  -0.6077
  O  O330  1  0.666667  0.248800  0.704100  1.0  -0.6717
  O  O331  1  0.740100  0.140220  0.266530  1.0  -0.637
  O  O332  1  0.981700  0.103080  0.299450  1.0  -0.5727
  O  O333  1  0.882300  0.209700  0.206030  1.0  -0.6081
  O  O334  1  0.166700  0.251200  0.204100  1.0  -0.6707
  O  O335  1  0.240100  0.359780  0.766530  1.0  -0.6376
  O  O336  1  0.481700  0.396920  0.799450  1.0  -0.5723
  O  O337  1  0.382300  0.709700  0.206030  1.0  -0.6081
  O  O338  1  0.666667  0.751200  0.204100  1.0  -0.671
  O  O339  1  0.740100  0.859780  0.766530  1.0  -0.6376
  O  O340  1  0.981700  0.896920  0.799450  1.0  -0.5723
  O  O341  1  0.117700  0.209700  0.293970  1.0  -0.6065
  O  O342  1  0.833300  0.251200  0.295900  1.0  -0.6707
  O  O343  1  0.759900  0.359780  0.733470  1.0  -0.6372
  O  O344  1  0.518300  0.396920  0.700550  1.0  -0.5722
  O  O345  1  0.617700  0.709700  0.293970  1.0  -0.6065
  O  O346  1  0.333333  0.751200  0.295900  1.0  -0.6711
  O  O347  1  0.259900  0.859780  0.733470  1.0  -0.6372
  O  O348  1  0.018300  0.896920  0.700550  1.0  -0.5722
