# generated using pymatgen
data_VH6C12O5
_symmetry_space_group_name_H-M   'P 1'
_cell_length_a   6.77970000
_cell_length_b   7.50770000
_cell_length_c   12.83250000
_cell_angle_alpha   107.00900000
_cell_angle_beta   103.45400000
_cell_angle_gamma   90.00000000
_symmetry_Int_Tables_number   1
_chemical_formula_structural   VH6C12O5
_chemical_formula_sum   'V2 H12 C24 O10'
_cell_volume   605.83330243
_cell_formula_units_Z   2
loop_
 _symmetry_equiv_pos_site_id
 _symmetry_equiv_pos_as_xyz
  1  'x, y, z'
loop_
 _atom_site_type_symbol
 _atom_site_label
 _atom_site_symmetry_multiplicity
 _atom_site_fract_x
 _atom_site_fract_y
 _atom_site_fract_z
 _atom_site_occupancy
 _atom_site_charge
  V  V1  1  0.000000  0.000000  0.000000  1.0  1.8324
  V  V2  1  0.500000  0.000000  0.000000  1.0  1.8321
  H  H3  1  0.364170  0.965640  0.656830  1.0  0.13
  H  H4  1  0.379880  0.861930  0.471340  1.0  0.1202
  H  H5  1  0.786580  0.185720  0.746590  1.0  0.1277
  H  H6  1  0.135830  0.308820  0.343170  1.0  0.1288
  H  H7  1  0.120120  0.390600  0.528660  1.0  0.1202
  H  H8  1  0.713420  0.439130  0.253410  1.0  0.1258
  H  H9  1  0.635830  0.034360  0.343170  1.0  0.1295
  H  H10  1  0.619230  0.140610  0.533570  1.0  0.1169
  H  H11  1  0.213420  0.814280  0.253410  1.0  0.1265
  H  H12  1  0.864170  0.691180  0.656830  1.0  0.1305
  H  H13  1  0.880770  0.607040  0.466430  1.0  0.116
  H  H14  1  0.278920  0.556690  0.742830  1.0  0.1347
  C  C15  1  0.082800  0.087900  0.707800  1.0  -0.1128
  C  C16  1  0.201200  0.000100  0.626200  1.0  -0.0757
  C  C17  1  0.217400  0.895200  0.438400  1.0  -0.1331
  C  C18  1  0.152800  0.093400  0.822800  1.0  0.7099
  C  C19  1  0.094400  0.967000  0.514000  1.0  0.0756
  C  C20  1  0.872200  0.132100  0.678200  1.0  -0.0873
  C  C21  1  0.417200  0.380100  0.292200  1.0  -0.1136
  C  C22  1  0.298800  0.373900  0.373800  1.0  -0.0867
  C  C23  1  0.282600  0.456800  0.561600  1.0  -0.1383
  C  C24  1  0.347200  0.270600  0.177200  1.0  0.7101
  C  C25  1  0.405600  0.453000  0.486000  1.0  0.0752
  C  C26  1  0.627800  0.453900  0.321800  1.0  -0.0838
  C  C27  1  0.917200  0.912100  0.292200  1.0  -0.1126
  C  C28  1  0.798800  0.999900  0.373800  1.0  -0.0785
  C  C29  1  0.782600  0.104800  0.561600  1.0  -0.1418
  C  C30  1  0.847200  0.906600  0.177200  1.0  0.7097
  C  C31  1  0.905600  0.033000  0.486000  1.0  0.0676
  C  C32  1  0.127800  0.867900  0.321800  1.0  -0.0724
  C  C33  1  0.582800  0.619900  0.707800  1.0  -0.1118
  C  C34  1  0.701200  0.626100  0.626200  1.0  -0.0656
  C  C35  1  0.717400  0.543200  0.438400  1.0  -0.1361
  C  C36  1  0.652800  0.729400  0.822800  1.0  0.7094
  C  C37  1  0.594400  0.547000  0.514000  1.0  0.0676
  C  C38  1  0.372200  0.546100  0.678200  1.0  -0.0778
  O  O39  1  0.093800  0.151900  0.913800  1.0  -0.62
  O  O40  1  0.335600  0.068300  0.856600  1.0  -0.6212
  O  O41  1  0.406200  0.238100  0.086200  1.0  -0.6201
  O  O42  1  0.164400  0.211700  0.143400  1.0  -0.62
  O  O43  1  0.906200  0.848100  0.086200  1.0  -0.6201
  O  O44  1  0.664400  0.931700  0.143400  1.0  -0.6204
  O  O45  1  0.593800  0.761900  0.913800  1.0  -0.6289
  O  O46  1  0.835600  0.788300  0.856600  1.0  -0.6214
  O  O47  1  0.250000  0.879000  0.000000  1.0  -0.8511
  O  O48  1  0.750000  0.121000  0.000000  1.0  -0.845
