# generated using pymatgen
data_CaH8(C3O2)2
_symmetry_space_group_name_H-M   'P 1'
_cell_length_a   7.77900000
_cell_length_b   14.85500000
_cell_length_c   15.33900000
_cell_angle_alpha   90.00000000
_cell_angle_beta   90.00000000
_cell_angle_gamma   98.63100000
_symmetry_Int_Tables_number   1
_chemical_formula_structural   CaH8(C3O2)2
_chemical_formula_sum   'Ca4 H32 C24 O16'
_cell_volume   1752.45620131
_cell_formula_units_Z   4
loop_
 _symmetry_equiv_pos_site_id
 _symmetry_equiv_pos_as_xyz
  1  'x, y, z'
loop_
 _atom_site_type_symbol
 _atom_site_label
 _atom_site_symmetry_multiplicity
 _atom_site_fract_x
 _atom_site_fract_y
 _atom_site_fract_z
 _atom_site_occupancy
 _atom_site_charge
  Ca  Ca1  1  0.548890  0.220530  0.719290  1.0  1.6035
  Ca  Ca2  1  0.951110  0.779470  0.219290  1.0  1.6034
  Ca  Ca3  1  0.451110  0.779470  0.280710  1.0  1.6047
  Ca  Ca4  1  0.048890  0.220530  0.780710  1.0  1.6047
  H  H5  1  0.772500  0.042900  0.946700  1.0  0.116
  H  H6  1  0.761700  0.139000  0.985900  1.0  0.116
  H  H7  1  0.538700  0.912200  0.982500  1.0  0.0549
  H  H8  1  0.408900  0.959600  0.927200  1.0  0.0687
  H  H9  1  0.300400  0.378900  0.958300  1.0  0.1008
  H  H10  1  0.461700  0.342900  0.998900  1.0  0.1173
  H  H11  1  0.486400  0.511100  0.908700  1.0  0.0593
  H  H12  1  0.643800  0.475500  0.954000  1.0  0.0606
  H  H13  1  0.727500  0.957100  0.446700  1.0  0.1158
  H  H14  1  0.738300  0.861000  0.485900  1.0  0.1172
  H  H15  1  0.961300  0.087800  0.482500  1.0  0.0568
  H  H16  1  0.091100  0.040400  0.427200  1.0  0.0693
  H  H17  1  0.199600  0.621100  0.458300  1.0  0.1009
  H  H18  1  0.038300  0.657100  0.498900  1.0  0.1171
  H  H19  1  0.013600  0.488900  0.408700  1.0  0.0596
  H  H20  1  0.856200  0.524500  0.454000  1.0  0.0606
  H  H21  1  0.227500  0.957100  0.053300  1.0  0.1159
  H  H22  1  0.238300  0.861000  0.014100  1.0  0.1167
  H  H23  1  0.461300  0.087800  0.017500  1.0  0.0562
  H  H24  1  0.591100  0.040400  0.072800  1.0  0.0688
  H  H25  1  0.699600  0.621100  0.041700  1.0  0.101
  H  H26  1  0.538300  0.657100  0.001100  1.0  0.1156
  H  H27  1  0.513600  0.488900  0.091300  1.0  0.0615
  H  H28  1  0.356200  0.524500  0.046000  1.0  0.0606
  H  H29  1  0.272500  0.042900  0.553300  1.0  0.1165
  H  H30  1  0.261700  0.139000  0.514100  1.0  0.1165
  H  H31  1  0.038700  0.912200  0.517500  1.0  0.0545
  H  H32  1  0.908900  0.959600  0.572800  1.0  0.0688
  H  H33  1  0.800400  0.378900  0.541700  1.0  0.1005
  H  H34  1  0.961700  0.342900  0.501100  1.0  0.1154
  H  H35  1  0.986400  0.511100  0.591300  1.0  0.0604
  H  H36  1  0.143800  0.475500  0.546000  1.0  0.0601
  C  C37  1  0.646600  0.120210  0.868130  1.0  0.7868
  C  C38  1  0.695700  0.087920  0.955400  1.0  -0.3491
  C  C39  1  0.546000  0.046190  0.014480  1.0  -0.064
  C  C40  1  0.454100  0.331560  0.866280  1.0  0.7915
  C  C41  1  0.424100  0.378210  0.951300  1.0  -0.3289
  C  C42  1  0.519600  0.476320  0.957800  1.0  -0.0728
  C  C43  1  0.853400  0.879790  0.368130  1.0  0.7872
  C  C44  1  0.804300  0.912080  0.455400  1.0  -0.3493
  C  C45  1  0.954000  0.953810  0.514480  1.0  -0.0628
  C  C46  1  0.045900  0.668440  0.366280  1.0  0.7918
  C  C47  1  0.075900  0.621790  0.451300  1.0  -0.3299
  C  C48  1  0.980400  0.523680  0.457800  1.0  -0.0708
  C  C49  1  0.353400  0.879790  0.131870  1.0  0.7858
  C  C50  1  0.304300  0.912080  0.044600  1.0  -0.35
  C  C51  1  0.454000  0.953810  0.985520  1.0  -0.0625
  C  C52  1  0.545900  0.668440  0.133720  1.0  0.7899
  C  C53  1  0.575900  0.621790  0.048700  1.0  -0.3285
  C  C54  1  0.480400  0.523680  0.042200  1.0  -0.0716
  C  C55  1  0.146600  0.120210  0.631870  1.0  0.7848
  C  C56  1  0.195700  0.087920  0.544600  1.0  -0.3507
  C  C57  1  0.046000  0.046190  0.485520  1.0  -0.0636
  C  C58  1  0.954100  0.331560  0.633720  1.0  0.789
  C  C59  1  0.924100  0.378210  0.548700  1.0  -0.3268
  C  C60  1  0.019600  0.476320  0.542200  1.0  -0.0717
  O  O61  1  0.766400  0.150020  0.815300  1.0  -0.8516
  O  O62  1  0.489300  0.119070  0.847720  1.0  -0.676
  O  O63  1  0.609100  0.330400  0.841800  1.0  -0.6981
  O  O64  1  0.327400  0.295590  0.821380  1.0  -0.8373
  O  O65  1  0.733600  0.849980  0.315300  1.0  -0.8509
  O  O66  1  0.010700  0.880930  0.347720  1.0  -0.6743
  O  O67  1  0.890900  0.669600  0.341800  1.0  -0.6925
  O  O68  1  0.172600  0.704410  0.321380  1.0  -0.8368
  O  O69  1  0.233600  0.849980  0.184700  1.0  -0.8534
  O  O70  1  0.510700  0.880930  0.152280  1.0  -0.677
  O  O71  1  0.390900  0.669600  0.158200  1.0  -0.6952
  O  O72  1  0.672600  0.704410  0.178620  1.0  -0.8368
  O  O73  1  0.266400  0.150020  0.684700  1.0  -0.8531
  O  O74  1  0.989300  0.119070  0.652280  1.0  -0.6791
  O  O75  1  0.109100  0.330400  0.658200  1.0  -0.7006
  O  O76  1  0.827400  0.295590  0.678620  1.0  -0.8373
