# generated using pymatgen
data_CaH8(C3O2)2
_symmetry_space_group_name_H-M   'P 1'
_cell_length_a   7.75360000
_cell_length_b   15.07360000
_cell_length_c   16.80080000
_cell_angle_alpha   90.00000000
_cell_angle_beta   99.79900000
_cell_angle_gamma   90.00000000
_symmetry_Int_Tables_number   1
_chemical_formula_structural   CaH8(C3O2)2
_chemical_formula_sum   'Ca4 H32 C24 O16'
_cell_volume   1934.94083048
_cell_formula_units_Z   4
loop_
 _symmetry_equiv_pos_site_id
 _symmetry_equiv_pos_as_xyz
  1  'x, y, z'
loop_
 _atom_site_type_symbol
 _atom_site_label
 _atom_site_symmetry_multiplicity
 _atom_site_fract_x
 _atom_site_fract_y
 _atom_site_fract_z
 _atom_site_occupancy
 _atom_site_charge
  Ca  Ca1  1  0.504770  0.219110  0.249500  1.0  1.6105
  Ca  Ca2  1  0.995230  0.719110  0.750500  1.0  1.6105
  Ca  Ca3  1  0.495230  0.780890  0.750500  1.0  1.61
  Ca  Ca4  1  0.004770  0.280890  0.249500  1.0  1.6099
  H  H5  1  0.616200  0.492800  0.134500  1.0  0.1166
  H  H6  1  0.736000  0.440100  0.087000  1.0  0.1056
  H  H7  1  0.629500  0.543400  0.964500  1.0  0.0677
  H  H8  1  0.512900  0.592300  0.014400  1.0  0.0632
  H  H9  1  0.379300  0.493700  0.363100  1.0  0.1181
  H  H10  1  0.271400  0.438100  0.413500  1.0  0.1084
  H  H11  1  0.634700  0.473100  0.457800  1.0  0.0629
  H  H12  1  0.543200  0.409800  0.508400  1.0  0.0666
  H  H13  1  0.883800  0.992800  0.865500  1.0  0.1153
  H  H14  1  0.764000  0.940100  0.913000  1.0  0.1062
  H  H15  1  0.870500  0.043400  0.035500  1.0  0.0646
  H  H16  1  0.987100  0.092300  0.985600  1.0  0.0616
  H  H17  1  0.120700  0.993700  0.636900  1.0  0.119
  H  H18  1  0.228600  0.938100  0.586500  1.0  0.1068
  H  H19  1  0.865300  0.973100  0.542200  1.0  0.0624
  H  H20  1  0.956800  0.909800  0.491600  1.0  0.0622
  H  H21  1  0.383800  0.507200  0.865500  1.0  0.1152
  H  H22  1  0.264000  0.559900  0.913000  1.0  0.1061
  H  H23  1  0.370500  0.456600  0.035500  1.0  0.0649
  H  H24  1  0.487100  0.407700  0.985600  1.0  0.0592
  H  H25  1  0.620700  0.506300  0.636900  1.0  0.1191
  H  H26  1  0.728600  0.561900  0.586500  1.0  0.1078
  H  H27  1  0.365300  0.526900  0.542200  1.0  0.0627
  H  H28  1  0.456800  0.590200  0.491600  1.0  0.0644
  H  H29  1  0.116200  0.007200  0.134500  1.0  0.1167
  H  H30  1  0.236000  0.059900  0.087000  1.0  0.1055
  H  H31  1  0.129500  0.956600  0.964500  1.0  0.0674
  H  H32  1  0.012900  0.907700  0.014400  1.0  0.0623
  H  H33  1  0.879300  0.006300  0.363100  1.0  0.1181
  H  H34  1  0.771400  0.061900  0.413500  1.0  0.1093
  H  H35  1  0.134700  0.026900  0.457800  1.0  0.0626
  H  H36  1  0.043200  0.090200  0.508400  1.0  0.0656
  C  C37  1  0.589840  0.361970  0.147540  1.0  0.7804
  C  C38  1  0.619020  0.443530  0.098510  1.0  -0.3292
  C  C39  1  0.485710  0.456940  0.021750  1.0  -0.0651
  C  C40  1  0.418100  0.363260  0.350590  1.0  0.7776
  C  C41  1  0.386090  0.444550  0.399900  1.0  -0.3292
  C  C42  1  0.524490  0.461470  0.474550  1.0  -0.0701
  C  C43  1  0.910160  0.861970  0.852460  1.0  0.7817
  C  C44  1  0.880980  0.943530  0.901490  1.0  -0.3294
  C  C45  1  0.014290  0.956940  0.978250  1.0  -0.0663
  C  C46  1  0.081900  0.863260  0.649410  1.0  0.7777
  C  C47  1  0.113910  0.944550  0.600100  1.0  -0.3285
  C  C48  1  0.975510  0.961470  0.525450  1.0  -0.0701
  C  C49  1  0.410160  0.638030  0.852460  1.0  0.7939
  C  C50  1  0.380980  0.556470  0.901490  1.0  -0.3287
  C  C51  1  0.514290  0.543060  0.978250  1.0  -0.0728
  C  C52  1  0.581900  0.636740  0.649410  1.0  0.7771
  C  C53  1  0.613910  0.555450  0.600100  1.0  -0.329
  C  C54  1  0.475510  0.538530  0.525450  1.0  -0.0721
  C  C55  1  0.089840  0.138030  0.147540  1.0  0.7924
  C  C56  1  0.119020  0.056470  0.098510  1.0  -0.3299
  C  C57  1  0.985710  0.043060  0.021750  1.0  -0.0708
  C  C58  1  0.918100  0.136740  0.350590  1.0  0.7781
  C  C59  1  0.886090  0.055450  0.399900  1.0  -0.3286
  C  C60  1  0.024490  0.038530  0.474550  1.0  -0.0716
  O  O61  1  0.437010  0.332370  0.144280  1.0  -0.6915
  O  O62  1  0.719190  0.326740  0.191690  1.0  -0.8459
  O  O63  1  0.289840  0.327180  0.306620  1.0  -0.8524
  O  O64  1  0.571930  0.334610  0.354210  1.0  -0.6935
  O  O65  1  0.062990  0.832370  0.855720  1.0  -0.6926
  O  O66  1  0.780810  0.826740  0.808310  1.0  -0.8475
  O  O67  1  0.210160  0.827180  0.693380  1.0  -0.8514
  O  O68  1  0.928070  0.834610  0.645790  1.0  -0.6935
  O  O69  1  0.562990  0.667630  0.855720  1.0  -0.687
  O  O70  1  0.280810  0.673260  0.808310  1.0  -0.8467
  O  O71  1  0.710160  0.672820  0.693380  1.0  -0.8516
  O  O72  1  0.428070  0.665390  0.645790  1.0  -0.6925
  O  O73  1  0.937010  0.167630  0.144280  1.0  -0.685
  O  O74  1  0.219190  0.173260  0.191690  1.0  -0.8457
  O  O75  1  0.789840  0.172820  0.306620  1.0  -0.852
  O  O76  1  0.071930  0.165390  0.354210  1.0  -0.6938
