# generated using pymatgen
data_CdH11C11NO6
_symmetry_space_group_name_H-M   'P 1'
_cell_length_a   10.09570000
_cell_length_b   12.96060000
_cell_length_c   14.35180000
_cell_angle_alpha   90.00000000
_cell_angle_beta   90.00000000
_cell_angle_gamma   105.77000000
_symmetry_Int_Tables_number   1
_chemical_formula_structural   CdH11C11NO6
_chemical_formula_sum   'Cd4 H44 C44 N4 O24'
_cell_volume   1807.19773646
_cell_formula_units_Z   4
loop_
 _symmetry_equiv_pos_site_id
 _symmetry_equiv_pos_as_xyz
  1  'x, y, z'
loop_
 _atom_site_type_symbol
 _atom_site_label
 _atom_site_symmetry_multiplicity
 _atom_site_fract_x
 _atom_site_fract_y
 _atom_site_fract_z
 _atom_site_occupancy
 _atom_site_charge
  Cd  Cd1  1  0.908770  0.060470  0.933770  1.0  1.0387
  Cd  Cd2  1  0.591230  0.439530  0.433770  1.0  1.0373
  Cd  Cd3  1  0.091230  0.939530  0.066230  1.0  1.0372
  Cd  Cd4  1  0.408770  0.560470  0.566230  1.0  1.0386
  H  H5  1  0.655800  0.243500  0.688100  1.0  0.1036
  H  H6  1  0.268100  0.247300  0.743200  1.0  0.1062
  H  H7  1  0.453300  0.073400  0.901700  1.0  0.1113
  H  H8  1  0.844200  0.256500  0.188100  1.0  0.1042
  H  H9  1  0.231900  0.252700  0.243200  1.0  0.1065
  H  H10  1  0.046700  0.426600  0.401700  1.0  0.1113
  H  H11  1  0.344200  0.756500  0.311900  1.0  0.1047
  H  H12  1  0.731900  0.752700  0.256800  1.0  0.1064
  H  H13  1  0.546700  0.926600  0.098300  1.0  0.1112
  H  H14  1  0.155800  0.743500  0.811900  1.0  0.1045
  H  H15  1  0.768100  0.747300  0.756800  1.0  0.1059
  H  H16  1  0.953300  0.573400  0.598300  1.0  0.1111
  H  H17  1  0.100800  0.293700  0.595800  1.0  0.2184
  H  H18  1  0.104700  0.406400  0.593200  1.0  0.1624
  H  H19  1  0.014100  0.404900  0.736700  1.0  0.1218
  H  H20  1  0.162500  0.388800  0.735700  1.0  0.1286
  H  H21  1  0.034000  0.289900  0.748900  1.0  0.1237
  H  H22  1  0.866600  0.244300  0.611800  1.0  0.124
  H  H23  1  0.915300  0.300400  0.516200  1.0  0.1095
  H  H24  1  0.871600  0.365200  0.597400  1.0  0.1223
  H  H25  1  0.399200  0.206300  0.095800  1.0  0.218
  H  H26  1  0.395300  0.093600  0.093200  1.0  0.1638
  H  H27  1  0.485900  0.095100  0.236700  1.0  0.1217
  H  H28  1  0.337500  0.111200  0.235700  1.0  0.1294
  H  H29  1  0.466000  0.210100  0.248900  1.0  0.1217
  H  H30  1  0.633400  0.255700  0.111800  1.0  0.1253
  H  H31  1  0.584700  0.199600  0.016200  1.0  0.1124
  H  H32  1  0.628400  0.134800  0.097400  1.0  0.1241
  H  H33  1  0.899200  0.706300  0.404200  1.0  0.2167
  H  H34  1  0.895300  0.593600  0.406800  1.0  0.1635
  H  H35  1  0.985900  0.595100  0.263300  1.0  0.1225
  H  H36  1  0.837500  0.611200  0.264300  1.0  0.128
  H  H37  1  0.966000  0.710100  0.251100  1.0  0.1211
  H  H38  1  0.133400  0.755700  0.388200  1.0  0.1258
  H  H39  1  0.084700  0.699600  0.483800  1.0  0.1114
  H  H40  1  0.128400  0.634800  0.402600  1.0  0.1239
  H  H41  1  0.600800  0.793700  0.904200  1.0  0.2184
  H  H42  1  0.604700  0.906400  0.906800  1.0  0.1628
  H  H43  1  0.514100  0.904900  0.763300  1.0  0.1219
  H  H44  1  0.662500  0.888800  0.764300  1.0  0.1296
  H  H45  1  0.534000  0.789900  0.751100  1.0  0.1218
  H  H46  1  0.366600  0.744300  0.888200  1.0  0.124
  H  H47  1  0.415300  0.800400  0.983800  1.0  0.1079
  H  H48  1  0.371600  0.865200  0.902600  1.0  0.1219
  C  C49  1  0.704300  0.126000  0.830000  1.0  0.7057
  C  C50  1  0.469900  0.337300  0.625800  1.0  0.7374
  C  C51  1  0.210700  0.112900  0.887900  1.0  0.7155
  C  C52  1  0.575400  0.155300  0.800500  1.0  -0.1399
  C  C53  1  0.577200  0.222200  0.724800  1.0  -0.0129
  C  C54  1  0.462600  0.257700  0.703200  1.0  -0.1175
  C  C55  1  0.344600  0.223000  0.756900  1.0  -0.008
  C  C56  1  0.339000  0.152900  0.830540  1.0  -0.1419
  C  C57  1  0.455800  0.119900  0.852010  1.0  -0.0644
  C  C58  1  0.795700  0.374000  0.330000  1.0  0.7058
  C  C59  1  0.030100  0.162700  0.125800  1.0  0.7371
  C  C60  1  0.289300  0.387100  0.387900  1.0  0.716
  C  C61  1  0.924600  0.344700  0.300500  1.0  -0.1409
  C  C62  1  0.922800  0.277800  0.224800  1.0  -0.0109
  C  C63  1  0.037400  0.242300  0.203200  1.0  -0.1175
  C  C64  1  0.155400  0.277000  0.256900  1.0  -0.0071
  C  C65  1  0.161000  0.347100  0.330540  1.0  -0.1417
  C  C66  1  0.044200  0.380100  0.352010  1.0  -0.0648
  C  C67  1  0.295700  0.874000  0.170000  1.0  0.7046
  C  C68  1  0.530100  0.662700  0.374200  1.0  0.7349
  C  C69  1  0.789300  0.887100  0.112100  1.0  0.7164
  C  C70  1  0.424600  0.844700  0.199500  1.0  -0.1409
  C  C71  1  0.422800  0.777800  0.275200  1.0  -0.011
  C  C72  1  0.537400  0.742300  0.296800  1.0  -0.119
  C  C73  1  0.655400  0.777000  0.243100  1.0  -0.0072
  C  C74  1  0.661000  0.847100  0.169460  1.0  -0.1415
  C  C75  1  0.544200  0.880100  0.147990  1.0  -0.0654
  C  C76  1  0.204300  0.626000  0.670000  1.0  0.705
  C  C77  1  0.969900  0.837300  0.874200  1.0  0.7353
  C  C78  1  0.710700  0.612900  0.612100  1.0  0.7158
  C  C79  1  0.075400  0.655300  0.699500  1.0  -0.1398
  C  C80  1  0.077200  0.722200  0.775200  1.0  -0.0129
  C  C81  1  0.962600  0.757700  0.796800  1.0  -0.1197
  C  C82  1  0.844600  0.723000  0.743100  1.0  -0.008
  C  C83  1  0.839000  0.652900  0.669460  1.0  -0.1419
  C  C84  1  0.955800  0.619900  0.647990  1.0  -0.0652
  C  C85  1  0.068200  0.357800  0.718300  1.0  -0.2176
  C  C86  1  0.915600  0.310200  0.582500  1.0  -0.1995
  C  C87  1  0.431800  0.142200  0.218300  1.0  -0.2181
  C  C88  1  0.584400  0.189800  0.082500  1.0  -0.1995
  C  C89  1  0.931800  0.642200  0.281700  1.0  -0.2174
  C  C90  1  0.084400  0.689800  0.417500  1.0  -0.1983
  C  C91  1  0.568200  0.857800  0.781700  1.0  -0.2177
  C  C92  1  0.415600  0.810200  0.917500  1.0  -0.1991
  N  N93  1  0.058800  0.342200  0.616600  1.0  -0.0595
  N  N94  1  0.441200  0.157800  0.116600  1.0  -0.0571
  N  N95  1  0.941200  0.657800  0.383400  1.0  -0.0586
  N  N96  1  0.558800  0.842200  0.883400  1.0  -0.0595
  O  O97  1  0.696100  0.068600  0.901480  1.0  -0.6096
  O  O98  1  0.810500  0.158500  0.786800  1.0  -0.5813
  O  O99  1  0.547000  0.332500  0.558320  1.0  -0.613
  O  O100  1  0.399400  0.402840  0.636650  1.0  -0.6279
  O  O101  1  0.104300  0.137970  0.861830  1.0  -0.5862
  O  O102  1  0.218900  0.057000  0.956890  1.0  -0.6515
  O  O103  1  0.803900  0.431400  0.401480  1.0  -0.6095
  O  O104  1  0.689500  0.341500  0.286800  1.0  -0.5822
  O  O105  1  0.953000  0.167500  0.058320  1.0  -0.6134
  O  O106  1  0.100600  0.097160  0.136650  1.0  -0.627
  O  O107  1  0.395700  0.362030  0.361830  1.0  -0.5867
  O  O108  1  0.281100  0.443000  0.456890  1.0  -0.6503
  O  O109  1  0.303900  0.931400  0.098520  1.0  -0.6085
  O  O110  1  0.189500  0.841500  0.213200  1.0  -0.5818
  O  O111  1  0.453000  0.667500  0.441680  1.0  -0.6146
  O  O112  1  0.600600  0.597160  0.363350  1.0  -0.6267
  O  O113  1  0.895700  0.862030  0.138170  1.0  -0.5872
  O  O114  1  0.781100  0.943000  0.043110  1.0  -0.6491
  O  O115  1  0.196100  0.568600  0.598520  1.0  -0.6096
  O  O116  1  0.310500  0.658500  0.713200  1.0  -0.5811
  O  O117  1  0.047000  0.832500  0.941680  1.0  -0.6137
  O  O118  1  0.899400  0.902840  0.863350  1.0  -0.6275
  O  O119  1  0.604300  0.637970  0.638170  1.0  -0.5869
  O  O120  1  0.718900  0.557000  0.543110  1.0  -0.649
