# generated using pymatgen
data_CdH3(C3O2)3
_symmetry_space_group_name_H-M   'P 1'
_cell_length_a   10.09900000
_cell_length_b   14.36300000
_cell_length_c   12.97500000
_cell_angle_alpha   90.00000000
_cell_angle_beta   105.69000000
_cell_angle_gamma   90.00000000
_symmetry_Int_Tables_number   1
_chemical_formula_structural   CdH3(C3O2)3
_chemical_formula_sum   'Cd4 H12 C36 O24'
_cell_volume   1811.92178473
_cell_formula_units_Z   4
loop_
 _symmetry_equiv_pos_site_id
 _symmetry_equiv_pos_as_xyz
  1  'x, y, z'
loop_
 _atom_site_type_symbol
 _atom_site_label
 _atom_site_symmetry_multiplicity
 _atom_site_fract_x
 _atom_site_fract_y
 _atom_site_fract_z
 _atom_site_occupancy
 _atom_site_charge
  Cd  Cd1  1  0.091200  0.066280  0.439470  1.0  1.0708
  Cd  Cd2  1  0.408800  0.566280  0.060530  1.0  1.0722
  Cd  Cd3  1  0.908800  0.933720  0.560530  1.0  1.0717
  Cd  Cd4  1  0.591200  0.433720  0.939470  1.0  1.0704
  H  H5  1  0.344000  0.310000  0.255000  1.0  0.1422
  H  H6  1  0.543000  0.093000  0.427000  1.0  0.143
  H  H7  1  0.730000  0.254000  0.253000  1.0  0.1508
  H  H8  1  0.156000  0.810000  0.245000  1.0  0.143
  H  H9  1  0.957000  0.593000  0.073000  1.0  0.1436
  H  H10  1  0.770000  0.754000  0.247000  1.0  0.151
  H  H11  1  0.656000  0.690000  0.745000  1.0  0.1421
  H  H12  1  0.457000  0.907000  0.573000  1.0  0.1439
  H  H13  1  0.270000  0.746000  0.747000  1.0  0.1513
  H  H14  1  0.844000  0.190000  0.755000  1.0  0.1422
  H  H15  1  0.043000  0.407000  0.927000  1.0  0.1432
  H  H16  1  0.230000  0.246000  0.753000  1.0  0.1507
  C  C17  1  0.529900  0.374400  0.162600  1.0  0.7515
  C  C18  1  0.655200  0.242800  0.277100  1.0  0.1331
  C  C19  1  0.544400  0.148000  0.380200  1.0  0.012
  C  C20  1  0.661200  0.169200  0.347200  1.0  -0.1505
  C  C21  1  0.422600  0.275100  0.277800  1.0  0.0899
  C  C22  1  0.537200  0.296600  0.242600  1.0  -0.1132
  C  C23  1  0.425200  0.199300  0.344900  1.0  -0.1309
  C  C24  1  0.789800  0.111800  0.387000  1.0  0.7453
  C  C25  1  0.296200  0.169700  0.374100  1.0  0.7304
  C  C26  1  0.970100  0.874400  0.337400  1.0  0.7515
  C  C27  1  0.844800  0.742800  0.222900  1.0  0.1317
  C  C28  1  0.955600  0.648000  0.119800  1.0  0.0125
  C  C29  1  0.838800  0.669200  0.152800  1.0  -0.1504
  C  C30  1  0.077400  0.775100  0.222200  1.0  0.0912
  C  C31  1  0.962800  0.796600  0.257400  1.0  -0.1135
  C  C32  1  0.074800  0.699300  0.155100  1.0  -0.13
  C  C33  1  0.710200  0.611800  0.113000  1.0  0.7459
  C  C34  1  0.203800  0.669700  0.125900  1.0  0.7306
  C  C35  1  0.470100  0.625600  0.837400  1.0  0.7514
  C  C36  1  0.344800  0.757200  0.722900  1.0  0.132
  C  C37  1  0.455600  0.852000  0.619800  1.0  0.0121
  C  C38  1  0.338800  0.830800  0.652800  1.0  -0.1507
  C  C39  1  0.577400  0.724900  0.722200  1.0  0.0913
  C  C40  1  0.462800  0.703400  0.757400  1.0  -0.1138
  C  C41  1  0.574800  0.800700  0.655100  1.0  -0.1299
  C  C42  1  0.210200  0.888200  0.613000  1.0  0.746
  C  C43  1  0.703800  0.830300  0.625900  1.0  0.7311
  C  C44  1  0.029900  0.125600  0.662600  1.0  0.751
  C  C45  1  0.155200  0.257200  0.777100  1.0  0.1329
  C  C46  1  0.044400  0.352000  0.880200  1.0  0.0108
  C  C47  1  0.161200  0.330800  0.847200  1.0  -0.1508
  C  C48  1  0.922600  0.224900  0.777800  1.0  0.0896
  C  C49  1  0.037200  0.203400  0.742600  1.0  -0.1134
  C  C50  1  0.925200  0.300700  0.844900  1.0  -0.1309
  C  C51  1  0.289800  0.388200  0.887000  1.0  0.7455
  C  C52  1  0.796200  0.330300  0.874100  1.0  0.7309
  O  O53  1  0.303700  0.098680  0.431600  1.0  -0.5375
  O  O54  1  0.452700  0.441410  0.167600  1.0  -0.5895
  O  O55  1  0.600400  0.363180  0.096900  1.0  -0.645
  O  O56  1  0.781200  0.042770  0.442800  1.0  -0.69
  O  O57  1  0.895200  0.138010  0.362000  1.0  -0.559
  O  O58  1  0.189000  0.213100  0.340900  1.0  -0.5524
  O  O59  1  0.196300  0.598680  0.068400  1.0  -0.5384
  O  O60  1  0.047300  0.941410  0.332400  1.0  -0.5918
  O  O61  1  0.899600  0.863180  0.403100  1.0  -0.645
  O  O62  1  0.718800  0.542770  0.057200  1.0  -0.6899
  O  O63  1  0.604800  0.638010  0.138000  1.0  -0.5601
  O  O64  1  0.311000  0.713100  0.159100  1.0  -0.5511
  O  O65  1  0.696300  0.901320  0.568400  1.0  -0.539
  O  O66  1  0.547300  0.558590  0.832400  1.0  -0.5907
  O  O67  1  0.399600  0.636820  0.903100  1.0  -0.646
  O  O68  1  0.218800  0.957230  0.557200  1.0  -0.6926
  O  O69  1  0.104800  0.861990  0.638000  1.0  -0.5593
  O  O70  1  0.811000  0.786900  0.659100  1.0  -0.5516
  O  O71  1  0.803700  0.401320  0.931600  1.0  -0.538
  O  O72  1  0.952700  0.058590  0.667600  1.0  -0.5896
  O  O73  1  0.100400  0.136820  0.596900  1.0  -0.6455
  O  O74  1  0.281200  0.457230  0.942800  1.0  -0.6923
  O  O75  1  0.395200  0.361990  0.862000  1.0  -0.5582
  O  O76  1  0.689000  0.286900  0.840900  1.0  -0.5521
