# generated using pymatgen
data_NiH10C16(NO)4
_symmetry_space_group_name_H-M   'P 1'
_cell_length_a   8.38620000
_cell_length_b   15.03630000
_cell_length_c   15.03630000
_cell_angle_alpha   90.00000000
_cell_angle_beta   90.00000000
_cell_angle_gamma   90.00000000
_symmetry_Int_Tables_number   1
_chemical_formula_structural   NiH10C16(NO)4
_chemical_formula_sum   'Ni4 H40 C64 N16 O16'
_cell_volume   1896.03862221
_cell_formula_units_Z   4
loop_
 _symmetry_equiv_pos_site_id
 _symmetry_equiv_pos_as_xyz
  1  'x, y, z'
loop_
 _atom_site_type_symbol
 _atom_site_label
 _atom_site_symmetry_multiplicity
 _atom_site_fract_x
 _atom_site_fract_y
 _atom_site_fract_z
 _atom_site_occupancy
 _atom_site_charge
  Ni  Ni1  1  0.000000  0.255800  0.255800  1.0  0.7529
  Ni  Ni2  1  0.500000  0.744200  0.744200  1.0  0.7525
  Ni  Ni3  1  0.250000  0.244200  0.755800  1.0  0.7519
  Ni  Ni4  1  0.750000  0.755800  0.244200  1.0  0.7525
  H  H5  1  0.175400  0.274200  0.077100  1.0  0.0869
  H  H6  1  0.068500  0.273800  0.931500  1.0  0.3109
  H  H7  1  0.757000  0.258000  0.861000  1.0  0.1189
  H  H8  1  0.437000  0.221000  0.051000  1.0  0.0945
  H  H9  1  0.634000  0.231000  0.163000  1.0  0.1302
  H  H10  1  0.675400  0.725800  0.922900  1.0  0.0878
  H  H11  1  0.568500  0.726200  0.068500  1.0  0.3103
  H  H12  1  0.257000  0.742000  0.139000  1.0  0.1209
  H  H13  1  0.937000  0.779000  0.949000  1.0  0.0946
  H  H14  1  0.134000  0.769000  0.837000  1.0  0.1295
  H  H15  1  0.425400  0.422900  0.774200  1.0  0.0862
  H  H16  1  0.318500  0.568500  0.773800  1.0  0.3098
  H  H17  1  0.007000  0.639000  0.758000  1.0  0.114
  H  H18  1  0.687000  0.449000  0.721000  1.0  0.0945
  H  H19  1  0.884000  0.337000  0.731000  1.0  0.1266
  H  H20  1  0.925400  0.577100  0.225800  1.0  0.0863
  H  H21  1  0.818500  0.431500  0.226200  1.0  0.3097
  H  H22  1  0.507000  0.361000  0.242000  1.0  0.1147
  H  H23  1  0.187000  0.551000  0.279000  1.0  0.0946
  H  H24  1  0.384000  0.663000  0.269000  1.0  0.1289
  H  H25  1  0.074600  0.225800  0.577100  1.0  0.0871
  H  H26  1  0.181500  0.226200  0.431500  1.0  0.3113
  H  H27  1  0.493000  0.242000  0.361000  1.0  0.1198
  H  H28  1  0.813000  0.279000  0.551000  1.0  0.0944
  H  H29  1  0.616000  0.269000  0.663000  1.0  0.1315
  H  H30  1  0.574600  0.774200  0.422900  1.0  0.0877
  H  H31  1  0.681500  0.773800  0.568500  1.0  0.31
  H  H32  1  0.993000  0.758000  0.639000  1.0  0.1216
  H  H33  1  0.313000  0.721000  0.449000  1.0  0.0948
  H  H34  1  0.116000  0.731000  0.337000  1.0  0.13
  H  H35  1  0.824600  0.077100  0.274200  1.0  0.0863
  H  H36  1  0.931500  0.931500  0.273800  1.0  0.3093
  H  H37  1  0.243000  0.861000  0.258000  1.0  0.115
  H  H38  1  0.563000  0.051000  0.221000  1.0  0.0948
  H  H39  1  0.366000  0.163000  0.231000  1.0  0.1289
  H  H40  1  0.324600  0.922900  0.725800  1.0  0.0865
  H  H41  1  0.431500  0.068500  0.726200  1.0  0.3095
  H  H42  1  0.743000  0.139000  0.742000  1.0  0.1144
  H  H43  1  0.063000  0.949000  0.779000  1.0  0.0946
  H  H44  1  0.866000  0.837000  0.769000  1.0  0.1287
  C  C45  1  0.448100  0.241000  0.877700  1.0  0.6412
  C  C46  1  0.579000  0.242200  0.944800  1.0  -0.1444
  C  C47  1  0.542500  0.233000  0.036000  1.0  -0.0498
  C  C48  1  0.657800  0.237300  0.101100  1.0  -0.1742
  C  C49  1  0.815700  0.251300  0.074200  1.0  0.1734
  C  C50  1  0.849800  0.256800  0.983500  1.0  0.096
  C  C51  1  0.733900  0.253000  0.918200  1.0  -0.0926
  C  C52  1  0.067900  0.268600  0.062900  1.0  0.27
  C  C53  1  0.948100  0.759000  0.122300  1.0  0.6401
  C  C54  1  0.079000  0.757800  0.055200  1.0  -0.1454
  C  C55  1  0.042500  0.767000  0.964000  1.0  -0.0498
  C  C56  1  0.157800  0.762700  0.898900  1.0  -0.1743
  C  C57  1  0.315700  0.748700  0.925800  1.0  0.1741
  C  C58  1  0.349800  0.743200  0.016500  1.0  0.0956
  C  C59  1  0.233900  0.747000  0.081800  1.0  -0.0959
  C  C60  1  0.567900  0.731400  0.937100  1.0  0.2712
  C  C61  1  0.698100  0.622300  0.741000  1.0  0.6415
  C  C62  1  0.829000  0.555200  0.742200  1.0  -0.1456
  C  C63  1  0.792500  0.464000  0.733000  1.0  -0.0499
  C  C64  1  0.907800  0.398900  0.737300  1.0  -0.1749
  C  C65  1  0.065700  0.425800  0.751300  1.0  0.1732
  C  C66  1  0.099800  0.516500  0.756800  1.0  0.0962
  C  C67  1  0.983900  0.581800  0.753000  1.0  -0.0971
  C  C68  1  0.317900  0.437100  0.768600  1.0  0.2686
  C  C69  1  0.198100  0.377700  0.259000  1.0  0.6401
  C  C70  1  0.329000  0.444800  0.257800  1.0  -0.1456
  C  C71  1  0.292500  0.536000  0.267000  1.0  -0.0499
  C  C72  1  0.407800  0.601100  0.262700  1.0  -0.1741
  C  C73  1  0.565700  0.574200  0.248700  1.0  0.1726
  C  C74  1  0.599800  0.483500  0.243200  1.0  0.0962
  C  C75  1  0.483900  0.418200  0.247000  1.0  -0.0987
  C  C76  1  0.817900  0.562900  0.231400  1.0  0.269
  C  C77  1  0.801900  0.259000  0.377700  1.0  0.6397
  C  C78  1  0.671000  0.257800  0.444800  1.0  -0.1492
  C  C79  1  0.707500  0.267000  0.536000  1.0  -0.0501
  C  C80  1  0.592200  0.262700  0.601100  1.0  -0.1735
  C  C81  1  0.434300  0.248700  0.574200  1.0  0.1729
  C  C82  1  0.400200  0.243200  0.483500  1.0  0.096
  C  C83  1  0.516100  0.247000  0.418200  1.0  -0.0965
  C  C84  1  0.182100  0.231400  0.562900  1.0  0.2704
  C  C85  1  0.301900  0.741000  0.622300  1.0  0.6428
  C  C86  1  0.171000  0.742200  0.555200  1.0  -0.1489
  C  C87  1  0.207500  0.733000  0.464000  1.0  -0.0508
  C  C88  1  0.092200  0.737300  0.398900  1.0  -0.1735
  C  C89  1  0.934300  0.751300  0.425800  1.0  0.1738
  C  C90  1  0.900200  0.756800  0.516500  1.0  0.0952
  C  C91  1  0.016100  0.753000  0.581800  1.0  -0.0958
  C  C92  1  0.682100  0.768600  0.437100  1.0  0.2714
  C  C93  1  0.551900  0.877700  0.241000  1.0  0.6413
  C  C94  1  0.421000  0.944800  0.242200  1.0  -0.1492
  C  C95  1  0.457500  0.036000  0.233000  1.0  -0.0513
  C  C96  1  0.342200  0.101100  0.237300  1.0  -0.1728
  C  C97  1  0.184300  0.074200  0.251300  1.0  0.1733
  C  C98  1  0.150200  0.983500  0.256800  1.0  0.0959
  C  C99  1  0.266100  0.918200  0.253000  1.0  -0.0995
  C  C100  1  0.932100  0.062900  0.268600  1.0  0.2688
  C  C101  1  0.051900  0.122300  0.759000  1.0  0.6412
  C  C102  1  0.921000  0.055200  0.757800  1.0  -0.1494
  C  C103  1  0.957500  0.964000  0.767000  1.0  -0.0509
  C  C104  1  0.842200  0.898900  0.762700  1.0  -0.1747
  C  C105  1  0.684300  0.925800  0.748700  1.0  0.1734
  C  C106  1  0.650200  0.016500  0.743200  1.0  0.0963
  C  C107  1  0.766100  0.081800  0.747000  1.0  -0.0959
  C  C108  1  0.432100  0.937100  0.731400  1.0  0.2695
  N  N109  1  0.955400  0.260200  0.122520  1.0  -0.4217
  N  N110  1  0.012600  0.268100  0.979100  1.0  -0.2721
  N  N111  1  0.455400  0.739800  0.877480  1.0  -0.4222
  N  N112  1  0.512600  0.731900  0.020900  1.0  -0.2721
  N  N113  1  0.205400  0.377480  0.760200  1.0  -0.4243
  N  N114  1  0.262600  0.520900  0.768100  1.0  -0.2734
  N  N115  1  0.705400  0.622520  0.239800  1.0  -0.4236
  N  N116  1  0.762600  0.479100  0.231900  1.0  -0.2736
  N  N117  1  0.294600  0.239800  0.622520  1.0  -0.4226
  N  N118  1  0.237400  0.231900  0.479100  1.0  -0.2726
  N  N119  1  0.794600  0.760200  0.377480  1.0  -0.4234
  N  N120  1  0.737400  0.768100  0.520900  1.0  -0.2721
  N  N121  1  0.044600  0.122520  0.260200  1.0  -0.4228
  N  N122  1  0.987400  0.979100  0.268100  1.0  -0.2736
  N  N123  1  0.544600  0.877480  0.739800  1.0  -0.424
  N  N124  1  0.487400  0.020900  0.731900  1.0  -0.2737
  O  O125  1  0.304800  0.239300  0.900340  1.0  -0.578
  O  O126  1  0.484700  0.244950  0.795880  1.0  -0.553
  O  O127  1  0.804800  0.760700  0.099660  1.0  -0.5775
  O  O128  1  0.984700  0.755050  0.204120  1.0  -0.5526
  O  O129  1  0.554800  0.599660  0.739300  1.0  -0.5782
  O  O130  1  0.734700  0.704120  0.744950  1.0  -0.5532
  O  O131  1  0.054800  0.400340  0.260700  1.0  -0.577
  O  O132  1  0.234700  0.295880  0.255050  1.0  -0.5532
  O  O133  1  0.945200  0.260700  0.400340  1.0  -0.5783
  O  O134  1  0.765300  0.255050  0.295880  1.0  -0.5528
  O  O135  1  0.445200  0.739300  0.599660  1.0  -0.5774
  O  O136  1  0.265300  0.744950  0.704120  1.0  -0.5527
  O  O137  1  0.695200  0.900340  0.239300  1.0  -0.5776
  O  O138  1  0.515300  0.795880  0.244950  1.0  -0.5534
  O  O139  1  0.195200  0.099660  0.760700  1.0  -0.5772
  O  O140  1  0.015300  0.204120  0.755050  1.0  -0.5529
