# generated using pymatgen
data_CuH8C14O5
_symmetry_space_group_name_H-M   'P 1'
_cell_length_a   15.38620000
_cell_length_b   15.38620000
_cell_length_c   20.80800000
_cell_angle_alpha   85.35160000
_cell_angle_beta   85.35160000
_cell_angle_gamma   62.86250000
_symmetry_Int_Tables_number   1
_chemical_formula_structural   CuH8C14O5
_chemical_formula_sum   'Cu8 H64 C112 O40'
_cell_volume   4363.88850068
_cell_formula_units_Z   8
loop_
 _symmetry_equiv_pos_site_id
 _symmetry_equiv_pos_as_xyz
  1  'x, y, z'
loop_
 _atom_site_type_symbol
 _atom_site_label
 _atom_site_symmetry_multiplicity
 _atom_site_fract_x
 _atom_site_fract_y
 _atom_site_fract_z
 _atom_site_occupancy
 _atom_site_charge
  Cu  Cu1  1  0.989670  0.992150  0.313690  1.0  0.918
  Cu  Cu2  1  0.041210  0.558650  0.496950  1.0  0.8836
  Cu  Cu3  1  0.007850  0.010330  0.186310  1.0  0.9169
  Cu  Cu4  1  0.441350  0.958790  0.003050  1.0  0.881
  Cu  Cu5  1  0.010330  0.007850  0.686310  1.0  0.9162
  Cu  Cu6  1  0.958790  0.441350  0.503050  1.0  0.8816
  Cu  Cu7  1  0.992150  0.989670  0.813690  1.0  0.9187
  Cu  Cu8  1  0.558650  0.041210  0.996950  1.0  0.8824
  H  H9  1  0.307300  0.970900  0.178900  1.0  0.1063
  H  H10  1  0.465500  0.948700  0.190700  1.0  0.1234
  H  H11  1  0.277200  0.920600  0.369000  1.0  0.1085
  H  H12  1  0.435300  0.897500  0.382500  1.0  0.1391
  H  H13  1  0.573500  0.744900  0.345300  1.0  0.1356
  H  H14  1  0.844400  0.795800  0.367900  1.0  0.1064
  H  H15  1  0.276200  0.133600  0.295400  1.0  0.119
  H  H16  1  0.542900  0.105300  0.149600  1.0  0.1268
  H  H17  1  0.147500  0.238900  0.360700  1.0  0.1087
  H  H18  1  0.681400  0.113800  0.336700  1.0  0.1108
  H  H19  1  0.708100  0.058500  0.149000  1.0  0.1103
  H  H20  1  0.711800  0.913600  0.315200  1.0  0.1177
  H  H21  1  0.390600  0.322200  0.281200  1.0  0.1364
  H  H22  1  0.707600  0.627400  0.397800  1.0  0.1093
  H  H23  1  0.265700  0.424500  0.348100  1.0  0.1104
  H  H24  1  0.516600  0.159600  0.338100  1.0  0.1307
  H  H25  1  0.029100  0.692700  0.321100  1.0  0.1068
  H  H26  1  0.051300  0.534500  0.309300  1.0  0.1233
  H  H27  1  0.079400  0.722800  0.131000  1.0  0.108
  H  H28  1  0.102500  0.564700  0.117500  1.0  0.1392
  H  H29  1  0.255100  0.426500  0.154700  1.0  0.1339
  H  H30  1  0.204200  0.155600  0.132100  1.0  0.1059
  H  H31  1  0.866400  0.723800  0.204600  1.0  0.1197
  H  H32  1  0.894700  0.457100  0.350400  1.0  0.127
  H  H33  1  0.761100  0.852500  0.139300  1.0  0.1091
  H  H34  1  0.886200  0.318600  0.163300  1.0  0.1112
  H  H35  1  0.941500  0.291900  0.351000  1.0  0.1094
  H  H36  1  0.086400  0.288200  0.184800  1.0  0.1191
  H  H37  1  0.677800  0.609400  0.218800  1.0  0.1342
  H  H38  1  0.372600  0.292400  0.102200  1.0  0.1083
  H  H39  1  0.575500  0.734300  0.151900  1.0  0.1098
  H  H40  1  0.840400  0.483400  0.161900  1.0  0.1305
  H  H41  1  0.692700  0.029100  0.821100  1.0  0.106
  H  H42  1  0.534500  0.051300  0.809300  1.0  0.1225
  H  H43  1  0.722800  0.079400  0.631000  1.0  0.108
  H  H44  1  0.564700  0.102500  0.617500  1.0  0.1392
  H  H45  1  0.426500  0.255100  0.654700  1.0  0.1347
  H  H46  1  0.155600  0.204200  0.632100  1.0  0.1074
  H  H47  1  0.723800  0.866400  0.704600  1.0  0.1182
  H  H48  1  0.457100  0.894700  0.850400  1.0  0.1267
  H  H49  1  0.852500  0.761100  0.639300  1.0  0.1095
  H  H50  1  0.318600  0.886200  0.663300  1.0  0.1106
  H  H51  1  0.291900  0.941500  0.851000  1.0  0.1103
  H  H52  1  0.288200  0.086400  0.684800  1.0  0.1173
  H  H53  1  0.609400  0.677800  0.718800  1.0  0.1357
  H  H54  1  0.292400  0.372600  0.602200  1.0  0.1086
  H  H55  1  0.734300  0.575500  0.651900  1.0  0.1097
  H  H56  1  0.483400  0.840400  0.661900  1.0  0.1317
  H  H57  1  0.970900  0.307300  0.678900  1.0  0.1069
  H  H58  1  0.948700  0.465500  0.690700  1.0  0.124
  H  H59  1  0.920600  0.277200  0.869000  1.0  0.1086
  H  H60  1  0.897500  0.435300  0.882500  1.0  0.1392
  H  H61  1  0.744900  0.573500  0.845300  1.0  0.1335
  H  H62  1  0.795800  0.844400  0.867900  1.0  0.106
  H  H63  1  0.133600  0.276200  0.795400  1.0  0.1196
  H  H64  1  0.105300  0.542900  0.649600  1.0  0.1264
  H  H65  1  0.238900  0.147500  0.860700  1.0  0.1083
  H  H66  1  0.113800  0.681400  0.836700  1.0  0.1108
  H  H67  1  0.058500  0.708100  0.649000  1.0  0.1097
  H  H68  1  0.913600  0.711800  0.815200  1.0  0.119
  H  H69  1  0.322200  0.390600  0.781200  1.0  0.1344
  H  H70  1  0.627400  0.707600  0.897800  1.0  0.1082
  H  H71  1  0.424500  0.265700  0.848100  1.0  0.1097
  H  H72  1  0.159600  0.516600  0.838100  1.0  0.1304
  C  C73  1  0.174400  0.962200  0.265200  1.0  0.6827
  C  C74  1  0.276300  0.946700  0.273500  1.0  -0.1788
  C  C75  1  0.333100  0.955900  0.219600  1.0  0.0043
  C  C76  1  0.427900  0.942500  0.226500  1.0  -0.212
  C  C77  1  0.315100  0.925700  0.333200  1.0  0.0155
  C  C78  1  0.409800  0.911800  0.341700  1.0  -0.2524
  C  C79  1  0.465300  0.920100  0.287100  1.0  0.2841
  C  C80  1  0.629400  0.841000  0.325900  1.0  0.2856
  C  C81  1  0.627600  0.755400  0.350100  1.0  -0.2686
  C  C82  1  0.819100  0.049300  0.243400  1.0  0.6854
  C  C83  1  0.790100  0.785700  0.363800  1.0  0.0049
  C  C84  1  0.873400  0.625200  0.425800  1.0  0.6742
  C  C85  1  0.117000  0.405200  0.410300  1.0  0.6712
  C  C86  1  0.712000  0.081000  0.242800  1.0  -0.1843
  C  C87  1  0.273800  0.192200  0.306200  1.0  -0.2232
  C  C88  1  0.571300  0.106100  0.187200  1.0  -0.2156
  C  C89  1  0.346400  0.217400  0.283200  1.0  0.2982
  C  C90  1  0.197200  0.255000  0.345700  1.0  0.0096
  C  C91  1  0.194500  0.341300  0.362800  1.0  -0.175
  C  C92  1  0.789400  0.699400  0.389600  1.0  -0.19
  C  C93  1  0.653300  0.111700  0.299300  1.0  0.0049
  C  C94  1  0.669700  0.078700  0.186900  1.0  0.012
  C  C95  1  0.710800  0.856200  0.332200  1.0  -0.2232
  C  C96  1  0.342500  0.304700  0.298100  1.0  -0.242
  C  C97  1  0.708100  0.685300  0.381600  1.0  0.0241
  C  C98  1  0.267700  0.365900  0.337800  1.0  0.003
  C  C99  1  0.514300  0.135100  0.244400  1.0  0.282
  C  C100  1  0.555200  0.138800  0.300300  1.0  -0.2609
  C  C101  1  0.037800  0.825600  0.234800  1.0  0.6851
  C  C102  1  0.053300  0.723700  0.226500  1.0  -0.1764
  C  C103  1  0.044100  0.666900  0.280400  1.0  0.007
  C  C104  1  0.057500  0.572100  0.273500  1.0  -0.2101
  C  C105  1  0.074300  0.684900  0.166800  1.0  0.0148
  C  C106  1  0.088200  0.590200  0.158300  1.0  -0.252
  C  C107  1  0.079900  0.534700  0.212900  1.0  0.2824
  C  C108  1  0.159000  0.370600  0.174100  1.0  0.2844
  C  C109  1  0.244600  0.372400  0.149900  1.0  -0.2666
  C  C110  1  0.950700  0.180900  0.256600  1.0  0.686
  C  C111  1  0.214300  0.209900  0.136200  1.0  0.0081
  C  C112  1  0.374800  0.126600  0.074200  1.0  0.6754
  C  C113  1  0.594800  0.883000  0.089700  1.0  0.6624
  C  C114  1  0.919000  0.288000  0.257200  1.0  -0.1849
  C  C115  1  0.807800  0.726200  0.193800  1.0  -0.2262
  C  C116  1  0.893900  0.428700  0.312800  1.0  -0.2166
  C  C117  1  0.782600  0.653600  0.216800  1.0  0.2961
  C  C118  1  0.745000  0.802800  0.154300  1.0  0.009
  C  C119  1  0.658700  0.805500  0.137200  1.0  -0.1709
  C  C120  1  0.300600  0.210600  0.110400  1.0  -0.1883
  C  C121  1  0.888300  0.346700  0.200700  1.0  0.0077
  C  C122  1  0.921300  0.330300  0.313100  1.0  0.0125
  C  C123  1  0.143800  0.289200  0.167800  1.0  -0.2248
  C  C124  1  0.695300  0.657500  0.201900  1.0  -0.2414
  C  C125  1  0.314700  0.291900  0.118400  1.0  0.0193
  C  C126  1  0.634100  0.732300  0.162200  1.0  0.0036
  C  C127  1  0.864900  0.485700  0.255600  1.0  0.2823
  C  C128  1  0.861200  0.444800  0.199700  1.0  -0.2569
  C  C129  1  0.825600  0.037800  0.734800  1.0  0.683
  C  C130  1  0.723700  0.053300  0.726500  1.0  -0.1792
  C  C131  1  0.666900  0.044100  0.780400  1.0  0.0061
  C  C132  1  0.572100  0.057500  0.773500  1.0  -0.2111
  C  C133  1  0.684900  0.074300  0.666800  1.0  0.0145
  C  C134  1  0.590200  0.088200  0.658300  1.0  -0.2535
  C  C135  1  0.534700  0.079900  0.712900  1.0  0.2831
  C  C136  1  0.370600  0.159000  0.674100  1.0  0.2836
  C  C137  1  0.372400  0.244600  0.649900  1.0  -0.2658
  C  C138  1  0.180900  0.950700  0.756600  1.0  0.6842
  C  C139  1  0.209900  0.214300  0.636200  1.0  0.0088
  C  C140  1  0.126600  0.374800  0.574200  1.0  0.6763
  C  C141  1  0.883000  0.594800  0.589700  1.0  0.6711
  C  C142  1  0.288000  0.919000  0.757200  1.0  -0.1865
  C  C143  1  0.726200  0.807800  0.693800  1.0  -0.2222
  C  C144  1  0.428700  0.893900  0.812800  1.0  -0.2169
  C  C145  1  0.653600  0.782600  0.716800  1.0  0.2971
  C  C146  1  0.802800  0.745000  0.654300  1.0  0.0085
  C  C147  1  0.805500  0.658700  0.637200  1.0  -0.1757
  C  C148  1  0.210600  0.300600  0.610400  1.0  -0.188
  C  C149  1  0.346700  0.888300  0.700700  1.0  0.0017
  C  C150  1  0.330300  0.921300  0.813100  1.0  0.0142
  C  C151  1  0.289200  0.143800  0.667800  1.0  -0.2239
  C  C152  1  0.657500  0.695300  0.701900  1.0  -0.2418
  C  C153  1  0.291900  0.314700  0.618400  1.0  0.0231
  C  C154  1  0.732300  0.634100  0.662200  1.0  0.0021
  C  C155  1  0.485700  0.864900  0.755600  1.0  0.2809
  C  C156  1  0.444800  0.861200  0.699700  1.0  -0.2602
  C  C157  1  0.962200  0.174400  0.765200  1.0  0.6858
  C  C158  1  0.946700  0.276300  0.773500  1.0  -0.1774
  C  C159  1  0.955900  0.333100  0.719600  1.0  0.0073
  C  C160  1  0.942500  0.427900  0.726500  1.0  -0.2086
  C  C161  1  0.925700  0.315100  0.833200  1.0  0.0169
  C  C162  1  0.911800  0.409800  0.841700  1.0  -0.2521
  C  C163  1  0.920100  0.465300  0.787100  1.0  0.2838
  C  C164  1  0.841000  0.629400  0.825900  1.0  0.285
  C  C165  1  0.755400  0.627600  0.850100  1.0  -0.2702
  C  C166  1  0.049300  0.819100  0.743400  1.0  0.686
  C  C167  1  0.785700  0.790100  0.863800  1.0  0.0089
  C  C168  1  0.625200  0.873400  0.925800  1.0  0.6768
  C  C169  1  0.405200  0.117000  0.910300  1.0  0.6611
  C  C170  1  0.081000  0.712000  0.742800  1.0  -0.184
  C  C171  1  0.192200  0.273800  0.806200  1.0  -0.2278
  C  C172  1  0.106100  0.571300  0.687200  1.0  -0.2171
  C  C173  1  0.217400  0.346400  0.783200  1.0  0.2981
  C  C174  1  0.255000  0.197200  0.845700  1.0  0.0099
  C  C175  1  0.341300  0.194500  0.862800  1.0  -0.1715
  C  C176  1  0.699400  0.789400  0.889600  1.0  -0.1899
  C  C177  1  0.111700  0.653300  0.799300  1.0  0.0084
  C  C178  1  0.078700  0.669700  0.686900  1.0  0.0121
  C  C179  1  0.856200  0.710800  0.832200  1.0  -0.223
  C  C180  1  0.304700  0.342500  0.798100  1.0  -0.2403
  C  C181  1  0.685300  0.708100  0.881600  1.0  0.0224
  C  C182  1  0.365900  0.267700  0.837800  1.0  0.0035
  C  C183  1  0.135100  0.514300  0.744400  1.0  0.2833
  C  C184  1  0.138800  0.555200  0.800300  1.0  -0.2565
  O  O185  1  0.127730  0.952730  0.316130  1.0  -0.5638
  O  O186  1  0.142000  0.983600  0.209440  1.0  -0.5783
  O  O187  1  0.556410  0.915610  0.290800  1.0  -0.2349
  O  O188  1  0.122220  0.480220  0.425400  1.0  -0.5631
  O  O189  1  0.869830  0.546230  0.444530  1.0  -0.5795
  O  O190  1  0.852920  0.038920  0.298710  1.0  -0.5768
  O  O191  1  0.868830  0.034030  0.190630  1.0  -0.5696
  O  O192  1  0.941430  0.645830  0.436670  1.0  -0.552
  O  O193  1  0.053640  0.377840  0.431860  1.0  -0.5647
  O  O194  1  0.417990  0.153190  0.241900  1.0  -0.2318
  O  O195  1  0.047270  0.872270  0.183870  1.0  -0.5649
  O  O196  1  0.016400  0.858000  0.290560  1.0  -0.5787
  O  O197  1  0.084390  0.443590  0.209200  1.0  -0.2359
  O  O198  1  0.519780  0.877780  0.074600  1.0  -0.564
  O  O199  1  0.453770  0.130170  0.055470  1.0  -0.58
  O  O200  1  0.961080  0.147080  0.201290  1.0  -0.5771
  O  O201  1  0.965970  0.131170  0.309370  1.0  -0.5709
  O  O202  1  0.354170  0.058570  0.063330  1.0  -0.5514
  O  O203  1  0.622160  0.946360  0.068140  1.0  -0.5649
  O  O204  1  0.846810  0.582010  0.258100  1.0  -0.2313
  O  O205  1  0.872270  0.047270  0.683870  1.0  -0.5643
  O  O206  1  0.858000  0.016400  0.790560  1.0  -0.5788
  O  O207  1  0.443590  0.084390  0.709200  1.0  -0.2359
  O  O208  1  0.877780  0.519780  0.574600  1.0  -0.5622
  O  O209  1  0.130170  0.453770  0.555470  1.0  -0.579
  O  O210  1  0.147080  0.961080  0.701290  1.0  -0.576
  O  O211  1  0.131170  0.965970  0.809370  1.0  -0.5694
  O  O212  1  0.058570  0.354170  0.563330  1.0  -0.5527
  O  O213  1  0.946360  0.622160  0.568140  1.0  -0.5644
  O  O214  1  0.582010  0.846810  0.758100  1.0  -0.2318
  O  O215  1  0.952730  0.127730  0.816130  1.0  -0.5638
  O  O216  1  0.983600  0.142000  0.709440  1.0  -0.5794
  O  O217  1  0.915610  0.556410  0.790800  1.0  -0.2361
  O  O218  1  0.480220  0.122220  0.925400  1.0  -0.5639
  O  O219  1  0.546230  0.869830  0.944530  1.0  -0.5797
  O  O220  1  0.038920  0.852920  0.798710  1.0  -0.5779
  O  O221  1  0.034030  0.868830  0.690630  1.0  -0.5694
  O  O222  1  0.645830  0.941430  0.936670  1.0  -0.5509
  O  O223  1  0.377840  0.053640  0.931860  1.0  -0.5648
  O  O224  1  0.153190  0.417990  0.741900  1.0  -0.2312
