# generated using pymatgen
data_Cu2H15(C14O5)2
_symmetry_space_group_name_H-M   'P 1'
_cell_length_a   16.15440000
_cell_length_b   16.15440000
_cell_length_c   21.82000000
_cell_angle_alpha   84.60060000
_cell_angle_beta   84.60060000
_cell_angle_gamma   60.48220000
_symmetry_Int_Tables_number   1
_chemical_formula_structural   Cu2H15(C14O5)2
_chemical_formula_sum   'Cu8 H60 C112 O40'
_cell_volume   4925.66938082
_cell_formula_units_Z   4
loop_
 _symmetry_equiv_pos_site_id
 _symmetry_equiv_pos_as_xyz
  1  'x, y, z'
loop_
 _atom_site_type_symbol
 _atom_site_label
 _atom_site_symmetry_multiplicity
 _atom_site_fract_x
 _atom_site_fract_y
 _atom_site_fract_z
 _atom_site_occupancy
 _atom_site_charge
  Cu  Cu1  1  0.494450  0.989770  0.813220  1.0  0.8999
  Cu  Cu2  1  0.460420  0.441220  0.505120  1.0  0.8455
  Cu  Cu3  1  0.510230  0.005550  0.686780  1.0  0.904
  Cu  Cu4  1  0.058780  0.039580  0.994880  1.0  0.848
  Cu  Cu5  1  0.505550  0.010230  0.186780  1.0  0.9043
  Cu  Cu6  1  0.539580  0.558780  0.494880  1.0  0.8479
  Cu  Cu7  1  0.489770  0.994450  0.313220  1.0  0.8992
  Cu  Cu8  1  0.941220  0.960420  0.005120  1.0  0.8455
  H  H9  1  0.734100  0.148100  0.866500  1.0  0.1342
  H  H10  1  0.659500  0.214100  0.632800  1.0  0.1144
  H  H11  1  0.804800  0.396600  0.788800  1.0  0.1374
  H  H12  1  0.195200  0.036400  0.821500  1.0  0.1091
  H  H13  1  0.038700  0.063100  0.814000  1.0  0.1365
  H  H14  1  0.549900  0.708300  0.654600  1.0  0.1172
  H  H15  1  0.595700  0.686700  0.839400  1.0  0.1138
  H  H16  1  0.219100  0.084900  0.633800  1.0  0.1099
  H  H17  1  0.916400  0.263200  0.850500  1.0  0.1205
  H  H18  1  0.796700  0.093500  0.686900  1.0  0.1211
  H  H19  1  0.061600  0.117800  0.625200  1.0  0.1342
  H  H20  1  0.602700  0.541300  0.658600  1.0  0.1241
  H  H21  1  0.788300  0.383100  0.605400  1.0  0.1137
  H  H22  1  0.917400  0.269200  0.666400  1.0  0.1296
  H  H23  1  0.651600  0.520200  0.841900  1.0  0.1352
  H  H24  1  0.351900  0.765900  0.633500  1.0  0.132
  H  H25  1  0.285900  0.840500  0.867200  1.0  0.1145
  H  H26  1  0.103400  0.695200  0.711200  1.0  0.1367
  H  H27  1  0.463600  0.304800  0.678500  1.0  0.1087
  H  H28  1  0.436900  0.461300  0.686000  1.0  0.1368
  H  H29  1  0.791700  0.950100  0.845400  1.0  0.1186
  H  H30  1  0.813300  0.904300  0.660600  1.0  0.1147
  H  H31  1  0.415100  0.280900  0.866200  1.0  0.1103
  H  H32  1  0.236800  0.583600  0.649500  1.0  0.1209
  H  H33  1  0.406500  0.703300  0.813100  1.0  0.1241
  H  H34  1  0.382200  0.438400  0.874800  1.0  0.1319
  H  H35  1  0.958700  0.897300  0.841400  1.0  0.1238
  H  H36  1  0.116900  0.711700  0.894600  1.0  0.1129
  H  H37  1  0.230800  0.582600  0.833600  1.0  0.1289
  H  H38  1  0.979800  0.848400  0.658100  1.0  0.1364
  H  H39  1  0.265900  0.851900  0.133500  1.0  0.1333
  H  H40  1  0.340500  0.785900  0.367200  1.0  0.1148
  H  H41  1  0.195200  0.603400  0.211200  1.0  0.1375
  H  H42  1  0.804800  0.963600  0.178500  1.0  0.1099
  H  H43  1  0.961300  0.936900  0.186000  1.0  0.1361
  H  H44  1  0.450100  0.291700  0.345400  1.0  0.118
  H  H45  1  0.404300  0.313300  0.160600  1.0  0.115
  H  H46  1  0.780900  0.915100  0.366200  1.0  0.1099
  H  H47  1  0.083600  0.736800  0.149500  1.0  0.1208
  H  H48  1  0.203300  0.906500  0.313100  1.0  0.1238
  H  H49  1  0.938400  0.882200  0.374800  1.0  0.1319
  H  H50  1  0.397300  0.458700  0.341400  1.0  0.1234
  H  H51  1  0.211700  0.616900  0.394600  1.0  0.1131
  H  H52  1  0.082600  0.730800  0.333600  1.0  0.1288
  H  H53  1  0.348400  0.479800  0.158100  1.0  0.1369
  H  H54  1  0.648100  0.234100  0.366500  1.0  0.1322
  H  H55  1  0.714100  0.159500  0.132800  1.0  0.1146
  H  H56  1  0.896600  0.304800  0.288800  1.0  0.1383
  H  H57  1  0.536400  0.695200  0.321500  1.0  0.1078
  H  H58  1  0.563100  0.538700  0.314000  1.0  0.1374
  H  H59  1  0.208300  0.049900  0.154600  1.0  0.1176
  H  H60  1  0.186700  0.095700  0.339400  1.0  0.1143
  H  H61  1  0.584900  0.719100  0.133800  1.0  0.11
  H  H62  1  0.763200  0.416400  0.350500  1.0  0.1212
  H  H63  1  0.593500  0.296700  0.186900  1.0  0.1221
  H  H64  1  0.617800  0.561600  0.125200  1.0  0.1335
  H  H65  1  0.041300  0.102700  0.158600  1.0  0.1239
  H  H66  1  0.883100  0.288300  0.105400  1.0  0.1129
  H  H67  1  0.769200  0.417400  0.166400  1.0  0.1296
  H  H68  1  0.020200  0.151600  0.341900  1.0  0.1345
  C  C69  1  0.575600  0.713800  0.747200  1.0  -0.168
  C  C70  1  0.549000  0.818800  0.746500  1.0  0.6531
  C  C71  1  0.222900  0.059700  0.727500  1.0  -0.1602
  C  C72  1  0.747000  0.198800  0.851100  1.0  -0.0381
  C  C73  1  0.628600  0.382600  0.573700  1.0  0.6501
  C  C74  1  0.682400  0.276600  0.811200  1.0  -0.0588
  C  C75  1  0.712300  0.224100  0.637600  1.0  -0.0036
  C  C76  1  0.623200  0.518200  0.748600  1.0  0.2792
  C  C77  1  0.830800  0.195800  0.868400  1.0  -0.1403
  C  C78  1  0.792200  0.345600  0.804200  1.0  -0.1956
  C  C79  1  0.706400  0.349000  0.789600  1.0  0.228
  C  C80  1  0.709800  0.311800  0.612600  1.0  -0.1782
  C  C81  1  0.167700  0.052700  0.781900  1.0  -0.0088
  C  C82  1  0.074700  0.068700  0.778000  1.0  -0.1748
  C  C83  1  0.571500  0.669900  0.692400  1.0  -0.0093
  C  C84  1  0.034400  0.094000  0.717200  1.0  0.2216
  C  C85  1  0.599300  0.657300  0.802300  1.0  -0.0108
  C  C86  1  0.327600  0.040600  0.731100  1.0  0.6657
  C  C87  1  0.182600  0.081600  0.670200  1.0  -0.0021
  C  C88  1  0.856700  0.269100  0.842100  1.0  -0.033
  C  C89  1  0.793800  0.152800  0.670900  1.0  -0.219
  C  C90  1  0.873800  0.169200  0.679000  1.0  0.2847
  C  C91  1  0.898200  0.117200  0.914900  1.0  0.6434
  C  C92  1  0.088900  0.100100  0.664900  1.0  -0.2096
  C  C93  1  0.600200  0.571200  0.695200  1.0  -0.2156
  C  C94  1  0.788800  0.325600  0.622800  1.0  0.0035
  C  C95  1  0.868100  0.256100  0.657700  1.0  -0.1886
  C  C96  1  0.628400  0.559800  0.804700  1.0  -0.2306
  C  C97  1  0.786200  0.924400  0.752800  1.0  -0.1696
  C  C98  1  0.681200  0.951000  0.753500  1.0  0.6512
  C  C99  1  0.440300  0.277100  0.772500  1.0  -0.1609
  C  C100  1  0.301200  0.753000  0.648900  1.0  -0.0396
  C  C101  1  0.117400  0.871400  0.926300  1.0  0.6502
  C  C102  1  0.223400  0.817600  0.688800  1.0  -0.0589
  C  C103  1  0.275900  0.787700  0.862400  1.0  -0.0027
  C  C104  1  0.981800  0.876800  0.751400  1.0  0.2815
  C  C105  1  0.304200  0.669200  0.631600  1.0  -0.1407
  C  C106  1  0.154400  0.707800  0.695800  1.0  -0.1968
  C  C107  1  0.151000  0.793600  0.710400  1.0  0.2271
  C  C108  1  0.188200  0.790200  0.887400  1.0  -0.1776
  C  C109  1  0.447300  0.332300  0.718100  1.0  -0.0076
  C  C110  1  0.431300  0.425300  0.722000  1.0  -0.1744
  C  C111  1  0.830100  0.928500  0.807600  1.0  -0.0118
  C  C112  1  0.406000  0.465600  0.782800  1.0  0.2293
  C  C113  1  0.842700  0.900700  0.697700  1.0  -0.0143
  C  C114  1  0.459400  0.172400  0.768900  1.0  0.6669
  C  C115  1  0.418400  0.317400  0.829800  1.0  -0.0015
  C  C116  1  0.230900  0.643300  0.657900  1.0  -0.0291
  C  C117  1  0.347200  0.706200  0.829100  1.0  -0.2211
  C  C118  1  0.330800  0.626200  0.821000  1.0  0.284
  C  C119  1  0.382800  0.601800  0.585100  1.0  0.6437
  C  C120  1  0.399900  0.411100  0.835100  1.0  -0.2131
  C  C121  1  0.928800  0.899800  0.804800  1.0  -0.2153
  C  C122  1  0.174400  0.711200  0.877200  1.0  -0.0045
  C  C123  1  0.243900  0.631900  0.842300  1.0  -0.2184
  C  C124  1  0.940200  0.871600  0.695300  1.0  -0.2293
  C  C125  1  0.424400  0.286200  0.252800  1.0  -0.1677
  C  C126  1  0.451000  0.181200  0.253500  1.0  0.6522
  C  C127  1  0.777100  0.940300  0.272500  1.0  -0.1602
  C  C128  1  0.253000  0.801200  0.148900  1.0  -0.0377
  C  C129  1  0.371400  0.617400  0.426300  1.0  0.6484
  C  C130  1  0.317600  0.723400  0.188800  1.0  -0.0603
  C  C131  1  0.287700  0.775900  0.362400  1.0  -0.0032
  C  C132  1  0.376800  0.481800  0.251400  1.0  0.2795
  C  C133  1  0.169200  0.804200  0.131600  1.0  -0.1404
  C  C134  1  0.207800  0.654400  0.195800  1.0  -0.1981
  C  C135  1  0.293600  0.651000  0.210400  1.0  0.2295
  C  C136  1  0.290200  0.688200  0.387400  1.0  -0.1798
  C  C137  1  0.832300  0.947300  0.218100  1.0  -0.0091
  C  C138  1  0.925300  0.931300  0.222000  1.0  -0.1711
  C  C139  1  0.428500  0.330100  0.307600  1.0  -0.007
  C  C140  1  0.965600  0.906000  0.282800  1.0  0.2313
  C  C141  1  0.400700  0.342700  0.197700  1.0  -0.0105
  C  C142  1  0.672400  0.959400  0.268900  1.0  0.6658
  C  C143  1  0.817400  0.918400  0.329800  1.0  0.0
  C  C144  1  0.143300  0.730900  0.157900  1.0  -0.0327
  C  C145  1  0.206200  0.847200  0.329100  1.0  -0.221
  C  C146  1  0.126200  0.830800  0.321000  1.0  0.285
  C  C147  1  0.101800  0.882800  0.085100  1.0  0.6432
  C  C148  1  0.911100  0.899900  0.335100  1.0  -0.2133
  C  C149  1  0.399800  0.428800  0.304800  1.0  -0.2146
  C  C150  1  0.211200  0.674400  0.377200  1.0  0.0024
  C  C151  1  0.131900  0.743900  0.342300  1.0  -0.2205
  C  C152  1  0.371600  0.440200  0.195300  1.0  -0.23
  C  C153  1  0.213800  0.075600  0.247200  1.0  -0.1679
  C  C154  1  0.318800  0.049000  0.246500  1.0  0.6517
  C  C155  1  0.559700  0.722900  0.227500  1.0  -0.1583
  C  C156  1  0.698800  0.247000  0.351100  1.0  -0.0381
  C  C157  1  0.882600  0.128600  0.073700  1.0  0.6496
  C  C158  1  0.776600  0.182400  0.311200  1.0  -0.059
  C  C159  1  0.724100  0.212300  0.137600  1.0  -0.0031
  C  C160  1  0.018200  0.123200  0.248600  1.0  0.2803
  C  C161  1  0.695800  0.330800  0.368400  1.0  -0.1393
  C  C162  1  0.845600  0.292200  0.304200  1.0  -0.1932
  C  C163  1  0.849000  0.206400  0.289600  1.0  0.2269
  C  C164  1  0.811800  0.209800  0.112600  1.0  -0.178
  C  C165  1  0.552700  0.667700  0.281900  1.0  -0.0066
  C  C166  1  0.568700  0.574700  0.278000  1.0  -0.1735
  C  C167  1  0.169900  0.071500  0.192400  1.0  -0.0127
  C  C168  1  0.594000  0.534400  0.217200  1.0  0.2215
  C  C169  1  0.157300  0.099300  0.302300  1.0  -0.0127
  C  C170  1  0.540600  0.827600  0.231100  1.0  0.6678
  C  C171  1  0.581600  0.682600  0.170200  1.0  -0.0029
  C  C172  1  0.769100  0.356700  0.342100  1.0  -0.0277
  C  C173  1  0.652800  0.293800  0.170900  1.0  -0.2177
  C  C174  1  0.669200  0.373800  0.179000  1.0  0.2855
  C  C175  1  0.617200  0.398200  0.414900  1.0  0.6431
  C  C176  1  0.600100  0.588900  0.164900  1.0  -0.2077
  C  C177  1  0.071200  0.100200  0.195200  1.0  -0.2135
  C  C178  1  0.825600  0.288800  0.122800  1.0  0.0009
  C  C179  1  0.756100  0.368100  0.157700  1.0  -0.1902
  C  C180  1  0.059800  0.128400  0.304700  1.0  -0.2328
  O  O181  1  0.563000  0.361000  0.564800  1.0  -0.5574
  O  O182  1  0.630200  0.461400  0.555600  1.0  -0.5647
  O  O183  1  0.540800  0.852000  0.800100  1.0  -0.5694
  O  O184  1  0.533900  0.866900  0.693100  1.0  -0.5709
  O  O185  1  0.641300  0.423300  0.749400  1.0  -0.242
  O  O186  1  0.872100  0.054100  0.935300  1.0  -0.5462
  O  O187  1  0.971800  0.121400  0.927100  1.0  -0.5529
  O  O188  1  0.361200  0.016600  0.788500  1.0  -0.6112
  O  O189  1  0.372500  0.048900  0.685500  1.0  -0.5295
  O  O190  1  0.942000  0.099000  0.715500  1.0  -0.2278
  O  O191  1  0.139000  0.937000  0.935200  1.0  -0.5555
  O  O192  1  0.038600  0.869800  0.944400  1.0  -0.5664
  O  O193  1  0.648000  0.959200  0.699900  1.0  -0.5697
  O  O194  1  0.633100  0.966100  0.806900  1.0  -0.5711
  O  O195  1  0.076700  0.858700  0.750600  1.0  -0.2421
  O  O196  1  0.445900  0.627900  0.564700  1.0  -0.5447
  O  O197  1  0.378600  0.528200  0.572900  1.0  -0.5495
  O  O198  1  0.483400  0.138800  0.711500  1.0  -0.6145
  O  O199  1  0.451100  0.127500  0.814500  1.0  -0.5302
  O  O200  1  0.401000  0.558000  0.784500  1.0  -0.2279
  O  O201  1  0.437000  0.639000  0.435200  1.0  -0.5563
  O  O202  1  0.369800  0.538600  0.444400  1.0  -0.5648
  O  O203  1  0.459200  0.148000  0.199900  1.0  -0.5704
  O  O204  1  0.466100  0.133100  0.306900  1.0  -0.5713
  O  O205  1  0.358700  0.576700  0.250600  1.0  -0.2416
  O  O206  1  0.127900  0.945900  0.064700  1.0  -0.5434
  O  O207  1  0.028200  0.878600  0.072900  1.0  -0.5507
  O  O208  1  0.638800  0.983400  0.211500  1.0  -0.6108
  O  O209  1  0.627500  0.951100  0.314500  1.0  -0.5298
  O  O210  1  0.058000  0.901000  0.284500  1.0  -0.2262
  O  O211  1  0.861000  0.063000  0.064800  1.0  -0.557
  O  O212  1  0.961400  0.130200  0.055600  1.0  -0.5653
  O  O213  1  0.352000  0.040800  0.300100  1.0  -0.569
  O  O214  1  0.366900  0.033900  0.193100  1.0  -0.5704
  O  O215  1  0.923300  0.141300  0.249400  1.0  -0.2427
  O  O216  1  0.554100  0.372100  0.435300  1.0  -0.5486
  O  O217  1  0.621400  0.471800  0.427100  1.0  -0.5517
  O  O218  1  0.516600  0.861200  0.288500  1.0  -0.6128
  O  O219  1  0.548900  0.872500  0.185500  1.0  -0.5295
  O  O220  1  0.599000  0.442000  0.215500  1.0  -0.2273
