# generated using pymatgen
data_AlC12O5
_symmetry_space_group_name_H-M   'P 1'
_cell_length_a   24.59800000
_cell_length_b   7.53050000
_cell_length_c   6.54720000
_cell_angle_alpha   90.00000000
_cell_angle_beta   106.86300000
_cell_angle_gamma   90.00000000
_symmetry_Int_Tables_number   1
_chemical_formula_structural   AlC12O5
_chemical_formula_sum   'Al4 C48 O20'
_cell_volume   1160.62430243
_cell_formula_units_Z   4
loop_
 _symmetry_equiv_pos_site_id
 _symmetry_equiv_pos_as_xyz
  1  'x, y, z'
loop_
 _atom_site_type_symbol
 _atom_site_label
 _atom_site_symmetry_multiplicity
 _atom_site_fract_x
 _atom_site_fract_y
 _atom_site_fract_z
 _atom_site_occupancy
 _atom_site_charge
  Al  Al1  1  0.000000  0.000000  0.000000  1.0  1.7935
  Al  Al2  1  0.500000  0.500000  0.000000  1.0  1.7935
  Al  Al3  1  0.000000  0.000000  0.500000  1.0  1.7934
  Al  Al4  1  0.500000  0.500000  0.500000  1.0  1.7934
  C  C5  1  0.855800  0.231000  0.643000  1.0  0.0191
  C  C6  1  0.816500  0.188000  0.432000  1.0  -0.0164
  C  C7  1  0.719700  0.182000  0.210000  1.0  0.0079
  C  C8  1  0.913000  0.176000  0.672000  1.0  0.6113
  C  C9  1  0.758000  0.203000  0.420000  1.0  -0.0154
  C  C10  1  0.839000  0.294000  0.807000  1.0  0.087
  C  C11  1  0.355800  0.731000  0.643000  1.0  0.0191
  C  C12  1  0.316500  0.688000  0.432000  1.0  -0.0164
  C  C13  1  0.219700  0.682000  0.210000  1.0  0.0079
  C  C14  1  0.413000  0.676000  0.672000  1.0  0.6113
  C  C15  1  0.258000  0.703000  0.420000  1.0  -0.0154
  C  C16  1  0.339000  0.794000  0.807000  1.0  0.087
  C  C17  1  0.144200  0.231000  0.857000  1.0  0.0195
  C  C18  1  0.183500  0.188000  0.068000  1.0  -0.0216
  C  C19  1  0.280300  0.182000  0.290000  1.0  -0.001
  C  C20  1  0.087000  0.176000  0.828000  1.0  0.6109
  C  C21  1  0.242000  0.203000  0.080000  1.0  -0.0164
  C  C22  1  0.161000  0.294000  0.693000  1.0  0.0902
  C  C23  1  0.644200  0.731000  0.857000  1.0  0.0195
  C  C24  1  0.683500  0.688000  0.068000  1.0  -0.0216
  C  C25  1  0.780300  0.682000  0.290000  1.0  -0.001
  C  C26  1  0.587000  0.676000  0.828000  1.0  0.6109
  C  C27  1  0.742000  0.703000  0.080000  1.0  -0.0164
  C  C28  1  0.661000  0.794000  0.693000  1.0  0.0902
  C  C29  1  0.144200  0.769000  0.357000  1.0  0.0114
  C  C30  1  0.183500  0.812000  0.568000  1.0  -0.0213
  C  C31  1  0.280300  0.818000  0.790000  1.0  -0.0006
  C  C32  1  0.087000  0.824000  0.328000  1.0  0.612
  C  C33  1  0.242000  0.797000  0.580000  1.0  -0.0168
  C  C34  1  0.161000  0.706000  0.193000  1.0  0.0908
  C  C35  1  0.644200  0.269000  0.357000  1.0  0.0114
  C  C36  1  0.683500  0.312000  0.568000  1.0  -0.0213
  C  C37  1  0.780300  0.318000  0.790000  1.0  -0.0006
  C  C38  1  0.587000  0.324000  0.328000  1.0  0.612
  C  C39  1  0.742000  0.297000  0.580000  1.0  -0.0168
  C  C40  1  0.661000  0.206000  0.193000  1.0  0.0908
  C  C41  1  0.855800  0.769000  0.143000  1.0  0.0112
  C  C42  1  0.816500  0.812000  0.932000  1.0  -0.0159
  C  C43  1  0.719700  0.818000  0.710000  1.0  0.009
  C  C44  1  0.913000  0.824000  0.172000  1.0  0.6112
  C  C45  1  0.758000  0.797000  0.920000  1.0  -0.0157
  C  C46  1  0.839000  0.706000  0.307000  1.0  0.0889
  C  C47  1  0.355800  0.269000  0.143000  1.0  0.0112
  C  C48  1  0.316500  0.312000  0.932000  1.0  -0.0159
  C  C49  1  0.219700  0.318000  0.710000  1.0  0.009
  C  C50  1  0.413000  0.324000  0.172000  1.0  0.6112
  C  C51  1  0.258000  0.297000  0.920000  1.0  -0.0157
  C  C52  1  0.339000  0.206000  0.307000  1.0  0.0889
  O  O53  1  0.953500  0.175000  0.846000  1.0  -0.6028
  O  O54  1  0.932200  0.138200  0.516000  1.0  -0.5773
  O  O55  1  0.453500  0.675000  0.846000  1.0  -0.6028
  O  O56  1  0.432200  0.638200  0.516000  1.0  -0.5773
  O  O57  1  0.046500  0.175000  0.654000  1.0  -0.6048
  O  O58  1  0.067800  0.138200  0.984000  1.0  -0.5773
  O  O59  1  0.546500  0.675000  0.654000  1.0  -0.6048
  O  O60  1  0.567800  0.638200  0.984000  1.0  -0.5773
  O  O61  1  0.046500  0.825000  0.154000  1.0  -0.6057
  O  O62  1  0.067800  0.861800  0.484000  1.0  -0.5775
  O  O63  1  0.546500  0.325000  0.154000  1.0  -0.6057
  O  O64  1  0.567800  0.361800  0.484000  1.0  -0.5775
  O  O65  1  0.953500  0.825000  0.346000  1.0  -0.6041
  O  O66  1  0.932200  0.861800  0.016000  1.0  -0.5774
  O  O67  1  0.453500  0.325000  0.346000  1.0  -0.6041
  O  O68  1  0.432200  0.361800  0.016000  1.0  -0.5774
  O  O69  1  0.000000  0.901000  0.750000  1.0  -0.799
  O  O70  1  0.500000  0.401000  0.750000  1.0  -0.799
  O  O71  1  0.000000  0.099000  0.250000  1.0  -0.8003
  O  O72  1  0.500000  0.599000  0.250000  1.0  -0.8003
