# generated using pymatgen
data_Co3H78C88S2(N8O7)2
_symmetry_space_group_name_H-M   'P 1'
_cell_length_a   10.52350000
_cell_length_b   19.09000000
_cell_length_c   23.34910000
_cell_angle_alpha   99.71010000
_cell_angle_beta   103.02400000
_cell_angle_gamma   90.00000000
_symmetry_Int_Tables_number   1
_chemical_formula_structural   Co3H78C88S2(N8O7)2
_chemical_formula_sum   'Co6 H156 C176 S4 N32 O28'
_cell_volume   4501.01969460
_cell_formula_units_Z   2
loop_
 _symmetry_equiv_pos_site_id
 _symmetry_equiv_pos_as_xyz
  1  'x, y, z'
loop_
 _atom_site_type_symbol
 _atom_site_label
 _atom_site_symmetry_multiplicity
 _atom_site_fract_x
 _atom_site_fract_y
 _atom_site_fract_z
 _atom_site_occupancy
 _atom_site_charge
  Co  Co1  1  0.558320  0.072670  0.721740  1.0  0.8749
  Co  Co2  1  0.836580  0.427330  0.278260  1.0  0.8741
  Co  Co3  1  0.441680  0.927330  0.278260  1.0  0.8761
  Co  Co4  1  0.163420  0.572670  0.721740  1.0  0.8752
  Co  Co5  1  0.982340  0.250000  0.000000  1.0  0.9799
  Co  Co6  1  0.017660  0.750000  0.000000  1.0  0.9804
  H  H7  1  0.081400  0.058100  0.497800  1.0  0.0637
  H  H8  1  0.056700  0.039200  0.557200  1.0  0.0749
  H  H9  1  0.687800  0.944000  0.661400  1.0  0.0831
  H  H10  1  0.699700  0.759100  0.661400  1.0  0.1071
  H  H11  1  0.757700  0.818000  0.634200  1.0  0.0839
  H  H12  1  0.864500  0.786900  0.748800  1.0  0.0723
  H  H13  1  0.923500  0.761800  0.693200  1.0  0.0628
  H  H14  1  0.351800  0.649500  0.643400  1.0  0.1146
  H  H15  1  0.416000  0.731300  0.591600  1.0  0.1002
  H  H16  1  0.357300  0.847600  0.607000  1.0  0.0745
  H  H17  1  0.244700  0.889300  0.679200  1.0  0.1231
  H  H18  1  0.107100  0.724200  0.789800  1.0  0.0813
  H  H19  1  0.077400  0.857800  0.808600  1.0  0.0944
  H  H20  1  0.146100  0.904300  0.774200  1.0  0.0919
  H  H21  1  0.461800  0.973000  0.819400  1.0  0.1169
  H  H22  1  0.430800  0.876900  0.863800  1.0  0.0856
  H  H23  1  0.507100  0.767200  0.833800  1.0  0.0883
  H  H24  1  0.621900  0.749400  0.759600  1.0  0.1093
  H  H25  1  0.631600  0.149500  0.607000  1.0  0.1104
  H  H26  1  0.607500  0.184600  0.515400  1.0  0.0936
  H  H27  1  0.441300  0.137200  0.436000  1.0  0.0823
  H  H28  1  0.289600  0.055100  0.445000  1.0  0.1185
  H  H29  1  0.327200  0.982000  0.635200  1.0  0.0886
  H  H30  1  0.159500  0.930800  0.540000  1.0  0.0874
  H  H31  1  0.183700  0.949400  0.480200  1.0  0.0842
  H  H32  1  0.139600  0.059400  0.703000  1.0  0.1018
  H  H33  1  0.228500  0.153200  0.875400  1.0  0.0964
  H  H34  1  0.859100  0.142200  0.781400  1.0  0.0956
  H  H35  1  0.043900  0.341800  0.903600  1.0  0.1155
  H  H36  1  0.055400  0.436200  0.854400  1.0  0.0841
  H  H37  1  0.935500  0.535200  0.870400  1.0  0.0811
  H  H38  1  0.799800  0.544100  0.935800  1.0  0.1212
  H  H39  1  0.771100  0.351100  0.042000  1.0  0.0952
  H  H40  1  0.715700  0.530900  0.033000  1.0  0.0942
  H  H41  1  0.676600  0.470200  0.064200  1.0  0.0868
  H  H42  1  0.515000  0.427300  0.977200  1.0  0.0676
  H  H43  1  0.552100  0.490500  0.948200  1.0  0.0742
  H  H44  1  0.917500  0.906100  0.745200  1.0  0.0693
  H  H45  1  0.980200  0.879700  0.691000  1.0  0.0804
  H  H46  1  0.583600  0.441900  0.502200  1.0  0.0671
  H  H47  1  0.499500  0.460800  0.442800  1.0  0.0741
  H  H48  1  0.026400  0.556000  0.338600  1.0  0.0834
  H  H49  1  0.038300  0.740900  0.338600  1.0  0.1074
  H  H50  1  0.123500  0.682000  0.365800  1.0  0.0808
  H  H51  1  0.115700  0.713100  0.251200  1.0  0.0725
  H  H52  1  0.230300  0.738200  0.306800  1.0  0.0614
  H  H53  1  0.708400  0.850500  0.356600  1.0  0.115
  H  H54  1  0.824400  0.768700  0.408400  1.0  0.0994
  H  H55  1  0.750300  0.652400  0.393000  1.0  0.0753
  H  H56  1  0.565500  0.610700  0.320800  1.0  0.1229
  H  H57  1  0.317300  0.775800  0.210200  1.0  0.0812
  H  H58  1  0.268800  0.642200  0.191400  1.0  0.0946
  H  H59  1  0.371900  0.595700  0.225800  1.0  0.0901
  H  H60  1  0.642400  0.527000  0.180600  1.0  0.1171
  H  H61  1  0.567000  0.623100  0.136200  1.0  0.0844
  H  H62  1  0.673300  0.732800  0.166200  1.0  0.089
  H  H63  1  0.862300  0.750600  0.240400  1.0  0.109
  H  H64  1  0.024600  0.350500  0.393000  1.0  0.1105
  H  H65  1  0.092100  0.315400  0.484600  1.0  0.0933
  H  H66  1  0.005300  0.362800  0.564000  1.0  0.0816
  H  H67  1  0.844600  0.444900  0.555000  1.0  0.1203
  H  H68  1  0.692000  0.518000  0.364800  1.0  0.0868
  H  H69  1  0.619500  0.569200  0.460000  1.0  0.0873
  H  H70  1  0.703500  0.550600  0.519800  1.0  0.0828
  H  H71  1  0.436600  0.440600  0.297000  1.0  0.1013
  H  H72  1  0.353100  0.346800  0.124600  1.0  0.0953
  H  H73  1  0.077700  0.357800  0.218600  1.0  0.0949
  H  H74  1  0.140300  0.158200  0.096400  1.0  0.1157
  H  H75  1  0.201000  0.063800  0.145600  1.0  0.0838
  H  H76  1  0.065100  0.964800  0.129600  1.0  0.0803
  H  H77  1  0.864000  0.955900  0.064200  1.0  0.1209
  H  H78  1  0.729100  0.148900  0.958000  1.0  0.0936
  H  H79  1  0.682700  0.969100  0.967000  1.0  0.092
  H  H80  1  0.612400  0.029800  0.935800  1.0  0.0873
  H  H81  1  0.537800  0.072700  0.022800  1.0  0.0686
  H  H82  1  0.603900  0.009500  0.051800  1.0  0.0739
  H  H83  1  0.172300  0.593900  0.254800  1.0  0.0699
  H  H84  1  0.289200  0.620300  0.309000  1.0  0.0806
  H  H85  1  0.918600  0.941900  0.502200  1.0  0.0672
  H  H86  1  0.943300  0.960800  0.442800  1.0  0.0746
  H  H87  1  0.312200  0.056000  0.338600  1.0  0.0832
  H  H88  1  0.300300  0.240900  0.338600  1.0  0.1069
  H  H89  1  0.242300  0.182000  0.365800  1.0  0.0835
  H  H90  1  0.135500  0.213100  0.251200  1.0  0.0731
  H  H91  1  0.076500  0.238200  0.306800  1.0  0.0625
  H  H92  1  0.648200  0.350500  0.356600  1.0  0.1158
  H  H93  1  0.584000  0.268700  0.408400  1.0  0.1
  H  H94  1  0.642700  0.152400  0.393000  1.0  0.0742
  H  H95  1  0.755300  0.110700  0.320800  1.0  0.1224
  H  H96  1  0.892900  0.275800  0.210200  1.0  0.0821
  H  H97  1  0.922600  0.142200  0.191400  1.0  0.0946
  H  H98  1  0.853900  0.095700  0.225800  1.0  0.0919
  H  H99  1  0.538200  0.027000  0.180600  1.0  0.1167
  H  H100  1  0.569200  0.123100  0.136200  1.0  0.0861
  H  H101  1  0.492900  0.232800  0.166200  1.0  0.0889
  H  H102  1  0.378100  0.250600  0.240400  1.0  0.1087
  H  H103  1  0.368400  0.850500  0.393000  1.0  0.1104
  H  H104  1  0.392500  0.815400  0.484600  1.0  0.0936
  H  H105  1  0.558700  0.862800  0.564000  1.0  0.0821
  H  H106  1  0.710400  0.944900  0.555000  1.0  0.1188
  H  H107  1  0.672800  0.018000  0.364800  1.0  0.0878
  H  H108  1  0.840500  0.069200  0.460000  1.0  0.0881
  H  H109  1  0.816300  0.050600  0.519800  1.0  0.083
  H  H110  1  0.860400  0.940600  0.297000  1.0  0.1018
  H  H111  1  0.771500  0.846800  0.124600  1.0  0.0962
  H  H112  1  0.140900  0.857800  0.218600  1.0  0.0956
  H  H113  1  0.956100  0.658200  0.096400  1.0  0.1156
  H  H114  1  0.944600  0.563800  0.145600  1.0  0.0839
  H  H115  1  0.064500  0.464800  0.129600  1.0  0.0808
  H  H116  1  0.200200  0.455900  0.064200  1.0  0.1211
  H  H117  1  0.228900  0.648900  0.958000  1.0  0.0949
  H  H118  1  0.284300  0.469100  0.967000  1.0  0.0935
  H  H119  1  0.323400  0.529800  0.935800  1.0  0.0875
  H  H120  1  0.485000  0.572700  0.022800  1.0  0.0689
  H  H121  1  0.447900  0.509500  0.051800  1.0  0.0746
  H  H122  1  0.082500  0.093900  0.254800  1.0  0.0703
  H  H123  1  0.019800  0.120300  0.309000  1.0  0.081
  H  H124  1  0.416400  0.558100  0.497800  1.0  0.0654
  H  H125  1  0.500500  0.539200  0.557200  1.0  0.0727
  H  H126  1  0.973600  0.444000  0.661400  1.0  0.0829
  H  H127  1  0.961700  0.259100  0.661400  1.0  0.1059
  H  H128  1  0.876500  0.318000  0.634200  1.0  0.0818
  H  H129  1  0.884300  0.286900  0.748800  1.0  0.0722
  H  H130  1  0.769700  0.261800  0.693200  1.0  0.0619
  H  H131  1  0.291600  0.149500  0.643400  1.0  0.1154
  H  H132  1  0.175600  0.231300  0.591600  1.0  0.0993
  H  H133  1  0.249700  0.347600  0.607000  1.0  0.0754
  H  H134  1  0.434500  0.389300  0.679200  1.0  0.1235
  H  H135  1  0.682700  0.224200  0.789800  1.0  0.0819
  H  H136  1  0.731200  0.357800  0.808600  1.0  0.0943
  H  H137  1  0.628100  0.404300  0.774200  1.0  0.09
  H  H138  1  0.357600  0.473000  0.819400  1.0  0.1172
  H  H139  1  0.433000  0.376900  0.863800  1.0  0.0849
  H  H140  1  0.326700  0.267200  0.833800  1.0  0.0884
  H  H141  1  0.137700  0.249400  0.759600  1.0  0.1093
  H  H142  1  0.975400  0.649500  0.607000  1.0  0.1105
  H  H143  1  0.907900  0.684600  0.515400  1.0  0.0949
  H  H144  1  0.994700  0.637200  0.436000  1.0  0.0819
  H  H145  1  0.155400  0.555100  0.445000  1.0  0.1198
  H  H146  1  0.308000  0.482000  0.635200  1.0  0.0868
  H  H147  1  0.380500  0.430800  0.540000  1.0  0.0874
  H  H148  1  0.296500  0.449400  0.480200  1.0  0.0838
  H  H149  1  0.563400  0.559400  0.703000  1.0  0.1007
  H  H150  1  0.646900  0.653200  0.875400  1.0  0.0957
  H  H151  1  0.922300  0.642200  0.781400  1.0  0.0957
  H  H152  1  0.859700  0.841800  0.903600  1.0  0.1157
  H  H153  1  0.799000  0.936200  0.854400  1.0  0.0835
  H  H154  1  0.934900  0.035200  0.870400  1.0  0.0808
  H  H155  1  0.136000  0.044100  0.935800  1.0  0.121
  H  H156  1  0.270900  0.851100  0.042000  1.0  0.0936
  H  H157  1  0.317300  0.030900  0.033000  1.0  0.0936
  H  H158  1  0.387600  0.970200  0.064200  1.0  0.0881
  H  H159  1  0.462200  0.927300  0.977200  1.0  0.0679
  H  H160  1  0.396100  0.990500  0.948200  1.0  0.0728
  H  H161  1  0.827700  0.406100  0.745200  1.0  0.069
  H  H162  1  0.710800  0.379700  0.691000  1.0  0.0802
  C  C163  1  0.064070  0.019190  0.517140  1.0  -0.1256
  C  C164  1  0.654580  0.926080  0.689960  1.0  0.16
  C  C165  1  0.745740  0.805120  0.671080  1.0  -0.0202
  C  C166  1  0.877700  0.799860  0.712000  1.0  -0.1477
  C  C167  1  0.227590  0.792360  0.702980  1.0  0.0813
  C  C168  1  0.255120  0.720400  0.691640  1.0  0.1255
  C  C169  1  0.328830  0.696740  0.650260  1.0  -0.1345
  C  C170  1  0.366770  0.745860  0.619540  1.0  -0.083
  C  C171  1  0.332930  0.816500  0.629660  1.0  -0.1018
  C  C172  1  0.264930  0.841710  0.671860  1.0  -0.1694
  C  C173  1  0.148990  0.733590  0.760780  1.0  0.1826
  C  C174  1  0.092380  0.861570  0.769760  1.0  -0.0163
  C  C175  1  0.607100  0.851280  0.744400  1.0  0.0711
  C  C176  1  0.559080  0.918200  0.761160  1.0  0.1122
  C  C177  1  0.492960  0.928730  0.806920  1.0  -0.1531
  C  C178  1  0.475220  0.871220  0.833240  1.0  -0.0848
  C  C179  1  0.522110  0.804830  0.815220  1.0  -0.1006
  C  C180  1  0.589460  0.793550  0.771120  1.0  -0.1504
  C  C181  1  0.373650  0.053110  0.532700  1.0  0.0938
  C  C182  1  0.475640  0.080380  0.581080  1.0  0.0923
  C  C183  1  0.563920  0.130370  0.575040  1.0  -0.1206
  C  C184  1  0.548920  0.150980  0.520440  1.0  -0.0711
  C  C185  1  0.447610  0.122400  0.472420  1.0  -0.0921
  C  C186  1  0.357650  0.073600  0.477100  1.0  -0.168
  C  C187  1  0.358790  0.008380  0.610980  1.0  0.1861
  C  C188  1  0.176680  0.969570  0.520360  1.0  -0.0157
  C  C189  1  0.114270  0.083220  0.736540  1.0  -0.0024
  C  C190  1  0.207730  0.105090  0.789860  1.0  -0.1698
  C  C191  1  0.167330  0.139610  0.839660  1.0  -0.0161
  C  C192  1  0.037530  0.154090  0.836860  1.0  -0.1666
  C  C193  1  0.946470  0.132550  0.783540  1.0  -0.0221
  C  C194  1  0.983870  0.097170  0.733940  1.0  -0.2418
  C  C195  1  0.350280  0.092860  0.792560  1.0  0.6581
  C  C196  1  0.989900  0.190400  0.889400  1.0  0.6507
  C  C197  1  0.839830  0.447130  0.958260  1.0  0.0902
  C  C198  1  0.912250  0.386270  0.948900  1.0  0.1431
  C  C199  1  0.994770  0.381650  0.909940  1.0  -0.1359
  C  C200  1  0.001240  0.438080  0.881080  1.0  -0.079
  C  C201  1  0.928660  0.498100  0.890720  1.0  -0.085
  C  C202  1  0.847660  0.503770  0.929320  1.0  -0.1547
  C  C203  1  0.804360  0.370930  0.014320  1.0  0.1732
  C  C204  1  0.682000  0.482200  0.026000  1.0  0.0125
  C  C205  1  0.547440  0.476400  0.985680  1.0  -0.1168
  C  C206  1  0.963960  0.867580  0.727520  1.0  -0.1341
  C  C207  1  0.546930  0.480810  0.482860  1.0  -0.1227
  C  C208  1  0.964620  0.573920  0.310040  1.0  0.1599
  C  C209  1  0.074660  0.694880  0.328920  1.0  -0.0193
  C  C210  1  0.165700  0.700140  0.288000  1.0  -0.1513
  C  C211  1  0.524610  0.707640  0.297020  1.0  0.0818
  C  C212  1  0.563480  0.779600  0.308360  1.0  0.1247
  C  C213  1  0.678570  0.803260  0.349740  1.0  -0.134
  C  C214  1  0.747230  0.754140  0.380460  1.0  -0.0837
  C  C215  1  0.703270  0.683500  0.370340  1.0  -0.0983
  C  C216  1  0.593070  0.658290  0.328140  1.0  -0.1673
  C  C217  1  0.388210  0.766410  0.239220  1.0  0.1852
  C  C218  1  0.322620  0.638430  0.230240  1.0  -0.0146
  C  C219  1  0.862700  0.648720  0.255600  1.0  0.069
  C  C220  1  0.797920  0.581800  0.238840  1.0  0.1105
  C  C221  1  0.686040  0.571270  0.193080  1.0  -0.1553
  C  C222  1  0.641980  0.628780  0.166760  1.0  -0.088
  C  C223  1  0.706890  0.695170  0.184780  1.0  -0.1033
  C  C224  1  0.818340  0.706450  0.228880  1.0  -0.1507
  C  C225  1  0.840950  0.446890  0.467300  1.0  0.0937
  C  C226  1  0.894560  0.419620  0.418920  1.0  0.0912
  C  C227  1  0.988880  0.369630  0.424960  1.0  -0.1223
  C  C228  1  0.028480  0.349020  0.479560  1.0  -0.0746
  C  C229  1  0.975190  0.377600  0.527580  1.0  -0.0934
  C  C230  1  0.880550  0.426400  0.522900  1.0  -0.1695
  C  C231  1  0.747810  0.491620  0.389020  1.0  0.1876
  C  C232  1  0.656320  0.530430  0.479640  1.0  -0.0146
  C  C233  1  0.377730  0.416780  0.263460  1.0  -0.0034
  C  C234  1  0.417870  0.394910  0.210140  1.0  -0.1702
  C  C235  1  0.327670  0.360390  0.160340  1.0  -0.0166
  C  C236  1  0.200670  0.345910  0.163140  1.0  -0.1639
  C  C237  1  0.162930  0.367450  0.216460  1.0  -0.0212
  C  C238  1  0.249930  0.402830  0.266060  1.0  -0.2405
  C  C239  1  0.557720  0.407140  0.207440  1.0  0.6578
  C  C240  1  0.100500  0.309600  0.110600  1.0  0.6492
  C  C241  1  0.881570  0.052870  0.041740  1.0  0.0907
  C  C242  1  0.963350  0.113730  0.051100  1.0  0.1426
  C  C243  1  0.084830  0.118350  0.090060  1.0  -0.1342
  C  C244  1  0.120160  0.061920  0.118920  1.0  -0.0795
  C  C245  1  0.037940  0.001900  0.109280  1.0  -0.086
  C  C246  1  0.918340  0.996230  0.070680  1.0  -0.1581
  C  C247  1  0.790040  0.129070  0.985680  1.0  0.173
  C  C248  1  0.656000  0.017800  0.974000  1.0  0.011
  C  C249  1  0.561760  0.023600  0.014320  1.0  -0.1186
  C  C250  1  0.236440  0.632420  0.272480  1.0  -0.1337
  C  C251  1  0.935930  0.980810  0.482860  1.0  -0.1113
  C  C252  1  0.345420  0.073920  0.310040  1.0  0.1607
  C  C253  1  0.254260  0.194880  0.328920  1.0  -0.0211
  C  C254  1  0.122300  0.200140  0.288000  1.0  -0.1497
  C  C255  1  0.772410  0.207640  0.297020  1.0  0.0817
  C  C256  1  0.744880  0.279600  0.308360  1.0  0.1245
  C  C257  1  0.671170  0.303260  0.349740  1.0  -0.1316
  C  C258  1  0.633230  0.254140  0.380460  1.0  -0.0843
  C  C259  1  0.667070  0.183500  0.370340  1.0  -0.1004
  C  C260  1  0.735070  0.158290  0.328140  1.0  -0.1676
  C  C261  1  0.851010  0.266410  0.239220  1.0  0.1822
  C  C262  1  0.907620  0.138430  0.230240  1.0  -0.0169
  C  C263  1  0.392900  0.148720  0.255600  1.0  0.0705
  C  C264  1  0.440920  0.081800  0.238840  1.0  0.112
  C  C265  1  0.507040  0.071270  0.193080  1.0  -0.155
  C  C266  1  0.524780  0.128780  0.166760  1.0  -0.0864
  C  C267  1  0.477890  0.195170  0.184780  1.0  -0.1017
  C  C268  1  0.410540  0.206450  0.228880  1.0  -0.1491
  C  C269  1  0.626350  0.946890  0.467300  1.0  0.0944
  C  C270  1  0.524360  0.919620  0.418920  1.0  0.0922
  C  C271  1  0.436080  0.869630  0.424960  1.0  -0.1225
  C  C272  1  0.451080  0.849020  0.479560  1.0  -0.0745
  C  C273  1  0.552390  0.877600  0.527580  1.0  -0.0934
  C  C274  1  0.642350  0.926400  0.522900  1.0  -0.1677
  C  C275  1  0.641210  0.991620  0.389020  1.0  0.1856
  C  C276  1  0.823320  0.030430  0.479640  1.0  -0.0146
  C  C277  1  0.885730  0.916780  0.263460  1.0  -0.0039
  C  C278  1  0.792270  0.894910  0.210140  1.0  -0.1711
  C  C279  1  0.832670  0.860390  0.160340  1.0  -0.0158
  C  C280  1  0.962470  0.845910  0.163140  1.0  -0.1684
  C  C281  1  0.053530  0.867450  0.216460  1.0  -0.0227
  C  C282  1  0.016130  0.902830  0.266060  1.0  -0.2416
  C  C283  1  0.649720  0.907140  0.207440  1.0  0.657
  C  C284  1  0.010100  0.809600  0.110600  1.0  0.6514
  C  C285  1  0.160170  0.552870  0.041740  1.0  0.0905
  C  C286  1  0.087750  0.613730  0.051100  1.0  0.1432
  C  C287  1  0.005230  0.618350  0.090060  1.0  -0.1361
  C  C288  1  0.998760  0.561920  0.118920  1.0  -0.0786
  C  C289  1  0.071340  0.501900  0.109280  1.0  -0.085
  C  C290  1  0.152340  0.496230  0.070680  1.0  -0.1562
  C  C291  1  0.195640  0.629070  0.985680  1.0  0.1724
  C  C292  1  0.318000  0.517800  0.974000  1.0  0.0124
  C  C293  1  0.452560  0.523600  0.014320  1.0  -0.1166
  C  C294  1  0.036040  0.132420  0.272480  1.0  -0.1348
  C  C295  1  0.453070  0.519190  0.517140  1.0  -0.1129
  C  C296  1  0.035380  0.426080  0.689960  1.0  0.1608
  C  C297  1  0.925340  0.305120  0.671080  1.0  -0.0199
  C  C298  1  0.834300  0.299860  0.712000  1.0  -0.1492
  C  C299  1  0.475390  0.292360  0.702980  1.0  0.0812
  C  C300  1  0.436520  0.220400  0.691640  1.0  0.1253
  C  C301  1  0.321430  0.196740  0.650260  1.0  -0.1356
  C  C302  1  0.252770  0.245860  0.619540  1.0  -0.0837
  C  C303  1  0.296730  0.316500  0.629660  1.0  -0.1004
  C  C304  1  0.406930  0.341710  0.671860  1.0  -0.1678
  C  C305  1  0.611790  0.233590  0.760780  1.0  0.1842
  C  C306  1  0.677380  0.361570  0.769760  1.0  -0.0145
  C  C307  1  0.137300  0.351280  0.744400  1.0  0.0704
  C  C308  1  0.202080  0.418200  0.761160  1.0  0.1101
  C  C309  1  0.313960  0.428730  0.806920  1.0  -0.1546
  C  C310  1  0.358020  0.371220  0.833240  1.0  -0.0868
  C  C311  1  0.293110  0.304830  0.815220  1.0  -0.1027
  C  C312  1  0.181660  0.293550  0.771120  1.0  -0.1518
  C  C313  1  0.159050  0.553110  0.532700  1.0  0.0953
  C  C314  1  0.105440  0.580380  0.581080  1.0  0.0914
  C  C315  1  0.011120  0.630370  0.575040  1.0  -0.122
  C  C316  1  0.971520  0.650980  0.520440  1.0  -0.0738
  C  C317  1  0.024810  0.622400  0.472420  1.0  -0.0928
  C  C318  1  0.119450  0.573600  0.477100  1.0  -0.1676
  C  C319  1  0.252190  0.508380  0.610980  1.0  0.1865
  C  C320  1  0.343680  0.469570  0.520360  1.0  -0.0156
  C  C321  1  0.622270  0.583220  0.736540  1.0  -0.0038
  C  C322  1  0.582130  0.605090  0.789860  1.0  -0.1701
  C  C323  1  0.672330  0.639610  0.839660  1.0  -0.0168
  C  C324  1  0.799330  0.654090  0.836860  1.0  -0.1634
  C  C325  1  0.837070  0.632550  0.783540  1.0  -0.0236
  C  C326  1  0.750070  0.597170  0.733940  1.0  -0.2407
  C  C327  1  0.442280  0.592860  0.792560  1.0  0.6562
  C  C328  1  0.899500  0.690400  0.889400  1.0  0.6495
  C  C329  1  0.118430  0.947130  0.958260  1.0  0.0905
  C  C330  1  0.036650  0.886270  0.948900  1.0  0.1428
  C  C331  1  0.915170  0.881650  0.909940  1.0  -0.1337
  C  C332  1  0.879840  0.938080  0.881080  1.0  -0.0792
  C  C333  1  0.962060  0.998100  0.890720  1.0  -0.0864
  C  C334  1  0.081660  0.003770  0.929320  1.0  -0.1542
  C  C335  1  0.209960  0.870930  0.014320  1.0  0.1724
  C  C336  1  0.344000  0.982200  0.026000  1.0  0.0137
  C  C337  1  0.438240  0.976400  0.985680  1.0  -0.1161
  C  C338  1  0.763560  0.367580  0.727520  1.0  -0.1335
  S  S339  1  0.862090  0.074120  0.667200  1.0  1.3791
  S  S340  1  0.194890  0.425880  0.332800  1.0  1.3792
  S  S341  1  0.137910  0.925880  0.332800  1.0  1.3797
  S  S342  1  0.805110  0.574120  0.667200  1.0  1.3785
  N  N343  1  0.590790  0.964750  0.725580  1.0  -0.4445
  N  N344  1  0.667240  0.858070  0.698680  1.0  0.032
  N  N345  1  0.200800  0.684120  0.728200  1.0  -0.4562
  N  N346  1  0.161750  0.799400  0.748500  1.0  0.0289
  N  N347  1  0.463480  0.050240  0.630360  1.0  -0.4283
  N  N348  1  0.300500  0.006620  0.553200  1.0  0.031
  N  N349  1  0.887580  0.338790  0.984960  1.0  -0.455
  N  N350  1  0.772430  0.435010  0.000460  1.0  0.0507
  N  N351  1  0.865210  0.535250  0.274420  1.0  -0.4452
  N  N352  1  0.968560  0.641930  0.301320  1.0  0.0324
  N  N353  1  0.472600  0.815880  0.271800  1.0  -0.456
  N  N354  1  0.413250  0.700600  0.251500  1.0  0.0303
  N  N355  1  0.833120  0.449760  0.369640  1.0  -0.4285
  N  N356  1  0.747300  0.493380  0.446800  1.0  0.0319
  N  N357  1  0.902620  0.161210  0.015040  1.0  -0.4557
  N  N358  1  0.771970  0.064990  0.999540  1.0  0.0508
  N  N359  1  0.409210  0.035250  0.274420  1.0  -0.4442
  N  N360  1  0.332760  0.141930  0.301320  1.0  0.0328
  N  N361  1  0.799200  0.315880  0.271800  1.0  -0.4569
  N  N362  1  0.838250  0.200600  0.251500  1.0  0.0284
  N  N363  1  0.536520  0.949760  0.369640  1.0  -0.4304
  N  N364  1  0.699500  0.993380  0.446800  1.0  0.0315
  N  N365  1  0.112420  0.661210  0.015040  1.0  -0.4553
  N  N366  1  0.227570  0.564990  0.999540  1.0  0.0515
  N  N367  1  0.134790  0.464750  0.725580  1.0  -0.4452
  N  N368  1  0.031440  0.358070  0.698680  1.0  0.0326
  N  N369  1  0.527400  0.184120  0.728200  1.0  -0.4551
  N  N370  1  0.586750  0.299400  0.748500  1.0  0.0294
  N  N371  1  0.166880  0.550240  0.630360  1.0  -0.4277
  N  N372  1  0.252700  0.506620  0.553200  1.0  0.0316
  N  N373  1  0.097380  0.838790  0.984960  1.0  -0.4543
  N  N374  1  0.228030  0.935010  0.000460  1.0  0.0515
  O  O375  1  0.379540  0.062880  0.745300  1.0  -0.6034
  O  O376  1  0.429310  0.113540  0.840960  1.0  -0.6028
  O  O377  1  0.871300  0.195600  0.886600  1.0  -0.6076
  O  O378  1  0.076400  0.214890  0.936600  1.0  -0.6169
  O  O379  1  0.740230  0.080790  0.687460  1.0  -0.7598
  O  O380  1  0.878440  0.125410  0.630680  1.0  -0.5835
  O  O381  1  0.883560  0.001980  0.642120  1.0  -0.6338
  O  O382  1  0.634240  0.437120  0.254700  1.0  -0.6031
  O  O383  1  0.588350  0.386460  0.159040  1.0  -0.6028
  O  O384  1  0.984700  0.304400  0.113400  1.0  -0.6076
  O  O385  1  0.139800  0.285110  0.063400  1.0  -0.6175
  O  O386  1  0.052770  0.419210  0.312540  1.0  -0.7596
  O  O387  1  0.247760  0.374590  0.369320  1.0  -0.5821
  O  O388  1  0.241440  0.498020  0.357880  1.0  -0.6333
  O  O389  1  0.620460  0.937120  0.254700  1.0  -0.6026
  O  O390  1  0.570690  0.886460  0.159040  1.0  -0.6033
  O  O391  1  0.128700  0.804400  0.113400  1.0  -0.6093
  O  O392  1  0.923600  0.785110  0.063400  1.0  -0.6163
  O  O393  1  0.259770  0.919210  0.312540  1.0  -0.7621
  O  O394  1  0.121560  0.874590  0.369320  1.0  -0.5846
  O  O395  1  0.116440  0.998020  0.357880  1.0  -0.6354
  O  O396  1  0.365760  0.562880  0.745300  1.0  -0.6019
  O  O397  1  0.411650  0.613540  0.840960  1.0  -0.6027
  O  O398  1  0.015300  0.695600  0.886600  1.0  -0.6081
  O  O399  1  0.860200  0.714890  0.936600  1.0  -0.616
  O  O400  1  0.947230  0.580790  0.687460  1.0  -0.7568
  O  O401  1  0.752240  0.625410  0.630680  1.0  -0.582
  O  O402  1  0.758560  0.501980  0.642120  1.0  -0.632
