# generated using pymatgen
data_CdH20C26(N2O3)2
_symmetry_space_group_name_H-M   'P 1'
_cell_length_a   9.36100000
_cell_length_b   12.71300000
_cell_length_c   12.75500000
_cell_angle_alpha   111.84300000
_cell_angle_beta   105.93800000
_cell_angle_gamma   97.10400000
_symmetry_Int_Tables_number   1
_chemical_formula_structural   CdH20C26(N2O3)2
_chemical_formula_sum   'Cd2 H40 C52 N8 O12'
_cell_volume   1310.70092059
_cell_formula_units_Z   2
loop_
 _symmetry_equiv_pos_site_id
 _symmetry_equiv_pos_as_xyz
  1  'x, y, z'
loop_
 _atom_site_type_symbol
 _atom_site_label
 _atom_site_symmetry_multiplicity
 _atom_site_fract_x
 _atom_site_fract_y
 _atom_site_fract_z
 _atom_site_occupancy
 _atom_site_charge
  Cd  Cd1  1  0.014850  0.396690  0.577740  1.0  1.0073
  Cd  Cd2  1  0.985150  0.603310  0.422260  1.0  1.0069
  H  H3  1  0.625200  0.352600  0.447100  1.0  0.1022
  H  H4  1  0.444000  0.176500  0.280200  1.0  0.1301
  H  H5  1  0.864900  0.134900  0.339600  1.0  0.0867
  H  H6  1  0.388100  0.956400  0.202600  1.0  0.0977
  H  H7  1  0.290900  0.773200  0.040500  1.0  0.1262
  H  H8  1  0.665200  0.829100  0.952900  1.0  0.1019
  H  H9  1  0.759500  0.010900  0.114800  1.0  0.1059
  H  H10  1  0.181900  0.657500  0.823800  1.0  0.0856
  H  H11  1  0.595100  0.604800  0.853700  1.0  0.1392
  H  H12  1  0.406700  0.439400  0.679200  1.0  0.1071
  H  H13  1  0.064000  0.061100  0.633900  1.0  0.1121
  H  H14  1  0.229400  0.141200  0.714100  1.0  0.0928
  H  H15  1  0.417900  0.238600  0.688600  1.0  0.116
  H  H16  1  0.225200  0.853400  0.407100  1.0  0.1047
  H  H17  1  0.675000  0.283600  0.706100  1.0  0.1048
  H  H18  1  0.698400  0.671200  0.640300  1.0  0.1108
  H  H19  1  0.849400  0.737800  0.637700  1.0  0.0961
  H  H20  1  0.835200  0.902700  0.694100  1.0  0.1216
  H  H21  1  0.915800  0.105500  0.786000  1.0  0.0916
  H  H22  1  0.029000  0.204200  0.990300  1.0  0.1116
  H  H23  1  0.374800  0.647400  0.552900  1.0  0.1018
  H  H24  1  0.556000  0.823500  0.719800  1.0  0.1295
  H  H25  1  0.135100  0.865100  0.660400  1.0  0.0862
  H  H26  1  0.611900  0.043600  0.797400  1.0  0.098
  H  H27  1  0.709100  0.226800  0.959500  1.0  0.1265
  H  H28  1  0.334800  0.170900  0.047100  1.0  0.102
  H  H29  1  0.240500  0.989100  0.885200  1.0  0.1063
  H  H30  1  0.818100  0.342500  0.176200  1.0  0.0858
  H  H31  1  0.404900  0.395200  0.146300  1.0  0.1409
  H  H32  1  0.593300  0.560600  0.320800  1.0  0.1069
  H  H33  1  0.936000  0.938900  0.366100  1.0  0.1123
  H  H34  1  0.770600  0.858800  0.285900  1.0  0.0926
  H  H35  1  0.582100  0.761400  0.311400  1.0  0.1156
  H  H36  1  0.774800  0.146600  0.592900  1.0  0.1055
  H  H37  1  0.325000  0.716400  0.293900  1.0  0.1035
  H  H38  1  0.301600  0.328800  0.359700  1.0  0.1091
  H  H39  1  0.150600  0.262200  0.362300  1.0  0.0959
  H  H40  1  0.164800  0.097300  0.305900  1.0  0.1225
  H  H41  1  0.084200  0.894500  0.214000  1.0  0.0905
  H  H42  1  0.971000  0.795800  0.009700  1.0  0.1124
  C  C43  1  0.650800  0.285200  0.404400  1.0  0.0431
  C  C44  1  0.550000  0.189300  0.311400  1.0  -0.1629
  C  C45  1  0.782500  0.167800  0.346200  1.0  0.1636
  C  C46  1  0.579100  0.001500  0.171700  1.0  0.1035
  C  C47  1  0.442600  0.930600  0.151100  1.0  -0.1177
  C  C48  1  0.384300  0.821000  0.054700  1.0  -0.1678
  C  C49  1  0.469100  0.784100  0.979800  1.0  0.115
  C  C50  1  0.608700  0.855000  0.002800  1.0  -0.1153
  C  C51  1  0.665000  0.963600  0.099000  1.0  -0.1299
  C  C52  1  0.260700  0.623200  0.809200  1.0  0.1669
  C  C53  1  0.489400  0.595600  0.826800  1.0  -0.1263
  C  C54  1  0.384700  0.504200  0.730600  1.0  0.0303
  C  C55  1  0.106900  0.209200  0.607200  1.0  0.6626
  C  C56  1  0.153300  0.108500  0.633700  1.0  -0.0706
  C  C57  1  0.367100  0.072900  0.568600  1.0  0.2131
  C  C58  1  0.457800  0.181900  0.643600  1.0  -0.2546
  C  C59  1  0.421400  0.985500  0.493700  1.0  -0.0321
  C  C60  1  0.327600  0.872600  0.414000  1.0  -0.106
  C  C61  1  0.612500  0.209100  0.653300  1.0  -0.0698
  C  C62  1  0.866800  0.583500  0.648900  1.0  0.6917
  C  C63  1  0.809600  0.692400  0.674700  1.0  -0.0528
  C  C64  1  0.905000  0.881500  0.846300  1.0  0.2247
  C  C65  1  0.882300  0.942200  0.777300  1.0  -0.2448
  C  C66  1  0.930500  0.063700  0.832800  1.0  -0.0319
  C  C67  1  0.999000  0.122800  0.954900  1.0  -0.1181
  C  C68  1  0.975100  0.938200  0.972200  1.0  -0.0326
  C  C69  1  0.349200  0.714800  0.595600  1.0  0.0435
  C  C70  1  0.450000  0.810700  0.688600  1.0  -0.1629
  C  C71  1  0.217500  0.832200  0.653800  1.0  0.1632
  C  C72  1  0.420900  0.998500  0.828300  1.0  0.1039
  C  C73  1  0.557400  0.069400  0.848900  1.0  -0.1187
  C  C74  1  0.615700  0.179000  0.945300  1.0  -0.1729
  C  C75  1  0.530900  0.215900  0.020200  1.0  0.1128
  C  C76  1  0.391300  0.145000  0.997200  1.0  -0.1127
  C  C77  1  0.335000  0.036400  0.901000  1.0  -0.1295
  C  C78  1  0.739300  0.376800  0.190800  1.0  0.1668
  C  C79  1  0.510600  0.404400  0.173200  1.0  -0.1258
  C  C80  1  0.615300  0.495800  0.269400  1.0  0.0318
  C  C81  1  0.893100  0.790800  0.392800  1.0  0.6626
  C  C82  1  0.846700  0.891500  0.366300  1.0  -0.0706
  C  C83  1  0.632900  0.927100  0.431400  1.0  0.2138
  C  C84  1  0.542200  0.818100  0.356400  1.0  -0.2544
  C  C85  1  0.578600  0.014500  0.506300  1.0  -0.0325
  C  C86  1  0.672400  0.127400  0.586000  1.0  -0.1075
  C  C87  1  0.387500  0.790900  0.346700  1.0  -0.0838
  C  C88  1  0.133200  0.416500  0.351100  1.0  0.6919
  C  C89  1  0.190400  0.307600  0.325300  1.0  -0.0497
  C  C90  1  0.095000  0.118500  0.153700  1.0  0.2256
  C  C91  1  0.117700  0.057800  0.222700  1.0  -0.2452
  C  C92  1  0.069500  0.936300  0.167200  1.0  -0.0339
  C  C93  1  0.001000  0.877200  0.045100  1.0  -0.0957
  C  C94  1  0.024900  0.061800  0.027800  1.0  -0.032
  N  N95  1  0.795700  0.269700  0.427200  1.0  -0.3847
  N  N96  1  0.637400  0.114300  0.272400  1.0  0.0428
  N  N97  1  0.410600  0.672800  0.877800  1.0  0.0315
  N  N98  1  0.238300  0.521700  0.720000  1.0  -0.3919
  N  N99  1  0.204300  0.730300  0.572800  1.0  -0.3846
  N  N100  1  0.362600  0.885700  0.727600  1.0  0.0429
  N  N101  1  0.589400  0.327200  0.122200  1.0  0.0302
  N  N102  1  0.761700  0.478300  0.280000  1.0  -0.3915
  O  O103  1  0.122900  0.222000  0.519500  1.0  -0.6112
  O  O104  1  0.051000  0.274400  0.677600  1.0  -0.6236
  O  O105  1  0.895700  0.545400  0.553800  1.0  -0.664
  O  O106  1  0.887300  0.534800  0.717000  1.0  -0.6138
  O  O107  1  0.857600  0.761200  0.801400  1.0  -0.2643
  O  O108  1  0.213700  0.034600  0.553000  1.0  -0.2518
  O  O109  1  0.877100  0.778000  0.480500  1.0  -0.6126
  O  O110  1  0.949000  0.725600  0.322400  1.0  -0.6234
  O  O111  1  0.104300  0.454600  0.446200  1.0  -0.6667
  O  O112  1  0.112700  0.465200  0.283000  1.0  -0.6229
  O  O113  1  0.142400  0.238800  0.198600  1.0  -0.2639
  O  O114  1  0.786300  0.965400  0.447000  1.0  -0.2487
