# generated using pymatgen
data_ZnH2(CO)4
_symmetry_space_group_name_H-M   'P 1'
_cell_length_a   11.81130000
_cell_length_b   13.84790000
_cell_length_c   16.33440000
_cell_angle_alpha   90.00000000
_cell_angle_beta   90.00000000
_cell_angle_gamma   112.85100000
_symmetry_Int_Tables_number   1
_chemical_formula_structural   ZnH2(CO)4
_chemical_formula_sum   'Zn12 H24 C48 O48'
_cell_volume   2462.00289086
_cell_formula_units_Z   12
loop_
 _symmetry_equiv_pos_site_id
 _symmetry_equiv_pos_as_xyz
  1  'x, y, z'
loop_
 _atom_site_type_symbol
 _atom_site_label
 _atom_site_symmetry_multiplicity
 _atom_site_fract_x
 _atom_site_fract_y
 _atom_site_fract_z
 _atom_site_occupancy
 _atom_site_charge
  Zn  Zn1  1  0.603310  0.599780  0.452620  1.0  0.9595
  Zn  Zn2  1  0.744540  0.283450  0.454910  1.0  1.1211
  Zn  Zn3  1  0.948120  0.872760  0.631310  1.0  1.2053
  Zn  Zn4  1  0.896690  0.900220  0.952620  1.0  0.9615
  Zn  Zn5  1  0.755460  0.216550  0.954910  1.0  1.1184
  Zn  Zn6  1  0.551880  0.627240  0.131310  1.0  1.2074
  Zn  Zn7  1  0.396690  0.400220  0.547380  1.0  0.9612
  Zn  Zn8  1  0.255460  0.716550  0.545090  1.0  1.1166
  Zn  Zn9  1  0.051880  0.127240  0.368690  1.0  1.2051
  Zn  Zn10  1  0.103310  0.099780  0.047380  1.0  0.959
  Zn  Zn11  1  0.244540  0.783450  0.045090  1.0  1.1191
  Zn  Zn12  1  0.448120  0.372760  0.868690  1.0  1.2044
  H  H13  1  0.896600  0.461000  0.580700  1.0  0.1353
  H  H14  1  0.833200  0.394600  0.704800  1.0  0.1227
  H  H15  1  0.666400  0.371500  0.774500  1.0  0.1138
  H  H16  1  0.823800  0.519500  0.797400  1.0  0.1143
  H  H17  1  0.881800  0.677300  0.743700  1.0  0.1296
  H  H18  1  0.950800  0.562400  0.691600  1.0  0.1312
  H  H19  1  0.603400  0.039000  0.080700  1.0  0.1375
  H  H20  1  0.666800  0.105400  0.204800  1.0  0.124
  H  H21  1  0.833600  0.128500  0.274500  1.0  0.1137
  H  H22  1  0.676200  0.980500  0.297400  1.0  0.1148
  H  H23  1  0.618200  0.822700  0.243700  1.0  0.13
  H  H24  1  0.549200  0.937600  0.191600  1.0  0.133
  H  H25  1  0.103400  0.539000  0.419300  1.0  0.1368
  H  H26  1  0.166800  0.605400  0.295200  1.0  0.1248
  H  H27  1  0.333600  0.628500  0.225500  1.0  0.1145
  H  H28  1  0.176200  0.480500  0.202600  1.0  0.1152
  H  H29  1  0.118200  0.322700  0.256300  1.0  0.13
  H  H30  1  0.049200  0.437600  0.308400  1.0  0.1332
  H  H31  1  0.396600  0.961000  0.919300  1.0  0.1354
  H  H32  1  0.333200  0.894600  0.795200  1.0  0.1236
  H  H33  1  0.166400  0.871500  0.725500  1.0  0.1134
  H  H34  1  0.323800  0.019500  0.702600  1.0  0.1151
  H  H35  1  0.381800  0.177300  0.756300  1.0  0.1303
  H  H36  1  0.450800  0.062400  0.808400  1.0  0.1315
  C  C37  1  0.756200  0.492800  0.533840  1.0  0.743
  C  C38  1  0.833100  0.481100  0.604990  1.0  -0.176
  C  C39  1  0.765900  0.395000  0.669840  1.0  -0.146
  C  C40  1  0.682900  0.422500  0.729890  1.0  -0.1757
  C  C41  1  0.756300  0.530700  0.769680  1.0  -0.1453
  C  C42  1  0.823600  0.621200  0.710270  1.0  -0.1768
  C  C43  1  0.902400  0.584300  0.652540  1.0  -0.1562
  C  C44  1  0.705800  0.281300  0.641100  1.0  0.7041
  C  C45  1  0.557800  0.404800  0.693890  1.0  0.7483
  C  C46  1  0.692900  0.563400  0.839400  1.0  0.7235
  C  C47  1  0.735700  0.665900  0.673510  1.0  0.7195
  C  C48  1  0.002900  0.668600  0.603680  1.0  0.7166
  C  C49  1  0.743800  0.007200  0.033840  1.0  0.7377
  C  C50  1  0.666900  0.018900  0.104990  1.0  -0.1743
  C  C51  1  0.734100  0.105000  0.169840  1.0  -0.1461
  C  C52  1  0.817100  0.077500  0.229890  1.0  -0.1811
  C  C53  1  0.743700  0.969300  0.269680  1.0  -0.1457
  C  C54  1  0.676400  0.878800  0.210270  1.0  -0.1831
  C  C55  1  0.597600  0.915700  0.152540  1.0  -0.1559
  C  C56  1  0.794200  0.218700  0.141100  1.0  0.7036
  C  C57  1  0.942200  0.095200  0.193890  1.0  0.7491
  C  C58  1  0.807100  0.936600  0.339400  1.0  0.728
  C  C59  1  0.764300  0.834100  0.173510  1.0  0.7215
  C  C60  1  0.497100  0.831400  0.103680  1.0  0.713
  C  C61  1  0.243800  0.507200  0.466160  1.0  0.7222
  C  C62  1  0.166900  0.518900  0.395010  1.0  -0.1745
  C  C63  1  0.234100  0.605000  0.330160  1.0  -0.1466
  C  C64  1  0.317100  0.577500  0.270110  1.0  -0.181
  C  C65  1  0.243700  0.469300  0.230320  1.0  -0.1501
  C  C66  1  0.176400  0.378800  0.289730  1.0  -0.1826
  C  C67  1  0.097600  0.415700  0.347460  1.0  -0.156
  C  C68  1  0.294200  0.718700  0.358900  1.0  0.7087
  C  C69  1  0.442200  0.595200  0.306110  1.0  0.7481
  C  C70  1  0.307100  0.436600  0.160600  1.0  0.7241
  C  C71  1  0.264300  0.334100  0.326490  1.0  0.7187
  C  C72  1  0.997100  0.331400  0.396320  1.0  0.7136
  C  C73  1  0.256200  0.992800  0.966160  1.0  0.7235
  C  C74  1  0.333100  0.981100  0.895010  1.0  -0.1745
  C  C75  1  0.265900  0.895000  0.830160  1.0  -0.1461
  C  C76  1  0.182900  0.922500  0.770110  1.0  -0.1809
  C  C77  1  0.256300  0.030700  0.730320  1.0  -0.149
  C  C78  1  0.323600  0.121200  0.789730  1.0  -0.181
  C  C79  1  0.402400  0.084300  0.847460  1.0  -0.1564
  C  C80  1  0.205800  0.781300  0.858900  1.0  0.7052
  C  C81  1  0.057800  0.904800  0.806110  1.0  0.7472
  C  C82  1  0.192900  0.063400  0.660600  1.0  0.7252
  C  C83  1  0.235700  0.165900  0.826490  1.0  0.7196
  C  C84  1  0.502900  0.168600  0.896320  1.0  0.72
  O  O85  1  0.734200  0.573920  0.528370  1.0  -0.554
  O  O86  1  0.722100  0.421380  0.478710  1.0  -0.6699
  O  O87  1  0.744100  0.254000  0.576030  1.0  -0.6771
  O  O88  1  0.630000  0.217720  0.687670  1.0  -0.5572
  O  O89  1  0.542100  0.394530  0.617820  1.0  -0.5902
  O  O90  1  0.470000  0.395030  0.743310  1.0  -0.625
  O  O91  1  0.617900  0.494920  0.885410  1.0  -0.6887
  O  O92  1  0.728300  0.659290  0.853710  1.0  -0.563
  O  O93  1  0.622900  0.613980  0.682680  1.0  -0.5695
  O  O94  1  0.777400  0.754870  0.639060  1.0  -0.6804
  O  O95  1  0.026100  0.763620  0.614840  1.0  -0.6396
  O  O96  1  0.068400  0.636230  0.559540  1.0  -0.5812
  O  O97  1  0.765800  0.926080  0.028370  1.0  -0.5592
  O  O98  1  0.777900  0.078620  0.978710  1.0  -0.6696
  O  O99  1  0.755900  0.246000  0.076030  1.0  -0.6753
  O  O100  1  0.870000  0.282280  0.187670  1.0  -0.5576
  O  O101  1  0.957900  0.105470  0.117820  1.0  -0.5848
  O  O102  1  0.030000  0.104970  0.243310  1.0  -0.6245
  O  O103  1  0.882100  0.005080  0.385410  1.0  -0.6885
  O  O104  1  0.771700  0.840710  0.353710  1.0  -0.5671
  O  O105  1  0.877100  0.886020  0.182680  1.0  -0.5696
  O  O106  1  0.722600  0.745130  0.139060  1.0  -0.6816
  O  O107  1  0.473900  0.736380  0.114840  1.0  -0.6382
  O  O108  1  0.431600  0.863770  0.059540  1.0  -0.5807
  O  O109  1  0.265800  0.426080  0.471630  1.0  -0.5524
  O  O110  1  0.277900  0.578620  0.521290  1.0  -0.6693
  O  O111  1  0.255900  0.746000  0.423970  1.0  -0.6762
  O  O112  1  0.370000  0.782280  0.312330  1.0  -0.5575
  O  O113  1  0.457900  0.605470  0.382180  1.0  -0.5845
  O  O114  1  0.530000  0.604970  0.256690  1.0  -0.6241
  O  O115  1  0.382100  0.505080  0.114590  1.0  -0.6906
  O  O116  1  0.271700  0.340710  0.146290  1.0  -0.5694
  O  O117  1  0.377100  0.386020  0.317320  1.0  -0.5694
  O  O118  1  0.222600  0.245130  0.360940  1.0  -0.6843
  O  O119  1  0.973900  0.236380  0.385160  1.0  -0.6396
  O  O120  1  0.931600  0.363770  0.440460  1.0  -0.5803
  O  O121  1  0.234200  0.073920  0.971630  1.0  -0.5511
  O  O122  1  0.222100  0.921380  0.021290  1.0  -0.6714
  O  O123  1  0.244100  0.754000  0.923970  1.0  -0.677
  O  O124  1  0.130000  0.717720  0.812330  1.0  -0.5568
  O  O125  1  0.042100  0.894530  0.882180  1.0  -0.5855
  O  O126  1  0.970000  0.895030  0.756690  1.0  -0.6248
  O  O127  1  0.117900  0.994920  0.614590  1.0  -0.6892
  O  O128  1  0.228300  0.159290  0.646290  1.0  -0.5649
  O  O129  1  0.122900  0.113980  0.817320  1.0  -0.5692
  O  O130  1  0.277400  0.254870  0.860940  1.0  -0.6834
  O  O131  1  0.526100  0.263620  0.885160  1.0  -0.6407
  O  O132  1  0.568400  0.136230  0.940460  1.0  -0.5813
