# generated using pymatgen
data_Co3H8C12O13
_symmetry_space_group_name_H-M   'P 1'
_cell_length_a   11.81510000
_cell_length_b   13.83620000
_cell_length_c   16.32160000
_cell_angle_alpha   90.00000000
_cell_angle_beta   90.00000000
_cell_angle_gamma   112.76600000
_symmetry_Int_Tables_number   1
_chemical_formula_structural   Co3H8C12O13
_chemical_formula_sum   'Co12 H32 C48 O52'
_cell_volume   2460.32037109
_cell_formula_units_Z   4
loop_
 _symmetry_equiv_pos_site_id
 _symmetry_equiv_pos_as_xyz
  1  'x, y, z'
loop_
 _atom_site_type_symbol
 _atom_site_label
 _atom_site_symmetry_multiplicity
 _atom_site_fract_x
 _atom_site_fract_y
 _atom_site_fract_z
 _atom_site_occupancy
 _atom_site_charge
  Co  Co1  1  0.101520  0.099140  0.954110  1.0  1.0278
  Co  Co2  1  0.759670  0.217830  0.046520  1.0  0.9911
  Co  Co3  1  0.051330  0.126690  0.631090  1.0  1.1839
  Co  Co4  1  0.398480  0.400860  0.454110  1.0  1.0282
  Co  Co5  1  0.740330  0.282170  0.546520  1.0  0.9894
  Co  Co6  1  0.448670  0.373310  0.131090  1.0  1.184
  Co  Co7  1  0.898480  0.900860  0.045890  1.0  1.0284
  Co  Co8  1  0.240330  0.782170  0.953480  1.0  0.9902
  Co  Co9  1  0.948670  0.873310  0.368910  1.0  1.1841
  Co  Co10  1  0.601520  0.599140  0.545890  1.0  1.0288
  Co  Co11  1  0.259670  0.717830  0.453480  1.0  0.9905
  Co  Co12  1  0.551330  0.626690  0.868910  1.0  1.1819
  H  H13  1  0.666400  0.105400  0.795600  1.0  0.1195
  H  H14  1  0.833800  0.128400  0.725700  1.0  0.1125
  H  H15  1  0.677000  0.980300  0.702200  1.0  0.1139
  H  H16  1  0.618500  0.822400  0.755900  1.0  0.1265
  H  H17  1  0.549000  0.937500  0.809100  1.0  0.1339
  H  H18  1  0.603600  0.038900  0.920200  1.0  0.1323
  H  H19  1  0.979400  0.915400  0.896100  1.0  0.4409
  H  H20  1  0.061900  0.901600  0.948400  1.0  0.4416
  H  H21  1  0.833600  0.394600  0.295600  1.0  0.1184
  H  H22  1  0.666200  0.371600  0.225700  1.0  0.1114
  H  H23  1  0.823000  0.519700  0.202200  1.0  0.1141
  H  H24  1  0.881500  0.677600  0.255900  1.0  0.1266
  H  H25  1  0.951000  0.562500  0.309100  1.0  0.1322
  H  H26  1  0.896400  0.461100  0.420200  1.0  0.1311
  H  H27  1  0.520600  0.584600  0.396100  1.0  0.4418
  H  H28  1  0.438100  0.598400  0.448400  1.0  0.4435
  H  H29  1  0.333600  0.894600  0.204400  1.0  0.1184
  H  H30  1  0.166200  0.871600  0.274300  1.0  0.112
  H  H31  1  0.323000  0.019700  0.297800  1.0  0.1133
  H  H32  1  0.381500  0.177600  0.244100  1.0  0.1262
  H  H33  1  0.451000  0.062500  0.190900  1.0  0.1323
  H  H34  1  0.396400  0.961100  0.079800  1.0  0.1303
  H  H35  1  0.020600  0.084600  0.103900  1.0  0.4402
  H  H36  1  0.938100  0.098400  0.051600  1.0  0.4433
  H  H37  1  0.166400  0.605400  0.704400  1.0  0.1197
  H  H38  1  0.333800  0.628400  0.774300  1.0  0.1124
  H  H39  1  0.177000  0.480300  0.797800  1.0  0.1135
  H  H40  1  0.118500  0.322400  0.744100  1.0  0.1263
  H  H41  1  0.049000  0.437500  0.690900  1.0  0.1341
  H  H42  1  0.103600  0.538900  0.579800  1.0  0.1323
  H  H43  1  0.479400  0.415400  0.603900  1.0  0.4391
  H  H44  1  0.561900  0.401600  0.551600  1.0  0.4416
  C  C45  1  0.942300  0.095100  0.806400  1.0  0.7444
  C  C46  1  0.807800  0.936000  0.661400  1.0  0.7253
  C  C47  1  0.764500  0.833300  0.827300  1.0  0.7287
  C  C48  1  0.497700  0.831000  0.896500  1.0  0.7128
  C  C49  1  0.744300  0.007100  0.966600  1.0  0.7457
  C  C50  1  0.792700  0.217700  0.859900  1.0  0.692
  C  C51  1  0.733700  0.105000  0.830600  1.0  -0.1451
  C  C52  1  0.817400  0.077500  0.770400  1.0  -0.191
  C  C53  1  0.744200  0.969000  0.730400  1.0  -0.1498
  C  C54  1  0.676500  0.878500  0.789500  1.0  -0.1892
  C  C55  1  0.597600  0.915500  0.848000  1.0  -0.1583
  C  C56  1  0.667100  0.018800  0.895700  1.0  -0.1866
  C  C57  1  0.557700  0.404900  0.306400  1.0  0.7434
  C  C58  1  0.692200  0.564000  0.161400  1.0  0.7259
  C  C59  1  0.735500  0.666667  0.327300  1.0  0.7276
  C  C60  1  0.002300  0.669000  0.396500  1.0  0.7167
  C  C61  1  0.755700  0.492900  0.466600  1.0  0.7437
  C  C62  1  0.707300  0.282300  0.359900  1.0  0.6913
  C  C63  1  0.766300  0.395000  0.330600  1.0  -0.144
  C  C64  1  0.682600  0.422500  0.270400  1.0  -0.1902
  C  C65  1  0.755800  0.531000  0.230400  1.0  -0.1508
  C  C66  1  0.823500  0.621500  0.289500  1.0  -0.188
  C  C67  1  0.902400  0.584500  0.348000  1.0  -0.1574
  C  C68  1  0.832900  0.481200  0.395700  1.0  -0.1861
  C  C69  1  0.057700  0.904900  0.193600  1.0  0.7432
  C  C70  1  0.192200  0.064000  0.338600  1.0  0.7231
  C  C71  1  0.235500  0.166700  0.172700  1.0  0.7289
  C  C72  1  0.502300  0.169000  0.103500  1.0  0.717
  C  C73  1  0.255700  0.992900  0.033400  1.0  0.7489
  C  C74  1  0.207300  0.782300  0.140100  1.0  0.6915
  C  C75  1  0.266300  0.895000  0.169400  1.0  -0.144
  C  C76  1  0.182600  0.922500  0.229600  1.0  -0.1924
  C  C77  1  0.255800  0.031000  0.269600  1.0  -0.1475
  C  C78  1  0.323500  0.121500  0.210500  1.0  -0.1876
  C  C79  1  0.402400  0.084500  0.152000  1.0  -0.1571
  C  C80  1  0.332900  0.981200  0.104300  1.0  -0.187
  C  C81  1  0.442300  0.595100  0.693600  1.0  0.7443
  C  C82  1  0.307800  0.436000  0.838600  1.0  0.7257
  C  C83  1  0.264500  0.333333  0.672700  1.0  0.727
  C  C84  1  0.997700  0.331000  0.603500  1.0  0.7148
  C  C85  1  0.244300  0.507100  0.533400  1.0  0.7482
  C  C86  1  0.292700  0.717700  0.640100  1.0  0.6926
  C  C87  1  0.233700  0.605000  0.669400  1.0  -0.1448
  C  C88  1  0.317400  0.577500  0.729600  1.0  -0.1901
  C  C89  1  0.244200  0.469000  0.769600  1.0  -0.147
  C  C90  1  0.176500  0.378500  0.710500  1.0  -0.1886
  C  C91  1  0.097600  0.415500  0.652000  1.0  -0.1578
  C  C92  1  0.167100  0.518800  0.604300  1.0  -0.1869
  O  O93  1  0.883100  0.004300  0.615500  1.0  -0.659
  O  O94  1  0.773400  0.841200  0.646900  1.0  -0.536
  O  O95  1  0.876400  0.884600  0.817300  1.0  -0.5827
  O  O96  1  0.722400  0.744300  0.861200  1.0  -0.6637
  O  O97  1  0.473900  0.736300  0.885000  1.0  -0.6295
  O  O98  1  0.431000  0.863000  0.941000  1.0  -0.5807
  O  O99  1  0.766600  0.925700  0.971500  1.0  -0.5829
  O  O100  1  0.778500  0.078500  0.021400  1.0  -0.6656
  O  O101  1  0.756800  0.245000  0.925600  1.0  -0.6322
  O  O102  1  0.867600  0.282400  0.812500  1.0  -0.5648
  O  O103  1  0.958100  0.105400  0.882100  1.0  -0.6036
  O  O104  1  0.029600  0.105500  0.756900  1.0  -0.6267
  O  O105  1  0.017600  0.936600  0.940900  1.0  -0.8387
  O  O106  1  0.616900  0.495700  0.115500  1.0  -0.658
  O  O107  1  0.726600  0.658800  0.146900  1.0  -0.5228
  O  O108  1  0.623600  0.615400  0.317300  1.0  -0.581
  O  O109  1  0.777600  0.755700  0.361200  1.0  -0.6627
  O  O110  1  0.026100  0.763700  0.385000  1.0  -0.6286
  O  O111  1  0.069000  0.637000  0.441000  1.0  -0.5806
  O  O112  1  0.733400  0.574300  0.471500  1.0  -0.5833
  O  O113  1  0.721500  0.421500  0.521400  1.0  -0.6642
  O  O114  1  0.743200  0.255000  0.425600  1.0  -0.6316
  O  O115  1  0.632400  0.217600  0.312500  1.0  -0.5643
  O  O116  1  0.541900  0.394600  0.382100  1.0  -0.604
  O  O117  1  0.470400  0.394500  0.256900  1.0  -0.6285
  O  O118  1  0.482400  0.563400  0.440900  1.0  -0.8391
  O  O119  1  0.116900  0.995700  0.384500  1.0  -0.6598
  O  O120  1  0.226600  0.158800  0.353100  1.0  -0.5183
  O  O121  1  0.123600  0.115400  0.182700  1.0  -0.5822
  O  O122  1  0.277600  0.255700  0.138800  1.0  -0.6625
  O  O123  1  0.526100  0.263700  0.115000  1.0  -0.6284
  O  O124  1  0.569000  0.137000  0.059000  1.0  -0.5809
  O  O125  1  0.233400  0.074300  0.028500  1.0  -0.5825
  O  O126  1  0.221500  0.921500  0.978600  1.0  -0.6648
  O  O127  1  0.243200  0.755000  0.074400  1.0  -0.6329
  O  O128  1  0.132400  0.717600  0.187500  1.0  -0.5641
  O  O129  1  0.041900  0.894600  0.117900  1.0  -0.6039
  O  O130  1  0.970400  0.894500  0.243100  1.0  -0.6286
  O  O131  1  0.982400  0.063400  0.059100  1.0  -0.8386
  O  O132  1  0.383100  0.504300  0.884500  1.0  -0.6608
  O  O133  1  0.273400  0.341200  0.853100  1.0  -0.5277
  O  O134  1  0.376400  0.384600  0.682700  1.0  -0.5849
  O  O135  1  0.222400  0.244300  0.638800  1.0  -0.6635
  O  O136  1  0.973900  0.236300  0.615000  1.0  -0.6279
  O  O137  1  0.931000  0.363000  0.559000  1.0  -0.5813
  O  O138  1  0.266600  0.425700  0.528500  1.0  -0.5822
  O  O139  1  0.278500  0.578500  0.478600  1.0  -0.6637
  O  O140  1  0.256800  0.745000  0.574400  1.0  -0.6299
  O  O141  1  0.367600  0.782400  0.687500  1.0  -0.5651
  O  O142  1  0.458100  0.605400  0.617900  1.0  -0.6028
  O  O143  1  0.529600  0.605500  0.743100  1.0  -0.6288
  O  O144  1  0.517600  0.436600  0.559100  1.0  -0.8379
