# generated using pymatgen
data_Cu5H14(CO)24
_symmetry_space_group_name_H-M   'P 1'
_cell_length_a   8.38630000
_cell_length_b   9.52190000
_cell_length_c   27.08760000
_cell_angle_alpha   83.10510000
_cell_angle_beta   81.09480000
_cell_angle_gamma   63.87250000
_symmetry_Int_Tables_number   1
_chemical_formula_structural   Cu5H14(CO)24
_chemical_formula_sum   'Cu10 H28 C48 O48'
_cell_volume   1915.31866394
_cell_formula_units_Z   2
loop_
 _symmetry_equiv_pos_site_id
 _symmetry_equiv_pos_as_xyz
  1  'x, y, z'
loop_
 _atom_site_type_symbol
 _atom_site_label
 _atom_site_symmetry_multiplicity
 _atom_site_fract_x
 _atom_site_fract_y
 _atom_site_fract_z
 _atom_site_occupancy
 _atom_site_charge
  Cu  Cu1  1  0.452760  0.710660  0.418220  1.0  1.0105
  Cu  Cu2  1  0.105870  0.135510  0.224430  1.0  0.9537
  Cu  Cu3  1  0.581640  0.789340  0.081780  1.0  1.0087
  Cu  Cu4  1  0.465810  0.364490  0.275570  1.0  0.9502
  Cu  Cu5  1  0.547240  0.289340  0.581780  1.0  1.0076
  Cu  Cu6  1  0.894130  0.864490  0.775570  1.0  0.951
  Cu  Cu7  1  0.418360  0.210660  0.918220  1.0  1.0094
  Cu  Cu8  1  0.534190  0.635510  0.724430  1.0  0.9549
  Cu  Cu9  1  0.761990  0.750000  0.250000  1.0  0.7321
  Cu  Cu10  1  0.238010  0.250000  0.750000  1.0  0.7331
  H  H11  1  0.968400  0.404600  0.382200  1.0  0.1415
  H  H12  1  0.743200  0.441500  0.442300  1.0  0.1052
  H  H13  1  0.979500  0.215000  0.450800  1.0  0.1311
  H  H14  1  0.057100  0.982000  0.422400  1.0  0.1025
  H  H15  1  0.152600  0.139500  0.372900  1.0  0.1331
  H  H16  1  0.036200  0.302700  0.308500  1.0  0.1083
  H  H17  1  0.799200  0.934800  0.450000  1.0  0.4073
  H  H18  1  0.755200  0.095400  0.117800  1.0  0.1431
  H  H19  1  0.627000  0.058500  0.057700  1.0  0.1071
  H  H20  1  0.645300  0.285000  0.049200  1.0  0.1384
  H  H21  1  0.461500  0.518000  0.077600  1.0  0.1027
  H  H22  1  0.665000  0.360500  0.127100  1.0  0.134
  H  H23  1  0.647400  0.197300  0.191500  1.0  0.1051
  H  H24  1  0.184000  0.565200  0.050000  1.0  0.4061
  H  H25  1  0.031600  0.595400  0.617800  1.0  0.1406
  H  H26  1  0.256800  0.558500  0.557700  1.0  0.1059
  H  H27  1  0.020500  0.785000  0.549200  1.0  0.1308
  H  H28  1  0.942900  0.018000  0.577600  1.0  0.103
  H  H29  1  0.847400  0.860500  0.627100  1.0  0.1309
  H  H30  1  0.963800  0.697300  0.691500  1.0  0.1079
  H  H31  1  0.200800  0.065200  0.550000  1.0  0.4071
  H  H32  1  0.244800  0.904600  0.882200  1.0  0.1415
  H  H33  1  0.373000  0.941500  0.942300  1.0  0.1068
  H  H34  1  0.354700  0.715000  0.950800  1.0  0.1282
  H  H35  1  0.538500  0.482000  0.922400  1.0  0.1033
  H  H36  1  0.335000  0.639500  0.872900  1.0  0.1319
  H  H37  1  0.352600  0.802700  0.808500  1.0  0.1062
  H  H38  1  0.816000  0.434800  0.950000  1.0  0.4072
  C  C39  1  0.865600  0.401910  0.370090  1.0  -0.1519
  C  C40  1  0.760140  0.365390  0.418330  1.0  -0.1758
  C  C41  1  0.878300  0.202830  0.441370  1.0  -0.1395
  C  C42  1  0.965000  0.068680  0.404920  1.0  -0.1774
  C  C43  1  0.065920  0.117130  0.358830  1.0  -0.1678
  C  C44  1  0.951100  0.274320  0.331480  1.0  -0.1671
  C  C45  1  0.774110  0.562460  0.344120  1.0  0.7341
  C  C46  1  0.573890  0.380070  0.413550  1.0  0.6323
  C  C47  1  0.786980  0.164450  0.490790  1.0  0.6628
  C  C48  1  0.852170  0.999620  0.388040  1.0  0.6703
  C  C49  1  0.181860  0.976890  0.327190  1.0  0.6917
  C  C50  1  0.814730  0.277870  0.299070  1.0  0.7044
  C  C51  1  0.637600  0.098090  0.129910  1.0  -0.1518
  C  C52  1  0.543860  0.134610  0.081670  1.0  -0.1762
  C  C53  1  0.522500  0.297170  0.058630  1.0  -0.1406
  C  C54  1  0.438600  0.431320  0.095080  1.0  -0.1773
  C  C55  1  0.541880  0.382870  0.141170  1.0  -0.165
  C  C56  1  0.556900  0.225680  0.168520  1.0  -0.1663
  C  C57  1  0.680690  0.937540  0.155880  1.0  0.7329
  C  C58  1  0.367510  0.119930  0.086450  1.0  0.631
  C  C59  1  0.442220  0.335550  0.009210  1.0  0.6652
  C  C60  1  0.239830  0.500380  0.111960  1.0  0.6697
  C  C61  1  0.485940  0.523110  0.172810  1.0  0.6934
  C  C62  1  0.391670  0.222130  0.200930  1.0  0.7009
  C  C63  1  0.134400  0.598090  0.629910  1.0  -0.1517
  C  C64  1  0.239860  0.634610  0.581670  1.0  -0.1763
  C  C65  1  0.121700  0.797170  0.558630  1.0  -0.1406
  C  C66  1  0.035000  0.931320  0.595080  1.0  -0.178
  C  C67  1  0.934080  0.882870  0.641170  1.0  -0.1679
  C  C68  1  0.048900  0.725680  0.668520  1.0  -0.1675
  C  C69  1  0.225890  0.437540  0.655880  1.0  0.7339
  C  C70  1  0.426110  0.619930  0.586450  1.0  0.6319
  C  C71  1  0.213020  0.835550  0.509210  1.0  0.6631
  C  C72  1  0.147830  0.000380  0.611960  1.0  0.6717
  C  C73  1  0.818140  0.023110  0.672810  1.0  0.6903
  C  C74  1  0.185270  0.722130  0.700930  1.0  0.7047
  C  C75  1  0.362400  0.901910  0.870090  1.0  -0.1512
  C  C76  1  0.456140  0.865390  0.918330  1.0  -0.1746
  C  C77  1  0.477500  0.702830  0.941370  1.0  -0.1398
  C  C78  1  0.561400  0.568680  0.904920  1.0  -0.1783
  C  C79  1  0.458120  0.617130  0.858830  1.0  -0.1665
  C  C80  1  0.443100  0.774320  0.831480  1.0  -0.1666
  C  C81  1  0.319310  0.062460  0.844120  1.0  0.7345
  C  C82  1  0.632490  0.880070  0.913550  1.0  0.6316
  C  C83  1  0.557780  0.664450  0.990790  1.0  0.6651
  C  C84  1  0.760170  0.499620  0.888040  1.0  0.6727
  C  C85  1  0.514060  0.476890  0.827190  1.0  0.6937
  C  C86  1  0.608330  0.777870  0.799070  1.0  0.6991
  O  O87  1  0.839610  0.577980  0.300600  1.0  -0.5535
  O  O88  1  0.650150  0.675730  0.366970  1.0  -0.6094
  O  O89  1  0.445000  0.516790  0.410610  1.0  -0.5079
  O  O90  1  0.550890  0.259130  0.415890  1.0  -0.4687
  O  O91  1  0.714260  0.272590  0.520890  1.0  -0.5874
  O  O92  1  0.793440  0.029480  0.500840  1.0  -0.564
  O  O93  1  0.788450  0.918780  0.421920  1.0  -0.5186
  O  O94  1  0.836860  0.001570  0.344310  1.0  -0.4977
  O  O95  1  0.251110  0.846350  0.349830  1.0  -0.5292
  O  O96  1  0.218440  0.996830  0.280090  1.0  -0.5711
  O  O97  1  0.866550  0.207290  0.259010  1.0  -0.6083
  O  O98  1  0.652620  0.360300  0.312460  1.0  -0.549
  O  O99  1  0.718190  0.922020  0.199400  1.0  -0.5507
  O  O100  1  0.692850  0.824270  0.133030  1.0  -0.6103
  O  O101  1  0.372400  0.983210  0.089390  1.0  -0.5064
  O  O102  1  0.225910  0.240870  0.084110  1.0  -0.4701
  O  O103  1  0.507740  0.227410  0.979110  1.0  -0.5869
  O  O104  1  0.323760  0.470520  0.999160  1.0  -0.5654
  O  O105  1  0.129150  0.581220  0.078080  1.0  -0.5185
  O  O106  1  0.182740  0.498430  0.155690  1.0  -0.5041
  O  O107  1  0.447290  0.653650  0.150170  1.0  -0.5268
  O  O108  1  0.495360  0.503170  0.219910  1.0  -0.5784
  O  O109  1  0.332850  0.292710  0.240990  1.0  -0.61
  O  O110  1  0.325380  0.139700  0.187540  1.0  -0.5477
  O  O111  1  0.160390  0.422020  0.699400  1.0  -0.5513
  O  O112  1  0.349850  0.324270  0.633030  1.0  -0.6097
  O  O113  1  0.555000  0.483210  0.589390  1.0  -0.5052
  O  O114  1  0.449110  0.740870  0.584110  1.0  -0.4719
  O  O115  1  0.285740  0.727410  0.479110  1.0  -0.5876
  O  O116  1  0.206560  0.970520  0.499160  1.0  -0.5646
  O  O117  1  0.211550  0.081220  0.578080  1.0  -0.5195
  O  O118  1  0.163140  0.998430  0.655690  1.0  -0.504
  O  O119  1  0.748890  0.153650  0.650170  1.0  -0.5267
  O  O120  1  0.781560  0.003170  0.719910  1.0  -0.5788
  O  O121  1  0.133450  0.792710  0.740990  1.0  -0.6098
  O  O122  1  0.347380  0.639700  0.687540  1.0  -0.5482
  O  O123  1  0.281810  0.077980  0.800600  1.0  -0.55
  O  O124  1  0.307150  0.175730  0.866970  1.0  -0.6096
  O  O125  1  0.627600  0.016790  0.910610  1.0  -0.5078
  O  O126  1  0.774090  0.759130  0.915890  1.0  -0.4723
  O  O127  1  0.492260  0.772590  0.020890  1.0  -0.5862
  O  O128  1  0.676240  0.529480  0.000840  1.0  -0.5701
  O  O129  1  0.870850  0.418780  0.921920  1.0  -0.5186
  O  O130  1  0.817260  0.501570  0.844310  1.0  -0.5044
  O  O131  1  0.552710  0.346350  0.849830  1.0  -0.5277
  O  O132  1  0.504640  0.496830  0.780090  1.0  -0.5703
  O  O133  1  0.667150  0.707290  0.759010  1.0  -0.6103
  O  O134  1  0.674620  0.860300  0.812460  1.0  -0.5483
