# generated using pymatgen
data_Co3H8C12O13
_symmetry_space_group_name_H-M   'P 1'
_cell_length_a   11.77490000
_cell_length_b   13.78690000
_cell_length_c   16.25900000
_cell_angle_alpha   90.00000000
_cell_angle_beta   90.00000000
_cell_angle_gamma   112.61100000
_symmetry_Int_Tables_number   1
_chemical_formula_structural   Co3H8C12O13
_chemical_formula_sum   'Co12 H32 C48 O52'
_cell_volume   2436.59624020
_cell_formula_units_Z   4
loop_
 _symmetry_equiv_pos_site_id
 _symmetry_equiv_pos_as_xyz
  1  'x, y, z'
loop_
 _atom_site_type_symbol
 _atom_site_label
 _atom_site_symmetry_multiplicity
 _atom_site_fract_x
 _atom_site_fract_y
 _atom_site_fract_z
 _atom_site_occupancy
 _atom_site_charge
  Co  Co1  1  0.262310  0.719930  0.548180  1.0  1.0041
  Co  Co2  1  0.600770  0.598970  0.454110  1.0  1.0332
  Co  Co3  1  0.551750  0.626920  0.130140  1.0  1.1872
  Co  Co4  1  0.237690  0.780070  0.048180  1.0  1.0039
  Co  Co5  1  0.899230  0.901030  0.954110  1.0  1.0339
  Co  Co6  1  0.948250  0.873080  0.630140  1.0  1.1875
  Co  Co7  1  0.737690  0.280070  0.451820  1.0  1.0055
  Co  Co8  1  0.399230  0.401030  0.545890  1.0  1.0331
  Co  Co9  1  0.448250  0.373080  0.869860  1.0  1.1877
  Co  Co10  1  0.762310  0.219930  0.951820  1.0  1.0041
  Co  Co11  1  0.100770  0.098970  0.045890  1.0  1.033
  Co  Co12  1  0.051750  0.126920  0.369860  1.0  1.1852
  H  H13  1  0.524200  0.585000  0.603400  1.0  0.4521
  H  H14  1  0.421700  0.581300  0.551700  1.0  0.427
  H  H15  1  0.101600  0.540500  0.420900  1.0  0.1334
  H  H16  1  0.164200  0.606500  0.294700  1.0  0.1227
  H  H17  1  0.332800  0.630100  0.224000  1.0  0.1132
  H  H18  1  0.174200  0.480500  0.200800  1.0  0.1147
  H  H19  1  0.115700  0.321200  0.255300  1.0  0.1326
  H  H20  1  0.047300  0.439500  0.307600  1.0  0.1318
  H  H21  1  0.975800  0.915000  0.103400  1.0  0.4519
  H  H22  1  0.078300  0.918700  0.051700  1.0  0.423
  H  H23  1  0.398400  0.959500  0.920900  1.0  0.1331
  H  H24  1  0.335800  0.893500  0.794700  1.0  0.1228
  H  H25  1  0.167200  0.869900  0.724000  1.0  0.1122
  H  H26  1  0.325800  0.019500  0.700800  1.0  0.1147
  H  H27  1  0.384300  0.178800  0.755300  1.0  0.1327
  H  H28  1  0.452700  0.060500  0.807600  1.0  0.1299
  H  H29  1  0.475800  0.415000  0.396600  1.0  0.4529
  H  H30  1  0.578300  0.418700  0.448300  1.0  0.4219
  H  H31  1  0.898400  0.459500  0.579100  1.0  0.1325
  H  H32  1  0.835800  0.393500  0.705300  1.0  0.1221
  H  H33  1  0.667200  0.369900  0.776000  1.0  0.113
  H  H34  1  0.825800  0.519500  0.799200  1.0  0.1138
  H  H35  1  0.884300  0.678800  0.744700  1.0  0.1328
  H  H36  1  0.952700  0.560500  0.692400  1.0  0.1293
  H  H37  1  0.024200  0.085000  0.896600  1.0  0.4525
  H  H38  1  0.921700  0.081300  0.948300  1.0  0.4272
  H  H39  1  0.601600  0.040500  0.079100  1.0  0.1332
  H  H40  1  0.664200  0.106500  0.205300  1.0  0.1224
  H  H41  1  0.832800  0.130100  0.276000  1.0  0.1129
  H  H42  1  0.674200  0.980500  0.299200  1.0  0.1138
  H  H43  1  0.615700  0.821200  0.244700  1.0  0.1332
  H  H44  1  0.547300  0.939500  0.192400  1.0  0.1311
  C  C45  1  0.245000  0.507800  0.466630  1.0  0.7348
  C  C46  1  0.166100  0.519500  0.395490  1.0  -0.1767
  C  C47  1  0.233000  0.605500  0.330290  1.0  -0.1423
  C  C48  1  0.316100  0.577900  0.269750  1.0  -0.1835
  C  C49  1  0.242900  0.469100  0.229890  1.0  -0.146
  C  C50  1  0.175100  0.378500  0.289500  1.0  -0.1892
  C  C51  1  0.096400  0.416500  0.347600  1.0  -0.1503
  C  C52  1  0.294300  0.719700  0.359600  1.0  0.6923
  C  C53  1  0.441300  0.595400  0.306110  1.0  0.7393
  C  C54  1  0.307100  0.435100  0.160870  1.0  0.7249
  C  C55  1  0.263400  0.333200  0.326920  1.0  0.7258
  C  C56  1  0.995700  0.331900  0.396200  1.0  0.7149
  C  C57  1  0.255000  0.992200  0.966630  1.0  0.7334
  C  C58  1  0.333900  0.980500  0.895490  1.0  -0.177
  C  C59  1  0.267000  0.894500  0.830290  1.0  -0.1413
  C  C60  1  0.183900  0.922100  0.769750  1.0  -0.1836
  C  C61  1  0.257100  0.030900  0.729890  1.0  -0.1464
  C  C62  1  0.324900  0.121500  0.789500  1.0  -0.188
  C  C63  1  0.403600  0.083500  0.847600  1.0  -0.1497
  C  C64  1  0.205700  0.780300  0.859600  1.0  0.6928
  C  C65  1  0.058700  0.904600  0.806110  1.0  0.7376
  C  C66  1  0.192900  0.064900  0.660870  1.0  0.7253
  C  C67  1  0.236600  0.166800  0.826920  1.0  0.7287
  C  C68  1  0.504300  0.168100  0.896200  1.0  0.7157
  C  C69  1  0.755000  0.492200  0.533370  1.0  0.747
  C  C70  1  0.833900  0.480500  0.604510  1.0  -0.1781
  C  C71  1  0.767000  0.394500  0.669710  1.0  -0.1416
  C  C72  1  0.683900  0.422100  0.730250  1.0  -0.1833
  C  C73  1  0.757100  0.530900  0.770110  1.0  -0.1433
  C  C74  1  0.824900  0.621500  0.710500  1.0  -0.1871
  C  C75  1  0.903600  0.583500  0.652400  1.0  -0.1495
  C  C76  1  0.705700  0.280300  0.640400  1.0  0.6927
  C  C77  1  0.558700  0.404600  0.693890  1.0  0.7374
  C  C78  1  0.692900  0.564900  0.839130  1.0  0.7226
  C  C79  1  0.736600  0.666800  0.673080  1.0  0.7286
  C  C80  1  0.004300  0.668100  0.603800  1.0  0.7147
  C  C81  1  0.745000  0.007800  0.033370  1.0  0.7474
  C  C82  1  0.666100  0.019500  0.104510  1.0  -0.1772
  C  C83  1  0.733000  0.105500  0.169710  1.0  -0.1419
  C  C84  1  0.816100  0.077900  0.230250  1.0  -0.1833
  C  C85  1  0.742900  0.969100  0.270110  1.0  -0.1429
  C  C86  1  0.675100  0.878500  0.210500  1.0  -0.1886
  C  C87  1  0.596400  0.916500  0.152400  1.0  -0.1507
  C  C88  1  0.794300  0.219700  0.140400  1.0  0.6924
  C  C89  1  0.941300  0.095400  0.193890  1.0  0.7392
  C  C90  1  0.807100  0.935100  0.339130  1.0  0.7248
  C  C91  1  0.763400  0.833200  0.173080  1.0  0.7266
  C  C92  1  0.495700  0.831900  0.103800  1.0  0.7152
  O  O93  1  0.267110  0.425920  0.471670  1.0  -0.5813
  O  O94  1  0.280330  0.579410  0.521660  1.0  -0.6614
  O  O95  1  0.257450  0.746650  0.426210  1.0  -0.6356
  O  O96  1  0.370590  0.783890  0.312300  1.0  -0.5599
  O  O97  1  0.456590  0.605770  0.382730  1.0  -0.6059
  O  O98  1  0.528900  0.605400  0.256500  1.0  -0.6281
  O  O99  1  0.382570  0.503770  0.114320  1.0  -0.6669
  O  O100  1  0.272550  0.338950  0.147360  1.0  -0.5726
  O  O101  1  0.376980  0.386020  0.316970  1.0  -0.5796
  O  O102  1  0.222980  0.244670  0.361510  1.0  -0.6566
  O  O103  1  0.973250  0.236150  0.385670  1.0  -0.6363
  O  O104  1  0.927470  0.364670  0.438760  1.0  -0.5759
  O  O105  1  0.482950  0.564210  0.559340  1.0  -0.8445
  O  O106  1  0.232890  0.074080  0.971670  1.0  -0.5809
  O  O107  1  0.219670  0.920590  0.021660  1.0  -0.6592
  O  O108  1  0.242550  0.753350  0.926210  1.0  -0.6368
  O  O109  1  0.129410  0.716110  0.812300  1.0  -0.5602
  O  O110  1  0.043410  0.894230  0.882730  1.0  -0.6061
  O  O111  1  0.971100  0.894600  0.756500  1.0  -0.6282
  O  O112  1  0.117430  0.996230  0.614320  1.0  -0.6659
  O  O113  1  0.227450  0.161050  0.647360  1.0  -0.5674
  O  O114  1  0.123020  0.113980  0.816970  1.0  -0.5788
  O  O115  1  0.277020  0.255330  0.861510  1.0  -0.655
  O  O116  1  0.526750  0.263850  0.885670  1.0  -0.6358
  O  O117  1  0.572530  0.135330  0.938760  1.0  -0.5763
  O  O118  1  0.017050  0.935790  0.059340  1.0  -0.8458
  O  O119  1  0.732890  0.574080  0.528330  1.0  -0.5806
  O  O120  1  0.719670  0.420590  0.478340  1.0  -0.6587
  O  O121  1  0.742550  0.253350  0.573790  1.0  -0.6387
  O  O122  1  0.629410  0.216110  0.687700  1.0  -0.561
  O  O123  1  0.543410  0.394230  0.617270  1.0  -0.6067
  O  O124  1  0.471100  0.394600  0.743500  1.0  -0.6281
  O  O125  1  0.617430  0.496230  0.885680  1.0  -0.6671
  O  O126  1  0.727450  0.661050  0.852640  1.0  -0.565
  O  O127  1  0.623020  0.613980  0.683030  1.0  -0.5796
  O  O128  1  0.777020  0.755330  0.638490  1.0  -0.6544
  O  O129  1  0.026750  0.763850  0.614330  1.0  -0.6354
  O  O130  1  0.072530  0.635330  0.561240  1.0  -0.5763
  O  O131  1  0.517050  0.435790  0.440660  1.0  -0.8472
  O  O132  1  0.767110  0.925920  0.028330  1.0  -0.5812
  O  O133  1  0.780330  0.079410  0.978340  1.0  -0.6599
  O  O134  1  0.757450  0.246650  0.073790  1.0  -0.6345
  O  O135  1  0.870590  0.283890  0.187700  1.0  -0.5609
  O  O136  1  0.956590  0.105770  0.117270  1.0  -0.6062
  O  O137  1  0.028900  0.105400  0.243500  1.0  -0.6285
  O  O138  1  0.882570  0.003770  0.385680  1.0  -0.6684
  O  O139  1  0.772550  0.838950  0.352640  1.0  -0.5697
  O  O140  1  0.876980  0.886020  0.183030  1.0  -0.5811
  O  O141  1  0.722980  0.744670  0.138490  1.0  -0.656
  O  O142  1  0.473250  0.736150  0.114330  1.0  -0.6345
  O  O143  1  0.427470  0.864670  0.061240  1.0  -0.5765
  O  O144  1  0.982950  0.064210  0.940660  1.0  -0.8457
