# generated using pymatgen
data_CdH8C10N5Cl
_symmetry_space_group_name_H-M   'P 1'
_cell_length_a   13.90170000
_cell_length_b   13.90170000
_cell_length_c   13.90170000
_cell_angle_alpha   108.01700000
_cell_angle_beta   108.01700000
_cell_angle_gamma   108.01700000
_symmetry_Int_Tables_number   1
_chemical_formula_structural   CdH8C10N5Cl
_chemical_formula_sum   'Cd6 H48 C60 N30 Cl6'
_cell_volume   2172.37063009
_cell_formula_units_Z   6
loop_
 _symmetry_equiv_pos_site_id
 _symmetry_equiv_pos_as_xyz
  1  'x, y, z'
loop_
 _atom_site_type_symbol
 _atom_site_label
 _atom_site_symmetry_multiplicity
 _atom_site_fract_x
 _atom_site_fract_y
 _atom_site_fract_z
 _atom_site_occupancy
 _atom_site_charge
  Cd  Cd1  1  0.964750  0.478130  0.616120  1.0  0.9327
  Cd  Cd2  1  0.616120  0.964750  0.478130  1.0  0.9323
  Cd  Cd3  1  0.478130  0.616120  0.964750  1.0  0.9323
  Cd  Cd4  1  0.035250  0.521870  0.383880  1.0  0.9332
  Cd  Cd5  1  0.383880  0.035250  0.521870  1.0  0.9308
  Cd  Cd6  1  0.521870  0.383880  0.035250  1.0  0.9334
  H  H7  1  0.711400  0.469300  0.414200  1.0  0.0756
  H  H8  1  0.574000  0.143600  0.259600  1.0  0.1059
  H  H9  1  0.725200  0.108200  0.385000  1.0  0.1173
  H  H10  1  0.842800  0.203500  0.417800  1.0  0.1209
  H  H11  1  0.023100  0.455600  0.869200  1.0  0.1154
  H  H12  1  0.005100  0.398800  0.004900  1.0  0.0975
  H  H13  1  0.877000  0.219000  0.954000  1.0  0.0962
  H  H14  1  0.760200  0.091300  0.766800  1.0  0.1218
  H  H15  1  0.414200  0.711400  0.469300  1.0  0.074
  H  H16  1  0.259600  0.574000  0.143600  1.0  0.1049
  H  H17  1  0.385000  0.725200  0.108200  1.0  0.1148
  H  H18  1  0.417800  0.842800  0.203500  1.0  0.1216
  H  H19  1  0.869200  0.023100  0.455600  1.0  0.1148
  H  H20  1  0.004900  0.005100  0.398800  1.0  0.097
  H  H21  1  0.954000  0.877000  0.219000  1.0  0.0961
  H  H22  1  0.766800  0.760200  0.091300  1.0  0.1239
  H  H23  1  0.469300  0.414200  0.711400  1.0  0.0746
  H  H24  1  0.143600  0.259600  0.574000  1.0  0.1047
  H  H25  1  0.108200  0.385000  0.725200  1.0  0.1159
  H  H26  1  0.203500  0.417800  0.842800  1.0  0.1203
  H  H27  1  0.455600  0.869200  0.023100  1.0  0.1145
  H  H28  1  0.398800  0.004900  0.005100  1.0  0.0971
  H  H29  1  0.219000  0.954000  0.877000  1.0  0.0964
  H  H30  1  0.091300  0.766800  0.760200  1.0  0.1215
  H  H31  1  0.288600  0.530700  0.585800  1.0  0.0751
  H  H32  1  0.426000  0.856400  0.740400  1.0  0.1049
  H  H33  1  0.274800  0.891800  0.615000  1.0  0.1184
  H  H34  1  0.157200  0.796500  0.582200  1.0  0.1214
  H  H35  1  0.976900  0.544400  0.130800  1.0  0.1157
  H  H36  1  0.994900  0.601200  0.995100  1.0  0.0975
  H  H37  1  0.123000  0.781000  0.046000  1.0  0.0962
  H  H38  1  0.239800  0.908700  0.233200  1.0  0.1218
  H  H39  1  0.585800  0.288600  0.530700  1.0  0.0742
  H  H40  1  0.740400  0.426000  0.856400  1.0  0.1045
  H  H41  1  0.615000  0.274800  0.891800  1.0  0.1152
  H  H42  1  0.582200  0.157200  0.796500  1.0  0.1218
  H  H43  1  0.130800  0.976900  0.544400  1.0  0.1151
  H  H44  1  0.995100  0.994900  0.601200  1.0  0.0968
  H  H45  1  0.046000  0.123000  0.781000  1.0  0.0962
  H  H46  1  0.233200  0.239800  0.908700  1.0  0.1225
  H  H47  1  0.530700  0.585800  0.288600  1.0  0.0748
  H  H48  1  0.856400  0.740400  0.426000  1.0  0.1051
  H  H49  1  0.891800  0.615000  0.274800  1.0  0.1167
  H  H50  1  0.796500  0.582200  0.157200  1.0  0.1206
  H  H51  1  0.544400  0.130800  0.976900  1.0  0.1148
  H  H52  1  0.601200  0.995100  0.994900  1.0  0.0977
  H  H53  1  0.781000  0.046000  0.123000  1.0  0.0963
  H  H54  1  0.908700  0.233200  0.239800  1.0  0.121
  C  C55  1  0.699300  0.395000  0.395300  1.0  0.3064
  C  C56  1  0.623300  0.218900  0.310500  1.0  0.1628
  C  C57  1  0.776500  0.188200  0.431300  1.0  -0.1807
  C  C58  1  0.811400  0.215400  0.553700  1.0  0.4265
  C  C59  1  0.900700  0.305700  0.735000  1.0  0.165
  C  C60  1  0.970700  0.383100  0.848600  1.0  -0.1836
  C  C61  1  0.959700  0.348600  0.928600  1.0  -0.0933
  C  C62  1  0.881900  0.240100  0.897700  1.0  -0.0892
  C  C63  1  0.812500  0.163600  0.786800  1.0  -0.1701
  C  C64  1  0.822800  0.197400  0.705200  1.0  0.1618
  C  C65  1  0.395300  0.699300  0.395000  1.0  0.3075
  C  C66  1  0.310500  0.623300  0.218900  1.0  0.1623
  C  C67  1  0.431300  0.776500  0.188200  1.0  -0.1833
  C  C68  1  0.553700  0.811400  0.215400  1.0  0.4269
  C  C69  1  0.735000  0.900700  0.305700  1.0  0.1639
  C  C70  1  0.848600  0.970700  0.383100  1.0  -0.1836
  C  C71  1  0.928600  0.959700  0.348600  1.0  -0.0915
  C  C72  1  0.897700  0.881900  0.240100  1.0  -0.0918
  C  C73  1  0.786800  0.812500  0.163600  1.0  -0.1686
  C  C74  1  0.705200  0.822800  0.197400  1.0  0.1613
  C  C75  1  0.395000  0.395300  0.699300  1.0  0.3074
  C  C76  1  0.218900  0.310500  0.623300  1.0  0.1643
  C  C77  1  0.188200  0.431300  0.776500  1.0  -0.1856
  C  C78  1  0.215400  0.553700  0.811400  1.0  0.4264
  C  C79  1  0.305700  0.735000  0.900700  1.0  0.1637
  C  C80  1  0.383100  0.848600  0.970700  1.0  -0.185
  C  C81  1  0.348600  0.928600  0.959700  1.0  -0.0913
  C  C82  1  0.240100  0.897700  0.881900  1.0  -0.0925
  C  C83  1  0.163600  0.786800  0.812500  1.0  -0.1698
  C  C84  1  0.197400  0.705200  0.822800  1.0  0.1577
  C  C85  1  0.300700  0.605000  0.604700  1.0  0.3057
  C  C86  1  0.376700  0.781100  0.689500  1.0  0.1638
  C  C87  1  0.223500  0.811800  0.568700  1.0  -0.1826
  C  C88  1  0.188600  0.784600  0.446300  1.0  0.4264
  C  C89  1  0.099300  0.694300  0.265000  1.0  0.1653
  C  C90  1  0.029300  0.616900  0.151400  1.0  -0.1838
  C  C91  1  0.040300  0.651400  0.071400  1.0  -0.0933
  C  C92  1  0.118100  0.759900  0.102300  1.0  -0.0918
  C  C93  1  0.187500  0.836400  0.213200  1.0  -0.1684
  C  C94  1  0.177200  0.802600  0.294800  1.0  0.1606
  C  C95  1  0.604700  0.300700  0.605000  1.0  0.3076
  C  C96  1  0.689500  0.376700  0.781100  1.0  0.1641
  C  C97  1  0.568700  0.223500  0.811800  1.0  -0.1837
  C  C98  1  0.446300  0.188600  0.784600  1.0  0.426
  C  C99  1  0.265000  0.099300  0.694300  1.0  0.1635
  C  C100  1  0.151400  0.029300  0.616900  1.0  -0.1826
  C  C101  1  0.071400  0.040300  0.651400  1.0  -0.0909
  C  C102  1  0.102300  0.118100  0.759900  1.0  -0.0937
  C  C103  1  0.213200  0.187500  0.836400  1.0  -0.1698
  C  C104  1  0.294800  0.177200  0.802600  1.0  0.161
  C  C105  1  0.605000  0.604700  0.300700  1.0  0.3085
  C  C106  1  0.781100  0.689500  0.376700  1.0  0.1628
  C  C107  1  0.811800  0.568700  0.223500  1.0  -0.1838
  C  C108  1  0.784600  0.446300  0.188600  1.0  0.4266
  C  C109  1  0.694300  0.265000  0.099300  1.0  0.1633
  C  C110  1  0.616900  0.151400  0.029300  1.0  -0.1849
  C  C111  1  0.651400  0.071400  0.040300  1.0  -0.0924
  C  C112  1  0.759900  0.102300  0.118100  1.0  -0.092
  C  C113  1  0.836400  0.213200  0.187500  1.0  -0.1673
  C  C114  1  0.802600  0.294800  0.177200  1.0  0.1595
  N  N115  1  0.605600  0.306700  0.306400  1.0  -0.482
  N  N116  1  0.772800  0.369000  0.453700  1.0  -0.3879
  N  N117  1  0.721000  0.254000  0.397300  1.0  0.1741
  N  N118  1  0.892900  0.316800  0.637200  1.0  -0.526
  N  N119  1  0.765100  0.139500  0.586800  1.0  -0.5271
  N  N120  1  0.306400  0.605600  0.306700  1.0  -0.4801
  N  N121  1  0.453700  0.772800  0.369000  1.0  -0.3894
  N  N122  1  0.397300  0.721000  0.254000  1.0  0.175
  N  N123  1  0.637200  0.892900  0.316800  1.0  -0.5288
  N  N124  1  0.586800  0.765100  0.139500  1.0  -0.5289
  N  N125  1  0.306700  0.306400  0.605600  1.0  -0.4758
  N  N126  1  0.369000  0.453700  0.772800  1.0  -0.3906
  N  N127  1  0.254000  0.397300  0.721000  1.0  0.1738
  N  N128  1  0.316800  0.637200  0.892900  1.0  -0.5279
  N  N129  1  0.139500  0.586800  0.765100  1.0  -0.5254
  N  N130  1  0.394400  0.693300  0.693600  1.0  -0.4802
  N  N131  1  0.227200  0.631000  0.546300  1.0  -0.3877
  N  N132  1  0.279000  0.746000  0.602700  1.0  0.1749
  N  N133  1  0.107100  0.683200  0.362800  1.0  -0.5267
  N  N134  1  0.234900  0.860500  0.413200  1.0  -0.5252
  N  N135  1  0.693600  0.394400  0.693300  1.0  -0.4797
  N  N136  1  0.546300  0.227200  0.631000  1.0  -0.3894
  N  N137  1  0.602700  0.279000  0.746000  1.0  0.1746
  N  N138  1  0.362800  0.107100  0.683200  1.0  -0.5283
  N  N139  1  0.413200  0.234900  0.860500  1.0  -0.5278
  N  N140  1  0.693300  0.693600  0.394400  1.0  -0.4792
  N  N141  1  0.631000  0.546300  0.227200  1.0  -0.3891
  N  N142  1  0.746000  0.602700  0.279000  1.0  0.1749
  N  N143  1  0.683200  0.362800  0.107100  1.0  -0.5282
  N  N144  1  0.860500  0.413200  0.234900  1.0  -0.5256
  Cl  Cl145  1  0.964150  0.618490  0.525380  1.0  -0.5336
  Cl  Cl146  1  0.525380  0.964150  0.618490  1.0  -0.5349
  Cl  Cl147  1  0.618490  0.525380  0.964150  1.0  -0.5324
  Cl  Cl148  1  0.035850  0.381510  0.474620  1.0  -0.5347
  Cl  Cl149  1  0.474620  0.035850  0.381510  1.0  -0.5334
  Cl  Cl150  1  0.381510  0.474620  0.035850  1.0  -0.531
