# generated using pymatgen
data_Ag3H6C4(SN4)2
_symmetry_space_group_name_H-M   'P 1'
_cell_length_a   9.93900000
_cell_length_b   14.02100000
_cell_length_c   20.34100000
_cell_angle_alpha   90.00000000
_cell_angle_beta   107.32500000
_cell_angle_gamma   90.00000000
_symmetry_Int_Tables_number   1
_chemical_formula_structural   Ag3H6C4(SN4)2
_chemical_formula_sum   'Ag12 H24 C16 S8 N32'
_cell_volume   2706.01059184
_cell_formula_units_Z   4
loop_
 _symmetry_equiv_pos_site_id
 _symmetry_equiv_pos_as_xyz
  1  'x, y, z'
loop_
 _atom_site_type_symbol
 _atom_site_label
 _atom_site_symmetry_multiplicity
 _atom_site_fract_x
 _atom_site_fract_y
 _atom_site_fract_z
 _atom_site_occupancy
 _atom_site_charge
  Ag  Ag1  1  0.328290  0.154190  0.718230  1.0  0.3443
  Ag  Ag2  1  0.842940  0.972240  0.452410  1.0  0.3085
  Ag  Ag3  1  0.700600  0.870440  0.635150  1.0  0.1822
  Ag  Ag4  1  0.671710  0.654190  0.781770  1.0  0.3446
  Ag  Ag5  1  0.157060  0.472240  0.047590  1.0  0.3066
  Ag  Ag6  1  0.299400  0.370440  0.864850  1.0  0.1825
  Ag  Ag7  1  0.671710  0.845810  0.281770  1.0  0.3443
  Ag  Ag8  1  0.157060  0.027760  0.547590  1.0  0.306
  Ag  Ag9  1  0.299400  0.129560  0.364850  1.0  0.1852
  Ag  Ag10  1  0.328290  0.345810  0.218230  1.0  0.3441
  Ag  Ag11  1  0.842940  0.527760  0.952410  1.0  0.3082
  Ag  Ag12  1  0.700600  0.629560  0.135150  1.0  0.1847
  H  H13  1  0.766200  0.178200  0.719400  1.0  0.1079
  H  H14  1  0.713600  0.074800  0.695900  1.0  0.1094
  H  H15  1  0.674300  0.159500  0.643300  1.0  0.105
  H  H16  1  0.795300  0.467800  0.784600  1.0  0.1014
  H  H17  1  0.752400  0.416800  0.712800  1.0  0.1206
  H  H18  1  0.841000  0.362000  0.778600  1.0  0.1191
  H  H19  1  0.233800  0.678200  0.780600  1.0  0.1072
  H  H20  1  0.286400  0.574800  0.804100  1.0  0.1086
  H  H21  1  0.325700  0.659500  0.856700  1.0  0.1067
  H  H22  1  0.204700  0.967800  0.715400  1.0  0.1031
  H  H23  1  0.247600  0.916800  0.787200  1.0  0.1203
  H  H24  1  0.159000  0.862000  0.721400  1.0  0.1184
  H  H25  1  0.233800  0.821800  0.280600  1.0  0.1074
  H  H26  1  0.286400  0.925200  0.304100  1.0  0.1092
  H  H27  1  0.325700  0.840500  0.356700  1.0  0.1067
  H  H28  1  0.204700  0.532200  0.215400  1.0  0.1044
  H  H29  1  0.247600  0.583200  0.287200  1.0  0.1215
  H  H30  1  0.159000  0.638000  0.221400  1.0  0.1193
  H  H31  1  0.766200  0.321800  0.219400  1.0  0.108
  H  H32  1  0.713600  0.425200  0.195900  1.0  0.1093
  H  H33  1  0.674300  0.340500  0.143300  1.0  0.1052
  H  H34  1  0.795300  0.032200  0.284600  1.0  0.103
  H  H35  1  0.752400  0.083200  0.212800  1.0  0.1199
  H  H36  1  0.841000  0.138000  0.278600  1.0  0.1188
  C  C37  1  0.562100  0.412900  0.811200  1.0  0.1522
  C  C38  1  0.746000  0.133700  0.681900  1.0  -0.1778
  C  C39  1  0.767800  0.408200  0.761300  1.0  -0.2064
  C  C40  1  0.897300  0.058800  0.613400  1.0  0.2135
  C  C41  1  0.437900  0.912900  0.688800  1.0  0.151
  C  C42  1  0.254000  0.633700  0.818100  1.0  -0.1787
  C  C43  1  0.232200  0.908200  0.738700  1.0  -0.2053
  C  C44  1  0.102700  0.558800  0.886600  1.0  0.2114
  C  C45  1  0.437900  0.587100  0.188800  1.0  0.1506
  C  C46  1  0.254000  0.866300  0.318100  1.0  -0.1784
  C  C47  1  0.232200  0.591800  0.238700  1.0  -0.2052
  C  C48  1  0.102700  0.941200  0.386600  1.0  0.2113
  C  C49  1  0.562100  0.087100  0.311200  1.0  0.1513
  C  C50  1  0.746000  0.366300  0.181900  1.0  -0.1776
  C  C51  1  0.767800  0.091800  0.261300  1.0  -0.2063
  C  C52  1  0.897300  0.441200  0.113400  1.0  0.2133
  S  S53  1  0.776800  0.982470  0.559170  1.0  -0.323
  S  S54  1  0.590700  0.520890  0.853900  1.0  -0.3036
  S  S55  1  0.223200  0.482470  0.940830  1.0  -0.3257
  S  S56  1  0.409300  0.020890  0.646100  1.0  -0.3028
  S  S57  1  0.223200  0.017530  0.440830  1.0  -0.3262
  S  S58  1  0.409300  0.479110  0.146100  1.0  -0.3019
  S  S59  1  0.776800  0.517530  0.059170  1.0  -0.3236
  S  S60  1  0.590700  0.979110  0.353900  1.0  -0.3025
  N  N61  1  0.086700  0.132900  0.668300  1.0  -0.1067
  N  N62  1  0.030200  0.070400  0.615900  1.0  -0.2297
  N  N63  1  0.469000  0.280600  0.765100  1.0  -0.1045
  N  N64  1  0.872800  0.116400  0.662400  1.0  0.1873
  N  N65  1  0.454600  0.354400  0.807100  1.0  -0.2727
  N  N66  1  0.638000  0.374800  0.773200  1.0  0.1711
  N  N67  1  0.992700  0.161000  0.695500  1.0  -0.2457
  N  N68  1  0.578500  0.291700  0.745200  1.0  -0.2547
  N  N69  1  0.913300  0.632900  0.831700  1.0  -0.104
  N  N70  1  0.969800  0.570400  0.884100  1.0  -0.2256
  N  N71  1  0.531000  0.780600  0.734900  1.0  -0.105
  N  N72  1  0.127200  0.616400  0.837600  1.0  0.1876
  N  N73  1  0.545400  0.854400  0.692900  1.0  -0.2752
  N  N74  1  0.362000  0.874800  0.726800  1.0  0.1721
  N  N75  1  0.007300  0.661000  0.804500  1.0  -0.2427
  N  N76  1  0.421500  0.791700  0.754800  1.0  -0.2552
  N  N77  1  0.913300  0.867100  0.331700  1.0  -0.1048
  N  N78  1  0.969800  0.929600  0.384100  1.0  -0.2256
  N  N79  1  0.531000  0.719400  0.234900  1.0  -0.106
  N  N80  1  0.127200  0.883600  0.337600  1.0  0.1874
  N  N81  1  0.545400  0.645600  0.192900  1.0  -0.2751
  N  N82  1  0.362000  0.625200  0.226800  1.0  0.1719
  N  N83  1  0.007300  0.839000  0.304500  1.0  -0.2445
  N  N84  1  0.421500  0.708300  0.254800  1.0  -0.2553
  N  N85  1  0.086700  0.367100  0.168300  1.0  -0.1053
  N  N86  1  0.030200  0.429600  0.115900  1.0  -0.2287
  N  N87  1  0.469000  0.219400  0.265100  1.0  -0.1051
  N  N88  1  0.872800  0.383600  0.162400  1.0  0.1872
  N  N89  1  0.454600  0.145600  0.307100  1.0  -0.2722
  N  N90  1  0.638000  0.125200  0.273200  1.0  0.1709
  N  N91  1  0.992700  0.339000  0.195500  1.0  -0.2466
  N  N92  1  0.578500  0.208300  0.245200  1.0  -0.2553
