# generated using pymatgen
data_Zn3H64C98(NO2)6
_symmetry_space_group_name_H-M   'P 1'
_cell_length_a   9.47100000
_cell_length_b   17.35790000
_cell_length_c   19.68310000
_cell_angle_alpha   76.22700000
_cell_angle_beta   83.23200000
_cell_angle_gamma   88.40700000
_symmetry_Int_Tables_number   1
_chemical_formula_structural   Zn3H64C98(NO2)6
_chemical_formula_sum   'Zn3 H64 C98 N6 O12'
_cell_volume   3120.89402119
_cell_formula_units_Z   1
loop_
 _symmetry_equiv_pos_site_id
 _symmetry_equiv_pos_as_xyz
  1  'x, y, z'
loop_
 _atom_site_type_symbol
 _atom_site_label
 _atom_site_symmetry_multiplicity
 _atom_site_fract_x
 _atom_site_fract_y
 _atom_site_fract_z
 _atom_site_occupancy
 _atom_site_charge
  Zn  Zn1  1  0.131340  0.953810  0.010470  1.0  0.9254
  Zn  Zn2  1  0.868660  0.046190  0.989530  1.0  0.9251
  Zn  Zn3  1  0.000000  0.500000  0.000000  1.0  0.9702
  H  H4  1  0.263900  0.046000  0.185600  1.0  0.107
  H  H5  1  0.256000  0.172600  0.367600  1.0  0.117
  H  H6  1  0.310100  0.121800  0.262400  1.0  0.1069
  H  H7  1  0.332400  0.260600  0.426700  1.0  0.1186
  H  H8  1  0.570900  0.879200  0.145400  1.0  0.105
  H  H9  1  0.953700  0.394100  0.558600  1.0  0.1113
  H  H10  1  0.968300  0.255900  0.214200  1.0  0.1039
  H  H11  1  0.449800  0.773600  0.218700  1.0  0.1091
  H  H12  1  0.925000  0.746900  0.143400  1.0  0.1021
  H  H13  1  0.206600  0.443600  0.280100  1.0  0.0985
  H  H14  1  0.824200  0.362300  0.796300  1.0  0.0931
  H  H15  1  0.803100  0.640400  0.213900  1.0  0.1104
  H  H16  1  0.918200  0.178700  0.139600  1.0  0.1037
  H  H17  1  0.133800  0.355200  0.218800  1.0  0.1053
  H  H18  1  0.407800  0.676900  0.333800  1.0  0.1152
  H  H19  1  0.434500  0.442500  0.501900  1.0  0.1024
  H  H20  1  0.911400  0.352100  0.684400  1.0  0.1097
  H  H21  1  0.368000  0.136000  0.031500  1.0  0.1205
  H  H22  1  0.272100  0.467100  0.906200  1.0  0.082
  H  H23  1  0.450100  0.378000  0.901300  1.0  0.1191
  H  H24  1  0.520000  0.432200  0.287900  1.0  0.1221
  H  H25  1  0.250400  0.236700  0.076100  1.0  0.1168
  H  H26  1  0.644900  0.311800  0.940700  1.0  0.1143
  H  H27  1  0.061000  0.385000  0.450400  1.0  0.1131
  H  H28  1  0.176000  0.533900  0.668200  1.0  0.1048
  H  H29  1  0.326000  0.458100  0.608000  1.0  0.0967
  H  H30  1  0.552600  0.047400  0.030100  1.0  0.0816
  H  H31  1  0.633000  0.542100  0.220600  1.0  0.0975
  H  H32  1  0.093000  0.541700  0.780800  1.0  0.1125
  H  H33  1  0.295400  0.565500  0.402600  1.0  0.0979
  H  H34  1  0.821000  0.218900  0.940400  1.0  0.0809
  H  H35  1  0.076700  0.332400  0.072800  1.0  0.0654
  H  H36  1  0.736100  0.954000  0.814400  1.0  0.1075
  H  H37  1  0.744000  0.827400  0.632400  1.0  0.1168
  H  H38  1  0.689900  0.878200  0.737600  1.0  0.1071
  H  H39  1  0.667600  0.739400  0.573300  1.0  0.1207
  H  H40  1  0.429100  0.120800  0.854600  1.0  0.1051
  H  H41  1  0.046300  0.605900  0.441400  1.0  0.11
  H  H42  1  0.031700  0.744100  0.785800  1.0  0.1042
  H  H43  1  0.550200  0.226400  0.781300  1.0  0.1075
  H  H44  1  0.075000  0.253100  0.856600  1.0  0.1013
  H  H45  1  0.793400  0.556400  0.719900  1.0  0.0984
  H  H46  1  0.175800  0.637700  0.203700  1.0  0.0935
  H  H47  1  0.196900  0.359600  0.786100  1.0  0.111
  H  H48  1  0.081800  0.821300  0.860400  1.0  0.1043
  H  H49  1  0.866200  0.644800  0.781200  1.0  0.1054
  H  H50  1  0.592200  0.323100  0.666200  1.0  0.1156
  H  H51  1  0.565500  0.557500  0.498100  1.0  0.1039
  H  H52  1  0.088600  0.647900  0.315600  1.0  0.1101
  H  H53  1  0.632000  0.864000  0.968500  1.0  0.1208
  H  H54  1  0.727900  0.532900  0.093800  1.0  0.0825
  H  H55  1  0.549900  0.622000  0.098700  1.0  0.1173
  H  H56  1  0.480000  0.567800  0.712100  1.0  0.1223
  H  H57  1  0.749600  0.763300  0.923900  1.0  0.117
  H  H58  1  0.355100  0.688200  0.059300  1.0  0.1146
  H  H59  1  0.939000  0.615000  0.549600  1.0  0.1116
  H  H60  1  0.824000  0.466100  0.331800  1.0  0.1038
  H  H61  1  0.674000  0.541900  0.392000  1.0  0.097
  H  H62  1  0.447400  0.952600  0.969900  1.0  0.0814
  H  H63  1  0.367000  0.457900  0.779400  1.0  0.0975
  H  H64  1  0.907000  0.458300  0.219200  1.0  0.1134
  H  H65  1  0.704600  0.434500  0.597400  1.0  0.0981
  H  H66  1  0.179000  0.781100  0.059600  1.0  0.0809
  H  H67  1  0.923300  0.667600  0.927200  1.0  0.0653
  C  C68  1  0.204900  0.088500  0.190900  1.0  -0.04
  C  C69  1  0.247300  0.226800  0.349400  1.0  -0.1399
  C  C70  1  0.233500  0.134600  0.236200  1.0  -0.1552
  C  C71  1  0.292300  0.279600  0.384900  1.0  -0.1914
  C  C72  1  0.902700  0.454100  0.875900  1.0  0.6834
  C  C73  1  0.617800  0.831200  0.159300  1.0  -0.0351
  C  C74  1  0.050000  0.405800  0.546900  1.0  -0.1307
  C  C75  1  0.029200  0.214500  0.207900  1.0  -0.1226
  C  C76  1  0.087200  0.105900  0.153100  1.0  -0.1185
  C  C77  1  0.545100  0.767700  0.202900  1.0  -0.1303
  C  C78  1  0.828800  0.752200  0.157700  1.0  -0.02
  C  C79  1  0.217800  0.389300  0.297300  1.0  -0.1956
  C  C80  1  0.897100  0.395800  0.771000  1.0  -0.0387
  C  C81  1  0.188700  0.255000  0.285900  1.0  0.0212
  C  C82  1  0.755900  0.688400  0.200400  1.0  -0.1208
  C  C83  1  0.998800  0.168000  0.163100  1.0  -0.0133
  C  C84  1  0.173600  0.336000  0.260600  1.0  -0.109
  C  C85  1  0.762300  0.824700  0.135400  1.0  -0.1241
  C  C86  1  0.431100  0.627700  0.324500  1.0  -0.1571
  C  C87  1  0.258200  0.415900  0.463000  1.0  0.1877
  C  C88  1  0.336800  0.435100  0.512600  1.0  -0.1842
  C  C89  1  0.060200  0.059300  0.100700  1.0  0.6895
  C  C90  1  0.949400  0.389700  0.703800  1.0  -0.132
  C  C91  1  0.459500  0.154100  0.013200  1.0  -0.2017
  C  C92  1  0.268100  0.420000  0.940800  1.0  0.179
  C  C93  1  0.375000  0.366700  0.937100  1.0  -0.2255
  C  C94  1  0.497700  0.481300  0.297600  1.0  -0.1996
  C  C95  1  0.486300  0.235200  0.986900  1.0  0.0897
  C  C96  1  0.257100  0.282900  0.040400  1.0  -0.2176
  C  C97  1  0.623700  0.258400  0.959200  1.0  -0.1927
  C  C98  1  0.148500  0.200600  0.243400  1.0  0.0625
  C  C99  1  0.611200  0.693800  0.224100  1.0  0.054
  C  C100  1  0.394900  0.485900  0.354300  1.0  0.178
  C  C101  1  0.533900  0.622700  0.268900  1.0  0.0615
  C  C102  1  0.114400  0.399900  0.481900  1.0  -0.1573
  C  C103  1  0.107700  0.497900  0.694400  1.0  -0.1399
  C  C104  1  0.125300  0.429100  0.595900  1.0  0.0815
  C  C105  1  0.272100  0.443100  0.576700  1.0  -0.1325
  C  C106  1  0.058600  0.439400  0.664800  1.0  0.0351
  C  C107  1  0.952400  0.451100  0.801100  1.0  -0.0906
  C  C108  1  0.570700  0.101200  0.011800  1.0  0.1776
  C  C109  1  0.371000  0.295400  0.987200  1.0  0.1093
  C  C110  1  0.278300  0.360700  0.359100  1.0  0.1791
  C  C111  1  0.564500  0.547100  0.257300  1.0  -0.131
  C  C112  1  0.842100  0.892400  0.086000  1.0  0.6789
  C  C113  1  0.057200  0.503200  0.761700  1.0  -0.1247
  C  C114  1  0.363800  0.560600  0.365800  1.0  -0.1814
  C  C115  1  0.729100  0.202200  0.959100  1.0  0.175
  C  C116  1  0.154000  0.341600  0.038200  1.0  0.1953
  C  C117  1  0.795100  0.911500  0.809100  1.0  -0.0381
  C  C118  1  0.752700  0.773200  0.650600  1.0  -0.1394
  C  C119  1  0.766500  0.865400  0.763800  1.0  -0.1542
  C  C120  1  0.707700  0.720400  0.615100  1.0  -0.1912
  C  C121  1  0.097300  0.545900  0.124100  1.0  0.6873
  C  C122  1  0.382200  0.168800  0.840700  1.0  -0.0348
  C  C123  1  0.950000  0.594200  0.453100  1.0  -0.1304
  C  C124  1  0.970800  0.785500  0.792100  1.0  -0.1216
  C  C125  1  0.912800  0.894100  0.846900  1.0  -0.1147
  C  C126  1  0.454900  0.232300  0.797100  1.0  -0.1276
  C  C127  1  0.171200  0.247800  0.842300  1.0  -0.0222
  C  C128  1  0.782200  0.610700  0.702700  1.0  -0.1959
  C  C129  1  0.102900  0.604200  0.229000  1.0  -0.0391
  C  C130  1  0.811300  0.745000  0.714100  1.0  0.0215
  C  C131  1  0.244100  0.311600  0.799600  1.0  -0.1214
  C  C132  1  0.001200  0.832000  0.836900  1.0  -0.0088
  C  C133  1  0.826400  0.664000  0.739400  1.0  -0.1095
  C  C134  1  0.237700  0.175300  0.864600  1.0  -0.1242
  C  C135  1  0.568900  0.372300  0.675500  1.0  -0.156
  C  C136  1  0.741800  0.584100  0.537000  1.0  0.1858
  C  C137  1  0.663200  0.564900  0.487400  1.0  -0.185
  C  C138  1  0.939800  0.940700  0.899300  1.0  0.6915
  C  C139  1  0.050600  0.610300  0.296200  1.0  -0.1334
  C  C140  1  0.540500  0.845900  0.986800  1.0  -0.2026
  C  C141  1  0.731900  0.580000  0.059200  1.0  0.1803
  C  C142  1  0.625000  0.633300  0.062900  1.0  -0.2251
  C  C143  1  0.502300  0.518700  0.702400  1.0  -0.1991
  C  C144  1  0.513700  0.764800  0.013100  1.0  0.0893
  C  C145  1  0.742900  0.717100  0.959600  1.0  -0.2176
  C  C146  1  0.376300  0.741600  0.040800  1.0  -0.1939
  C  C147  1  0.851500  0.799400  0.756600  1.0  0.0629
  C  C148  1  0.388800  0.306200  0.775900  1.0  0.0538
  C  C149  1  0.605100  0.514100  0.645700  1.0  0.1775
  C  C150  1  0.466100  0.377300  0.731100  1.0  0.0621
  C  C151  1  0.885600  0.600100  0.518100  1.0  -0.1546
  C  C152  1  0.892300  0.502100  0.305600  1.0  -0.1368
  C  C153  1  0.874700  0.570900  0.404100  1.0  0.0818
  C  C154  1  0.727900  0.556900  0.423300  1.0  -0.1325
  C  C155  1  0.941400  0.560600  0.335200  1.0  0.0344
  C  C156  1  0.047600  0.548900  0.198900  1.0  -0.088
  C  C157  1  0.429300  0.898800  0.988200  1.0  0.178
  C  C158  1  0.629000  0.704600  0.012800  1.0  0.1091
  C  C159  1  0.721700  0.639300  0.640900  1.0  0.1791
  C  C160  1  0.435500  0.452900  0.742700  1.0  -0.1306
  C  C161  1  0.157900  0.107600  0.914000  1.0  0.6797
  C  C162  1  0.942800  0.496800  0.238300  1.0  -0.1239
  C  C163  1  0.636200  0.439400  0.634200  1.0  -0.1816
  C  C164  1  0.270900  0.797800  0.040900  1.0  0.1743
  C  C165  1  0.846000  0.658400  0.961800  1.0  0.195
  N  N166  1  0.326900  0.415730  0.395020  1.0  -0.1899
  N  N167  1  0.157800  0.408900  0.990840  1.0  -0.31
  N  N168  1  0.704800  0.124380  0.984730  1.0  -0.3202
  N  N169  1  0.673100  0.584270  0.604980  1.0  -0.1909
  N  N170  1  0.842200  0.591100  0.009160  1.0  -0.3108
  N  N171  1  0.295200  0.875620  0.015270  1.0  -0.3203
  O  O172  1  0.813300  0.405700  0.910560  1.0  -0.6013
  O  O173  1  0.974200  0.885350  0.074290  1.0  -0.6221
  O  O174  1  0.947900  0.075200  0.073050  1.0  -0.6248
  O  O175  1  0.152900  0.011410  0.087190  1.0  -0.5786
  O  O176  1  0.771200  0.952220  0.060100  1.0  -0.581
  O  O177  1  0.960800  0.507640  0.898180  1.0  -0.6246
  O  O178  1  0.186700  0.594300  0.089440  1.0  -0.6011
  O  O179  1  0.025800  0.114650  0.925710  1.0  -0.6208
  O  O180  1  0.052100  0.924800  0.926950  1.0  -0.6273
  O  O181  1  0.847100  0.988590  0.912810  1.0  -0.5778
  O  O182  1  0.228800  0.047780  0.939900  1.0  -0.5799
  O  O183  1  0.039200  0.492360  0.101820  1.0  -0.6241
