# generated using pymatgen
data_AgH6C10N6O
_symmetry_space_group_name_H-M   'P 1'
_cell_length_a   10.76750000
_cell_length_b   10.76750000
_cell_length_c   13.99400000
_cell_angle_alpha   90.00000000
_cell_angle_beta   90.00000000
_cell_angle_gamma   90.00000000
_symmetry_Int_Tables_number   1
_chemical_formula_structural   AgH6C10N6O
_chemical_formula_sum   'Ag4 H24 C40 N24 O4'
_cell_volume   1622.45115316
_cell_formula_units_Z   4
loop_
 _symmetry_equiv_pos_site_id
 _symmetry_equiv_pos_as_xyz
  1  'x, y, z'
loop_
 _atom_site_type_symbol
 _atom_site_label
 _atom_site_symmetry_multiplicity
 _atom_site_fract_x
 _atom_site_fract_y
 _atom_site_fract_z
 _atom_site_occupancy
 _atom_site_charge
  Ag  Ag1  1  0.500000  0.500000  0.182060  1.0  0.31
  Ag  Ag2  1  0.500000  0.500000  0.817940  1.0  0.3099
  Ag  Ag3  1  0.000000  0.000000  0.682060  1.0  0.31
  Ag  Ag4  1  0.000000  0.000000  0.317940  1.0  0.3099
  H  H5  1  0.353500  0.353500  0.636400  1.0  0.0466
  H  H6  1  0.311700  0.311700  0.908800  1.0  0.0636
  H  H7  1  0.167000  0.167000  0.881700  1.0  0.0596
  H  H8  1  0.646500  0.646500  0.636400  1.0  0.0468
  H  H9  1  0.688300  0.688300  0.908800  1.0  0.0635
  H  H10  1  0.833000  0.833000  0.881700  1.0  0.0598
  H  H11  1  0.646500  0.646500  0.363600  1.0  0.047
  H  H12  1  0.688300  0.688300  0.091200  1.0  0.0644
  H  H13  1  0.833000  0.833000  0.118300  1.0  0.06
  H  H14  1  0.353500  0.353500  0.363600  1.0  0.0465
  H  H15  1  0.311700  0.311700  0.091200  1.0  0.0639
  H  H16  1  0.167000  0.167000  0.118300  1.0  0.0599
  H  H17  1  0.853500  0.146500  0.136400  1.0  0.0469
  H  H18  1  0.811700  0.188300  0.408800  1.0  0.0638
  H  H19  1  0.667000  0.333000  0.381700  1.0  0.0598
  H  H20  1  0.146500  0.853500  0.136400  1.0  0.0466
  H  H21  1  0.188300  0.811700  0.408800  1.0  0.0635
  H  H22  1  0.333000  0.667000  0.381700  1.0  0.0596
  H  H23  1  0.146500  0.853500  0.863600  1.0  0.0469
  H  H24  1  0.188300  0.811700  0.591200  1.0  0.0643
  H  H25  1  0.333000  0.667000  0.618300  1.0  0.0599
  H  H26  1  0.853500  0.146500  0.863600  1.0  0.0468
  H  H27  1  0.811700  0.188300  0.591200  1.0  0.0643
  H  H28  1  0.667000  0.333000  0.618300  1.0  0.06
  C  C29  1  0.190600  0.190600  0.574600  1.0  0.2981
  C  C30  1  0.228300  0.228300  0.672200  1.0  0.1127
  C  C31  1  0.315800  0.315800  0.688600  1.0  0.1185
  C  C32  1  0.291900  0.291900  0.845900  1.0  0.1007
  C  C33  1  0.204700  0.204700  0.829400  1.0  0.1158
  C  C34  1  0.809400  0.809400  0.574600  1.0  0.2993
  C  C35  1  0.771700  0.771700  0.672200  1.0  0.112
  C  C36  1  0.684200  0.684200  0.688600  1.0  0.118
  C  C37  1  0.708100  0.708100  0.845900  1.0  0.1
  C  C38  1  0.795300  0.795300  0.829400  1.0  0.1173
  C  C39  1  0.809400  0.809400  0.425400  1.0  0.3007
  C  C40  1  0.771700  0.771700  0.327800  1.0  0.1119
  C  C41  1  0.684200  0.684200  0.311400  1.0  0.1178
  C  C42  1  0.708100  0.708100  0.154100  1.0  0.1003
  C  C43  1  0.795300  0.795300  0.170600  1.0  0.1164
  C  C44  1  0.190600  0.190600  0.425400  1.0  0.3002
  C  C45  1  0.228300  0.228300  0.327800  1.0  0.1129
  C  C46  1  0.315800  0.315800  0.311400  1.0  0.1179
  C  C47  1  0.291900  0.291900  0.154100  1.0  0.101
  C  C48  1  0.204700  0.204700  0.170600  1.0  0.1148
  C  C49  1  0.690600  0.309400  0.074600  1.0  0.2991
  C  C50  1  0.728300  0.271700  0.172200  1.0  0.1124
  C  C51  1  0.815800  0.184200  0.188600  1.0  0.1182
  C  C52  1  0.791900  0.208100  0.345900  1.0  0.1004
  C  C53  1  0.704700  0.295300  0.329400  1.0  0.1157
  C  C54  1  0.309400  0.690600  0.074600  1.0  0.2983
  C  C55  1  0.271700  0.728300  0.172200  1.0  0.1121
  C  C56  1  0.184200  0.815800  0.188600  1.0  0.1182
  C  C57  1  0.208100  0.791900  0.345900  1.0  0.1001
  C  C58  1  0.295300  0.704700  0.329400  1.0  0.1174
  C  C59  1  0.309400  0.690600  0.925400  1.0  0.3003
  C  C60  1  0.271700  0.728300  0.827800  1.0  0.1119
  C  C61  1  0.184200  0.815800  0.811400  1.0  0.1174
  C  C62  1  0.208100  0.791900  0.654100  1.0  0.1007
  C  C63  1  0.295300  0.704700  0.670600  1.0  0.1162
  C  C64  1  0.690600  0.309400  0.925400  1.0  0.3005
  C  C65  1  0.728300  0.271700  0.827800  1.0  0.1125
  C  C66  1  0.815800  0.184200  0.811400  1.0  0.1181
  C  C67  1  0.791900  0.208100  0.654100  1.0  0.1008
  C  C68  1  0.704700  0.295300  0.670600  1.0  0.115
  N  N69  1  0.110100  0.110100  0.549600  1.0  -0.2358
  N  N70  1  0.350500  0.350500  0.776000  1.0  -0.3076
  N  N71  1  0.169600  0.169600  0.742400  1.0  -0.4039
  N  N72  1  0.889900  0.889900  0.549600  1.0  -0.2364
  N  N73  1  0.649500  0.649500  0.776000  1.0  -0.3064
  N  N74  1  0.830400  0.830400  0.742400  1.0  -0.405
  N  N75  1  0.889900  0.889900  0.450400  1.0  -0.236
  N  N76  1  0.649500  0.649500  0.224000  1.0  -0.3062
  N  N77  1  0.830400  0.830400  0.257600  1.0  -0.4056
  N  N78  1  0.110100  0.110100  0.450400  1.0  -0.2356
  N  N79  1  0.350500  0.350500  0.224000  1.0  -0.3074
  N  N80  1  0.169600  0.169600  0.257600  1.0  -0.405
  N  N81  1  0.610100  0.389900  0.049600  1.0  -0.2358
  N  N82  1  0.850500  0.149500  0.276000  1.0  -0.3067
  N  N83  1  0.669600  0.330400  0.242400  1.0  -0.4039
  N  N84  1  0.389900  0.610100  0.049600  1.0  -0.2367
  N  N85  1  0.149500  0.850500  0.276000  1.0  -0.3067
  N  N86  1  0.330400  0.669600  0.242400  1.0  -0.4042
  N  N87  1  0.389900  0.610100  0.950400  1.0  -0.2363
  N  N88  1  0.149500  0.850500  0.724000  1.0  -0.3063
  N  N89  1  0.330400  0.669600  0.757600  1.0  -0.4048
  N  N90  1  0.610100  0.389900  0.950400  1.0  -0.235
  N  N91  1  0.850500  0.149500  0.724000  1.0  -0.3066
  N  N92  1  0.669600  0.330400  0.757600  1.0  -0.4049
  O  O93  1  0.245900  0.245900  0.500000  1.0  -0.25
  O  O94  1  0.754100  0.754100  0.500000  1.0  -0.2488
  O  O95  1  0.745900  0.254100  0.000000  1.0  -0.2495
  O  O96  1  0.254100  0.745900  0.000000  1.0  -0.2485
