# generated using pymatgen
data_AgH6C10N6O
_symmetry_space_group_name_H-M   'P 1'
_cell_length_a   10.87060000
_cell_length_b   10.87060000
_cell_length_c   13.95900000
_cell_angle_alpha   90.00000000
_cell_angle_beta   90.00000000
_cell_angle_gamma   90.00000000
_symmetry_Int_Tables_number   1
_chemical_formula_structural   AgH6C10N6O
_chemical_formula_sum   'Ag4 H24 C40 N24 O4'
_cell_volume   1649.53425332
_cell_formula_units_Z   4
loop_
 _symmetry_equiv_pos_site_id
 _symmetry_equiv_pos_as_xyz
  1  'x, y, z'
loop_
 _atom_site_type_symbol
 _atom_site_label
 _atom_site_symmetry_multiplicity
 _atom_site_fract_x
 _atom_site_fract_y
 _atom_site_fract_z
 _atom_site_occupancy
 _atom_site_charge
  Ag  Ag1  1  0.500000  0.500000  0.185130  1.0  0.3582
  Ag  Ag2  1  0.500000  0.500000  0.814870  1.0  0.3579
  Ag  Ag3  1  0.000000  0.000000  0.685130  1.0  0.3582
  Ag  Ag4  1  0.000000  0.000000  0.314870  1.0  0.3579
  H  H5  1  0.351300  0.351300  0.634600  1.0  0.064
  H  H6  1  0.312900  0.312900  0.908200  1.0  0.0667
  H  H7  1  0.167300  0.167300  0.883200  1.0  0.0755
  H  H8  1  0.648700  0.648700  0.634600  1.0  0.0639
  H  H9  1  0.687100  0.687100  0.908200  1.0  0.0662
  H  H10  1  0.832700  0.832700  0.883200  1.0  0.0753
  H  H11  1  0.648700  0.648700  0.365400  1.0  0.0644
  H  H12  1  0.687100  0.687100  0.091800  1.0  0.0668
  H  H13  1  0.832700  0.832700  0.116800  1.0  0.0759
  H  H14  1  0.351300  0.351300  0.365400  1.0  0.0634
  H  H15  1  0.312900  0.312900  0.091800  1.0  0.0666
  H  H16  1  0.167300  0.167300  0.116800  1.0  0.0761
  H  H17  1  0.851300  0.148700  0.134600  1.0  0.064
  H  H18  1  0.812900  0.187100  0.408200  1.0  0.0666
  H  H19  1  0.667300  0.332700  0.383200  1.0  0.0753
  H  H20  1  0.148700  0.851300  0.134600  1.0  0.0641
  H  H21  1  0.187100  0.812900  0.408200  1.0  0.0664
  H  H22  1  0.332700  0.667300  0.383200  1.0  0.0752
  H  H23  1  0.148700  0.851300  0.865400  1.0  0.0643
  H  H24  1  0.187100  0.812900  0.591800  1.0  0.0669
  H  H25  1  0.332700  0.667300  0.616800  1.0  0.076
  H  H26  1  0.851300  0.148700  0.865400  1.0  0.0636
  H  H27  1  0.812900  0.187100  0.591800  1.0  0.0668
  H  H28  1  0.667300  0.332700  0.616800  1.0  0.076
  C  C29  1  0.189400  0.189400  0.575300  1.0  0.2716
  C  C30  1  0.226500  0.226500  0.671900  1.0  0.1173
  C  C31  1  0.314400  0.314400  0.687400  1.0  0.1128
  C  C32  1  0.292600  0.292600  0.845500  1.0  0.1051
  C  C33  1  0.204100  0.204100  0.830300  1.0  0.0948
  C  C34  1  0.810600  0.810600  0.575300  1.0  0.2731
  C  C35  1  0.773500  0.773500  0.671900  1.0  0.1169
  C  C36  1  0.685600  0.685600  0.687400  1.0  0.1119
  C  C37  1  0.707400  0.707400  0.845500  1.0  0.1047
  C  C38  1  0.795900  0.795900  0.830300  1.0  0.0952
  C  C39  1  0.810600  0.810600  0.424700  1.0  0.2736
  C  C40  1  0.773500  0.773500  0.328100  1.0  0.1168
  C  C41  1  0.685600  0.685600  0.312600  1.0  0.1111
  C  C42  1  0.707400  0.707400  0.154500  1.0  0.1055
  C  C43  1  0.795900  0.795900  0.169700  1.0  0.0954
  C  C44  1  0.189400  0.189400  0.424700  1.0  0.2725
  C  C45  1  0.226500  0.226500  0.328100  1.0  0.1174
  C  C46  1  0.314400  0.314400  0.312600  1.0  0.1119
  C  C47  1  0.292600  0.292600  0.154500  1.0  0.106
  C  C48  1  0.204100  0.204100  0.169700  1.0  0.0942
  C  C49  1  0.689400  0.310600  0.075300  1.0  0.2723
  C  C50  1  0.726500  0.273500  0.171900  1.0  0.1173
  C  C51  1  0.814400  0.185600  0.187400  1.0  0.1123
  C  C52  1  0.792600  0.207400  0.345500  1.0  0.1049
  C  C53  1  0.704100  0.295900  0.330300  1.0  0.0943
  C  C54  1  0.310600  0.689400  0.075300  1.0  0.2724
  C  C55  1  0.273500  0.726500  0.171900  1.0  0.1169
  C  C56  1  0.185600  0.814400  0.187400  1.0  0.1123
  C  C57  1  0.207400  0.792600  0.345500  1.0  0.1048
  C  C58  1  0.295900  0.704100  0.330300  1.0  0.0958
  C  C59  1  0.310600  0.689400  0.924700  1.0  0.2732
  C  C60  1  0.273500  0.726500  0.828100  1.0  0.1167
  C  C61  1  0.185600  0.814400  0.812600  1.0  0.1111
  C  C62  1  0.207400  0.792600  0.654500  1.0  0.1056
  C  C63  1  0.295900  0.704100  0.669700  1.0  0.095
  C  C64  1  0.689400  0.310600  0.924700  1.0  0.2729
  C  C65  1  0.726500  0.273500  0.828100  1.0  0.1175
  C  C66  1  0.814400  0.185600  0.812600  1.0  0.1118
  C  C67  1  0.792600  0.207400  0.654500  1.0  0.106
  C  C68  1  0.704100  0.295900  0.669700  1.0  0.0947
  N  N69  1  0.108400  0.108400  0.549800  1.0  -0.258
  N  N70  1  0.350000  0.350000  0.775300  1.0  -0.3141
  N  N71  1  0.169200  0.169200  0.743500  1.0  -0.405
  N  N72  1  0.891600  0.891600  0.549800  1.0  -0.2588
  N  N73  1  0.650000  0.650000  0.775300  1.0  -0.3125
  N  N74  1  0.830800  0.830800  0.743500  1.0  -0.4064
  N  N75  1  0.891600  0.891600  0.450200  1.0  -0.2585
  N  N76  1  0.650000  0.650000  0.224700  1.0  -0.3128
  N  N77  1  0.830800  0.830800  0.256500  1.0  -0.4058
  N  N78  1  0.108400  0.108400  0.450200  1.0  -0.2572
  N  N79  1  0.350000  0.350000  0.224700  1.0  -0.3144
  N  N80  1  0.169200  0.169200  0.256500  1.0  -0.4039
  N  N81  1  0.608400  0.391600  0.049800  1.0  -0.2575
  N  N82  1  0.850000  0.150000  0.275300  1.0  -0.3127
  N  N83  1  0.669200  0.330800  0.243500  1.0  -0.4047
  N  N84  1  0.391600  0.608400  0.049800  1.0  -0.2593
  N  N85  1  0.150000  0.850000  0.275300  1.0  -0.3126
  N  N86  1  0.330800  0.669200  0.243500  1.0  -0.4056
  N  N87  1  0.391600  0.608400  0.950200  1.0  -0.2588
  N  N88  1  0.150000  0.850000  0.724700  1.0  -0.3129
  N  N89  1  0.330800  0.669200  0.756500  1.0  -0.4048
  N  N90  1  0.608400  0.391600  0.950200  1.0  -0.2571
  N  N91  1  0.850000  0.150000  0.724700  1.0  -0.3131
  N  N92  1  0.669200  0.330800  0.756500  1.0  -0.404
  O  O93  1  0.243800  0.243800  0.500000  1.0  -0.2224
  O  O94  1  0.756200  0.756200  0.500000  1.0  -0.2218
  O  O95  1  0.743800  0.256200  0.000000  1.0  -0.2224
  O  O96  1  0.256200  0.743800  0.000000  1.0  -0.2209
