# generated using pymatgen
data_Zn3P4(HO3)4
_symmetry_space_group_name_H-M   'P 1'
_cell_length_a   28.52800000
_cell_length_b   8.42600000
_cell_length_c   16.15900000
_cell_angle_alpha   90.00000000
_cell_angle_beta   90.00000000
_cell_angle_gamma   90.00000000
_symmetry_Int_Tables_number   1
_chemical_formula_structural   Zn3P4(HO3)4
_chemical_formula_sum   'Zn24 P32 H32 O96'
_cell_volume   3884.25077955
_cell_formula_units_Z   8
loop_
 _symmetry_equiv_pos_site_id
 _symmetry_equiv_pos_as_xyz
  1  'x, y, z'
loop_
 _atom_site_type_symbol
 _atom_site_label
 _atom_site_symmetry_multiplicity
 _atom_site_fract_x
 _atom_site_fract_y
 _atom_site_fract_z
 _atom_site_occupancy
 _atom_site_charge
  Zn  Zn1  1  0.122610  0.258650  0.234050  1.0  1.1468
  Zn  Zn2  1  0.122610  0.758650  0.734050  1.0  1.1468
  Zn  Zn3  1  0.622610  0.258650  0.734050  1.0  1.1468
  Zn  Zn4  1  0.622610  0.758650  0.234050  1.0  1.1468
  Zn  Zn5  1  0.877390  0.741350  0.234050  1.0  1.1462
  Zn  Zn6  1  0.877390  0.241350  0.734050  1.0  1.1462
  Zn  Zn7  1  0.377390  0.741350  0.734050  1.0  1.1462
  Zn  Zn8  1  0.377390  0.241350  0.234050  1.0  1.1462
  Zn  Zn9  1  0.372610  0.991350  0.484050  1.0  1.1464
  Zn  Zn10  1  0.372610  0.491350  0.984050  1.0  1.1464
  Zn  Zn11  1  0.872610  0.991350  0.984050  1.0  1.1464
  Zn  Zn12  1  0.872610  0.491350  0.484050  1.0  1.1464
  Zn  Zn13  1  0.127390  0.508650  0.484050  1.0  1.1462
  Zn  Zn14  1  0.127390  0.008650  0.984050  1.0  1.1462
  Zn  Zn15  1  0.627390  0.508650  0.984050  1.0  1.1462
  Zn  Zn16  1  0.627390  0.008650  0.484050  1.0  1.1462
  Zn  Zn17  1  0.000000  0.000000  0.500180  1.0  1.1238
  Zn  Zn18  1  0.000000  0.500000  0.000180  1.0  1.1238
  Zn  Zn19  1  0.500000  0.000000  0.000180  1.0  1.1238
  Zn  Zn20  1  0.500000  0.500000  0.500180  1.0  1.1238
  Zn  Zn21  1  0.250000  0.250000  0.750180  1.0  1.1238
  Zn  Zn22  1  0.250000  0.750000  0.250180  1.0  1.1238
  Zn  Zn23  1  0.750000  0.250000  0.250180  1.0  1.1238
  Zn  Zn24  1  0.750000  0.750000  0.750180  1.0  1.1238
  P  P25  1  0.065860  0.233370  0.408520  1.0  1.5315
  P  P26  1  0.058340  0.724800  0.581730  1.0  1.5292
  P  P27  1  0.065860  0.733370  0.908520  1.0  1.5315
  P  P28  1  0.058340  0.224800  0.081730  1.0  1.5292
  P  P29  1  0.565860  0.233370  0.908520  1.0  1.5315
  P  P30  1  0.558340  0.724800  0.081730  1.0  1.5292
  P  P31  1  0.565860  0.733370  0.408520  1.0  1.5315
  P  P32  1  0.558340  0.224800  0.581730  1.0  1.5292
  P  P33  1  0.934140  0.766630  0.408520  1.0  1.5368
  P  P34  1  0.941660  0.275200  0.581730  1.0  1.5246
  P  P35  1  0.934140  0.266630  0.908520  1.0  1.5368
  P  P36  1  0.941660  0.775200  0.081730  1.0  1.5246
  P  P37  1  0.434140  0.766630  0.908520  1.0  1.5368
  P  P38  1  0.441660  0.275200  0.081730  1.0  1.5246
  P  P39  1  0.434140  0.266630  0.408520  1.0  1.5368
  P  P40  1  0.441660  0.775200  0.581730  1.0  1.5246
  P  P41  1  0.315860  0.016630  0.658520  1.0  1.5312
  P  P42  1  0.308340  0.525200  0.831730  1.0  1.5253
  P  P43  1  0.315860  0.516630  0.158520  1.0  1.5312
  P  P44  1  0.308340  0.025200  0.331730  1.0  1.5253
  P  P45  1  0.815860  0.016630  0.158520  1.0  1.5312
  P  P46  1  0.808340  0.525200  0.331730  1.0  1.5253
  P  P47  1  0.815860  0.516630  0.658520  1.0  1.5312
  P  P48  1  0.808340  0.025200  0.831730  1.0  1.5253
  P  P49  1  0.184140  0.483370  0.658520  1.0  1.5375
  P  P50  1  0.191660  0.974800  0.831730  1.0  1.528
  P  P51  1  0.184140  0.983370  0.158520  1.0  1.5375
  P  P52  1  0.191660  0.474800  0.331730  1.0  1.528
  P  P53  1  0.684140  0.483370  0.158520  1.0  1.5375
  P  P54  1  0.691660  0.974800  0.331730  1.0  1.528
  P  P55  1  0.684140  0.983370  0.658520  1.0  1.5375
  P  P56  1  0.691660  0.474800  0.831730  1.0  1.528
  H  H57  1  0.029100  0.323000  0.425000  1.0  -0.081
  H  H58  1  0.047600  0.599000  0.626000  1.0  -0.0821
  H  H59  1  0.029100  0.823000  0.925000  1.0  -0.081
  H  H60  1  0.047600  0.099000  0.126000  1.0  -0.0821
  H  H61  1  0.529100  0.323000  0.925000  1.0  -0.081
  H  H62  1  0.547600  0.599000  0.126000  1.0  -0.0821
  H  H63  1  0.529100  0.823000  0.425000  1.0  -0.081
  H  H64  1  0.547600  0.099000  0.626000  1.0  -0.0821
  H  H65  1  0.970900  0.677000  0.425000  1.0  -0.0805
  H  H66  1  0.952400  0.401000  0.626000  1.0  -0.0814
  H  H67  1  0.970900  0.177000  0.925000  1.0  -0.0805
  H  H68  1  0.952400  0.901000  0.126000  1.0  -0.0814
  H  H69  1  0.470900  0.677000  0.925000  1.0  -0.0805
  H  H70  1  0.452400  0.401000  0.126000  1.0  -0.0814
  H  H71  1  0.470900  0.177000  0.425000  1.0  -0.0805
  H  H72  1  0.452400  0.901000  0.626000  1.0  -0.0814
  H  H73  1  0.279100  0.927000  0.675000  1.0  -0.0829
  H  H74  1  0.297600  0.651000  0.876000  1.0  -0.0834
  H  H75  1  0.279100  0.427000  0.175000  1.0  -0.0829
  H  H76  1  0.297600  0.151000  0.376000  1.0  -0.0834
  H  H77  1  0.779100  0.927000  0.175000  1.0  -0.0829
  H  H78  1  0.797600  0.651000  0.376000  1.0  -0.0834
  H  H79  1  0.779100  0.427000  0.675000  1.0  -0.0829
  H  H80  1  0.797600  0.151000  0.876000  1.0  -0.0834
  H  H81  1  0.220900  0.573000  0.675000  1.0  -0.0788
  H  H82  1  0.202400  0.849000  0.876000  1.0  -0.081
  H  H83  1  0.220900  0.073000  0.175000  1.0  -0.0788
  H  H84  1  0.202400  0.349000  0.376000  1.0  -0.081
  H  H85  1  0.720900  0.573000  0.175000  1.0  -0.0788
  H  H86  1  0.702400  0.849000  0.376000  1.0  -0.081
  H  H87  1  0.720900  0.073000  0.675000  1.0  -0.0788
  H  H88  1  0.702400  0.349000  0.876000  1.0  -0.081
  O  O89  1  0.053310  0.064900  0.433600  1.0  -0.7389
  O  O90  1  0.075470  0.244900  0.317100  1.0  -0.8232
  O  O91  1  0.104730  0.294500  0.462880  1.0  -0.7382
  O  O92  1  0.093820  0.823100  0.629410  1.0  -0.7489
  O  O93  1  0.078140  0.660500  0.501500  1.0  -0.7737
  O  O94  1  0.012820  0.814300  0.566380  1.0  -0.7839
  O  O95  1  0.053310  0.564900  0.933600  1.0  -0.7389
  O  O96  1  0.075470  0.744900  0.817100  1.0  -0.8232
  O  O97  1  0.104730  0.794500  0.962880  1.0  -0.7382
  O  O98  1  0.093820  0.323100  0.129410  1.0  -0.7489
  O  O99  1  0.078140  0.160500  0.001500  1.0  -0.7737
  O  O100  1  0.012820  0.314300  0.066380  1.0  -0.7839
  O  O101  1  0.553310  0.064900  0.933600  1.0  -0.7389
  O  O102  1  0.575470  0.244900  0.817100  1.0  -0.8232
  O  O103  1  0.604730  0.294500  0.962880  1.0  -0.7382
  O  O104  1  0.593820  0.823100  0.129410  1.0  -0.7489
  O  O105  1  0.578140  0.660500  0.001500  1.0  -0.7737
  O  O106  1  0.512820  0.814300  0.066380  1.0  -0.7839
  O  O107  1  0.553310  0.564900  0.433600  1.0  -0.7389
  O  O108  1  0.575470  0.744900  0.317100  1.0  -0.8232
  O  O109  1  0.604730  0.794500  0.462880  1.0  -0.7382
  O  O110  1  0.593820  0.323100  0.629410  1.0  -0.7489
  O  O111  1  0.578140  0.160500  0.501500  1.0  -0.7737
  O  O112  1  0.512820  0.314300  0.566380  1.0  -0.7839
  O  O113  1  0.946690  0.935100  0.433600  1.0  -0.7375
  O  O114  1  0.924530  0.755100  0.317100  1.0  -0.8237
  O  O115  1  0.895270  0.705500  0.462880  1.0  -0.7382
  O  O116  1  0.906180  0.176900  0.629410  1.0  -0.7498
  O  O117  1  0.921860  0.339500  0.501500  1.0  -0.7739
  O  O118  1  0.987180  0.185700  0.566380  1.0  -0.7831
  O  O119  1  0.946690  0.435100  0.933600  1.0  -0.7375
  O  O120  1  0.924530  0.255100  0.817100  1.0  -0.8237
  O  O121  1  0.895270  0.205500  0.962880  1.0  -0.7382
  O  O122  1  0.906180  0.676900  0.129410  1.0  -0.7498
  O  O123  1  0.921860  0.839500  0.001500  1.0  -0.7739
  O  O124  1  0.987180  0.685700  0.066380  1.0  -0.7831
  O  O125  1  0.446690  0.935100  0.933600  1.0  -0.7375
  O  O126  1  0.424530  0.755100  0.817100  1.0  -0.8237
  O  O127  1  0.395270  0.705500  0.962880  1.0  -0.7382
  O  O128  1  0.406180  0.176900  0.129410  1.0  -0.7498
  O  O129  1  0.421860  0.339500  0.001500  1.0  -0.7739
  O  O130  1  0.487180  0.185700  0.066380  1.0  -0.7831
  O  O131  1  0.446690  0.435100  0.433600  1.0  -0.7375
  O  O132  1  0.424530  0.255100  0.317100  1.0  -0.8237
  O  O133  1  0.395270  0.205500  0.462880  1.0  -0.7382
  O  O134  1  0.406180  0.676900  0.629410  1.0  -0.7498
  O  O135  1  0.421860  0.839500  0.501500  1.0  -0.7739
  O  O136  1  0.487180  0.685700  0.566380  1.0  -0.7831
  O  O137  1  0.303310  0.185100  0.683600  1.0  -0.7365
  O  O138  1  0.325470  0.005100  0.567100  1.0  -0.8231
  O  O139  1  0.354730  0.955500  0.712880  1.0  -0.7381
  O  O140  1  0.343820  0.426900  0.879410  1.0  -0.7496
  O  O141  1  0.328140  0.589500  0.751500  1.0  -0.7733
  O  O142  1  0.262820  0.435700  0.816380  1.0  -0.783
  O  O143  1  0.303310  0.685100  0.183600  1.0  -0.7365
  O  O144  1  0.325470  0.505100  0.067100  1.0  -0.8231
  O  O145  1  0.354730  0.455500  0.212880  1.0  -0.7381
  O  O146  1  0.343820  0.926900  0.379410  1.0  -0.7496
  O  O147  1  0.328140  0.089500  0.251500  1.0  -0.7733
  O  O148  1  0.262820  0.935700  0.316380  1.0  -0.783
  O  O149  1  0.803310  0.185100  0.183600  1.0  -0.7365
  O  O150  1  0.825470  0.005100  0.067100  1.0  -0.8231
  O  O151  1  0.854730  0.955500  0.212880  1.0  -0.7381
  O  O152  1  0.843820  0.426900  0.379410  1.0  -0.7496
  O  O153  1  0.828140  0.589500  0.251500  1.0  -0.7733
  O  O154  1  0.762820  0.435700  0.316380  1.0  -0.783
  O  O155  1  0.803310  0.685100  0.683600  1.0  -0.7365
  O  O156  1  0.825470  0.505100  0.567100  1.0  -0.8231
  O  O157  1  0.854730  0.455500  0.712880  1.0  -0.7381
  O  O158  1  0.843820  0.926900  0.879410  1.0  -0.7496
  O  O159  1  0.828140  0.089500  0.751500  1.0  -0.7733
  O  O160  1  0.762820  0.935700  0.816380  1.0  -0.783
  O  O161  1  0.196690  0.314900  0.683600  1.0  -0.7395
  O  O162  1  0.174530  0.494900  0.567100  1.0  -0.8239
  O  O163  1  0.145270  0.544500  0.712880  1.0  -0.7383
  O  O164  1  0.156180  0.073100  0.879410  1.0  -0.7499
  O  O165  1  0.171860  0.910500  0.751500  1.0  -0.7743
  O  O166  1  0.237180  0.064300  0.816380  1.0  -0.7835
  O  O167  1  0.196690  0.814900  0.183600  1.0  -0.7395
  O  O168  1  0.174530  0.994900  0.067100  1.0  -0.8239
  O  O169  1  0.145270  0.044500  0.212880  1.0  -0.7383
  O  O170  1  0.156180  0.573100  0.379410  1.0  -0.7499
  O  O171  1  0.171860  0.410500  0.251500  1.0  -0.7743
  O  O172  1  0.237180  0.564300  0.316380  1.0  -0.7835
  O  O173  1  0.696690  0.314900  0.183600  1.0  -0.7395
  O  O174  1  0.674530  0.494900  0.067100  1.0  -0.8239
  O  O175  1  0.645270  0.544500  0.212880  1.0  -0.7383
  O  O176  1  0.656180  0.073100  0.379410  1.0  -0.7499
  O  O177  1  0.671860  0.910500  0.251500  1.0  -0.7743
  O  O178  1  0.737180  0.064300  0.316380  1.0  -0.7835
  O  O179  1  0.696690  0.814900  0.683600  1.0  -0.7395
  O  O180  1  0.674530  0.994900  0.567100  1.0  -0.8239
  O  O181  1  0.645270  0.044500  0.712880  1.0  -0.7383
  O  O182  1  0.656180  0.573100  0.879410  1.0  -0.7499
  O  O183  1  0.671860  0.410500  0.751500  1.0  -0.7743
  O  O184  1  0.737180  0.564300  0.816380  1.0  -0.7835
