# generated using pymatgen
data_Zn5P6(HO6)4
_symmetry_space_group_name_H-M   'P 1'
_cell_length_a   9.36600000
_cell_length_b   9.88200000
_cell_length_c   19.18300000
_cell_angle_alpha   85.40600000
_cell_angle_beta   85.02900000
_cell_angle_gamma   114.48500000
_symmetry_Int_Tables_number   1
_chemical_formula_structural   Zn5P6(HO6)4
_chemical_formula_sum   'Zn10 P12 H8 O48'
_cell_volume   1596.50070523
_cell_formula_units_Z   2
loop_
 _symmetry_equiv_pos_site_id
 _symmetry_equiv_pos_as_xyz
  1  'x, y, z'
loop_
 _atom_site_type_symbol
 _atom_site_label
 _atom_site_symmetry_multiplicity
 _atom_site_fract_x
 _atom_site_fract_y
 _atom_site_fract_z
 _atom_site_occupancy
 _atom_site_charge
  Zn  Zn1  1  0.746000  0.459300  0.666780  1.0  0.9145
  Zn  Zn2  1  0.360800  0.060300  0.818490  1.0  1.1247
  Zn  Zn3  1  0.111700  0.125500  0.569790  1.0  1.1545
  Zn  Zn4  1  0.667000  0.664900  0.944150  1.0  1.1712
  Zn  Zn5  1  0.791400  0.886200  0.730170  1.0  1.161
  Zn  Zn6  1  0.254000  0.540700  0.333220  1.0  0.9134
  Zn  Zn7  1  0.639200  0.939700  0.181510  1.0  1.1229
  Zn  Zn8  1  0.888300  0.874500  0.430210  1.0  1.1549
  Zn  Zn9  1  0.333000  0.335100  0.055850  1.0  1.1721
  Zn  Zn10  1  0.208600  0.113800  0.269830  1.0  1.1614
  P  P11  1  0.390200  0.241100  0.674500  1.0  1.7597
  P  P12  1  0.432700  0.350900  0.898800  1.0  1.8385
  P  P13  1  0.001000  0.816000  0.840700  1.0  1.8503
  P  P14  1  0.850100  0.191500  0.653700  1.0  1.798
  P  P15  1  0.479400  0.789300  0.849300  1.0  1.7743
  P  P16  1  0.858000  0.778400  0.587300  1.0  1.7721
  P  P17  1  0.609800  0.758900  0.325500  1.0  1.7605
  P  P18  1  0.567300  0.649100  0.101200  1.0  1.8382
  P  P19  1  0.999000  0.184000  0.159300  1.0  1.8521
  P  P20  1  0.149900  0.808500  0.346300  1.0  1.7978
  P  P21  1  0.520600  0.210700  0.150700  1.0  1.7702
  P  P22  1  0.142000  0.221600  0.412700  1.0  1.7732
  H  H23  1  0.329000  0.345000  0.764400  1.0  0.3607
  H  H24  1  0.163000  0.675000  0.840000  1.0  0.295
  H  H25  1  0.592000  0.117000  0.665300  1.0  0.2596
  H  H26  1  0.355000  0.556000  0.838900  1.0  0.3471
  H  H27  1  0.671000  0.655000  0.235600  1.0  0.3541
  H  H28  1  0.837000  0.325000  0.160000  1.0  0.2945
  H  H29  1  0.408000  0.883000  0.334700  1.0  0.2586
  H  H30  1  0.645000  0.444000  0.161100  1.0  0.3488
  O  O31  1  0.864000  0.339800  0.674400  1.0  -0.7481
  O  O32  1  0.888500  0.635800  0.603000  1.0  -0.7364
  O  O33  1  0.538000  0.376000  0.638200  1.0  -0.7586
  O  O34  1  0.133000  0.970000  0.841700  1.0  -0.7745
  O  O35  1  0.441900  0.141000  0.721100  1.0  -0.8488
  O  O36  1  0.458300  0.210600  0.882200  1.0  -0.7382
  O  O37  1  0.421000  0.910000  0.856300  1.0  -0.8562
  O  O38  1  0.292000  0.162000  0.621500  1.0  -0.8265
  O  O39  1  0.958000  0.210000  0.587900  1.0  -0.7467
  O  O40  1  0.770500  0.760900  0.522100  1.0  -0.7123
  O  O41  1  0.019200  0.912100  0.573900  1.0  -0.8182
  O  O42  1  0.581100  0.458900  0.925600  1.0  -0.79
  O  O43  1  0.292000  0.304000  0.957600  1.0  -0.7311
  O  O44  1  0.543000  0.769000  0.916600  1.0  -0.7738
  O  O45  1  0.890000  0.773000  0.907000  1.0  -0.7918
  O  O46  1  0.746600  0.784000  0.648800  1.0  -0.7477
  O  O47  1  0.875000  0.100000  0.715000  1.0  -0.7704
  O  O48  1  0.916000  0.798000  0.776700  1.0  -0.7854
  O  O49  1  0.588000  0.815000  0.785700  1.0  -0.8267
  O  O50  1  0.286000  0.298000  0.722000  1.0  -0.5307
  O  O51  1  0.398000  0.419000  0.832100  1.0  -0.5949
  O  O52  1  0.066000  0.693000  0.838000  1.0  -0.5892
  O  O53  1  0.675000  0.104000  0.634200  1.0  -0.5218
  O  O54  1  0.328000  0.643000  0.843300  1.0  -0.5593
  O  O55  1  0.136000  0.660200  0.325600  1.0  -0.7479
  O  O56  1  0.111500  0.364200  0.397000  1.0  -0.7352
  O  O57  1  0.462000  0.624000  0.361800  1.0  -0.7586
  O  O58  1  0.867000  0.030000  0.158300  1.0  -0.7725
  O  O59  1  0.558100  0.859000  0.278900  1.0  -0.8496
  O  O60  1  0.541700  0.789400  0.117800  1.0  -0.7369
  O  O61  1  0.579000  0.090000  0.143700  1.0  -0.8572
  O  O62  1  0.708000  0.838000  0.378500  1.0  -0.8267
  O  O63  1  0.042000  0.790000  0.412100  1.0  -0.7476
  O  O64  1  0.229500  0.239100  0.477900  1.0  -0.7137
  O  O65  1  0.980800  0.087900  0.426100  1.0  -0.8168
  O  O66  1  0.418900  0.541100  0.074400  1.0  -0.7894
  O  O67  1  0.708000  0.696000  0.042400  1.0  -0.7327
  O  O68  1  0.457000  0.231000  0.083400  1.0  -0.7739
  O  O69  1  0.110000  0.227000  0.093000  1.0  -0.7919
  O  O70  1  0.253400  0.216000  0.351200  1.0  -0.7471
  O  O71  1  0.125000  0.900000  0.285000  1.0  -0.7706
  O  O72  1  0.084000  0.202000  0.223300  1.0  -0.7878
  O  O73  1  0.412000  0.185000  0.214300  1.0  -0.8272
  O  O74  1  0.714000  0.702000  0.278000  1.0  -0.5289
  O  O75  1  0.602000  0.581000  0.167900  1.0  -0.5954
  O  O76  1  0.934000  0.307000  0.162000  1.0  -0.5909
  O  O77  1  0.325000  0.896000  0.365800  1.0  -0.5201
  O  O78  1  0.672000  0.357000  0.156700  1.0  -0.5583
