# generated using pymatgen
data_CoCu2H32C36(N2Cl)6
_symmetry_space_group_name_H-M   'P 1'
_cell_length_a   7.47400000
_cell_length_b   11.68230000
_cell_length_c   28.15500000
_cell_angle_alpha   88.01700000
_cell_angle_beta   83.79000000
_cell_angle_gamma   71.34400000
_symmetry_Int_Tables_number   1
_chemical_formula_structural   CoCu2H32C36(N2Cl)6
_chemical_formula_sum   'Co2 Cu4 H64 C72 N24 Cl12'
_cell_volume   2315.47568144
_cell_formula_units_Z   2
loop_
 _symmetry_equiv_pos_site_id
 _symmetry_equiv_pos_as_xyz
  1  'x, y, z'
loop_
 _atom_site_type_symbol
 _atom_site_label
 _atom_site_symmetry_multiplicity
 _atom_site_fract_x
 _atom_site_fract_y
 _atom_site_fract_z
 _atom_site_occupancy
 _atom_site_charge
  Co  Co1  1  0.119020  0.761960  0.250000  1.0  0.8242
  Co  Co2  1  0.880980  0.238040  0.750000  1.0  0.8253
  Cu  Cu3  1  0.411210  0.133160  0.031930  1.0  0.6972
  Cu  Cu4  1  0.455630  0.133160  0.468070  1.0  0.6978
  Cu  Cu5  1  0.588790  0.866840  0.968070  1.0  0.6976
  Cu  Cu6  1  0.544370  0.866840  0.531930  1.0  0.6972
  H  H7  1  0.441000  0.950000  0.119000  1.0  0.0892
  H  H8  1  0.668000  0.928000  0.180000  1.0  0.1622
  H  H9  1  0.895000  0.042000  0.154000  1.0  0.1041
  H  H10  1  0.786000  0.172000  0.038000  1.0  0.1229
  H  H11  1  0.922000  0.170000  0.077000  1.0  0.1327
  H  H12  1  0.783000  0.446000  0.053000  1.0  0.2104
  H  H13  1  0.501000  0.684000  0.020000  1.0  0.1118
  H  H14  1  0.665000  0.586000  0.991000  1.0  0.0989
  H  H15  1  0.058000  0.442000  0.921000  1.0  0.0959
  H  H16  1  0.077000  0.106000  0.970000  1.0  0.0971
  H  H17  1  0.567000  0.292000  0.152000  1.0  0.0905
  H  H18  1  0.435000  0.448000  0.210000  1.0  0.0983
  H  H19  1  0.417000  0.582000  0.198000  1.0  0.1038
  H  H20  1  0.157000  0.384000  0.160000  1.0  0.0986
  H  H21  1  0.797000  0.492000  0.176000  1.0  0.0901
  H  H22  1  0.766900  0.688000  0.209000  1.0  0.0807
  H  H23  1  0.609000  0.950000  0.381000  1.0  0.0899
  H  H24  1  0.404000  0.928000  0.320000  1.0  0.1633
  H  H25  1  0.063000  0.042000  0.346000  1.0  0.1052
  H  H26  1  0.042000  0.172000  0.462000  1.0  0.1209
  H  H27  1  0.908000  0.170000  0.423000  1.0  0.1306
  H  H28  1  0.771000  0.446000  0.447000  1.0  0.2084
  H  H29  1  0.815000  0.684000  0.480000  1.0  0.1116
  H  H30  1  0.749000  0.586000  0.509000  1.0  0.1004
  H  H31  1  0.500000  0.442000  0.579000  1.0  0.0965
  H  H32  1  0.817000  0.106000  0.530000  1.0  0.0962
  H  H33  1  0.141000  0.292000  0.348000  1.0  0.0908
  H  H34  1  0.117000  0.448000  0.290000  1.0  0.097
  H  H35  1  0.001000  0.582000  0.302000  1.0  0.1051
  H  H36  1  0.459000  0.384000  0.340000  1.0  0.0978
  H  H37  1  0.711000  0.492000  0.324000  1.0  0.0889
  H  H38  1  0.545100  0.688000  0.291000  1.0  0.0805
  H  H39  1  0.559000  0.050000  0.881000  1.0  0.0896
  H  H40  1  0.332000  0.072000  0.820000  1.0  0.1628
  H  H41  1  0.105000  0.958000  0.846000  1.0  0.1055
  H  H42  1  0.214000  0.828000  0.962000  1.0  0.1213
  H  H43  1  0.078000  0.830000  0.923000  1.0  0.1307
  H  H44  1  0.217000  0.554000  0.947000  1.0  0.2101
  H  H45  1  0.499000  0.316000  0.980000  1.0  0.1122
  H  H46  1  0.335000  0.414000  0.009000  1.0  0.1003
  H  H47  1  0.942000  0.558000  0.079000  1.0  0.0966
  H  H48  1  0.923000  0.894000  0.030000  1.0  0.0969
  H  H49  1  0.433000  0.708000  0.848000  1.0  0.0905
  H  H50  1  0.565000  0.552000  0.790000  1.0  0.0969
  H  H51  1  0.583000  0.418000  0.802000  1.0  0.1045
  H  H52  1  0.843000  0.616000  0.840000  1.0  0.0972
  H  H53  1  0.203000  0.508000  0.824000  1.0  0.0886
  H  H54  1  0.233100  0.312000  0.791000  1.0  0.0804
  H  H55  1  0.391000  0.050000  0.619000  1.0  0.0891
  H  H56  1  0.596000  0.072000  0.680000  1.0  0.1614
  H  H57  1  0.937000  0.958000  0.654000  1.0  0.1039
  H  H58  1  0.958000  0.828000  0.538000  1.0  0.1229
  H  H59  1  0.092000  0.830000  0.577000  1.0  0.1325
  H  H60  1  0.229000  0.554000  0.553000  1.0  0.2109
  H  H61  1  0.185000  0.316000  0.520000  1.0  0.1123
  H  H62  1  0.251000  0.414000  0.491000  1.0  0.0986
  H  H63  1  0.500000  0.558000  0.421000  1.0  0.0965
  H  H64  1  0.183000  0.894000  0.470000  1.0  0.0981
  H  H65  1  0.859000  0.708000  0.652000  1.0  0.0899
  H  H66  1  0.883000  0.552000  0.710000  1.0  0.0972
  H  H67  1  0.999000  0.418000  0.698000  1.0  0.1045
  H  H68  1  0.541000  0.616000  0.660000  1.0  0.0984
  H  H69  1  0.289000  0.508000  0.676000  1.0  0.09
  H  H70  1  0.454900  0.312000  0.709000  1.0  0.0803
  C  C71  1  0.537000  0.991400  0.119100  1.0  0.0055
  C  C72  1  0.665700  0.972200  0.153200  1.0  -0.0504
  C  C73  1  0.775500  0.041000  0.140300  1.0  -0.0962
  C  C74  1  0.785800  0.186600  0.072500  1.0  -0.2524
  C  C75  1  0.681100  0.317600  0.084000  1.0  0.0581
  C  C76  1  0.693200  0.402000  0.050100  1.0  -0.0652
  C  C77  1  0.601600  0.529000  0.060300  1.0  0.2029
  C  C78  1  0.629400  0.621000  0.023300  1.0  -0.1591
  C  C79  1  0.096400  0.360000  0.935600  1.0  0.0641
  C  C80  1  0.009500  0.272400  0.934200  1.0  -0.0137
  C  C81  1  0.109500  0.183000  0.962600  1.0  0.1718
  C  C82  1  0.501700  0.564000  0.104200  1.0  -0.0449
  C  C83  1  0.488900  0.474800  0.138800  1.0  0.0218
  C  C84  1  0.577300  0.355600  0.127700  1.0  -0.1513
  C  C85  1  0.388000  0.513000  0.187500  1.0  -0.1357
  C  C86  1  0.092800  0.469800  0.175100  1.0  0.0512
  C  C87  1  0.902900  0.527200  0.183500  1.0  -0.1322
  C  C88  1  0.890500  0.633800  0.204100  1.0  0.0112
  C  C89  1  0.471600  0.991400  0.380900  1.0  0.0067
  C  C90  1  0.362100  0.972200  0.346800  1.0  -0.0505
  C  C91  1  0.183500  0.041000  0.359700  1.0  -0.0957
  C  C92  1  0.027600  0.186600  0.427500  1.0  -0.2541
  C  C93  1  0.001300  0.317600  0.416000  1.0  0.0577
  C  C94  1  0.904800  0.402000  0.449900  1.0  -0.0636
  C  C95  1  0.869400  0.529000  0.439700  1.0  0.2013
  C  C96  1  0.749600  0.621000  0.476700  1.0  -0.1596
  C  C97  1  0.543600  0.360000  0.564400  1.0  0.0642
  C  C98  1  0.718100  0.272400  0.565800  1.0  -0.0086
  C  C99  1  0.707500  0.183000  0.537400  1.0  0.1718
  C  C100  1  0.934300  0.564000  0.395800  1.0  -0.0464
  C  C101  1  0.036300  0.474800  0.361200  1.0  0.0212
  C  C102  1  0.067100  0.355600  0.372300  1.0  -0.1492
  C  C103  1  0.099000  0.513000  0.312500  1.0  -0.1327
  C  C104  1  0.437400  0.469800  0.324900  1.0  0.0513
  C  C105  1  0.569900  0.527200  0.316500  1.0  -0.1309
  C  C106  1  0.475700  0.633800  0.295900  1.0  0.0113
  C  C107  1  0.463000  0.008600  0.880900  1.0  0.0085
  C  C108  1  0.334300  0.027800  0.846800  1.0  -0.0499
  C  C109  1  0.224500  0.959000  0.859700  1.0  -0.0956
  C  C110  1  0.214200  0.813400  0.927500  1.0  -0.2541
  C  C111  1  0.318900  0.682400  0.916000  1.0  0.058
  C  C112  1  0.306800  0.598000  0.949900  1.0  -0.0642
  C  C113  1  0.398400  0.471000  0.939700  1.0  0.2001
  C  C114  1  0.370600  0.379000  0.976700  1.0  -0.1606
  C  C115  1  0.903600  0.640000  0.064400  1.0  0.0633
  C  C116  1  0.990500  0.727600  0.065800  1.0  -0.0109
  C  C117  1  0.890500  0.817000  0.037400  1.0  0.1721
  C  C118  1  0.498300  0.436000  0.895800  1.0  -0.0464
  C  C119  1  0.511100  0.525200  0.861200  1.0  0.0211
  C  C120  1  0.422700  0.644400  0.872300  1.0  -0.1487
  C  C121  1  0.612000  0.487000  0.812500  1.0  -0.1326
  C  C122  1  0.907200  0.530200  0.824900  1.0  0.0483
  C  C123  1  0.097100  0.472800  0.816500  1.0  -0.1311
  C  C124  1  0.109500  0.366200  0.795900  1.0  0.0116
  C  C125  1  0.528400  0.008600  0.619100  1.0  0.0079
  C  C126  1  0.637900  0.027800  0.653200  1.0  -0.0504
  C  C127  1  0.816500  0.959000  0.640300  1.0  -0.0963
  C  C128  1  0.972400  0.813400  0.572500  1.0  -0.2524
  C  C129  1  0.998700  0.682400  0.584000  1.0  0.0583
  C  C130  1  0.095200  0.598000  0.550100  1.0  -0.0641
  C  C131  1  0.130600  0.471000  0.560300  1.0  0.2015
  C  C132  1  0.250400  0.379000  0.523300  1.0  -0.1593
  C  C133  1  0.456400  0.640000  0.435600  1.0  0.0634
  C  C134  1  0.281900  0.727600  0.434200  1.0  -0.0154
  C  C135  1  0.292500  0.817000  0.462600  1.0  0.1721
  C  C136  1  0.065700  0.436000  0.604200  1.0  -0.046
  C  C137  1  0.963700  0.525200  0.638800  1.0  0.0214
  C  C138  1  0.932900  0.644400  0.627700  1.0  -0.152
  C  C139  1  0.901000  0.487000  0.687500  1.0  -0.136
  C  C140  1  0.562600  0.530200  0.675100  1.0  0.0499
  C  C141  1  0.430100  0.472800  0.683500  1.0  -0.1325
  C  C142  1  0.524300  0.366200  0.704100  1.0  0.0127
  N  N143  1  0.567900  0.067400  0.085700  1.0  -0.3221
  N  N144  1  0.717500  0.096800  0.099600  1.0  0.1285
  N  N145  1  0.235900  0.321200  0.963200  1.0  0.151
  N  N146  1  0.248500  0.209000  0.980200  1.0  -0.3364
  N  N147  1  0.180000  0.541800  0.188400  1.0  0.084
  N  N148  1  0.059700  0.646600  0.208900  1.0  -0.3906
  N  N149  1  0.364700  0.067400  0.414300  1.0  -0.3224
  N  N150  1  0.185700  0.096800  0.400400  1.0  0.1291
  N  N151  1  0.442900  0.321200  0.536800  1.0  0.1502
  N  N152  1  0.542500  0.209000  0.519800  1.0  -0.3381
  N  N153  1  0.278200  0.541800  0.311600  1.0  0.0834
  N  N154  1  0.293700  0.646600  0.291100  1.0  -0.3921
  N  N155  1  0.432100  0.932600  0.914300  1.0  -0.3229
  N  N156  1  0.282500  0.903200  0.900400  1.0  0.1285
  N  N157  1  0.764100  0.678800  0.036800  1.0  0.1508
  N  N158  1  0.751500  0.791000  0.019800  1.0  -0.3386
  N  N159  1  0.820000  0.458200  0.811600  1.0  0.0838
  N  N160  1  0.940300  0.353400  0.791100  1.0  -0.3924
  N  N161  1  0.635300  0.932600  0.585700  1.0  -0.3229
  N  N162  1  0.814300  0.903200  0.599600  1.0  0.1283
  N  N163  1  0.557100  0.678800  0.463200  1.0  0.1521
  N  N164  1  0.457500  0.791000  0.480200  1.0  -0.3378
  N  N165  1  0.721800  0.458200  0.688400  1.0  0.084
  N  N166  1  0.706300  0.353400  0.708900  1.0  -0.391
  Cl  Cl167  1  0.301530  0.855540  0.209500  1.0  -0.586
  Cl  Cl168  1  0.197580  0.266240  0.083670  1.0  -0.5588
  Cl  Cl169  1  0.677170  0.063660  0.972940  1.0  -0.5511
  Cl  Cl170  1  0.842930  0.855540  0.290500  1.0  -0.5858
  Cl  Cl171  1  0.536180  0.266240  0.416330  1.0  -0.5595
  Cl  Cl172  1  0.259170  0.063660  0.527060  1.0  -0.5508
  Cl  Cl173  1  0.698470  0.144460  0.790500  1.0  -0.5859
  Cl  Cl174  1  0.802420  0.733760  0.916330  1.0  -0.5563
  Cl  Cl175  1  0.322830  0.936340  0.027060  1.0  -0.5508
  Cl  Cl176  1  0.157070  0.144460  0.709500  1.0  -0.5856
  Cl  Cl177  1  0.463820  0.733760  0.583670  1.0  -0.5559
  Cl  Cl178  1  0.740830  0.936340  0.472940  1.0  -0.551
