# generated using pymatgen
data_K4V10P7O40
_symmetry_space_group_name_H-M   'P 1'
_cell_length_a   12.13000000
_cell_length_b   12.13000000
_cell_length_c   30.55500000
_cell_angle_alpha   90.00000000
_cell_angle_beta   90.00000000
_cell_angle_gamma   90.00000000
_symmetry_Int_Tables_number   1
_chemical_formula_structural   K4V10P7O40
_chemical_formula_sum   'K16 V40 P28 O160'
_cell_volume   4495.76797950
_cell_formula_units_Z   4
loop_
 _symmetry_equiv_pos_site_id
 _symmetry_equiv_pos_as_xyz
  1  'x, y, z'
loop_
 _atom_site_type_symbol
 _atom_site_label
 _atom_site_symmetry_multiplicity
 _atom_site_fract_x
 _atom_site_fract_y
 _atom_site_fract_z
 _atom_site_occupancy
 _atom_site_charge
  K  K1  1  0.410500  0.775100  0.180300  1.0  0.8974
  K  K2  1  0.439200  0.290500  0.067200  1.0  0.9152
  K  K3  1  0.072800  0.229800  0.061900  1.0  0.9105
  K  K4  1  0.046300  0.709600  0.174000  1.0  0.9029
  K  K5  1  0.589500  0.224900  0.680300  1.0  0.8961
  K  K6  1  0.560800  0.709500  0.567200  1.0  0.915
  K  K7  1  0.927200  0.770200  0.561900  1.0  0.9111
  K  K8  1  0.953700  0.290400  0.674000  1.0  0.9039
  K  K9  1  0.224900  0.410500  0.930300  1.0  0.8971
  K  K10  1  0.709500  0.439200  0.817200  1.0  0.9163
  K  K11  1  0.770200  0.072800  0.811900  1.0  0.9114
  K  K12  1  0.290400  0.046300  0.924000  1.0  0.9056
  K  K13  1  0.775100  0.589500  0.430300  1.0  0.8978
  K  K14  1  0.290500  0.560800  0.317200  1.0  0.9158
  K  K15  1  0.229800  0.927200  0.311900  1.0  0.9117
  K  K16  1  0.709600  0.953700  0.424000  1.0  0.9048
  V  V17  1  0.502700  0.769400  0.377100  1.0  2.0161
  V  V18  1  0.565600  0.635000  0.272100  1.0  1.8436
  V  V19  1  0.408000  0.858100  0.488000  1.0  1.3285
  V  V20  1  0.764500  0.485900  0.301600  1.0  1.972
  V  V21  1  0.238900  0.012400  0.439500  1.0  1.8904
  V  V22  1  0.003100  0.771100  0.363400  1.0  1.9613
  V  V23  1  0.365200  0.060900  0.217800  1.0  1.8527
  V  V24  1  0.911400  0.857600  0.253700  1.0  1.3408
  V  V25  1  0.742200  0.014600  0.300000  1.0  1.9788
  V  V26  1  0.259600  0.485000  0.440600  1.0  1.9874
  V  V27  1  0.497300  0.230600  0.877100  1.0  2.0148
  V  V28  1  0.434400  0.365000  0.772100  1.0  1.8454
  V  V29  1  0.592000  0.141900  0.988000  1.0  1.3273
  V  V30  1  0.235500  0.514100  0.801600  1.0  1.9723
  V  V31  1  0.761100  0.987600  0.939500  1.0  1.8891
  V  V32  1  0.996900  0.228900  0.863400  1.0  1.9733
  V  V33  1  0.634800  0.939100  0.717800  1.0  1.8516
  V  V34  1  0.088600  0.142400  0.753700  1.0  1.3408
  V  V35  1  0.257800  0.985400  0.800000  1.0  1.9784
  V  V36  1  0.740400  0.515000  0.940600  1.0  1.988
  V  V37  1  0.230600  0.502700  0.127100  1.0  2.0148
  V  V38  1  0.365000  0.565600  0.022100  1.0  1.8444
  V  V39  1  0.141900  0.408000  0.238000  1.0  1.3291
  V  V40  1  0.514100  0.764500  0.051600  1.0  1.9711
  V  V41  1  0.987600  0.238900  0.189500  1.0  1.8889
  V  V42  1  0.228900  0.003100  0.113400  1.0  1.9754
  V  V43  1  0.939100  0.365200  0.967800  1.0  1.8528
  V  V44  1  0.142400  0.911400  0.003700  1.0  1.3426
  V  V45  1  0.985400  0.742200  0.050000  1.0  1.9776
  V  V46  1  0.515000  0.259600  0.190600  1.0  1.9881
  V  V47  1  0.769400  0.497300  0.627100  1.0  2.0142
  V  V48  1  0.635000  0.434400  0.522100  1.0  1.844
  V  V49  1  0.858100  0.592000  0.738000  1.0  1.3288
  V  V50  1  0.485900  0.235500  0.551600  1.0  1.9712
  V  V51  1  0.012400  0.761100  0.689500  1.0  1.8882
  V  V52  1  0.771100  0.996900  0.613400  1.0  1.9752
  V  V53  1  0.060900  0.634800  0.467800  1.0  1.8525
  V  V54  1  0.857600  0.088600  0.503700  1.0  1.3416
  V  V55  1  0.014600  0.257800  0.550000  1.0  1.9772
  V  V56  1  0.485000  0.740400  0.690600  1.0  1.9881
  P  P57  1  0.502400  0.606300  0.457100  1.0  1.842
  P  P58  1  0.752600  0.751200  0.329800  1.0  1.7848
  P  P59  1  0.500200  0.891700  0.283400  1.0  1.8447
  P  P60  1  0.250900  0.751200  0.412600  1.0  1.7749
  P  P61  1  0.607000  0.992500  0.535800  1.0  1.8442
  P  P62  1  0.752300  0.251000  0.246500  1.0  1.7721
  P  P63  1  0.995700  0.892900  0.456800  1.0  1.8515
  P  P64  1  0.497600  0.393700  0.957100  1.0  1.8413
  P  P65  1  0.247400  0.248800  0.829800  1.0  1.7849
  P  P66  1  0.499800  0.108300  0.783400  1.0  1.8451
  P  P67  1  0.749100  0.248800  0.912600  1.0  1.7748
  P  P68  1  0.393000  0.007500  0.035800  1.0  1.846
  P  P69  1  0.247700  0.749000  0.746500  1.0  1.7721
  P  P70  1  0.004300  0.107100  0.956800  1.0  1.853
  P  P71  1  0.393700  0.502400  0.207100  1.0  1.8421
  P  P72  1  0.248800  0.752600  0.079800  1.0  1.7849
  P  P73  1  0.108300  0.500200  0.033400  1.0  1.843
  P  P74  1  0.248800  0.250900  0.162600  1.0  1.7749
  P  P75  1  0.007500  0.607000  0.285800  1.0  1.8464
  P  P76  1  0.749000  0.752300  0.996500  1.0  1.7721
  P  P77  1  0.107100  0.995700  0.206800  1.0  1.853
  P  P78  1  0.606300  0.497600  0.707100  1.0  1.841
  P  P79  1  0.751200  0.247400  0.579800  1.0  1.785
  P  P80  1  0.891700  0.499800  0.533400  1.0  1.8445
  P  P81  1  0.751200  0.749100  0.662600  1.0  1.7748
  P  P82  1  0.992500  0.393000  0.785800  1.0  1.8451
  P  P83  1  0.251000  0.247700  0.496500  1.0  1.7722
  P  P84  1  0.892900  0.004300  0.706800  1.0  1.8539
  O  O85  1  0.501400  0.861700  0.415500  1.0  -0.8414
  O  O86  1  0.503000  0.640600  0.319700  1.0  -0.857
  O  O87  1  0.744300  0.454300  0.352100  1.0  -0.8033
  O  O88  1  0.255800  0.038400  0.389400  1.0  -0.795
  O  O89  1  0.619700  0.482500  0.274200  1.0  -0.745
  O  O90  1  0.372400  0.010600  0.475500  1.0  -0.7592
  O  O91  1  0.003800  0.860000  0.325000  1.0  -0.8619
  O  O92  1  0.365400  0.999800  0.170900  1.0  -0.8418
  O  O93  1  0.239600  0.453800  0.392100  1.0  -0.789
  O  O94  1  0.767400  0.047900  0.350200  1.0  -0.8228
  O  O95  1  0.510300  0.127700  0.225300  1.0  -0.7427
  O  O96  1  0.883100  0.015200  0.271300  1.0  -0.7632
  O  O97  1  0.549200  0.637300  0.411800  1.0  -0.8834
  O  O98  1  0.599100  0.552600  0.481800  1.0  -0.935
  O  O99  1  0.460000  0.705700  0.483400  1.0  -0.9554
  O  O100  1  0.412400  0.520200  0.453800  1.0  -0.867
  O  O101  1  0.657700  0.785700  0.358200  1.0  -0.961
  O  O102  1  0.720200  0.651800  0.299700  1.0  -0.9297
  O  O103  1  0.850200  0.717400  0.356900  1.0  -0.8835
  O  O104  1  0.782400  0.846300  0.297100  1.0  -0.9173
  O  O105  1  0.448300  0.855200  0.326600  1.0  -0.902
  O  O106  1  0.551800  0.793700  0.260000  1.0  -0.8972
  O  O107  1  0.405800  0.935800  0.254700  1.0  -0.8963
  O  O108  1  0.588100  0.982600  0.291200  1.0  -0.885
  O  O109  1  0.347400  0.713700  0.384500  1.0  -0.8887
  O  O110  1  0.283800  0.848700  0.443200  1.0  -0.9085
  O  O111  1  0.156700  0.794500  0.385200  1.0  -0.928
  O  O112  1  0.215200  0.650600  0.440700  1.0  -0.9369
  O  O113  1  0.560000  0.900300  0.507100  1.0  -0.8385
  O  O114  1  0.517200  0.081400  0.543800  1.0  -0.8737
  O  O115  1  0.647600  0.941400  0.578600  1.0  -0.8865
  O  O116  1  0.703500  0.040800  0.510900  1.0  -0.9345
  O  O117  1  0.800000  0.341200  0.277400  1.0  -0.8144
  O  O118  1  0.844500  0.203000  0.219800  1.0  -0.8088
  O  O119  1  0.654400  0.299900  0.221700  1.0  -0.8341
  O  O120  1  0.707100  0.160700  0.278000  1.0  -0.8238
  O  O121  1  0.086500  0.979100  0.455000  1.0  -0.874
  O  O122  1  0.948000  0.865100  0.411800  1.0  -0.8868
  O  O123  1  0.037600  0.793100  0.483000  1.0  -0.8828
  O  O124  1  0.899600  0.944300  0.482900  1.0  -0.8753
  O  O125  1  0.498600  0.138300  0.915500  1.0  -0.8414
  O  O126  1  0.497000  0.359400  0.819700  1.0  -0.8576
  O  O127  1  0.255700  0.545700  0.852100  1.0  -0.8037
  O  O128  1  0.744200  0.961600  0.889400  1.0  -0.7909
  O  O129  1  0.380300  0.517500  0.774200  1.0  -0.7428
  O  O130  1  0.627600  0.989400  0.975500  1.0  -0.7611
  O  O131  1  0.996200  0.140000  0.825000  1.0  -0.8621
  O  O132  1  0.634600  0.000200  0.670900  1.0  -0.8424
  O  O133  1  0.760400  0.546200  0.892100  1.0  -0.792
  O  O134  1  0.232600  0.952100  0.850200  1.0  -0.822
  O  O135  1  0.489700  0.872300  0.725300  1.0  -0.7433
  O  O136  1  0.116900  0.984800  0.771300  1.0  -0.7644
  O  O137  1  0.450800  0.362700  0.911800  1.0  -0.8831
  O  O138  1  0.400900  0.447400  0.981800  1.0  -0.9363
  O  O139  1  0.540000  0.294300  0.983400  1.0  -0.9539
  O  O140  1  0.587600  0.479800  0.953800  1.0  -0.8694
  O  O141  1  0.342300  0.214300  0.858200  1.0  -0.9594
  O  O142  1  0.279800  0.348200  0.799700  1.0  -0.9295
  O  O143  1  0.149800  0.282600  0.856900  1.0  -0.8841
  O  O144  1  0.217600  0.153700  0.797100  1.0  -0.9176
  O  O145  1  0.551700  0.144800  0.826600  1.0  -0.9001
  O  O146  1  0.448200  0.206300  0.760000  1.0  -0.897
  O  O147  1  0.594200  0.064200  0.754700  1.0  -0.8971
  O  O148  1  0.411900  0.017400  0.791200  1.0  -0.8838
  O  O149  1  0.652600  0.286300  0.884500  1.0  -0.8886
  O  O150  1  0.716200  0.151300  0.943200  1.0  -0.9083
  O  O151  1  0.843300  0.205500  0.885200  1.0  -0.9285
  O  O152  1  0.784800  0.349400  0.940700  1.0  -0.9366
  O  O153  1  0.440000  0.099700  0.007100  1.0  -0.8388
  O  O154  1  0.482800  0.918600  0.043800  1.0  -0.873
  O  O155  1  0.352400  0.058600  0.078600  1.0  -0.889
  O  O156  1  0.296500  0.959200  0.010900  1.0  -0.9356
  O  O157  1  0.200000  0.658800  0.777400  1.0  -0.8158
  O  O158  1  0.155500  0.797000  0.719800  1.0  -0.8105
  O  O159  1  0.345600  0.700100  0.721700  1.0  -0.8323
  O  O160  1  0.292900  0.839300  0.778000  1.0  -0.8225
  O  O161  1  0.913500  0.020900  0.955000  1.0  -0.8729
  O  O162  1  0.052000  0.134900  0.911800  1.0  -0.887
  O  O163  1  0.962400  0.206900  0.983000  1.0  -0.8831
  O  O164  1  0.100400  0.055700  0.982900  1.0  -0.8772
  O  O165  1  0.138300  0.501400  0.165500  1.0  -0.8408
  O  O166  1  0.359400  0.503000  0.069700  1.0  -0.8554
  O  O167  1  0.545700  0.744300  0.102100  1.0  -0.8029
  O  O168  1  0.961600  0.255800  0.139400  1.0  -0.7893
  O  O169  1  0.517500  0.619700  0.024200  1.0  -0.7425
  O  O170  1  0.989400  0.372400  0.225500  1.0  -0.7595
  O  O171  1  0.140000  0.003800  0.075000  1.0  -0.8603
  O  O172  1  0.000200  0.365400  0.920900  1.0  -0.8442
  O  O173  1  0.546200  0.239600  0.142100  1.0  -0.7862
  O  O174  1  0.952100  0.767400  0.100200  1.0  -0.8198
  O  O175  1  0.872300  0.510300  0.975300  1.0  -0.7442
  O  O176  1  0.984800  0.883100  0.021300  1.0  -0.7639
  O  O177  1  0.362700  0.549200  0.161800  1.0  -0.8833
  O  O178  1  0.447400  0.599100  0.231800  1.0  -0.939
  O  O179  1  0.294300  0.460000  0.233400  1.0  -0.9545
  O  O180  1  0.479800  0.412400  0.203800  1.0  -0.8642
  O  O181  1  0.214300  0.657700  0.108200  1.0  -0.9603
  O  O182  1  0.348200  0.720200  0.049700  1.0  -0.93
  O  O183  1  0.282600  0.850200  0.106900  1.0  -0.8828
  O  O184  1  0.153700  0.782400  0.047100  1.0  -0.9172
  O  O185  1  0.144800  0.448300  0.076600  1.0  -0.9022
  O  O186  1  0.206300  0.551800  0.010000  1.0  -0.8971
  O  O187  1  0.064200  0.405800  0.004700  1.0  -0.8973
  O  O188  1  0.017400  0.588100  0.041200  1.0  -0.884
  O  O189  1  0.286300  0.347400  0.134500  1.0  -0.8889
  O  O190  1  0.151300  0.283800  0.193200  1.0  -0.9098
  O  O191  1  0.205500  0.156700  0.135200  1.0  -0.9271
  O  O192  1  0.349400  0.215200  0.190700  1.0  -0.9362
  O  O193  1  0.099700  0.560000  0.257100  1.0  -0.8374
  O  O194  1  0.918600  0.517200  0.293800  1.0  -0.8762
  O  O195  1  0.058600  0.647600  0.328600  1.0  -0.8857
  O  O196  1  0.959200  0.703500  0.260900  1.0  -0.9339
  O  O197  1  0.658800  0.800000  0.027400  1.0  -0.8177
  O  O198  1  0.797000  0.844500  0.969800  1.0  -0.8082
  O  O199  1  0.700100  0.654400  0.971700  1.0  -0.8322
  O  O200  1  0.839300  0.707100  0.028000  1.0  -0.826
  O  O201  1  0.020900  0.086500  0.205000  1.0  -0.8716
  O  O202  1  0.134900  0.948000  0.161800  1.0  -0.8864
  O  O203  1  0.206900  0.037600  0.233000  1.0  -0.8828
  O  O204  1  0.055700  0.899600  0.232900  1.0  -0.8781
  O  O205  1  0.861700  0.498600  0.665500  1.0  -0.8389
  O  O206  1  0.640600  0.497000  0.569700  1.0  -0.8567
  O  O207  1  0.454300  0.255700  0.602100  1.0  -0.8014
  O  O208  1  0.038400  0.744200  0.639400  1.0  -0.7877
  O  O209  1  0.482500  0.380300  0.524200  1.0  -0.7409
  O  O210  1  0.010600  0.627600  0.725500  1.0  -0.7607
  O  O211  1  0.860000  0.996200  0.575000  1.0  -0.859
  O  O212  1  0.999800  0.634600  0.420900  1.0  -0.8429
  O  O213  1  0.453800  0.760400  0.642100  1.0  -0.7876
  O  O214  1  0.047900  0.232600  0.600200  1.0  -0.8208
  O  O215  1  0.127700  0.489700  0.475300  1.0  -0.7448
  O  O216  1  0.015200  0.116900  0.521300  1.0  -0.7634
  O  O217  1  0.637300  0.450800  0.661800  1.0  -0.8834
  O  O218  1  0.552600  0.400900  0.731800  1.0  -0.9378
  O  O219  1  0.705700  0.540000  0.733400  1.0  -0.9546
  O  O220  1  0.520200  0.587600  0.703800  1.0  -0.8656
  O  O221  1  0.785700  0.342300  0.608200  1.0  -0.961
  O  O222  1  0.651800  0.279800  0.549700  1.0  -0.9298
  O  O223  1  0.717400  0.149800  0.606900  1.0  -0.8821
  O  O224  1  0.846300  0.217600  0.547100  1.0  -0.9174
  O  O225  1  0.855200  0.551700  0.576600  1.0  -0.9008
  O  O226  1  0.793700  0.448200  0.510000  1.0  -0.8985
  O  O227  1  0.935800  0.594200  0.504700  1.0  -0.8975
  O  O228  1  0.982600  0.411900  0.541200  1.0  -0.883
  O  O229  1  0.713700  0.652600  0.634500  1.0  -0.8873
  O  O230  1  0.848700  0.716200  0.693200  1.0  -0.91
  O  O231  1  0.794500  0.843300  0.635200  1.0  -0.928
  O  O232  1  0.650600  0.784800  0.690700  1.0  -0.9357
  O  O233  1  0.900300  0.440000  0.757100  1.0  -0.8376
  O  O234  1  0.081400  0.482800  0.793800  1.0  -0.877
  O  O235  1  0.941400  0.352400  0.828600  1.0  -0.8847
  O  O236  1  0.040800  0.296500  0.760900  1.0  -0.9347
  O  O237  1  0.341200  0.200000  0.527400  1.0  -0.8172
  O  O238  1  0.203000  0.155500  0.469800  1.0  -0.8083
  O  O239  1  0.299900  0.345600  0.471700  1.0  -0.831
  O  O240  1  0.160700  0.292900  0.528000  1.0  -0.8251
  O  O241  1  0.979100  0.913500  0.705000  1.0  -0.8704
  O  O242  1  0.865100  0.052000  0.661800  1.0  -0.8856
  O  O243  1  0.793100  0.962400  0.733000  1.0  -0.8835
  O  O244  1  0.944300  0.100400  0.732900  1.0  -0.8783
