# generated using pymatgen
data_Cu2Mo6P2H32C35N6O17
_symmetry_space_group_name_H-M   'P 1'
_cell_length_a   19.11300000
_cell_length_b   18.61700000
_cell_length_c   15.95900000
_cell_angle_alpha   90.00000000
_cell_angle_beta   90.00000000
_cell_angle_gamma   90.00000000
_symmetry_Int_Tables_number   1
_chemical_formula_structural   Cu2Mo6P2H32C35N6O17
_chemical_formula_sum   'Cu8 Mo24 P8 H128 C140 N24 O68'
_cell_volume   5678.63864044
_cell_formula_units_Z   4
loop_
 _symmetry_equiv_pos_site_id
 _symmetry_equiv_pos_as_xyz
  1  'x, y, z'
loop_
 _atom_site_type_symbol
 _atom_site_label
 _atom_site_symmetry_multiplicity
 _atom_site_fract_x
 _atom_site_fract_y
 _atom_site_fract_z
 _atom_site_occupancy
 _atom_site_charge
  Cu  Cu1  1  0.557730  0.021300  0.218960  1.0  0.7995
  Cu  Cu2  1  0.942270  0.978700  0.718960  1.0  0.8012
  Cu  Cu3  1  0.442270  0.521300  0.781040  1.0  0.8016
  Cu  Cu4  1  0.057730  0.478700  0.281040  1.0  0.8005
  Cu  Cu5  1  0.442270  0.978700  0.781040  1.0  0.8024
  Cu  Cu6  1  0.057730  0.021300  0.281040  1.0  0.7999
  Cu  Cu7  1  0.557730  0.478700  0.218960  1.0  0.8006
  Cu  Cu8  1  0.942270  0.521300  0.718960  1.0  0.8001
  Mo  Mo9  1  0.420390  0.909740  0.140830  1.0  1.3484
  Mo  Mo10  1  0.469920  0.839380  0.322440  1.0  0.6597
  Mo  Mo11  1  0.491300  0.836910  0.943740  1.0  1.4293
  Mo  Mo12  1  0.079610  0.090260  0.640830  1.0  1.3487
  Mo  Mo13  1  0.030080  0.160620  0.822440  1.0  0.6601
  Mo  Mo14  1  0.008700  0.163090  0.443740  1.0  1.4279
  Mo  Mo15  1  0.579610  0.409740  0.859170  1.0  1.3465
  Mo  Mo16  1  0.530080  0.339380  0.677560  1.0  0.6604
  Mo  Mo17  1  0.508700  0.336910  0.056260  1.0  1.4284
  Mo  Mo18  1  0.920390  0.590260  0.359170  1.0  1.3465
  Mo  Mo19  1  0.969920  0.660620  0.177560  1.0  0.6592
  Mo  Mo20  1  0.991300  0.663090  0.556260  1.0  1.4281
  Mo  Mo21  1  0.579610  0.090260  0.859170  1.0  1.3466
  Mo  Mo22  1  0.530080  0.160620  0.677560  1.0  0.6608
  Mo  Mo23  1  0.508700  0.163090  0.056260  1.0  1.4273
  Mo  Mo24  1  0.920390  0.909740  0.359170  1.0  1.3464
  Mo  Mo25  1  0.969920  0.839380  0.177560  1.0  0.659
  Mo  Mo26  1  0.991300  0.836910  0.556260  1.0  1.4292
  Mo  Mo27  1  0.420390  0.590260  0.140830  1.0  1.3484
  Mo  Mo28  1  0.469920  0.660620  0.322440  1.0  0.6604
  Mo  Mo29  1  0.491300  0.663090  0.943740  1.0  1.4283
  Mo  Mo30  1  0.079610  0.409740  0.640830  1.0  1.349
  Mo  Mo31  1  0.030080  0.339380  0.822440  1.0  0.6592
  Mo  Mo32  1  0.008700  0.336910  0.443740  1.0  1.4288
  P  P33  1  0.527720  0.750000  0.140200  1.0  1.5429
  P  P34  1  0.845090  0.750000  0.301900  1.0  1.4859
  P  P35  1  0.972280  0.250000  0.640200  1.0  1.5424
  P  P36  1  0.654910  0.250000  0.801900  1.0  1.4858
  P  P37  1  0.472280  0.250000  0.859800  1.0  1.5423
  P  P38  1  0.154910  0.250000  0.698100  1.0  1.485
  P  P39  1  0.027720  0.750000  0.359800  1.0  1.5428
  P  P40  1  0.345090  0.750000  0.198100  1.0  1.4852
  H  H41  1  0.608000  0.983200  0.041600  1.0  0.0931
  H  H42  1  0.800500  0.952300  0.215700  1.0  0.1195
  H  H43  1  0.726900  0.005500  0.329600  1.0  0.0941
  H  H44  1  0.667600  0.944400  0.328900  1.0  0.1025
  H  H45  1  0.698400  0.123400  0.340400  1.0  0.0912
  H  H46  1  0.681700  0.119600  0.242600  1.0  0.1068
  H  H47  1  0.594300  0.183800  0.364800  1.0  0.0697
  H  H48  1  0.573400  0.176600  0.267700  1.0  0.0975
  H  H49  1  0.406600  0.070500  0.228000  1.0  0.09
  H  H50  1  0.329300  0.100500  0.333333  1.0  0.1121
  H  H51  1  0.809900  0.928500  0.071800  1.0  0.1008
  H  H52  1  0.713800  0.943200  0.984600  1.0  0.109
  H  H53  1  0.610700  0.076300  0.431700  1.0  0.0771
  H  H54  1  0.593800  0.993300  0.414800  1.0  0.0921
  H  H55  1  0.489500  0.085100  0.498300  1.0  0.1093
  H  H56  1  0.372300  0.111600  0.472600  1.0  0.1195
  H  H57  1  0.892000  0.016800  0.541600  1.0  0.0926
  H  H58  1  0.699500  0.047700  0.715700  1.0  0.1196
  H  H59  1  0.773100  0.994500  0.829600  1.0  0.0923
  H  H60  1  0.832400  0.055600  0.828900  1.0  0.1031
  H  H61  1  0.801600  0.876600  0.840400  1.0  0.09
  H  H62  1  0.818300  0.880400  0.742600  1.0  0.1073
  H  H63  1  0.905700  0.816200  0.864800  1.0  0.0699
  H  H64  1  0.926600  0.823400  0.767700  1.0  0.0982
  H  H65  1  0.093400  0.929500  0.728000  1.0  0.0904
  H  H66  1  0.170700  0.899500  0.833300  1.0  0.1118
  H  H67  1  0.690100  0.071500  0.571800  1.0  0.1011
  H  H68  1  0.786200  0.056800  0.484600  1.0  0.1093
  H  H69  1  0.889300  0.923700  0.931700  1.0  0.0773
  H  H70  1  0.906200  0.006700  0.914800  1.0  0.0904
  H  H71  1  0.010500  0.914900  0.998300  1.0  0.1094
  H  H72  1  0.127700  0.888400  0.972600  1.0  0.1188
  H  H73  1  0.392000  0.483200  0.958400  1.0  0.0931
  H  H74  1  0.199500  0.452300  0.784300  1.0  0.1192
  H  H75  1  0.273100  0.505500  0.670400  1.0  0.0936
  H  H76  1  0.332400  0.444400  0.671100  1.0  0.1021
  H  H77  1  0.301600  0.623400  0.659600  1.0  0.0918
  H  H78  1  0.318300  0.619600  0.757400  1.0  0.1066
  H  H79  1  0.405700  0.683800  0.635200  1.0  0.0684
  H  H80  1  0.426600  0.676600  0.732300  1.0  0.0978
  H  H81  1  0.593400  0.570500  0.772000  1.0  0.09
  H  H82  1  0.670700  0.600500  0.666667  1.0  0.1116
  H  H83  1  0.190100  0.428500  0.928200  1.0  0.1008
  H  H84  1  0.286200  0.443200  0.015400  1.0  0.1095
  H  H85  1  0.389300  0.576300  0.568300  1.0  0.0771
  H  H86  1  0.406200  0.493300  0.585200  1.0  0.0916
  H  H87  1  0.510500  0.585100  0.501700  1.0  0.1099
  H  H88  1  0.627700  0.611600  0.527400  1.0  0.1185
  H  H89  1  0.108000  0.516800  0.458400  1.0  0.0931
  H  H90  1  0.300500  0.547700  0.284300  1.0  0.1194
  H  H91  1  0.226900  0.494500  0.170400  1.0  0.0945
  H  H92  1  0.167600  0.555600  0.171100  1.0  0.1035
  H  H93  1  0.198400  0.376600  0.159600  1.0  0.0911
  H  H94  1  0.181700  0.380400  0.257400  1.0  0.1061
  H  H95  1  0.094300  0.316200  0.135200  1.0  0.0686
  H  H96  1  0.073400  0.323400  0.232300  1.0  0.0975
  H  H97  1  0.906600  0.429500  0.272000  1.0  0.0904
  H  H98  1  0.829300  0.399500  0.166700  1.0  0.1125
  H  H99  1  0.309900  0.571500  0.428200  1.0  0.1009
  H  H100  1  0.213800  0.556800  0.515400  1.0  0.1094
  H  H101  1  0.110700  0.423700  0.068300  1.0  0.0761
  H  H102  1  0.093800  0.506700  0.085200  1.0  0.0911
  H  H103  1  0.989500  0.414900  0.001700  1.0  0.1098
  H  H104  1  0.872300  0.388400  0.027400  1.0  0.1189
  H  H105  1  0.392000  0.016800  0.958400  1.0  0.093
  H  H106  1  0.199500  0.047700  0.784300  1.0  0.1197
  H  H107  1  0.273100  0.994500  0.670400  1.0  0.0935
  H  H108  1  0.332400  0.055600  0.671100  1.0  0.1033
  H  H109  1  0.301600  0.876600  0.659600  1.0  0.0909
  H  H110  1  0.318300  0.880400  0.757400  1.0  0.1073
  H  H111  1  0.405700  0.816200  0.635200  1.0  0.068
  H  H112  1  0.426600  0.823400  0.732300  1.0  0.098
  H  H113  1  0.593400  0.929500  0.772000  1.0  0.0902
  H  H114  1  0.670700  0.899500  0.666667  1.0  0.1125
  H  H115  1  0.190100  0.071500  0.928200  1.0  0.1007
  H  H116  1  0.286200  0.056800  0.015400  1.0  0.1095
  H  H117  1  0.389300  0.923700  0.568300  1.0  0.0761
  H  H118  1  0.406200  0.006700  0.585200  1.0  0.0907
  H  H119  1  0.510500  0.914900  0.501700  1.0  0.1097
  H  H120  1  0.627700  0.888400  0.527400  1.0  0.1185
  H  H121  1  0.108000  0.983200  0.458400  1.0  0.0932
  H  H122  1  0.300500  0.952300  0.284300  1.0  0.1191
  H  H123  1  0.226900  0.005500  0.170400  1.0  0.0945
  H  H124  1  0.167600  0.944400  0.171100  1.0  0.1017
  H  H125  1  0.198400  0.123400  0.159600  1.0  0.0919
  H  H126  1  0.181700  0.119600  0.257400  1.0  0.1056
  H  H127  1  0.094300  0.183800  0.135200  1.0  0.069
  H  H128  1  0.073400  0.176600  0.232300  1.0  0.0974
  H  H129  1  0.906600  0.070500  0.272000  1.0  0.0902
  H  H130  1  0.829300  0.100500  0.166700  1.0  0.1133
  H  H131  1  0.309900  0.928500  0.428200  1.0  0.101
  H  H132  1  0.213800  0.943200  0.515400  1.0  0.1095
  H  H133  1  0.110700  0.076300  0.068300  1.0  0.0769
  H  H134  1  0.093800  0.993300  0.085200  1.0  0.0915
  H  H135  1  0.989500  0.085100  0.001700  1.0  0.1098
  H  H136  1  0.872300  0.111600  0.027400  1.0  0.1188
  H  H137  1  0.608000  0.516800  0.041600  1.0  0.0928
  H  H138  1  0.800500  0.547700  0.215700  1.0  0.1193
  H  H139  1  0.726900  0.494500  0.329600  1.0  0.0937
  H  H140  1  0.667600  0.555600  0.328900  1.0  0.103
  H  H141  1  0.698400  0.376600  0.340400  1.0  0.0906
  H  H142  1  0.681700  0.380400  0.242600  1.0  0.1068
  H  H143  1  0.594300  0.316200  0.364800  1.0  0.0701
  H  H144  1  0.573400  0.323400  0.267700  1.0  0.097
  H  H145  1  0.406600  0.429500  0.228000  1.0  0.0902
  H  H146  1  0.329300  0.399500  0.333333  1.0  0.1131
  H  H147  1  0.809900  0.571500  0.071800  1.0  0.1011
  H  H148  1  0.713800  0.556800  0.984600  1.0  0.109
  H  H149  1  0.610700  0.423700  0.431700  1.0  0.0772
  H  H150  1  0.593800  0.506700  0.414800  1.0  0.0907
  H  H151  1  0.489500  0.414900  0.498300  1.0  0.1094
  H  H152  1  0.372300  0.388400  0.472600  1.0  0.1193
  H  H153  1  0.892000  0.483200  0.541600  1.0  0.0929
  H  H154  1  0.699500  0.452300  0.715700  1.0  0.1197
  H  H155  1  0.773100  0.505500  0.829600  1.0  0.0924
  H  H156  1  0.832400  0.444400  0.828900  1.0  0.103
  H  H157  1  0.801600  0.623400  0.840400  1.0  0.0906
  H  H158  1  0.818300  0.619600  0.742600  1.0  0.1064
  H  H159  1  0.905700  0.683800  0.864800  1.0  0.0696
  H  H160  1  0.926600  0.676600  0.767700  1.0  0.0983
  H  H161  1  0.093400  0.570500  0.728000  1.0  0.09
  H  H162  1  0.170700  0.600500  0.833300  1.0  0.1122
  H  H163  1  0.690100  0.428500  0.571800  1.0  0.1007
  H  H164  1  0.786200  0.443200  0.484600  1.0  0.1091
  H  H165  1  0.889300  0.576300  0.931700  1.0  0.0771
  H  H166  1  0.906200  0.493300  0.914800  1.0  0.0922
  H  H167  1  0.010500  0.585100  0.998300  1.0  0.1094
  H  H168  1  0.127700  0.611600  0.972600  1.0  0.119
  C  C169  1  0.647000  0.975100  0.077300  1.0  0.1415
  C  C170  1  0.695600  0.977600  0.210400  1.0  0.2309
  C  C171  1  0.761200  0.957000  0.179600  1.0  -0.1651
  C  C172  1  0.683200  0.989600  0.302000  1.0  -0.1404
  C  C173  1  0.660200  0.118200  0.298900  1.0  0.0051
  C  C174  1  0.613200  0.181100  0.307100  1.0  -0.3102
  C  C175  1  0.422600  0.071800  0.284400  1.0  0.1523
  C  C176  1  0.377100  0.091200  0.345800  1.0  -0.1626
  C  C177  1  0.766500  0.943800  0.094600  1.0  -0.0999
  C  C178  1  0.710000  0.952500  0.043000  1.0  -0.1401
  C  C179  1  0.514300  0.060200  0.379100  1.0  0.2252
  C  C180  1  0.589600  0.042300  0.391300  1.0  -0.1447
  C  C181  1  0.471400  0.081300  0.443100  1.0  -0.0988
  C  C182  1  0.402300  0.097100  0.428300  1.0  -0.1338
  C  C183  1  0.743500  0.783600  0.184900  1.0  0.1311
  C  C184  1  0.658700  0.797000  0.174000  1.0  0.1883
  C  C185  1  0.853000  0.024900  0.577300  1.0  0.1414
  C  C186  1  0.804400  0.022400  0.710400  1.0  0.2313
  C  C187  1  0.738800  0.043000  0.679600  1.0  -0.1653
  C  C188  1  0.816800  0.010400  0.802000  1.0  -0.1395
  C  C189  1  0.839800  0.881800  0.798900  1.0  0.0033
  C  C190  1  0.886800  0.818900  0.807100  1.0  -0.3076
  C  C191  1  0.077400  0.928200  0.784400  1.0  0.1494
  C  C192  1  0.122900  0.908800  0.845800  1.0  -0.1628
  C  C193  1  0.733500  0.056200  0.594600  1.0  -0.1015
  C  C194  1  0.790000  0.047500  0.543000  1.0  -0.1406
  C  C195  1  0.985700  0.939800  0.879100  1.0  0.2257
  C  C196  1  0.910400  0.957700  0.891300  1.0  -0.1454
  C  C197  1  0.028600  0.918700  0.943100  1.0  -0.0997
  C  C198  1  0.097700  0.902900  0.928300  1.0  -0.1355
  C  C199  1  0.756500  0.216400  0.684900  1.0  0.134
  C  C200  1  0.841300  0.203000  0.674000  1.0  0.1862
  C  C201  1  0.353000  0.475100  0.922700  1.0  0.1425
  C  C202  1  0.304400  0.477600  0.789600  1.0  0.2304
  C  C203  1  0.238800  0.457000  0.820400  1.0  -0.1643
  C  C204  1  0.316800  0.489600  0.698000  1.0  -0.1391
  C  C205  1  0.339800  0.618200  0.701100  1.0  0.0035
  C  C206  1  0.386800  0.681100  0.692900  1.0  -0.3086
  C  C207  1  0.577400  0.571800  0.715600  1.0  0.1511
  C  C208  1  0.622900  0.591200  0.654200  1.0  -0.1634
  C  C209  1  0.233500  0.443800  0.905400  1.0  -0.0999
  C  C210  1  0.290000  0.452500  0.957000  1.0  -0.1404
  C  C211  1  0.485700  0.560200  0.620900  1.0  0.2259
  C  C212  1  0.410400  0.542300  0.608700  1.0  -0.1453
  C  C213  1  0.528600  0.581300  0.556900  1.0  -0.1001
  C  C214  1  0.597700  0.597100  0.571700  1.0  -0.134
  C  C215  1  0.256500  0.283600  0.815100  1.0  0.1328
  C  C216  1  0.341300  0.297000  0.826000  1.0  0.1872
  C  C217  1  0.147000  0.524900  0.422700  1.0  0.1415
  C  C218  1  0.195600  0.522400  0.289600  1.0  0.2315
  C  C219  1  0.261200  0.543000  0.320400  1.0  -0.1647
  C  C220  1  0.183200  0.510400  0.198000  1.0  -0.1387
  C  C221  1  0.160200  0.381800  0.201100  1.0  0.0044
  C  C222  1  0.113200  0.318900  0.192900  1.0  -0.3091
  C  C223  1  0.922600  0.428200  0.215600  1.0  0.1503
  C  C224  1  0.877100  0.408800  0.154200  1.0  -0.1636
  C  C225  1  0.266500  0.556200  0.405400  1.0  -0.1007
  C  C226  1  0.210000  0.547500  0.457000  1.0  -0.141
  C  C227  1  0.014300  0.439800  0.120900  1.0  0.2254
  C  C228  1  0.089600  0.457700  0.108700  1.0  -0.1462
  C  C229  1  0.971400  0.418700  0.056900  1.0  -0.0994
  C  C230  1  0.902300  0.402900  0.071700  1.0  -0.1361
  C  C231  1  0.243500  0.716400  0.315100  1.0  0.1347
  C  C232  1  0.158700  0.703000  0.326000  1.0  0.1865
  C  C233  1  0.353000  0.024900  0.922700  1.0  0.1424
  C  C234  1  0.304400  0.022400  0.789600  1.0  0.2311
  C  C235  1  0.238800  0.043000  0.820400  1.0  -0.1647
  C  C236  1  0.316800  0.010400  0.698000  1.0  -0.1382
  C  C237  1  0.339800  0.881800  0.701100  1.0  0.0038
  C  C238  1  0.386800  0.818900  0.692900  1.0  -0.3082
  C  C239  1  0.577400  0.928200  0.715600  1.0  0.1512
  C  C240  1  0.622900  0.908800  0.654200  1.0  -0.1627
  C  C241  1  0.233500  0.056200  0.905400  1.0  -0.1016
  C  C242  1  0.290000  0.047500  0.957000  1.0  -0.1405
  C  C243  1  0.485700  0.939800  0.620900  1.0  0.2261
  C  C244  1  0.410400  0.957700  0.608700  1.0  -0.146
  C  C245  1  0.528600  0.918700  0.556900  1.0  -0.0995
  C  C246  1  0.597700  0.902900  0.571700  1.0  -0.1357
  C  C247  1  0.256500  0.216400  0.815100  1.0  0.1348
  C  C248  1  0.341300  0.203000  0.826000  1.0  0.1859
  C  C249  1  0.147000  0.975100  0.422700  1.0  0.1415
  C  C250  1  0.195600  0.977600  0.289600  1.0  0.2309
  C  C251  1  0.261200  0.957000  0.320400  1.0  -0.1643
  C  C252  1  0.183200  0.989600  0.198000  1.0  -0.1396
  C  C253  1  0.160200  0.118200  0.201100  1.0  0.0048
  C  C254  1  0.113200  0.181100  0.192900  1.0  -0.3099
  C  C255  1  0.922600  0.071800  0.215600  1.0  0.1499
  C  C256  1  0.877100  0.091200  0.154200  1.0  -0.1643
  C  C257  1  0.266500  0.943800  0.405400  1.0  -0.0993
  C  C258  1  0.210000  0.952500  0.457000  1.0  -0.1408
  C  C259  1  0.014300  0.060200  0.120900  1.0  0.2253
  C  C260  1  0.089600  0.042300  0.108700  1.0  -0.1456
  C  C261  1  0.971400  0.081300  0.056900  1.0  -0.0999
  C  C262  1  0.902300  0.097100  0.071700  1.0  -0.1347
  C  C263  1  0.243500  0.783600  0.315100  1.0  0.1327
  C  C264  1  0.158700  0.797000  0.326000  1.0  0.1881
  C  C265  1  0.647000  0.524900  0.077300  1.0  0.1415
  C  C266  1  0.695600  0.522400  0.210400  1.0  0.2316
  C  C267  1  0.761200  0.543000  0.179600  1.0  -0.1654
  C  C268  1  0.683200  0.510400  0.302000  1.0  -0.1398
  C  C269  1  0.660200  0.381800  0.298900  1.0  0.0041
  C  C270  1  0.613200  0.318900  0.307100  1.0  -0.3088
  C  C271  1  0.422600  0.428200  0.284400  1.0  0.1517
  C  C272  1  0.377100  0.408800  0.345800  1.0  -0.1625
  C  C273  1  0.766500  0.556200  0.094600  1.0  -0.1006
  C  C274  1  0.710000  0.547500  0.043000  1.0  -0.1404
  C  C275  1  0.514300  0.439800  0.379100  1.0  0.2252
  C  C276  1  0.589600  0.457700  0.391300  1.0  -0.1446
  C  C277  1  0.471400  0.418700  0.443100  1.0  -0.0994
  C  C278  1  0.402300  0.402900  0.428300  1.0  -0.1353
  C  C279  1  0.743500  0.716400  0.184900  1.0  0.1334
  C  C280  1  0.658700  0.703000  0.174000  1.0  0.1873
  C  C281  1  0.853000  0.475100  0.577300  1.0  0.1416
  C  C282  1  0.804400  0.477600  0.710400  1.0  0.2305
  C  C283  1  0.738800  0.457000  0.679600  1.0  -0.1649
  C  C284  1  0.816800  0.489600  0.802000  1.0  -0.14
  C  C285  1  0.839800  0.618200  0.798900  1.0  0.0039
  C  C286  1  0.886800  0.681100  0.807100  1.0  -0.3082
  C  C287  1  0.077400  0.571800  0.784400  1.0  0.1502
  C  C288  1  0.122900  0.591200  0.845800  1.0  -0.163
  C  C289  1  0.733500  0.443800  0.594600  1.0  -0.1004
  C  C290  1  0.790000  0.452500  0.543000  1.0  -0.1401
  C  C291  1  0.985700  0.560200  0.879100  1.0  0.2255
  C  C292  1  0.910400  0.542300  0.891300  1.0  -0.1457
  C  C293  1  0.028600  0.581300  0.943100  1.0  -0.0989
  C  C294  1  0.097700  0.597100  0.928300  1.0  -0.1341
  C  C295  1  0.756500  0.283600  0.684900  1.0  0.1323
  C  C296  1  0.841300  0.297000  0.674000  1.0  0.1878
  C  C297  1  0.617900  0.750000  0.157700  1.0  0.1733
  C  C298  1  0.757000  0.750000  0.263900  1.0  -0.078
  C  C299  1  0.882100  0.250000  0.657700  1.0  0.1748
  C  C300  1  0.743000  0.250000  0.763900  1.0  -0.0774
  C  C301  1  0.382100  0.250000  0.842300  1.0  0.175
  C  C302  1  0.243000  0.250000  0.736100  1.0  -0.073
  C  C303  1  0.117900  0.750000  0.342300  1.0  0.1737
  C  C304  1  0.257000  0.750000  0.236100  1.0  -0.0727
  C  C305  1  0.656100  0.250000  0.286900  1.0  -0.0812
  C  C306  1  0.843900  0.750000  0.786900  1.0  -0.0831
  C  C307  1  0.343900  0.750000  0.713100  1.0  -0.0877
  C  C308  1  0.156100  0.250000  0.213100  1.0  -0.0865
  N  N309  1  0.640400  0.985700  0.159400  1.0  -0.3011
  N  N310  1  0.489200  0.054500  0.300500  1.0  -0.2803
  N  N311  1  0.627900  0.046200  0.310700  1.0  -0.042
  N  N312  1  0.859600  0.014300  0.659400  1.0  -0.3022
  N  N313  1  0.010800  0.945500  0.800500  1.0  -0.2815
  N  N314  1  0.872100  0.953800  0.810700  1.0  -0.041
  N  N315  1  0.359600  0.485700  0.840600  1.0  -0.301
  N  N316  1  0.510800  0.554500  0.699500  1.0  -0.2805
  N  N317  1  0.372100  0.546200  0.689300  1.0  -0.0408
  N  N318  1  0.140400  0.514300  0.340600  1.0  -0.3004
  N  N319  1  0.989200  0.445500  0.199500  1.0  -0.2806
  N  N320  1  0.127900  0.453800  0.189300  1.0  -0.0419
  N  N321  1  0.359600  0.014300  0.840600  1.0  -0.3014
  N  N322  1  0.510800  0.945500  0.699500  1.0  -0.2816
  N  N323  1  0.372100  0.953800  0.689300  1.0  -0.0408
  N  N324  1  0.140400  0.985700  0.340600  1.0  -0.3
  N  N325  1  0.989200  0.054500  0.199500  1.0  -0.2802
  N  N326  1  0.127900  0.046200  0.189300  1.0  -0.0417
  N  N327  1  0.640400  0.514300  0.159400  1.0  -0.3017
  N  N328  1  0.489200  0.445500  0.300500  1.0  -0.28
  N  N329  1  0.627900  0.453800  0.310700  1.0  -0.0421
  N  N330  1  0.859600  0.485700  0.659400  1.0  -0.3023
  N  N331  1  0.010800  0.554500  0.800500  1.0  -0.2809
  N  N332  1  0.872100  0.546200  0.810700  1.0  -0.041
  O  O333  1  0.488800  0.970800  0.149400  1.0  -0.7696
  O  O334  1  0.409000  0.898000  0.259700  1.0  -0.713
  O  O335  1  0.450300  0.880000  0.863000  1.0  -0.6711
  O  O336  1  0.498100  0.817800  0.179600  1.0  -0.8919
  O  O337  1  0.440200  0.876800  0.032800  1.0  -0.719
  O  O338  1  0.852700  0.684300  0.356300  1.0  -0.8532
  O  O339  1  0.011200  0.029200  0.649400  1.0  -0.7701
  O  O340  1  0.091000  0.102000  0.759700  1.0  -0.7121
  O  O341  1  0.049700  0.120000  0.363000  1.0  -0.6716
  O  O342  1  0.001900  0.182200  0.679600  1.0  -0.8921
  O  O343  1  0.059800  0.123200  0.532800  1.0  -0.7187
  O  O344  1  0.647300  0.315700  0.856300  1.0  -0.8539
  O  O345  1  0.511200  0.470800  0.850600  1.0  -0.7689
  O  O346  1  0.591000  0.398000  0.740300  1.0  -0.7134
  O  O347  1  0.549700  0.380000  0.137000  1.0  -0.6718
  O  O348  1  0.501900  0.317800  0.820400  1.0  -0.8915
  O  O349  1  0.559800  0.376800  0.967200  1.0  -0.7172
  O  O350  1  0.147300  0.184300  0.643700  1.0  -0.8535
  O  O351  1  0.988800  0.529200  0.350600  1.0  -0.7686
  O  O352  1  0.909000  0.602000  0.240300  1.0  -0.7137
  O  O353  1  0.950300  0.620000  0.637000  1.0  -0.673
  O  O354  1  0.998100  0.682200  0.320400  1.0  -0.8914
  O  O355  1  0.940200  0.623200  0.467200  1.0  -0.7175
  O  O356  1  0.352700  0.815700  0.143700  1.0  -0.852
  O  O357  1  0.511200  0.029200  0.850600  1.0  -0.7691
  O  O358  1  0.591000  0.102000  0.740300  1.0  -0.7131
  O  O359  1  0.549700  0.120000  0.137000  1.0  -0.6725
  O  O360  1  0.501900  0.182200  0.820400  1.0  -0.8915
  O  O361  1  0.559800  0.123200  0.967200  1.0  -0.717
  O  O362  1  0.147300  0.315700  0.643700  1.0  -0.8541
  O  O363  1  0.988800  0.970800  0.350600  1.0  -0.7685
  O  O364  1  0.909000  0.898000  0.240300  1.0  -0.714
  O  O365  1  0.950300  0.880000  0.637000  1.0  -0.6726
  O  O366  1  0.998100  0.817800  0.320400  1.0  -0.8913
  O  O367  1  0.940200  0.876800  0.467200  1.0  -0.7174
  O  O368  1  0.352700  0.684300  0.143700  1.0  -0.8517
  O  O369  1  0.488800  0.529200  0.149400  1.0  -0.7698
  O  O370  1  0.409000  0.602000  0.259700  1.0  -0.7127
  O  O371  1  0.450300  0.620000  0.863000  1.0  -0.6717
  O  O372  1  0.498100  0.682200  0.179600  1.0  -0.8922
  O  O373  1  0.440200  0.623200  0.032800  1.0  -0.7193
  O  O374  1  0.852700  0.815700  0.356300  1.0  -0.8536
  O  O375  1  0.011200  0.470800  0.649400  1.0  -0.7699
  O  O376  1  0.091000  0.398000  0.759700  1.0  -0.7123
  O  O377  1  0.049700  0.380000  0.363000  1.0  -0.6705
  O  O378  1  0.001900  0.317800  0.679600  1.0  -0.8919
  O  O379  1  0.059800  0.376800  0.532800  1.0  -0.7189
  O  O380  1  0.647300  0.184300  0.856300  1.0  -0.8532
  O  O381  1  0.394500  0.750000  0.961700  1.0  -0.4956
  O  O382  1  0.894600  0.750000  0.224700  1.0  -0.895
  O  O383  1  0.518800  0.750000  0.335400  1.0  -0.6461
  O  O384  1  0.515700  0.750000  0.887300  1.0  -0.648
  O  O385  1  0.515300  0.750000  0.044700  1.0  -0.8648
  O  O386  1  0.105500  0.250000  0.461700  1.0  -0.493
  O  O387  1  0.605400  0.250000  0.724700  1.0  -0.8948
  O  O388  1  0.981200  0.250000  0.835400  1.0  -0.6506
  O  O389  1  0.984300  0.250000  0.387300  1.0  -0.6469
  O  O390  1  0.984700  0.250000  0.544700  1.0  -0.8649
  O  O391  1  0.605500  0.250000  0.038300  1.0  -0.4936
  O  O392  1  0.105400  0.250000  0.775300  1.0  -0.8974
  O  O393  1  0.481200  0.250000  0.664600  1.0  -0.652
  O  O394  1  0.484300  0.250000  0.112700  1.0  -0.6464
  O  O395  1  0.484700  0.250000  0.955300  1.0  -0.8661
  O  O396  1  0.894500  0.750000  0.538300  1.0  -0.4963
  O  O397  1  0.394600  0.750000  0.275300  1.0  -0.8978
  O  O398  1  0.018800  0.750000  0.164600  1.0  -0.649
  O  O399  1  0.015700  0.750000  0.612700  1.0  -0.6473
  O  O400  1  0.015300  0.750000  0.455300  1.0  -0.8653
