# generated using pymatgen
data_CoH12C12(N2O)4
_symmetry_space_group_name_H-M   'P 1'
_cell_length_a   13.50540000
_cell_length_b   19.81500000
_cell_length_c   11.63530000
_cell_angle_alpha   90.00000000
_cell_angle_beta   96.57790000
_cell_angle_gamma   90.00000000
_symmetry_Int_Tables_number   1
_chemical_formula_structural   CoH12C12(N2O)4
_chemical_formula_sum   'Co6 H72 C72 N48 O24'
_cell_volume   3093.21930697
_cell_formula_units_Z   6
loop_
 _symmetry_equiv_pos_site_id
 _symmetry_equiv_pos_as_xyz
  1  'x, y, z'
loop_
 _atom_site_type_symbol
 _atom_site_label
 _atom_site_symmetry_multiplicity
 _atom_site_fract_x
 _atom_site_fract_y
 _atom_site_fract_z
 _atom_site_occupancy
 _atom_site_charge
  Co  Co1  1  0.427310  0.214970  0.314930  1.0  0.8521
  Co  Co2  1  0.572690  0.714970  0.185070  1.0  0.8522
  Co  Co3  1  0.572690  0.785030  0.685070  1.0  0.8521
  Co  Co4  1  0.427310  0.285030  0.814930  1.0  0.852
  Co  Co5  1  0.500000  0.000000  0.000000  1.0  0.867
  Co  Co6  1  0.500000  0.500000  0.500000  1.0  0.867
  H  H7  1  0.883300  0.125600  0.383600  1.0  0.3477
  H  H8  1  0.895700  0.179600  0.485700  1.0  0.2671
  H  H9  1  0.920000  0.262400  0.120500  1.0  0.4055
  H  H10  1  0.969700  0.328100  0.259200  1.0  0.3527
  H  H11  1  0.082900  0.006800  0.157800  1.0  0.3567
  H  H12  1  0.075600  0.919400  0.061500  1.0  0.3259
  H  H13  1  0.580800  0.175900  0.155000  1.0  0.1039
  H  H14  1  0.780000  0.294300  0.424000  1.0  0.1554
  H  H15  1  0.850000  0.886800  0.957000  1.0  0.1105
  H  H16  1  0.669000  0.904300  0.954000  1.0  0.1714
  H  H17  1  0.753000  0.191000  0.147000  1.0  0.2665
  H  H18  1  0.609000  0.281100  0.447000  1.0  0.1084
  H  H19  1  0.857000  0.072000  0.113000  1.0  0.1259
  H  H20  1  0.246000  0.125400  0.243000  1.0  0.0853
  H  H21  1  0.682000  0.071900  0.101000  1.0  0.0802
  H  H22  1  0.265000  0.295000  0.426000  1.0  0.1054
  H  H23  1  0.085000  0.117000  0.257000  1.0  0.1753
  H  H24  1  0.080000  0.282200  0.439000  1.0  0.0903
  H  H25  1  0.116700  0.625600  0.116400  1.0  0.3468
  H  H26  1  0.104300  0.679600  0.014300  1.0  0.268
  H  H27  1  0.080000  0.762400  0.379500  1.0  0.4049
  H  H28  1  0.030300  0.828100  0.240800  1.0  0.3554
  H  H29  1  0.917100  0.506800  0.342200  1.0  0.3601
  H  H30  1  0.924400  0.419400  0.438500  1.0  0.3265
  H  H31  1  0.419200  0.675900  0.345000  1.0  0.105
  H  H32  1  0.220000  0.794300  0.076000  1.0  0.1549
  H  H33  1  0.150000  0.386800  0.543000  1.0  0.1104
  H  H34  1  0.331000  0.404300  0.546000  1.0  0.1704
  H  H35  1  0.247000  0.691000  0.353000  1.0  0.2628
  H  H36  1  0.391000  0.781100  0.053000  1.0  0.1091
  H  H37  1  0.143000  0.572000  0.387000  1.0  0.1255
  H  H38  1  0.754000  0.625400  0.257000  1.0  0.0837
  H  H39  1  0.318000  0.571900  0.399000  1.0  0.0793
  H  H40  1  0.735000  0.795000  0.074000  1.0  0.1055
  H  H41  1  0.915000  0.617000  0.243000  1.0  0.1753
  H  H42  1  0.920000  0.782200  0.061000  1.0  0.0898
  H  H43  1  0.116700  0.874400  0.616400  1.0  0.3467
  H  H44  1  0.104300  0.820400  0.514300  1.0  0.2662
  H  H45  1  0.080000  0.737600  0.879500  1.0  0.4044
  H  H46  1  0.030300  0.671900  0.740800  1.0  0.3562
  H  H47  1  0.917100  0.993200  0.842200  1.0  0.3602
  H  H48  1  0.924400  0.080600  0.938500  1.0  0.3257
  H  H49  1  0.419200  0.824100  0.845000  1.0  0.104
  H  H50  1  0.220000  0.705700  0.576000  1.0  0.1548
  H  H51  1  0.150000  0.113200  0.043000  1.0  0.1103
  H  H52  1  0.331000  0.095700  0.046000  1.0  0.1702
  H  H53  1  0.247000  0.809000  0.853000  1.0  0.263
  H  H54  1  0.391000  0.718900  0.553000  1.0  0.1089
  H  H55  1  0.143000  0.928000  0.887000  1.0  0.1261
  H  H56  1  0.754000  0.874600  0.757000  1.0  0.0843
  H  H57  1  0.318000  0.928100  0.899000  1.0  0.0791
  H  H58  1  0.735000  0.705000  0.574000  1.0  0.1062
  H  H59  1  0.915000  0.883000  0.743000  1.0  0.1744
  H  H60  1  0.920000  0.717800  0.561000  1.0  0.0895
  H  H61  1  0.883300  0.374400  0.883600  1.0  0.3486
  H  H62  1  0.895700  0.320400  0.985700  1.0  0.2664
  H  H63  1  0.920000  0.237600  0.620500  1.0  0.4049
  H  H64  1  0.969700  0.171900  0.759200  1.0  0.3554
  H  H65  1  0.082900  0.493200  0.657800  1.0  0.3562
  H  H66  1  0.075600  0.580600  0.561500  1.0  0.3254
  H  H67  1  0.580800  0.324100  0.655000  1.0  0.1036
  H  H68  1  0.780000  0.205700  0.924000  1.0  0.1554
  H  H69  1  0.850000  0.613200  0.457000  1.0  0.1098
  H  H70  1  0.669000  0.595700  0.454000  1.0  0.1718
  H  H71  1  0.753000  0.309000  0.647000  1.0  0.2665
  H  H72  1  0.609000  0.218900  0.947000  1.0  0.1103
  H  H73  1  0.857000  0.428000  0.613000  1.0  0.1264
  H  H74  1  0.246000  0.374600  0.743000  1.0  0.0854
  H  H75  1  0.682000  0.428100  0.601000  1.0  0.0795
  H  H76  1  0.265000  0.205000  0.926000  1.0  0.106
  H  H77  1  0.085000  0.383000  0.757000  1.0  0.1745
  H  H78  1  0.080000  0.217800  0.939000  1.0  0.0902
  C  C79  1  0.644500  0.261950  0.376200  1.0  0.1227
  C  C80  1  0.626400  0.200130  0.210200  1.0  0.0847
  C  C81  1  0.744500  0.271130  0.368800  1.0  -0.1259
  C  C82  1  0.726000  0.206660  0.198500  1.0  -0.0412
  C  C83  1  0.788300  0.241900  0.278300  1.0  0.0385
  C  C84  1  0.899000  0.247460  0.272000  1.0  0.1322
  C  C85  1  0.213900  0.160040  0.280400  1.0  0.1969
  C  C86  1  0.223600  0.252290  0.394300  1.0  0.1431
  C  C87  1  0.113300  0.154500  0.285500  1.0  -0.1478
  C  C88  1  0.123500  0.248800  0.405900  1.0  -0.0742
  C  C89  1  0.065300  0.199690  0.347500  1.0  0.0409
  C  C90  1  0.954200  0.196200  0.355600  1.0  0.1996
  C  C91  1  0.707400  0.936360  0.984100  1.0  0.0589
  C  C92  1  0.716300  0.039560  0.065100  1.0  0.1572
  C  C93  1  0.819000  0.038100  0.079200  1.0  -0.1175
  C  C94  1  0.810000  0.931320  0.993100  1.0  -0.079
  C  C95  1  0.868400  0.983630  0.040400  1.0  0.0256
  C  C96  1  0.981300  0.981520  0.050700  1.0  0.1977
  C  C97  1  0.355500  0.761950  0.123800  1.0  0.1225
  C  C98  1  0.373600  0.700130  0.289800  1.0  0.0852
  C  C99  1  0.255500  0.771130  0.131200  1.0  -0.1274
  C  C100  1  0.274000  0.706660  0.301500  1.0  -0.0418
  C  C101  1  0.211700  0.741900  0.221700  1.0  0.0396
  C  C102  1  0.101000  0.747460  0.228000  1.0  0.1309
  C  C103  1  0.786100  0.660040  0.219600  1.0  0.1975
  C  C104  1  0.776400  0.752290  0.105700  1.0  0.1427
  C  C105  1  0.886700  0.654500  0.214500  1.0  -0.1483
  C  C106  1  0.876500  0.748800  0.094100  1.0  -0.0711
  C  C107  1  0.934700  0.699690  0.152500  1.0  0.0411
  C  C108  1  0.045800  0.696200  0.144400  1.0  0.1981
  C  C109  1  0.292600  0.436360  0.515900  1.0  0.0596
  C  C110  1  0.283700  0.539560  0.434900  1.0  0.1578
  C  C111  1  0.181000  0.538100  0.420800  1.0  -0.1209
  C  C112  1  0.190000  0.431320  0.506900  1.0  -0.0817
  C  C113  1  0.131600  0.483630  0.459600  1.0  0.0274
  C  C114  1  0.018700  0.481520  0.449300  1.0  0.1992
  C  C115  1  0.355500  0.738050  0.623800  1.0  0.1223
  C  C116  1  0.373600  0.799870  0.789800  1.0  0.0856
  C  C117  1  0.255500  0.728870  0.631200  1.0  -0.1275
  C  C118  1  0.274000  0.793340  0.801500  1.0  -0.0413
  C  C119  1  0.211700  0.758100  0.721700  1.0  0.0405
  C  C120  1  0.101000  0.752540  0.728000  1.0  0.1318
  C  C121  1  0.786100  0.839960  0.719600  1.0  0.1992
  C  C122  1  0.776400  0.747710  0.605700  1.0  0.142
  C  C123  1  0.886700  0.845500  0.714500  1.0  -0.1476
  C  C124  1  0.876500  0.751200  0.594100  1.0  -0.0708
  C  C125  1  0.934700  0.800310  0.652500  1.0  0.0417
  C  C126  1  0.045800  0.803800  0.644400  1.0  0.1981
  C  C127  1  0.292600  0.063640  0.015900  1.0  0.0596
  C  C128  1  0.283700  0.960440  0.934900  1.0  0.1573
  C  C129  1  0.181000  0.961900  0.920800  1.0  -0.1165
  C  C130  1  0.190000  0.068680  0.006900  1.0  -0.0835
  C  C131  1  0.131600  0.016370  0.959600  1.0  0.029
  C  C132  1  0.018700  0.018480  0.949300  1.0  0.1976
  C  C133  1  0.644500  0.238050  0.876200  1.0  0.1226
  C  C134  1  0.626400  0.299870  0.710200  1.0  0.0853
  C  C135  1  0.744500  0.228870  0.868800  1.0  -0.1261
  C  C136  1  0.726000  0.293340  0.698500  1.0  -0.0411
  C  C137  1  0.788300  0.258100  0.778300  1.0  0.039
  C  C138  1  0.899000  0.252540  0.772000  1.0  0.1323
  C  C139  1  0.213900  0.339960  0.780400  1.0  0.1986
  C  C140  1  0.223600  0.247710  0.894300  1.0  0.1425
  C  C141  1  0.113300  0.345500  0.785500  1.0  -0.148
  C  C142  1  0.123500  0.251200  0.905900  1.0  -0.0742
  C  C143  1  0.065300  0.300310  0.847500  1.0  0.041
  C  C144  1  0.954200  0.303800  0.855600  1.0  0.1989
  C  C145  1  0.707400  0.563640  0.484100  1.0  0.059
  C  C146  1  0.716300  0.460440  0.565100  1.0  0.1571
  C  C147  1  0.819000  0.461900  0.579200  1.0  -0.1182
  C  C148  1  0.810000  0.568680  0.493100  1.0  -0.0794
  C  C149  1  0.868400  0.516370  0.540400  1.0  0.0263
  C  C150  1  0.981300  0.518480  0.550700  1.0  0.1978
  N  N151  1  0.459550  0.211400  0.497900  1.0  -0.4739
  N  N152  1  0.425690  0.245010  0.566600  1.0  0.4852
  N  N153  1  0.390750  0.278530  0.634000  1.0  -0.4364
  N  N154  1  0.436820  0.108010  0.300200  1.0  -0.5278
  N  N155  1  0.475470  0.073250  0.236400  1.0  0.3933
  N  N156  1  0.514640  0.036590  0.177100  1.0  -0.5197
  N  N157  1  0.516240  0.099900  0.944500  1.0  -0.4896
  N  N158  1  0.465780  0.137320  0.884500  1.0  0.4919
  N  N159  1  0.417380  0.175720  0.826700  1.0  -0.4946
  N  N160  1  0.584100  0.226350  0.298000  1.0  -0.3581
  N  N161  1  0.270450  0.208470  0.331340  1.0  -0.322
  N  N162  1  0.659200  0.989560  0.019500  1.0  -0.3006
  N  N163  1  0.540450  0.711400  0.002100  1.0  -0.4724
  N  N164  1  0.574310  0.745010  0.933400  1.0  0.4829
  N  N165  1  0.609250  0.778530  0.866000  1.0  -0.4346
  N  N166  1  0.563180  0.608010  0.199800  1.0  -0.5247
  N  N167  1  0.524530  0.573250  0.263600  1.0  0.3934
  N  N168  1  0.485360  0.536590  0.322900  1.0  -0.5194
  N  N169  1  0.483760  0.599900  0.555500  1.0  -0.4903
  N  N170  1  0.534220  0.637320  0.615500  1.0  0.4842
  N  N171  1  0.582620  0.675720  0.673300  1.0  -0.4958
  N  N172  1  0.415900  0.726350  0.202000  1.0  -0.3515
  N  N173  1  0.729550  0.708470  0.168660  1.0  -0.3218
  N  N174  1  0.340800  0.489560  0.480500  1.0  -0.3027
  N  N175  1  0.540450  0.788600  0.502100  1.0  -0.4737
  N  N176  1  0.574310  0.754990  0.433400  1.0  0.481
  N  N177  1  0.609250  0.721470  0.366000  1.0  -0.4339
  N  N178  1  0.563180  0.891990  0.699800  1.0  -0.5284
  N  N179  1  0.524530  0.926750  0.763600  1.0  0.388
  N  N180  1  0.485360  0.963410  0.822900  1.0  -0.519
  N  N181  1  0.483760  0.900100  0.055500  1.0  -0.4902
  N  N182  1  0.534220  0.862680  0.115500  1.0  0.4835
  N  N183  1  0.582620  0.824280  0.173300  1.0  -0.4956
  N  N184  1  0.415900  0.773650  0.702000  1.0  -0.3512
  N  N185  1  0.729550  0.791530  0.668660  1.0  -0.3225
  N  N186  1  0.340800  0.010440  0.980500  1.0  -0.3023
  N  N187  1  0.459550  0.288600  0.997900  1.0  -0.4759
  N  N188  1  0.425690  0.254990  0.066600  1.0  0.4831
  N  N189  1  0.390750  0.221470  0.134000  1.0  -0.4357
  N  N190  1  0.436820  0.391990  0.800200  1.0  -0.529
  N  N191  1  0.475470  0.426750  0.736400  1.0  0.3931
  N  N192  1  0.514640  0.463410  0.677100  1.0  -0.52
  N  N193  1  0.516240  0.400100  0.444500  1.0  -0.4892
  N  N194  1  0.465780  0.362680  0.384500  1.0  0.4913
  N  N195  1  0.417380  0.324280  0.326700  1.0  -0.4952
  N  N196  1  0.584100  0.273650  0.798000  1.0  -0.3586
  N  N197  1  0.270450  0.291530  0.831340  1.0  -0.3222
  N  N198  1  0.659200  0.510440  0.519500  1.0  -0.303
  O  O199  1  0.917600  0.136800  0.333000  1.0  -0.5338
  O  O200  1  0.937400  0.206600  0.468200  1.0  -0.5031
  O  O201  1  0.922500  0.229100  0.162400  1.0  -0.5467
  O  O202  1  0.930700  0.314800  0.303300  1.0  -0.5466
  O  O203  1  0.021900  0.008500  0.153800  1.0  -0.5299
  O  O204  1  0.014500  0.919100  0.055800  1.0  -0.5182
  O  O205  1  0.082400  0.636800  0.167000  1.0  -0.5301
  O  O206  1  0.062600  0.706600  0.031800  1.0  -0.505
  O  O207  1  0.077500  0.729100  0.337600  1.0  -0.5462
  O  O208  1  0.069300  0.814800  0.196700  1.0  -0.5466
  O  O209  1  0.978100  0.508500  0.346200  1.0  -0.53
  O  O210  1  0.985500  0.419100  0.444200  1.0  -0.5166
  O  O211  1  0.082400  0.863200  0.667000  1.0  -0.5278
  O  O212  1  0.062600  0.793400  0.531800  1.0  -0.5039
  O  O213  1  0.077500  0.770900  0.837600  1.0  -0.5454
  O  O214  1  0.069300  0.685200  0.696700  1.0  -0.5483
  O  O215  1  0.978100  0.991500  0.846200  1.0  -0.5297
  O  O216  1  0.985500  0.080900  0.944200  1.0  -0.5158
  O  O217  1  0.917600  0.363200  0.833000  1.0  -0.5307
  O  O218  1  0.937400  0.293400  0.968200  1.0  -0.5025
  O  O219  1  0.922500  0.270900  0.662400  1.0  -0.5469
  O  O220  1  0.930700  0.185200  0.803300  1.0  -0.55
  O  O221  1  0.021900  0.491500  0.653800  1.0  -0.5299
  O  O222  1  0.014500  0.580900  0.555800  1.0  -0.5164
