# generated using pymatgen
data_Sm2CoH32C56(N2O5)4
_symmetry_space_group_name_H-M   'P 1'
_cell_length_a   10.12200000
_cell_length_b   10.80600000
_cell_length_c   13.72300000
_cell_angle_alpha   79.15300000
_cell_angle_beta   78.79600000
_cell_angle_gamma   86.39200000
_symmetry_Int_Tables_number   1
_chemical_formula_structural   Sm2CoH32C56(N2O5)4
_chemical_formula_sum   'Sm2 Co1 H32 C56 N8 O20'
_cell_volume   1445.54370395
_cell_formula_units_Z   1
loop_
 _symmetry_equiv_pos_site_id
 _symmetry_equiv_pos_as_xyz
  1  'x, y, z'
loop_
 _atom_site_type_symbol
 _atom_site_label
 _atom_site_symmetry_multiplicity
 _atom_site_fract_x
 _atom_site_fract_y
 _atom_site_fract_z
 _atom_site_occupancy
 _atom_site_charge
  Sm  Sm1  1  0.318990  0.922520  0.296870  1.0  2.2068
  Sm  Sm2  1  0.681010  0.077480  0.703130  1.0  2.2045
  Co  Co3  1  0.000000  0.500000  0.500000  1.0  0.8789
  H  H4  1  0.327400  0.669700  0.153000  1.0  0.1169
  H  H5  1  0.346500  0.328700  0.076600  1.0  0.12
  H  H6  1  0.281500  0.360400  0.368100  1.0  0.1133
  H  H7  1  0.345700  0.773800  0.850900  1.0  0.1249
  H  H8  1  0.353400  0.881300  0.689900  1.0  0.0741
  H  H9  1  0.365300  0.571700  0.585100  1.0  0.0827
  H  H10  1  0.356900  0.454300  0.742700  1.0  0.1236
  H  H11  1  0.823400  0.913800  0.281500  1.0  0.1095
  H  H12  1  0.089400  0.838800  0.040800  1.0  0.1176
  H  H13  1  0.695200  0.853400  0.036300  1.0  0.1211
  H  H14  1  0.017100  0.829300  0.715900  1.0  0.1321
  H  H15  1  0.032800  0.749200  0.571300  1.0  0.0869
  H  H16  1  0.014000  0.407100  0.723000  1.0  0.0762
  H  H17  1  0.008400  0.477200  0.870800  1.0  0.1287
  H  H18  1  0.379500  0.645900  0.982200  1.0  0.3196
  H  H19  1  0.881400  0.842800  0.880700  1.0  0.2991
  H  H20  1  0.672600  0.330300  0.847000  1.0  0.1177
  H  H21  1  0.653500  0.671300  0.923400  1.0  0.1196
  H  H22  1  0.718500  0.639600  0.631900  1.0  0.1142
  H  H23  1  0.654300  0.226200  0.149100  1.0  0.1247
  H  H24  1  0.646600  0.118700  0.310100  1.0  0.0733
  H  H25  1  0.634700  0.428300  0.414900  1.0  0.0832
  H  H26  1  0.643100  0.545700  0.257300  1.0  0.123
  H  H27  1  0.176600  0.086200  0.718500  1.0  0.1091
  H  H28  1  0.910600  0.161200  0.959200  1.0  0.1169
  H  H29  1  0.304800  0.146600  0.963700  1.0  0.1223
  H  H30  1  0.982900  0.170700  0.284100  1.0  0.1319
  H  H31  1  0.967200  0.250800  0.428700  1.0  0.0864
  H  H32  1  0.986000  0.592900  0.277000  1.0  0.0759
  H  H33  1  0.991600  0.522800  0.129200  1.0  0.129
  H  H34  1  0.620500  0.354100  0.017800  1.0  0.3204
  H  H35  1  0.118600  0.157200  0.119300  1.0  0.2993
  C  C36  1  0.298400  0.527700  0.273200  1.0  -0.1686
  C  C37  1  0.321700  0.582600  0.171400  1.0  -0.1178
  C  C38  1  0.336400  0.509600  0.097500  1.0  0.2147
  C  C39  1  0.334800  0.379200  0.125700  1.0  -0.1434
  C  C40  1  0.315900  0.324900  0.226300  1.0  -0.1141
  C  C41  1  0.296200  0.398100  0.300400  1.0  -0.0278
  C  C42  1  0.312700  0.184900  0.252800  1.0  0.6673
  C  C43  1  0.267400  0.605900  0.353700  1.0  0.775
  C  C44  1  0.333900  0.517800  0.918100  1.0  0.51
  C  C45  1  0.347900  0.599700  0.816100  1.0  -0.0303
  C  C46  1  0.348600  0.730100  0.798200  1.0  -0.191
  C  C47  1  0.353800  0.793700  0.700900  1.0  0.2015
  C  C48  1  0.360600  0.613000  0.639400  1.0  0.1836
  C  C49  1  0.355400  0.541800  0.734100  1.0  -0.1601
  C  C50  1  0.737500  0.885800  0.168100  1.0  -0.1221
  C  C51  1  0.841400  0.896100  0.216400  1.0  -0.0269
  C  C52  1  0.974100  0.880000  0.168300  1.0  -0.1466
  C  C53  1  0.000800  0.850400  0.072700  1.0  -0.124
  C  C54  1  0.895800  0.837800  0.024200  1.0  0.1852
  C  C55  1  0.765400  0.858100  0.070200  1.0  -0.0898
  C  C56  1  0.592900  0.901900  0.215000  1.0  0.6621
  C  C57  1  0.091100  0.890600  0.217600  1.0  0.6584
  C  C58  1  0.005900  0.705000  0.907800  1.0  0.5087
  C  C59  1  0.009500  0.661700  0.809700  1.0  0.0092
  C  C60  1  0.017000  0.742600  0.718900  1.0  -0.1678
  C  C61  1  0.024600  0.693600  0.632700  1.0  0.1777
  C  C62  1  0.015000  0.493400  0.721400  1.0  0.1668
  C  C63  1  0.010600  0.534400  0.810800  1.0  -0.1295
  C  C64  1  0.701600  0.472300  0.726800  1.0  -0.167
  C  C65  1  0.678300  0.417400  0.828600  1.0  -0.1177
  C  C66  1  0.663600  0.490400  0.902500  1.0  0.2148
  C  C67  1  0.665200  0.620800  0.874300  1.0  -0.1443
  C  C68  1  0.684100  0.675100  0.773700  1.0  -0.1144
  C  C69  1  0.703800  0.601900  0.699600  1.0  -0.027
  C  C70  1  0.687300  0.815100  0.747200  1.0  0.6681
  C  C71  1  0.732600  0.394100  0.646300  1.0  0.7757
  C  C72  1  0.666100  0.482200  0.081900  1.0  0.5096
  C  C73  1  0.652100  0.400300  0.183900  1.0  -0.0295
  C  C74  1  0.651400  0.269900  0.201800  1.0  -0.1885
  C  C75  1  0.646200  0.206300  0.299100  1.0  0.2022
  C  C76  1  0.639400  0.387000  0.360600  1.0  0.1836
  C  C77  1  0.644600  0.458200  0.265900  1.0  -0.1603
  C  C78  1  0.262500  0.114200  0.831900  1.0  -0.1205
  C  C79  1  0.158600  0.103900  0.783600  1.0  -0.0259
  C  C80  1  0.025900  0.120000  0.831700  1.0  -0.1471
  C  C81  1  0.999200  0.149600  0.927300  1.0  -0.1227
  C  C82  1  0.104200  0.162200  0.975800  1.0  0.1849
  C  C83  1  0.234600  0.141900  0.929800  1.0  -0.0896
  C  C84  1  0.407100  0.098100  0.785000  1.0  0.6628
  C  C85  1  0.908900  0.109400  0.782400  1.0  0.6565
  C  C86  1  0.994100  0.295000  0.092200  1.0  0.5083
  C  C87  1  0.990500  0.338300  0.190300  1.0  0.0104
  C  C88  1  0.983000  0.257400  0.281100  1.0  -0.1648
  C  C89  1  0.975400  0.306400  0.367300  1.0  0.1784
  C  C90  1  0.985000  0.506600  0.278600  1.0  0.1658
  C  C91  1  0.989400  0.465600  0.189200  1.0  -0.1319
  N  N92  1  0.353700  0.569200  0.996000  1.0  -0.4053
  N  N93  1  0.359300  0.738400  0.621800  1.0  -0.4285
  N  N94  1  0.921100  0.801800  0.927400  1.0  -0.3953
  N  N95  1  0.020700  0.570400  0.632100  1.0  -0.381
  N  N96  1  0.646300  0.430800  0.004000  1.0  -0.4051
  N  N97  1  0.640700  0.261600  0.378200  1.0  -0.4234
  N  N98  1  0.078900  0.198200  0.072600  1.0  -0.3946
  N  N99  1  0.979300  0.429600  0.367900  1.0  -0.3843
  O  O100  1  0.192900  0.564400  0.435100  1.0  -0.6006
  O  O101  1  0.320100  0.712600  0.335600  1.0  -0.7571
  O  O102  1  0.329300  0.129000  0.338800  1.0  -0.6957
  O  O103  1  0.293900  0.122800  0.189500  1.0  -0.6412
  O  O104  1  0.307900  0.408300  0.926000  1.0  -0.4658
  O  O105  1  0.559000  0.901100  0.309300  1.0  -0.6925
  O  O106  1  0.503700  0.916000  0.162500  1.0  -0.6461
  O  O107  1  0.073200  0.905200  0.309200  1.0  -0.7312
  O  O108  1  0.208200  0.885400  0.167400  1.0  -0.6348
  O  O109  1  0.075400  0.648700  0.966900  1.0  -0.4833
  O  O110  1  0.807100  0.435600  0.564900  1.0  -0.6029
  O  O111  1  0.679900  0.287400  0.664400  1.0  -0.7579
  O  O112  1  0.670700  0.871000  0.661200  1.0  -0.6931
  O  O113  1  0.706100  0.877200  0.810500  1.0  -0.6414
  O  O114  1  0.692100  0.591700  0.074000  1.0  -0.4662
  O  O115  1  0.441000  0.098900  0.690700  1.0  -0.6917
  O  O116  1  0.496300  0.084000  0.837500  1.0  -0.6473
  O  O117  1  0.926800  0.094800  0.690800  1.0  -0.7294
  O  O118  1  0.791800  0.114600  0.832600  1.0  -0.6331
  O  O119  1  0.924600  0.351300  0.033100  1.0  -0.4844
