# generated using pymatgen
data_BaTiC4O9
_symmetry_space_group_name_H-M   'P 1'
_cell_length_a   13.36700000
_cell_length_b   13.85200000
_cell_length_c   14.02300000
_cell_angle_alpha   90.00000000
_cell_angle_beta   91.61000000
_cell_angle_gamma   90.00000000
_symmetry_Int_Tables_number   1
_chemical_formula_structural   BaTiC4O9
_chemical_formula_sum   'Ba8 Ti8 C32 O72'
_cell_volume   2595.46922179
_cell_formula_units_Z   8
loop_
 _symmetry_equiv_pos_site_id
 _symmetry_equiv_pos_as_xyz
  1  'x, y, z'
loop_
 _atom_site_type_symbol
 _atom_site_label
 _atom_site_symmetry_multiplicity
 _atom_site_fract_x
 _atom_site_fract_y
 _atom_site_fract_z
 _atom_site_occupancy
 _atom_site_charge
  Ba  Ba1  1  0.033490  0.069760  0.236220  1.0  1.7534
  Ba  Ba2  1  0.965360  0.337800  0.044500  1.0  1.5997
  Ba  Ba3  1  0.466510  0.569760  0.263780  1.0  1.7518
  Ba  Ba4  1  0.534640  0.837800  0.455500  1.0  1.5998
  Ba  Ba5  1  0.966510  0.930240  0.763780  1.0  1.7533
  Ba  Ba6  1  0.034640  0.662200  0.955500  1.0  1.599
  Ba  Ba7  1  0.533490  0.430240  0.736220  1.0  1.7547
  Ba  Ba8  1  0.465360  0.162200  0.544500  1.0  1.5991
  Ti  Ti9  1  0.872700  0.377200  0.472300  1.0  2.1547
  Ti  Ti10  1  0.582000  0.111100  0.117100  1.0  2.1503
  Ti  Ti11  1  0.627300  0.877200  0.027700  1.0  2.1542
  Ti  Ti12  1  0.918000  0.611100  0.382900  1.0  2.1498
  Ti  Ti13  1  0.127300  0.622800  0.527700  1.0  2.1544
  Ti  Ti14  1  0.418000  0.888900  0.882900  1.0  2.1504
  Ti  Ti15  1  0.372700  0.122800  0.972300  1.0  2.1546
  Ti  Ti16  1  0.082000  0.388900  0.617100  1.0  2.1512
  C  C17  1  0.951800  0.320000  0.294600  1.0  0.5573
  C  C18  1  0.844800  0.350000  0.267700  1.0  0.5522
  C  C19  1  0.793400  0.152000  0.108000  1.0  0.5896
  C  C20  1  0.740000  0.209000  0.028500  1.0  0.5583
  C  C21  1  0.032800  0.424500  0.811200  1.0  0.5823
  C  C22  1  0.040000  0.317000  0.802700  1.0  0.5511
  C  C23  1  0.227000  0.273000  0.009400  1.0  0.5721
  C  C24  1  0.183200  0.176000  0.045800  1.0  0.5865
  C  C25  1  0.548200  0.820000  0.205400  1.0  0.5536
  C  C26  1  0.655200  0.850000  0.232300  1.0  0.5537
  C  C27  1  0.706600  0.652000  0.392000  1.0  0.5908
  C  C28  1  0.760000  0.709000  0.471500  1.0  0.557
  C  C29  1  0.467200  0.924500  0.688800  1.0  0.5833
  C  C30  1  0.460000  0.817000  0.697300  1.0  0.5519
  C  C31  1  0.273000  0.773000  0.490600  1.0  0.573
  C  C32  1  0.316800  0.676000  0.454200  1.0  0.587
  C  C33  1  0.048200  0.680000  0.705400  1.0  0.5536
  C  C34  1  0.155200  0.650000  0.732300  1.0  0.5538
  C  C35  1  0.206600  0.848000  0.892000  1.0  0.5895
  C  C36  1  0.260000  0.791000  0.971500  1.0  0.5565
  C  C37  1  0.967200  0.575500  0.188800  1.0  0.5831
  C  C38  1  0.960000  0.683000  0.197300  1.0  0.55
  C  C39  1  0.773000  0.727000  0.990600  1.0  0.5742
  C  C40  1  0.816800  0.824000  0.954200  1.0  0.587
  C  C41  1  0.451800  0.180000  0.794600  1.0  0.5565
  C  C42  1  0.344800  0.150000  0.767700  1.0  0.5524
  C  C43  1  0.293400  0.348000  0.608000  1.0  0.5903
  C  C44  1  0.240000  0.291000  0.528500  1.0  0.5572
  C  C45  1  0.532800  0.075500  0.311200  1.0  0.583
  C  C46  1  0.540000  0.183000  0.302700  1.0  0.5498
  C  C47  1  0.727000  0.227000  0.509400  1.0  0.5736
  C  C48  1  0.683200  0.324000  0.545800  1.0  0.5853
  O  O49  1  0.456600  0.139100  0.073800  1.0  -1.0426
  O  O50  1  0.893900  0.504400  0.451800  1.0  -1.0333
  O  O51  1  0.794200  0.373000  0.339900  1.0  -0.6281
  O  O52  1  0.974500  0.325500  0.384200  1.0  -0.6151
  O  O53  1  0.815300  0.350700  0.183700  1.0  -0.5916
  O  O54  1  0.009900  0.288700  0.235500  1.0  -0.6765
  O  O55  1  0.885400  0.152100  0.114100  1.0  -0.6964
  O  O56  1  0.643200  0.204300  0.029900  1.0  -0.6136
  O  O57  1  0.787800  0.257600  0.971300  1.0  -0.6056
  O  O58  1  0.733000  0.109300  0.162800  1.0  -0.6376
  O  O59  1  0.012700  0.466400  0.886700  1.0  -0.6483
  O  O60  1  0.051100  0.469800  0.733300  1.0  -0.6095
  O  O61  1  0.015700  0.262600  0.869900  1.0  -0.628
  O  O62  1  0.068500  0.285800  0.723100  1.0  -0.6217
  O  O63  1  0.314600  0.265700  0.979900  1.0  -0.642
  O  O64  1  0.175800  0.346000  0.016500  1.0  -0.6038
  O  O65  1  0.241500  0.102500  0.034300  1.0  -0.6515
  O  O66  1  0.099100  0.172600  0.077900  1.0  -0.6616
  O  O67  1  0.043400  0.639100  0.426200  1.0  -1.0416
  O  O68  1  0.606100  0.004400  0.048200  1.0  -1.0354
  O  O69  1  0.705800  0.873000  0.160100  1.0  -0.6267
  O  O70  1  0.525500  0.825500  0.115800  1.0  -0.6134
  O  O71  1  0.684700  0.850700  0.316300  1.0  -0.5907
  O  O72  1  0.490100  0.788700  0.264500  1.0  -0.6745
  O  O73  1  0.614600  0.652100  0.385900  1.0  -0.6945
  O  O74  1  0.856800  0.704300  0.470100  1.0  -0.6154
  O  O75  1  0.712200  0.757600  0.528700  1.0  -0.6052
  O  O76  1  0.767000  0.609300  0.337200  1.0  -0.6362
  O  O77  1  0.487300  0.966400  0.613300  1.0  -0.6478
  O  O78  1  0.448900  0.969800  0.766700  1.0  -0.6137
  O  O79  1  0.484300  0.762600  0.630100  1.0  -0.6291
  O  O80  1  0.431500  0.785800  0.776900  1.0  -0.6193
  O  O81  1  0.185400  0.765700  0.520100  1.0  -0.6409
  O  O82  1  0.324200  0.846000  0.483500  1.0  -0.6043
  O  O83  1  0.258500  0.602500  0.465700  1.0  -0.6486
  O  O84  1  0.400900  0.672600  0.422100  1.0  -0.6619
  O  O85  1  0.543400  0.860900  0.926200  1.0  -1.043
  O  O86  1  0.106100  0.495600  0.548200  1.0  -1.0362
  O  O87  1  0.205800  0.627000  0.660100  1.0  -0.6273
  O  O88  1  0.025500  0.674500  0.615800  1.0  -0.6113
  O  O89  1  0.184700  0.649300  0.816300  1.0  -0.5897
  O  O90  1  0.990100  0.711300  0.764500  1.0  -0.676
  O  O91  1  0.114600  0.847900  0.885900  1.0  -0.6966
  O  O92  1  0.356800  0.795700  0.970100  1.0  -0.6138
  O  O93  1  0.212200  0.742400  0.028700  1.0  -0.6047
  O  O94  1  0.267000  0.890700  0.837200  1.0  -0.6359
  O  O95  1  0.987300  0.533600  0.113300  1.0  -0.6477
  O  O96  1  0.948900  0.530200  0.266700  1.0  -0.6139
  O  O97  1  0.984300  0.737400  0.130100  1.0  -0.6293
  O  O98  1  0.931500  0.714200  0.276900  1.0  -0.6196
  O  O99  1  0.685400  0.734300  0.020100  1.0  -0.6419
  O  O100  1  0.824200  0.654000  0.983500  1.0  -0.6051
  O  O101  1  0.758500  0.897500  0.965700  1.0  -0.6519
  O  O102  1  0.900900  0.827400  0.922100  1.0  -0.6618
  O  O103  1  0.956600  0.360900  0.573800  1.0  -1.0433
  O  O104  1  0.393900  0.995600  0.951800  1.0  -1.0339
  O  O105  1  0.294200  0.127000  0.839900  1.0  -0.6283
  O  O106  1  0.474500  0.174500  0.884200  1.0  -0.6129
  O  O107  1  0.315300  0.149300  0.683700  1.0  -0.5913
  O  O108  1  0.509900  0.211300  0.735500  1.0  -0.6762
  O  O109  1  0.385400  0.347900  0.614100  1.0  -0.6971
  O  O110  1  0.143200  0.295700  0.529900  1.0  -0.6138
  O  O111  1  0.287800  0.242400  0.471300  1.0  -0.6056
  O  O112  1  0.233000  0.390700  0.662800  1.0  -0.6391
  O  O113  1  0.512700  0.033600  0.386700  1.0  -0.6483
  O  O114  1  0.551100  0.030200  0.233300  1.0  -0.6119
  O  O115  1  0.515700  0.237400  0.369900  1.0  -0.6295
  O  O116  1  0.568500  0.214200  0.223100  1.0  -0.623
  O  O117  1  0.814600  0.234300  0.479900  1.0  -0.6416
  O  O118  1  0.675800  0.154000  0.516500  1.0  -0.6047
  O  O119  1  0.741500  0.397500  0.534300  1.0  -0.6516
  O  O120  1  0.599100  0.327400  0.577900  1.0  -0.6623
