# generated using pymatgen
data_Cu2P3H17C19N2O9
_symmetry_space_group_name_H-M   'P 1'
_cell_length_a   7.91720000
_cell_length_b   20.38540000
_cell_length_c   17.77680000
_cell_angle_alpha   90.00000000
_cell_angle_beta   90.00000000
_cell_angle_gamma   90.00000000
_symmetry_Int_Tables_number   1
_chemical_formula_structural   Cu2P3H17C19N2O9
_chemical_formula_sum   'Cu8 P12 H68 C76 N8 O36'
_cell_volume   2869.09177136
_cell_formula_units_Z   4
loop_
 _symmetry_equiv_pos_site_id
 _symmetry_equiv_pos_as_xyz
  1  'x, y, z'
loop_
 _atom_site_type_symbol
 _atom_site_label
 _atom_site_symmetry_multiplicity
 _atom_site_fract_x
 _atom_site_fract_y
 _atom_site_fract_z
 _atom_site_occupancy
 _atom_site_charge
  Cu  Cu1  1  0.330310  0.951390  0.893780  1.0  1.0116
  Cu  Cu2  1  0.669690  0.048610  0.893780  1.0  1.0124
  Cu  Cu3  1  0.830310  0.548610  0.106220  1.0  1.0113
  Cu  Cu4  1  0.169690  0.451390  0.106220  1.0  1.0131
  Cu  Cu5  1  0.669690  0.048610  0.106220  1.0  1.0127
  Cu  Cu6  1  0.330310  0.951390  0.106220  1.0  1.0115
  Cu  Cu7  1  0.169690  0.451390  0.893780  1.0  1.0125
  Cu  Cu8  1  0.830310  0.548610  0.893780  1.0  1.0115
  P  P9  1  0.271120  0.800650  0.844860  1.0  1.422
  P  P10  1  0.728880  0.199350  0.844860  1.0  1.4223
  P  P11  1  0.771120  0.699350  0.155140  1.0  1.4231
  P  P12  1  0.228880  0.300650  0.155140  1.0  1.4229
  P  P13  1  0.728880  0.199350  0.155140  1.0  1.4232
  P  P14  1  0.271120  0.800650  0.155140  1.0  1.4228
  P  P15  1  0.228880  0.300650  0.844860  1.0  1.4221
  P  P16  1  0.771120  0.699350  0.844860  1.0  1.4222
  P  P17  1  0.119700  0.571550  0.000000  1.0  1.5208
  P  P18  1  0.880300  0.428450  0.000000  1.0  1.5207
  P  P19  1  0.619700  0.928450  0.000000  1.0  1.5208
  P  P20  1  0.380300  0.071550  0.000000  1.0  1.5209
  H  H21  1  0.029100  0.789700  0.812400  1.0  0.4297
  H  H22  1  0.196100  0.665800  0.885600  1.0  0.1046
  H  H23  1  0.261700  0.933300  0.612500  1.0  0.1365
  H  H24  1  0.075900  0.100100  0.703800  1.0  0.1371
  H  H25  1  0.107900  0.092000  0.567300  1.0  0.1365
  H  H26  1  0.966100  0.039700  0.569700  1.0  0.1097
  H  H27  1  0.304500  0.897000  0.731000  1.0  0.088
  H  H28  1  0.201000  0.068000  0.818000  1.0  0.1019
  H  H29  1  0.970900  0.210300  0.812400  1.0  0.4298
  H  H30  1  0.803900  0.334200  0.885600  1.0  0.1043
  H  H31  1  0.738300  0.066700  0.612500  1.0  0.1359
  H  H32  1  0.924100  0.899900  0.703800  1.0  0.1366
  H  H33  1  0.892100  0.908000  0.567300  1.0  0.1379
  H  H34  1  0.033900  0.960300  0.569700  1.0  0.1087
  H  H35  1  0.695500  0.103000  0.731000  1.0  0.0892
  H  H36  1  0.799000  0.932000  0.818000  1.0  0.1013
  H  H37  1  0.529100  0.710300  0.187600  1.0  0.4289
  H  H38  1  0.696100  0.834200  0.114400  1.0  0.1043
  H  H39  1  0.761700  0.566700  0.387500  1.0  0.136
  H  H40  1  0.575900  0.399900  0.296200  1.0  0.1359
  H  H41  1  0.607900  0.408000  0.432700  1.0  0.1385
  H  H42  1  0.466100  0.460300  0.430300  1.0  0.1091
  H  H43  1  0.804500  0.603000  0.269000  1.0  0.0887
  H  H44  1  0.701000  0.432000  0.182000  1.0  0.1015
  H  H45  1  0.470900  0.289700  0.187600  1.0  0.429
  H  H46  1  0.303900  0.165800  0.114400  1.0  0.1047
  H  H47  1  0.238300  0.433300  0.387500  1.0  0.1374
  H  H48  1  0.424100  0.600100  0.296200  1.0  0.1372
  H  H49  1  0.392100  0.592000  0.432700  1.0  0.1373
  H  H50  1  0.533900  0.539700  0.430300  1.0  0.1086
  H  H51  1  0.195500  0.397000  0.269000  1.0  0.0878
  H  H52  1  0.299000  0.568000  0.182000  1.0  0.1014
  H  H53  1  0.970900  0.210300  0.187600  1.0  0.429
  H  H54  1  0.803900  0.334200  0.114400  1.0  0.1041
  H  H55  1  0.738300  0.066700  0.387500  1.0  0.136
  H  H56  1  0.924100  0.899900  0.296200  1.0  0.1363
  H  H57  1  0.892100  0.908000  0.432700  1.0  0.138
  H  H58  1  0.033900  0.960300  0.430300  1.0  0.109
  H  H59  1  0.695500  0.103000  0.269000  1.0  0.0889
  H  H60  1  0.799000  0.932000  0.182000  1.0  0.1009
  H  H61  1  0.029100  0.789700  0.187600  1.0  0.4292
  H  H62  1  0.196100  0.665800  0.114400  1.0  0.1049
  H  H63  1  0.261700  0.933300  0.387500  1.0  0.1373
  H  H64  1  0.075900  0.100100  0.296200  1.0  0.1372
  H  H65  1  0.107900  0.092000  0.432700  1.0  0.1366
  H  H66  1  0.966100  0.039700  0.430300  1.0  0.11
  H  H67  1  0.304500  0.897000  0.269000  1.0  0.0879
  H  H68  1  0.201000  0.068000  0.182000  1.0  0.1019
  H  H69  1  0.470900  0.289700  0.812400  1.0  0.4296
  H  H70  1  0.303900  0.165800  0.885600  1.0  0.1044
  H  H71  1  0.238300  0.433300  0.612500  1.0  0.1366
  H  H72  1  0.424100  0.600100  0.703800  1.0  0.1371
  H  H73  1  0.392100  0.592000  0.567300  1.0  0.1373
  H  H74  1  0.533900  0.539700  0.569700  1.0  0.1084
  H  H75  1  0.195500  0.397000  0.731000  1.0  0.0879
  H  H76  1  0.299000  0.568000  0.818000  1.0  0.1016
  H  H77  1  0.529100  0.710300  0.812400  1.0  0.4295
  H  H78  1  0.696100  0.834200  0.885600  1.0  0.1046
  H  H79  1  0.761700  0.566700  0.612500  1.0  0.1356
  H  H80  1  0.575900  0.399900  0.703800  1.0  0.1362
  H  H81  1  0.607900  0.408000  0.567300  1.0  0.1385
  H  H82  1  0.466100  0.460300  0.569700  1.0  0.1087
  H  H83  1  0.804500  0.603000  0.731000  1.0  0.089
  H  H84  1  0.701000  0.432000  0.818000  1.0  0.1017
  H  H85  1  0.309000  0.826000  0.000000  1.0  0.0581
  H  H86  1  0.691000  0.174000  0.000000  1.0  0.0586
  H  H87  1  0.809000  0.674000  0.000000  1.0  0.0575
  H  H88  1  0.191000  0.326000  0.000000  1.0  0.059
  C  C89  1  0.248400  0.755900  0.931900  1.0  -0.3954
  C  C90  1  0.208300  0.689000  0.932300  1.0  0.1084
  C  C91  1  0.235000  0.960900  0.654600  1.0  -0.2179
  C  C92  1  0.156600  0.020300  0.644100  1.0  0.1602
  C  C93  1  0.140000  0.060200  0.706700  1.0  -0.2265
  C  C94  1  0.086000  0.045700  0.570200  1.0  -0.2131
  C  C95  1  0.283000  0.942700  0.722600  1.0  0.1876
  C  C96  1  0.220500  0.042600  0.776000  1.0  0.2099
  C  C97  1  0.751600  0.244100  0.931900  1.0  -0.3952
  C  C98  1  0.791700  0.311000  0.932300  1.0  0.1078
  C  C99  1  0.765000  0.039100  0.654600  1.0  -0.2232
  C  C100  1  0.843400  0.979700  0.644100  1.0  0.1579
  C  C101  1  0.860000  0.939800  0.706700  1.0  -0.2261
  C  C102  1  0.914000  0.954300  0.570200  1.0  -0.2107
  C  C103  1  0.717000  0.057300  0.722600  1.0  0.1854
  C  C104  1  0.779500  0.957400  0.776000  1.0  0.2109
  C  C105  1  0.748400  0.744100  0.068100  1.0  -0.3949
  C  C106  1  0.708300  0.811000  0.067700  1.0  0.1081
  C  C107  1  0.735000  0.539100  0.345400  1.0  -0.2183
  C  C108  1  0.656600  0.479700  0.355900  1.0  0.1597
  C  C109  1  0.640000  0.439800  0.293300  1.0  -0.2265
  C  C110  1  0.586000  0.454300  0.429800  1.0  -0.2125
  C  C111  1  0.783000  0.557300  0.277400  1.0  0.1863
  C  C112  1  0.720500  0.457400  0.224000  1.0  0.2087
  C  C113  1  0.251600  0.255900  0.068100  1.0  -0.3955
  C  C114  1  0.291700  0.189000  0.067700  1.0  0.107
  C  C115  1  0.265000  0.460900  0.345400  1.0  -0.2233
  C  C116  1  0.343400  0.520300  0.355900  1.0  0.1586
  C  C117  1  0.360000  0.560200  0.293300  1.0  -0.2241
  C  C118  1  0.414000  0.545700  0.429800  1.0  -0.2107
  C  C119  1  0.217000  0.442700  0.277400  1.0  0.1868
  C  C120  1  0.279500  0.542600  0.224000  1.0  0.2091
  C  C121  1  0.751600  0.244100  0.068100  1.0  -0.395
  C  C122  1  0.791700  0.311000  0.067700  1.0  0.1077
  C  C123  1  0.765000  0.039100  0.345400  1.0  -0.2204
  C  C124  1  0.843400  0.979700  0.355900  1.0  0.1565
  C  C125  1  0.860000  0.939800  0.293300  1.0  -0.2261
  C  C126  1  0.914000  0.954300  0.429800  1.0  -0.2101
  C  C127  1  0.717000  0.057300  0.277400  1.0  0.1857
  C  C128  1  0.779500  0.957400  0.224000  1.0  0.2089
  C  C129  1  0.248400  0.755900  0.068100  1.0  -0.3955
  C  C130  1  0.208300  0.689000  0.067700  1.0  0.1082
  C  C131  1  0.235000  0.960900  0.345400  1.0  -0.2213
  C  C132  1  0.156600  0.020300  0.355900  1.0  0.1602
  C  C133  1  0.140000  0.060200  0.293300  1.0  -0.2266
  C  C134  1  0.086000  0.045700  0.429800  1.0  -0.2127
  C  C135  1  0.283000  0.942700  0.277400  1.0  0.188
  C  C136  1  0.220500  0.042600  0.224000  1.0  0.2087
  C  C137  1  0.251600  0.255900  0.931900  1.0  -0.3955
  C  C138  1  0.291700  0.189000  0.932300  1.0  0.1077
  C  C139  1  0.265000  0.460900  0.654600  1.0  -0.22
  C  C140  1  0.343400  0.520300  0.644100  1.0  0.1586
  C  C141  1  0.360000  0.560200  0.706700  1.0  -0.2241
  C  C142  1  0.414000  0.545700  0.570200  1.0  -0.2111
  C  C143  1  0.217000  0.442700  0.722600  1.0  0.1865
  C  C144  1  0.279500  0.542600  0.776000  1.0  0.2106
  C  C145  1  0.748400  0.744100  0.931900  1.0  -0.3951
  C  C146  1  0.708300  0.811000  0.932300  1.0  0.1089
  C  C147  1  0.735000  0.539100  0.654600  1.0  -0.2214
  C  C148  1  0.656600  0.479700  0.644100  1.0  0.1605
  C  C149  1  0.640000  0.439800  0.706700  1.0  -0.2268
  C  C150  1  0.586000  0.454300  0.570200  1.0  -0.2128
  C  C151  1  0.783000  0.557300  0.722600  1.0  0.1859
  C  C152  1  0.720500  0.457400  0.776000  1.0  0.2102
  C  C153  1  0.268000  0.788500  0.000000  1.0  0.1699
  C  C154  1  0.186700  0.656100  0.000000  1.0  -0.3447
  C  C155  1  0.732000  0.211500  0.000000  1.0  0.1713
  C  C156  1  0.813300  0.343900  0.000000  1.0  -0.3463
  C  C157  1  0.768000  0.711500  0.000000  1.0  0.1723
  C  C158  1  0.686700  0.843900  0.000000  1.0  -0.3461
  C  C159  1  0.232000  0.288500  0.000000  1.0  0.1686
  C  C160  1  0.313300  0.156100  0.000000  1.0  -0.3454
  C  C161  1  0.161000  0.012100  0.500000  1.0  -0.0736
  C  C162  1  0.839000  0.987900  0.500000  1.0  -0.0745
  C  C163  1  0.661000  0.487900  0.500000  1.0  -0.0742
  C  C164  1  0.339000  0.512100  0.500000  1.0  -0.0743
  N  N165  1  0.289600  0.983000  0.787500  1.0  -0.394
  N  N166  1  0.710400  0.017000  0.787500  1.0  -0.3952
  N  N167  1  0.789600  0.517000  0.212500  1.0  -0.3949
  N  N168  1  0.210400  0.483000  0.212500  1.0  -0.3952
  N  N169  1  0.710400  0.017000  0.212500  1.0  -0.3947
  N  N170  1  0.289600  0.983000  0.212500  1.0  -0.3953
  N  N171  1  0.210400  0.483000  0.787500  1.0  -0.3944
  N  N172  1  0.789600  0.517000  0.787500  1.0  -0.3946
  O  O173  1  0.369200  0.862860  0.860970  1.0  -0.8007
  O  O174  1  0.088400  0.822900  0.821650  1.0  -0.7174
  O  O175  1  0.349500  0.756350  0.786600  1.0  -0.7798
  O  O176  1  0.183000  0.541290  0.072300  1.0  -0.8455
  O  O177  1  0.630800  0.137140  0.860970  1.0  -0.8008
  O  O178  1  0.911600  0.177100  0.821650  1.0  -0.7171
  O  O179  1  0.650500  0.243650  0.786600  1.0  -0.7789
  O  O180  1  0.817000  0.458710  0.072300  1.0  -0.8459
  O  O181  1  0.869200  0.637140  0.139030  1.0  -0.8008
  O  O182  1  0.588400  0.677100  0.178350  1.0  -0.7171
  O  O183  1  0.849500  0.743650  0.213400  1.0  -0.7784
  O  O184  1  0.683000  0.958710  0.927700  1.0  -0.8452
  O  O185  1  0.130800  0.362860  0.139030  1.0  -0.7998
  O  O186  1  0.411600  0.322900  0.178350  1.0  -0.7166
  O  O187  1  0.150500  0.256350  0.213400  1.0  -0.7785
  O  O188  1  0.317000  0.041290  0.927700  1.0  -0.846
  O  O189  1  0.630800  0.137140  0.139030  1.0  -0.8005
  O  O190  1  0.911600  0.177100  0.178350  1.0  -0.7171
  O  O191  1  0.650500  0.243650  0.213400  1.0  -0.7786
  O  O192  1  0.817000  0.458710  0.927700  1.0  -0.8458
  O  O193  1  0.369200  0.862860  0.139030  1.0  -0.8001
  O  O194  1  0.088400  0.822900  0.178350  1.0  -0.716
  O  O195  1  0.349500  0.756350  0.213400  1.0  -0.7784
  O  O196  1  0.183000  0.541290  0.927700  1.0  -0.8455
  O  O197  1  0.130800  0.362860  0.860970  1.0  -0.8008
  O  O198  1  0.411600  0.322900  0.821650  1.0  -0.7176
  O  O199  1  0.150500  0.256350  0.786600  1.0  -0.78
  O  O200  1  0.317000  0.041290  0.072300  1.0  -0.846
  O  O201  1  0.869200  0.637140  0.860970  1.0  -0.801
  O  O202  1  0.588400  0.677100  0.821650  1.0  -0.7169
  O  O203  1  0.849500  0.743650  0.786600  1.0  -0.7796
  O  O204  1  0.683000  0.958710  0.072300  1.0  -0.8452
  O  O205  1  0.924400  0.570070  0.000000  1.0  -0.831
  O  O206  1  0.075600  0.429930  0.000000  1.0  -0.8318
  O  O207  1  0.424400  0.929930  0.000000  1.0  -0.8308
  O  O208  1  0.575600  0.070070  0.000000  1.0  -0.8314
