# generated using pymatgen
data_CuPHC2O3
_symmetry_space_group_name_H-M   'P 1'
_cell_length_a   10.02200000
_cell_length_b   10.18200000
_cell_length_c   10.61900000
_cell_angle_alpha   72.98300000
_cell_angle_beta   62.18200000
_cell_angle_gamma   63.99700000
_symmetry_Int_Tables_number   1
_chemical_formula_structural   CuPHC2O3
_chemical_formula_sum   'Cu6 P6 H6 C12 O18'
_cell_volume   856.06032460
_cell_formula_units_Z   6
loop_
 _symmetry_equiv_pos_site_id
 _symmetry_equiv_pos_as_xyz
  1  'x, y, z'
loop_
 _atom_site_type_symbol
 _atom_site_label
 _atom_site_symmetry_multiplicity
 _atom_site_fract_x
 _atom_site_fract_y
 _atom_site_fract_z
 _atom_site_occupancy
 _atom_site_charge
  Cu  Cu1  1  0.228770  0.499470  0.537420  1.0  1.0004
  Cu  Cu2  1  0.429250  0.182110  0.801040  1.0  0.7225
  Cu  Cu3  1  0.248640  0.143130  0.186300  1.0  0.7236
  Cu  Cu4  1  0.771230  0.500530  0.462580  1.0  1.0
  Cu  Cu5  1  0.570750  0.817890  0.198960  1.0  0.7226
  Cu  Cu6  1  0.751360  0.856870  0.813700  1.0  0.726
  P  P7  1  0.854540  0.542520  0.715950  1.0  1.548
  P  P8  1  0.592720  0.109210  0.007470  1.0  1.5002
  P  P9  1  0.579440  0.485510  0.304510  1.0  1.5124
  P  P10  1  0.145460  0.457480  0.284050  1.0  1.5478
  P  P11  1  0.407280  0.890790  0.992530  1.0  1.5014
  P  P12  1  0.420560  0.514490  0.695490  1.0  1.5094
  H  H13  1  0.731000  0.312000  0.793000  1.0  0.1353
  H  H14  1  0.547000  0.251000  0.217000  1.0  0.1386
  H  H15  1  0.759000  0.542000  0.018000  1.0  0.28
  H  H16  1  0.269000  0.688000  0.207000  1.0  0.1347
  H  H17  1  0.453000  0.749000  0.783000  1.0  0.1387
  H  H18  1  0.241000  0.458000  0.982000  1.0  0.2817
  C  C19  1  0.762500  0.444000  0.882300  1.0  -0.1708
  C  C20  1  0.722400  0.328100  0.882300  1.0  -0.0333
  C  C21  1  0.644200  0.255300  0.011400  1.0  -0.2113
  C  C22  1  0.602300  0.300000  0.140800  1.0  0.1065
  C  C23  1  0.643500  0.413100  0.141800  1.0  -0.1885
  C  C24  1  0.725900  0.481400  0.012300  1.0  0.1024
  C  C25  1  0.237500  0.556000  0.117700  1.0  -0.1712
  C  C26  1  0.277600  0.671900  0.117700  1.0  -0.0332
  C  C27  1  0.355800  0.744700  0.988600  1.0  -0.2124
  C  C28  1  0.397700  0.700000  0.859200  1.0  0.1071
  C  C29  1  0.356500  0.586900  0.858200  1.0  -0.1909
  C  C30  1  0.274100  0.518600  0.987700  1.0  0.1032
  O  O31  1  0.459000  0.417300  0.424100  1.0  -0.7597
  O  O32  1  0.833900  0.501800  0.603300  1.0  -0.8469
  O  O33  1  0.031600  0.489300  0.693800  1.0  -0.8039
  O  O34  1  0.733300  0.439700  0.329300  1.0  -0.7467
  O  O35  1  0.427300  0.173500  0.994700  1.0  -0.8533
  O  O36  1  0.721100  0.034700  0.873500  1.0  -0.7453
  O  O37  1  0.768800  0.706400  0.730600  1.0  -0.8297
  O  O38  1  0.499500  0.652800  0.281400  1.0  -0.7982
  O  O39  1  0.577500  0.013800  0.150300  1.0  -0.7816
  O  O40  1  0.541000  0.582700  0.575900  1.0  -0.7588
  O  O41  1  0.166100  0.498200  0.396700  1.0  -0.8446
  O  O42  1  0.968400  0.510700  0.306200  1.0  -0.8058
  O  O43  1  0.266700  0.560300  0.670700  1.0  -0.7455
  O  O44  1  0.572700  0.826500  0.005300  1.0  -0.8539
  O  O45  1  0.278900  0.965300  0.126500  1.0  -0.7445
  O  O46  1  0.231200  0.293600  0.269400  1.0  -0.8311
  O  O47  1  0.500500  0.347200  0.718600  1.0  -0.7977
  O  O48  1  0.422500  0.986200  0.849700  1.0  -0.7835
