# generated using pymatgen
data_Zn4H12C24O13
_symmetry_space_group_name_H-M   'P 1'
_cell_length_a   25.88210000
_cell_length_b   25.88210000
_cell_length_c   25.88210000
_cell_angle_alpha   90.00000000
_cell_angle_beta   90.00000000
_cell_angle_gamma   90.00000000
_symmetry_Int_Tables_number   1
_chemical_formula_structural   Zn4H12C24O13
_chemical_formula_sum   'Zn32 H96 C192 O104'
_cell_volume   17337.98139312
_cell_formula_units_Z   8
loop_
 _symmetry_equiv_pos_site_id
 _symmetry_equiv_pos_as_xyz
  1  'x, y, z'
loop_
 _atom_site_type_symbol
 _atom_site_label
 _atom_site_symmetry_multiplicity
 _atom_site_fract_x
 _atom_site_fract_y
 _atom_site_fract_z
 _atom_site_occupancy
 _atom_site_charge
  Zn  Zn1  1  0.293400  0.293400  0.206600  1.0  1.1346
  Zn  Zn2  1  0.706600  0.706600  0.206600  1.0  1.1354
  Zn  Zn3  1  0.206600  0.206600  0.206600  1.0  1.1354
  Zn  Zn4  1  0.706600  0.293400  0.793400  1.0  1.1365
  Zn  Zn5  1  0.206600  0.293400  0.293400  1.0  1.1365
  Zn  Zn6  1  0.293400  0.706600  0.793400  1.0  1.1362
  Zn  Zn7  1  0.293400  0.206600  0.293400  1.0  1.1362
  Zn  Zn8  1  0.206600  0.793400  0.793400  1.0  1.1365
  Zn  Zn9  1  0.206600  0.706600  0.706600  1.0  1.1354
  Zn  Zn10  1  0.793400  0.706600  0.293400  1.0  1.1362
  Zn  Zn11  1  0.793400  0.206600  0.793400  1.0  1.1362
  Zn  Zn12  1  0.793400  0.293400  0.706600  1.0  1.1346
  Zn  Zn13  1  0.793400  0.793400  0.206600  1.0  1.1346
  Zn  Zn14  1  0.706600  0.206600  0.706600  1.0  1.1354
  Zn  Zn15  1  0.293400  0.793400  0.706600  1.0  1.1346
  Zn  Zn16  1  0.706600  0.793400  0.293400  1.0  1.1365
  Zn  Zn17  1  0.293400  0.293400  0.793400  1.0  1.1358
  Zn  Zn18  1  0.706600  0.706600  0.793400  1.0  1.1364
  Zn  Zn19  1  0.706600  0.206600  0.293400  1.0  1.1364
  Zn  Zn20  1  0.206600  0.706600  0.293400  1.0  1.1364
  Zn  Zn21  1  0.293400  0.706600  0.206600  1.0  1.1351
  Zn  Zn22  1  0.706600  0.293400  0.206600  1.0  1.1353
  Zn  Zn23  1  0.206600  0.793400  0.206600  1.0  1.1353
  Zn  Zn24  1  0.293400  0.206600  0.706600  1.0  1.1351
  Zn  Zn25  1  0.206600  0.206600  0.793400  1.0  1.1364
  Zn  Zn26  1  0.706600  0.793400  0.706600  1.0  1.1353
  Zn  Zn27  1  0.206600  0.293400  0.706600  1.0  1.1353
  Zn  Zn28  1  0.293400  0.793400  0.293400  1.0  1.1358
  Zn  Zn29  1  0.793400  0.293400  0.293400  1.0  1.1358
  Zn  Zn30  1  0.793400  0.793400  0.793400  1.0  1.1358
  Zn  Zn31  1  0.793400  0.706600  0.706600  1.0  1.1351
  Zn  Zn32  1  0.793400  0.206600  0.206600  1.0  1.1351
  H  H33  1  0.307700  0.452200  0.192300  1.0  0.1143
  H  H34  1  0.307700  0.952200  0.692300  1.0  0.1143
  H  H35  1  0.692300  0.547800  0.192300  1.0  0.1143
  H  H36  1  0.692300  0.047800  0.692300  1.0  0.1143
  H  H37  1  0.192300  0.047800  0.192300  1.0  0.1143
  H  H38  1  0.692300  0.452200  0.807700  1.0  0.1149
  H  H39  1  0.692300  0.952200  0.307700  1.0  0.1149
  H  H40  1  0.192300  0.452200  0.307700  1.0  0.1149
  H  H41  1  0.307700  0.547800  0.807700  1.0  0.1138
  H  H42  1  0.307700  0.047800  0.307700  1.0  0.1138
  H  H43  1  0.192300  0.307700  0.452200  1.0  0.1153
  H  H44  1  0.192300  0.807700  0.952200  1.0  0.1153
  H  H45  1  0.192300  0.692300  0.547800  1.0  0.1152
  H  H46  1  0.192300  0.192300  0.047800  1.0  0.1152
  H  H47  1  0.807700  0.692300  0.452200  1.0  0.1154
  H  H48  1  0.807700  0.192300  0.952200  1.0  0.1154
  H  H49  1  0.307700  0.192300  0.452200  1.0  0.1154
  H  H50  1  0.807700  0.307700  0.547800  1.0  0.1146
  H  H51  1  0.807700  0.807700  0.047800  1.0  0.1146
  H  H52  1  0.307700  0.307700  0.047800  1.0  0.1146
  H  H53  1  0.452200  0.192300  0.307700  1.0  0.1162
  H  H54  1  0.952200  0.192300  0.807700  1.0  0.1162
  H  H55  1  0.547800  0.192300  0.692300  1.0  0.1159
  H  H56  1  0.047800  0.192300  0.192300  1.0  0.1159
  H  H57  1  0.452200  0.807700  0.692300  1.0  0.1165
  H  H58  1  0.452200  0.307700  0.192300  1.0  0.1165
  H  H59  1  0.952200  0.807700  0.192300  1.0  0.1165
  H  H60  1  0.547800  0.807700  0.307700  1.0  0.1159
  H  H61  1  0.047800  0.807700  0.807700  1.0  0.1159
  H  H62  1  0.047800  0.307700  0.307700  1.0  0.1159
  H  H63  1  0.452200  0.307700  0.807700  1.0  0.1162
  H  H64  1  0.952200  0.307700  0.307700  1.0  0.1162
  H  H65  1  0.547800  0.692300  0.807700  1.0  0.116
  H  H66  1  0.547800  0.192300  0.307700  1.0  0.116
  H  H67  1  0.047800  0.692300  0.307700  1.0  0.116
  H  H68  1  0.452200  0.692300  0.192300  1.0  0.1163
  H  H69  1  0.952200  0.692300  0.692300  1.0  0.1163
  H  H70  1  0.952200  0.192300  0.192300  1.0  0.1163
  H  H71  1  0.547800  0.307700  0.192300  1.0  0.1159
  H  H72  1  0.047800  0.307700  0.692300  1.0  0.1159
  H  H73  1  0.307700  0.192300  0.547800  1.0  0.1146
  H  H74  1  0.307700  0.692300  0.047800  1.0  0.1146
  H  H75  1  0.692300  0.192300  0.452200  1.0  0.1157
  H  H76  1  0.692300  0.692300  0.952200  1.0  0.1157
  H  H77  1  0.192300  0.192300  0.952200  1.0  0.1157
  H  H78  1  0.692300  0.807700  0.547800  1.0  0.1147
  H  H79  1  0.692300  0.307700  0.047800  1.0  0.1147
  H  H80  1  0.192300  0.307700  0.547800  1.0  0.1147
  H  H81  1  0.307700  0.807700  0.452200  1.0  0.1153
  H  H82  1  0.307700  0.307700  0.952200  1.0  0.1153
  H  H83  1  0.192300  0.452200  0.692300  1.0  0.1146
  H  H84  1  0.192300  0.952200  0.192300  1.0  0.1146
  H  H85  1  0.192300  0.547800  0.307700  1.0  0.1141
  H  H86  1  0.192300  0.047800  0.807700  1.0  0.1141
  H  H87  1  0.807700  0.452200  0.307700  1.0  0.1144
  H  H88  1  0.807700  0.952200  0.807700  1.0  0.1144
  H  H89  1  0.307700  0.952200  0.307700  1.0  0.1144
  H  H90  1  0.807700  0.547800  0.692300  1.0  0.1142
  H  H91  1  0.807700  0.047800  0.192300  1.0  0.1142
  H  H92  1  0.307700  0.547800  0.192300  1.0  0.1142
  H  H93  1  0.692300  0.547800  0.807700  1.0  0.1141
  H  H94  1  0.692300  0.047800  0.307700  1.0  0.1141
  H  H95  1  0.307700  0.452200  0.807700  1.0  0.1144
  H  H96  1  0.307700  0.047800  0.692300  1.0  0.1142
  H  H97  1  0.692300  0.452200  0.192300  1.0  0.1146
  H  H98  1  0.692300  0.952200  0.692300  1.0  0.1146
  H  H99  1  0.807700  0.692300  0.547800  1.0  0.1146
  H  H100  1  0.807700  0.192300  0.047800  1.0  0.1146
  H  H101  1  0.807700  0.307700  0.452200  1.0  0.1153
  H  H102  1  0.807700  0.807700  0.952200  1.0  0.1153
  H  H103  1  0.192300  0.807700  0.047800  1.0  0.1147
  H  H104  1  0.192300  0.692300  0.452200  1.0  0.1157
  H  H105  1  0.547800  0.807700  0.692300  1.0  0.1159
  H  H106  1  0.047800  0.807700  0.192300  1.0  0.1159
  H  H107  1  0.452200  0.807700  0.307700  1.0  0.1162
  H  H108  1  0.952200  0.807700  0.807700  1.0  0.1162
  H  H109  1  0.047800  0.192300  0.807700  1.0  0.116
  H  H110  1  0.452200  0.192300  0.692300  1.0  0.1163
  H  H111  1  0.547800  0.692300  0.192300  1.0  0.1159
  H  H112  1  0.047800  0.692300  0.692300  1.0  0.1159
  H  H113  1  0.952200  0.307700  0.692300  1.0  0.1165
  H  H114  1  0.547800  0.307700  0.807700  1.0  0.1159
  H  H115  1  0.452200  0.692300  0.807700  1.0  0.1162
  H  H116  1  0.952200  0.692300  0.307700  1.0  0.1162
  H  H117  1  0.692300  0.807700  0.452200  1.0  0.1153
  H  H118  1  0.692300  0.307700  0.952200  1.0  0.1153
  H  H119  1  0.307700  0.807700  0.547800  1.0  0.1146
  H  H120  1  0.307700  0.692300  0.952200  1.0  0.1154
  H  H121  1  0.692300  0.192300  0.547800  1.0  0.1152
  H  H122  1  0.692300  0.692300  0.047800  1.0  0.1152
  H  H123  1  0.807700  0.547800  0.307700  1.0  0.1138
  H  H124  1  0.807700  0.047800  0.807700  1.0  0.1138
  H  H125  1  0.807700  0.452200  0.692300  1.0  0.1143
  H  H126  1  0.807700  0.952200  0.192300  1.0  0.1143
  H  H127  1  0.192300  0.547800  0.692300  1.0  0.1143
  H  H128  1  0.192300  0.952200  0.807700  1.0  0.1149
  C  C129  1  0.283100  0.473600  0.216900  1.0  -0.0984
  C  C130  1  0.283100  0.973600  0.716900  1.0  -0.0984
  C  C131  1  0.716900  0.526400  0.216900  1.0  -0.0976
  C  C132  1  0.716900  0.026400  0.716900  1.0  -0.0976
  C  C133  1  0.216900  0.026400  0.216900  1.0  -0.0976
  C  C134  1  0.716900  0.473600  0.783100  1.0  -0.0979
  C  C135  1  0.716900  0.973600  0.283100  1.0  -0.0979
  C  C136  1  0.216900  0.473600  0.283100  1.0  -0.0979
  C  C137  1  0.283100  0.526400  0.783100  1.0  -0.0995
  C  C138  1  0.283100  0.026400  0.283100  1.0  -0.0995
  C  C139  1  0.216900  0.283100  0.473600  1.0  -0.1009
  C  C140  1  0.216900  0.783100  0.973600  1.0  -0.1009
  C  C141  1  0.216900  0.716900  0.526400  1.0  -0.0984
  C  C142  1  0.216900  0.216900  0.026400  1.0  -0.0984
  C  C143  1  0.783100  0.716900  0.473600  1.0  -0.0988
  C  C144  1  0.783100  0.216900  0.973600  1.0  -0.0988
  C  C145  1  0.283100  0.216900  0.473600  1.0  -0.0988
  C  C146  1  0.783100  0.283100  0.526400  1.0  -0.1023
  C  C147  1  0.783100  0.783100  0.026400  1.0  -0.1023
  C  C148  1  0.283100  0.283100  0.026400  1.0  -0.1023
  C  C149  1  0.473600  0.216900  0.283100  1.0  -0.0992
  C  C150  1  0.973600  0.216900  0.783100  1.0  -0.0992
  C  C151  1  0.526400  0.216900  0.716900  1.0  -0.0992
  C  C152  1  0.026400  0.216900  0.216900  1.0  -0.0992
  C  C153  1  0.473600  0.783100  0.716900  1.0  -0.102
  C  C154  1  0.473600  0.283100  0.216900  1.0  -0.102
  C  C155  1  0.973600  0.783100  0.216900  1.0  -0.102
  C  C156  1  0.526400  0.783100  0.283100  1.0  -0.1025
  C  C157  1  0.026400  0.783100  0.783100  1.0  -0.1025
  C  C158  1  0.026400  0.283100  0.283100  1.0  -0.1025
  C  C159  1  0.473600  0.283100  0.783100  1.0  -0.1034
  C  C160  1  0.973600  0.283100  0.283100  1.0  -0.1034
  C  C161  1  0.526400  0.716900  0.783100  1.0  -0.0988
  C  C162  1  0.526400  0.216900  0.283100  1.0  -0.0988
  C  C163  1  0.026400  0.716900  0.283100  1.0  -0.0988
  C  C164  1  0.473600  0.716900  0.216900  1.0  -0.099
  C  C165  1  0.973600  0.716900  0.716900  1.0  -0.099
  C  C166  1  0.973600  0.216900  0.216900  1.0  -0.099
  C  C167  1  0.526400  0.283100  0.216900  1.0  -0.1018
  C  C168  1  0.026400  0.283100  0.716900  1.0  -0.1018
  C  C169  1  0.283100  0.216900  0.526400  1.0  -0.0991
  C  C170  1  0.283100  0.716900  0.026400  1.0  -0.0991
  C  C171  1  0.716900  0.216900  0.473600  1.0  -0.098
  C  C172  1  0.716900  0.716900  0.973600  1.0  -0.098
  C  C173  1  0.216900  0.216900  0.973600  1.0  -0.098
  C  C174  1  0.716900  0.783100  0.526400  1.0  -0.1024
  C  C175  1  0.716900  0.283100  0.026400  1.0  -0.1024
  C  C176  1  0.216900  0.283100  0.526400  1.0  -0.1024
  C  C177  1  0.283100  0.783100  0.473600  1.0  -0.1013
  C  C178  1  0.283100  0.283100  0.973600  1.0  -0.1013
  C  C179  1  0.216900  0.473600  0.716900  1.0  -0.0968
  C  C180  1  0.216900  0.973600  0.216900  1.0  -0.0968
  C  C181  1  0.216900  0.526400  0.283100  1.0  -0.0991
  C  C182  1  0.216900  0.026400  0.783100  1.0  -0.0991
  C  C183  1  0.783100  0.473600  0.283100  1.0  -0.0983
  C  C184  1  0.783100  0.973600  0.783100  1.0  -0.0983
  C  C185  1  0.283100  0.973600  0.283100  1.0  -0.0983
  C  C186  1  0.783100  0.526400  0.716900  1.0  -0.0995
  C  C187  1  0.783100  0.026400  0.216900  1.0  -0.0995
  C  C188  1  0.283100  0.526400  0.216900  1.0  -0.0995
  C  C189  1  0.716900  0.526400  0.783100  1.0  -0.0991
  C  C190  1  0.716900  0.026400  0.283100  1.0  -0.0991
  C  C191  1  0.283100  0.473600  0.783100  1.0  -0.0983
  C  C192  1  0.283100  0.026400  0.716900  1.0  -0.0995
  C  C193  1  0.716900  0.473600  0.216900  1.0  -0.0968
  C  C194  1  0.716900  0.973600  0.716900  1.0  -0.0968
  C  C195  1  0.783100  0.716900  0.526400  1.0  -0.0991
  C  C196  1  0.783100  0.216900  0.026400  1.0  -0.0991
  C  C197  1  0.783100  0.283100  0.473600  1.0  -0.1013
  C  C198  1  0.783100  0.783100  0.973600  1.0  -0.1013
  C  C199  1  0.216900  0.783100  0.026400  1.0  -0.1024
  C  C200  1  0.216900  0.716900  0.473600  1.0  -0.098
  C  C201  1  0.526400  0.783100  0.716900  1.0  -0.1018
  C  C202  1  0.026400  0.783100  0.216900  1.0  -0.1018
  C  C203  1  0.473600  0.783100  0.283100  1.0  -0.1034
  C  C204  1  0.973600  0.783100  0.783100  1.0  -0.1034
  C  C205  1  0.026400  0.216900  0.783100  1.0  -0.0988
  C  C206  1  0.473600  0.216900  0.716900  1.0  -0.099
  C  C207  1  0.526400  0.716900  0.216900  1.0  -0.0992
  C  C208  1  0.026400  0.716900  0.716900  1.0  -0.0992
  C  C209  1  0.973600  0.283100  0.716900  1.0  -0.102
  C  C210  1  0.526400  0.283100  0.783100  1.0  -0.1025
  C  C211  1  0.473600  0.716900  0.783100  1.0  -0.0992
  C  C212  1  0.973600  0.716900  0.283100  1.0  -0.0992
  C  C213  1  0.716900  0.783100  0.473600  1.0  -0.1009
  C  C214  1  0.716900  0.283100  0.973600  1.0  -0.1009
  C  C215  1  0.283100  0.783100  0.526400  1.0  -0.1023
  C  C216  1  0.283100  0.716900  0.973600  1.0  -0.0988
  C  C217  1  0.716900  0.216900  0.526400  1.0  -0.0984
  C  C218  1  0.716900  0.716900  0.026400  1.0  -0.0984
  C  C219  1  0.783100  0.526400  0.283100  1.0  -0.0995
  C  C220  1  0.783100  0.026400  0.783100  1.0  -0.0995
  C  C221  1  0.783100  0.473600  0.716900  1.0  -0.0984
  C  C222  1  0.783100  0.973600  0.216900  1.0  -0.0984
  C  C223  1  0.216900  0.526400  0.716900  1.0  -0.0976
  C  C224  1  0.216900  0.973600  0.783100  1.0  -0.0979
  C  C225  1  0.250000  0.389500  0.250000  1.0  0.711
  C  C226  1  0.250000  0.445200  0.250000  1.0  -0.0414
  C  C227  1  0.250000  0.889500  0.750000  1.0  0.711
  C  C228  1  0.250000  0.945200  0.750000  1.0  -0.0414
  C  C229  1  0.750000  0.610500  0.250000  1.0  0.7109
  C  C230  1  0.750000  0.554800  0.250000  1.0  -0.0415
  C  C231  1  0.750000  0.110500  0.750000  1.0  0.7109
  C  C232  1  0.750000  0.054800  0.750000  1.0  -0.0415
  C  C233  1  0.250000  0.110500  0.250000  1.0  0.7109
  C  C234  1  0.250000  0.054800  0.250000  1.0  -0.0415
  C  C235  1  0.750000  0.389500  0.750000  1.0  0.711
  C  C236  1  0.750000  0.445200  0.750000  1.0  -0.0414
  C  C237  1  0.750000  0.889500  0.250000  1.0  0.711
  C  C238  1  0.750000  0.945200  0.250000  1.0  -0.0414
  C  C239  1  0.250000  0.610500  0.750000  1.0  0.7109
  C  C240  1  0.250000  0.554800  0.750000  1.0  -0.0415
  C  C241  1  0.250000  0.250000  0.389500  1.0  0.7149
  C  C242  1  0.250000  0.250000  0.445200  1.0  -0.043
  C  C243  1  0.250000  0.750000  0.889500  1.0  0.7149
  C  C244  1  0.250000  0.750000  0.945200  1.0  -0.043
  C  C245  1  0.250000  0.750000  0.610500  1.0  0.7154
  C  C246  1  0.250000  0.750000  0.554800  1.0  -0.0432
  C  C247  1  0.250000  0.250000  0.110500  1.0  0.7154
  C  C248  1  0.250000  0.250000  0.054800  1.0  -0.0432
  C  C249  1  0.750000  0.750000  0.389500  1.0  0.7149
  C  C250  1  0.750000  0.750000  0.445200  1.0  -0.043
  C  C251  1  0.750000  0.250000  0.889500  1.0  0.7149
  C  C252  1  0.750000  0.250000  0.945200  1.0  -0.043
  C  C253  1  0.750000  0.250000  0.610500  1.0  0.7154
  C  C254  1  0.750000  0.250000  0.554800  1.0  -0.0432
  C  C255  1  0.750000  0.750000  0.110500  1.0  0.7154
  C  C256  1  0.750000  0.750000  0.054800  1.0  -0.0432
  C  C257  1  0.389500  0.250000  0.250000  1.0  0.7113
  C  C258  1  0.445200  0.250000  0.250000  1.0  -0.0425
  C  C259  1  0.889500  0.250000  0.750000  1.0  0.7113
  C  C260  1  0.945200  0.250000  0.750000  1.0  -0.0425
  C  C261  1  0.610500  0.250000  0.750000  1.0  0.712
  C  C262  1  0.554800  0.250000  0.750000  1.0  -0.0422
  C  C263  1  0.110500  0.250000  0.250000  1.0  0.712
  C  C264  1  0.054800  0.250000  0.250000  1.0  -0.0422
  C  C265  1  0.389500  0.750000  0.750000  1.0  0.7113
  C  C266  1  0.445200  0.750000  0.750000  1.0  -0.0425
  C  C267  1  0.889500  0.750000  0.250000  1.0  0.7113
  C  C268  1  0.945200  0.750000  0.250000  1.0  -0.0425
  C  C269  1  0.610500  0.750000  0.250000  1.0  0.712
  C  C270  1  0.554800  0.750000  0.250000  1.0  -0.0422
  C  C271  1  0.110500  0.750000  0.750000  1.0  0.712
  C  C272  1  0.054800  0.750000  0.750000  1.0  -0.0422
  C  C273  1  0.389500  0.250000  0.750000  1.0  0.7113
  C  C274  1  0.445200  0.250000  0.750000  1.0  -0.0425
  C  C275  1  0.889500  0.250000  0.250000  1.0  0.7113
  C  C276  1  0.945200  0.250000  0.250000  1.0  -0.0425
  C  C277  1  0.610500  0.750000  0.750000  1.0  0.712
  C  C278  1  0.554800  0.750000  0.750000  1.0  -0.0422
  C  C279  1  0.610500  0.250000  0.250000  1.0  0.712
  C  C280  1  0.554800  0.250000  0.250000  1.0  -0.0422
  C  C281  1  0.110500  0.750000  0.250000  1.0  0.712
  C  C282  1  0.054800  0.750000  0.250000  1.0  -0.0422
  C  C283  1  0.389500  0.750000  0.250000  1.0  0.7113
  C  C284  1  0.445200  0.750000  0.250000  1.0  -0.0425
  C  C285  1  0.889500  0.750000  0.750000  1.0  0.7113
  C  C286  1  0.945200  0.750000  0.750000  1.0  -0.0425
  C  C287  1  0.110500  0.250000  0.750000  1.0  0.712
  C  C288  1  0.054800  0.250000  0.750000  1.0  -0.0422
  C  C289  1  0.250000  0.250000  0.610500  1.0  0.7154
  C  C290  1  0.250000  0.250000  0.554800  1.0  -0.0432
  C  C291  1  0.250000  0.750000  0.110500  1.0  0.7154
  C  C292  1  0.250000  0.750000  0.054800  1.0  -0.0432
  C  C293  1  0.750000  0.250000  0.389500  1.0  0.7149
  C  C294  1  0.750000  0.250000  0.445200  1.0  -0.043
  C  C295  1  0.750000  0.750000  0.889500  1.0  0.7149
  C  C296  1  0.750000  0.750000  0.945200  1.0  -0.043
  C  C297  1  0.250000  0.250000  0.889500  1.0  0.7149
  C  C298  1  0.250000  0.250000  0.945200  1.0  -0.043
  C  C299  1  0.750000  0.750000  0.610500  1.0  0.7154
  C  C300  1  0.750000  0.750000  0.554800  1.0  -0.0432
  C  C301  1  0.750000  0.250000  0.110500  1.0  0.7154
  C  C302  1  0.750000  0.250000  0.054800  1.0  -0.0432
  C  C303  1  0.250000  0.750000  0.389500  1.0  0.7149
  C  C304  1  0.250000  0.750000  0.445200  1.0  -0.043
  C  C305  1  0.250000  0.389500  0.750000  1.0  0.711
  C  C306  1  0.250000  0.445200  0.750000  1.0  -0.0414
  C  C307  1  0.250000  0.889500  0.250000  1.0  0.711
  C  C308  1  0.250000  0.945200  0.250000  1.0  -0.0414
  C  C309  1  0.250000  0.610500  0.250000  1.0  0.7109
  C  C310  1  0.250000  0.554800  0.250000  1.0  -0.0415
  C  C311  1  0.250000  0.110500  0.750000  1.0  0.7109
  C  C312  1  0.250000  0.054800  0.750000  1.0  -0.0415
  C  C313  1  0.750000  0.389500  0.250000  1.0  0.711
  C  C314  1  0.750000  0.445200  0.250000  1.0  -0.0414
  C  C315  1  0.750000  0.889500  0.750000  1.0  0.711
  C  C316  1  0.750000  0.945200  0.750000  1.0  -0.0414
  C  C317  1  0.750000  0.610500  0.750000  1.0  0.7109
  C  C318  1  0.750000  0.554800  0.750000  1.0  -0.0415
  C  C319  1  0.750000  0.110500  0.250000  1.0  0.7109
  C  C320  1  0.750000  0.054800  0.250000  1.0  -0.0415
  O  O321  1  0.250000  0.250000  0.250000  1.0  -1.274
  O  O322  1  0.750000  0.750000  0.250000  1.0  -1.274
  O  O323  1  0.750000  0.250000  0.750000  1.0  -1.274
  O  O324  1  0.250000  0.750000  0.750000  1.0  -1.274
  O  O325  1  0.250000  0.250000  0.750000  1.0  -1.274
  O  O326  1  0.750000  0.750000  0.750000  1.0  -1.274
  O  O327  1  0.750000  0.250000  0.250000  1.0  -1.274
  O  O328  1  0.250000  0.750000  0.250000  1.0  -1.274
  O  O329  1  0.280700  0.366100  0.219300  1.0  -0.6217
  O  O330  1  0.280700  0.866100  0.719300  1.0  -0.6217
  O  O331  1  0.719300  0.633900  0.219300  1.0  -0.6219
  O  O332  1  0.719300  0.133900  0.719300  1.0  -0.6219
  O  O333  1  0.219300  0.133900  0.219300  1.0  -0.6219
  O  O334  1  0.719300  0.366100  0.780700  1.0  -0.6228
  O  O335  1  0.719300  0.866100  0.280700  1.0  -0.6228
  O  O336  1  0.219300  0.366100  0.280700  1.0  -0.6228
  O  O337  1  0.280700  0.633900  0.780700  1.0  -0.6212
  O  O338  1  0.280700  0.133900  0.280700  1.0  -0.6212
  O  O339  1  0.219300  0.280700  0.366100  1.0  -0.6234
  O  O340  1  0.219300  0.780700  0.866100  1.0  -0.6234
  O  O341  1  0.219300  0.719300  0.633900  1.0  -0.6234
  O  O342  1  0.219300  0.219300  0.133900  1.0  -0.6234
  O  O343  1  0.780700  0.719300  0.366100  1.0  -0.6228
  O  O344  1  0.780700  0.219300  0.866100  1.0  -0.6228
  O  O345  1  0.280700  0.219300  0.366100  1.0  -0.6228
  O  O346  1  0.780700  0.280700  0.633900  1.0  -0.6225
  O  O347  1  0.780700  0.780700  0.133900  1.0  -0.6225
  O  O348  1  0.280700  0.280700  0.133900  1.0  -0.6225
  O  O349  1  0.366100  0.219300  0.280700  1.0  -0.6236
  O  O350  1  0.866100  0.219300  0.780700  1.0  -0.6236
  O  O351  1  0.633900  0.219300  0.719300  1.0  -0.6245
  O  O352  1  0.133900  0.219300  0.219300  1.0  -0.6245
  O  O353  1  0.366100  0.780700  0.719300  1.0  -0.6232
  O  O354  1  0.366100  0.280700  0.219300  1.0  -0.6232
  O  O355  1  0.866100  0.780700  0.219300  1.0  -0.6232
  O  O356  1  0.633900  0.780700  0.280700  1.0  -0.6244
  O  O357  1  0.133900  0.780700  0.780700  1.0  -0.6244
  O  O358  1  0.133900  0.280700  0.280700  1.0  -0.6244
  O  O359  1  0.366100  0.280700  0.780700  1.0  -0.6235
  O  O360  1  0.866100  0.280700  0.280700  1.0  -0.6235
  O  O361  1  0.633900  0.719300  0.780700  1.0  -0.6243
  O  O362  1  0.633900  0.219300  0.280700  1.0  -0.6243
  O  O363  1  0.133900  0.719300  0.280700  1.0  -0.6243
  O  O364  1  0.366100  0.719300  0.219300  1.0  -0.6237
  O  O365  1  0.866100  0.719300  0.719300  1.0  -0.6237
  O  O366  1  0.866100  0.219300  0.219300  1.0  -0.6237
  O  O367  1  0.633900  0.280700  0.219300  1.0  -0.624
  O  O368  1  0.133900  0.280700  0.719300  1.0  -0.624
  O  O369  1  0.280700  0.219300  0.633900  1.0  -0.6227
  O  O370  1  0.280700  0.719300  0.133900  1.0  -0.6227
  O  O371  1  0.719300  0.219300  0.366100  1.0  -0.6236
  O  O372  1  0.719300  0.719300  0.866100  1.0  -0.6236
  O  O373  1  0.219300  0.219300  0.866100  1.0  -0.6236
  O  O374  1  0.719300  0.780700  0.633900  1.0  -0.6233
  O  O375  1  0.719300  0.280700  0.133900  1.0  -0.6233
  O  O376  1  0.219300  0.280700  0.633900  1.0  -0.6233
  O  O377  1  0.280700  0.780700  0.366100  1.0  -0.6226
  O  O378  1  0.280700  0.280700  0.866100  1.0  -0.6226
  O  O379  1  0.219300  0.366100  0.719300  1.0  -0.622
  O  O380  1  0.219300  0.866100  0.219300  1.0  -0.622
  O  O381  1  0.219300  0.633900  0.280700  1.0  -0.622
  O  O382  1  0.219300  0.133900  0.780700  1.0  -0.622
  O  O383  1  0.780700  0.366100  0.280700  1.0  -0.6219
  O  O384  1  0.780700  0.866100  0.780700  1.0  -0.6219
  O  O385  1  0.280700  0.866100  0.280700  1.0  -0.6219
  O  O386  1  0.780700  0.633900  0.719300  1.0  -0.6214
  O  O387  1  0.780700  0.133900  0.219300  1.0  -0.6214
  O  O388  1  0.280700  0.633900  0.219300  1.0  -0.6214
  O  O389  1  0.719300  0.633900  0.780700  1.0  -0.622
  O  O390  1  0.719300  0.133900  0.280700  1.0  -0.622
  O  O391  1  0.280700  0.366100  0.780700  1.0  -0.6219
  O  O392  1  0.280700  0.133900  0.719300  1.0  -0.6214
  O  O393  1  0.719300  0.366100  0.219300  1.0  -0.622
  O  O394  1  0.719300  0.866100  0.719300  1.0  -0.622
  O  O395  1  0.780700  0.719300  0.633900  1.0  -0.6227
  O  O396  1  0.780700  0.219300  0.133900  1.0  -0.6227
  O  O397  1  0.780700  0.280700  0.366100  1.0  -0.6226
  O  O398  1  0.780700  0.780700  0.866100  1.0  -0.6226
  O  O399  1  0.219300  0.780700  0.133900  1.0  -0.6233
  O  O400  1  0.219300  0.719300  0.366100  1.0  -0.6236
  O  O401  1  0.633900  0.780700  0.719300  1.0  -0.624
  O  O402  1  0.133900  0.780700  0.219300  1.0  -0.624
  O  O403  1  0.366100  0.780700  0.280700  1.0  -0.6235
  O  O404  1  0.866100  0.780700  0.780700  1.0  -0.6235
  O  O405  1  0.133900  0.219300  0.780700  1.0  -0.6243
  O  O406  1  0.366100  0.219300  0.719300  1.0  -0.6237
  O  O407  1  0.633900  0.719300  0.219300  1.0  -0.6245
  O  O408  1  0.133900  0.719300  0.719300  1.0  -0.6245
  O  O409  1  0.866100  0.280700  0.719300  1.0  -0.6232
  O  O410  1  0.633900  0.280700  0.780700  1.0  -0.6244
  O  O411  1  0.366100  0.719300  0.780700  1.0  -0.6236
  O  O412  1  0.866100  0.719300  0.280700  1.0  -0.6236
  O  O413  1  0.719300  0.780700  0.366100  1.0  -0.6234
  O  O414  1  0.719300  0.280700  0.866100  1.0  -0.6234
  O  O415  1  0.280700  0.780700  0.633900  1.0  -0.6225
  O  O416  1  0.280700  0.719300  0.866100  1.0  -0.6228
  O  O417  1  0.719300  0.219300  0.633900  1.0  -0.6234
  O  O418  1  0.719300  0.719300  0.133900  1.0  -0.6234
  O  O419  1  0.780700  0.633900  0.280700  1.0  -0.6212
  O  O420  1  0.780700  0.133900  0.780700  1.0  -0.6212
  O  O421  1  0.780700  0.366100  0.719300  1.0  -0.6217
  O  O422  1  0.780700  0.866100  0.219300  1.0  -0.6217
  O  O423  1  0.219300  0.633900  0.719300  1.0  -0.6219
  O  O424  1  0.219300  0.866100  0.780700  1.0  -0.6228
