# generated using pymatgen
data_Al5(PO4)6
_symmetry_space_group_name_H-M   'P 1'
_cell_length_a   32.03500000
_cell_length_b   14.30800000
_cell_length_c   8.85200000
_cell_angle_alpha   90.00000000
_cell_angle_beta   104.65000000
_cell_angle_gamma   90.00000000
_symmetry_Int_Tables_number   1
_chemical_formula_structural   Al5(PO4)6
_chemical_formula_sum   'Al20 P24 O96'
_cell_volume   3925.46423374
_cell_formula_units_Z   4
loop_
 _symmetry_equiv_pos_site_id
 _symmetry_equiv_pos_as_xyz
  1  'x, y, z'
loop_
 _atom_site_type_symbol
 _atom_site_label
 _atom_site_symmetry_multiplicity
 _atom_site_fract_x
 _atom_site_fract_y
 _atom_site_fract_z
 _atom_site_occupancy
 _atom_site_charge
  Al  Al1  1  0.771400  0.627800  0.145400  1.0  2.0054
  Al  Al2  1  0.854500  0.618900  0.823300  1.0  2.005
  Al  Al3  1  0.271400  0.127800  0.145400  1.0  2.0054
  Al  Al4  1  0.354500  0.118900  0.823300  1.0  2.005
  Al  Al5  1  0.228600  0.627800  0.354600  1.0  2.0059
  Al  Al6  1  0.145500  0.618900  0.676700  1.0  2.0049
  Al  Al7  1  0.728600  0.127800  0.354600  1.0  2.0059
  Al  Al8  1  0.645500  0.118900  0.676700  1.0  2.0049
  Al  Al9  1  0.228600  0.372200  0.854600  1.0  2.006
  Al  Al10  1  0.145500  0.381100  0.176700  1.0  2.0048
  Al  Al11  1  0.728600  0.872200  0.854600  1.0  2.006
  Al  Al12  1  0.645500  0.881100  0.176700  1.0  2.0048
  Al  Al13  1  0.771400  0.372200  0.645400  1.0  2.0056
  Al  Al14  1  0.854500  0.381100  0.323300  1.0  2.0048
  Al  Al15  1  0.271400  0.872200  0.645400  1.0  2.0056
  Al  Al16  1  0.354500  0.881100  0.323300  1.0  2.0048
  Al  Al17  1  0.000000  0.460300  0.750000  1.0  1.9995
  Al  Al18  1  0.500000  0.960300  0.750000  1.0  1.9995
  Al  Al19  1  0.000000  0.539700  0.250000  1.0  2.0006
  Al  Al20  1  0.500000  0.039700  0.250000  1.0  2.0006
  P  P21  1  0.957000  0.619400  0.907300  1.0  1.7601
  P  P22  1  0.811300  0.464900  0.983100  1.0  2.0992
  P  P23  1  0.819200  0.783100  0.994900  1.0  1.7008
  P  P24  1  0.457000  0.119400  0.907300  1.0  1.7601
  P  P25  1  0.311300  0.964900  0.983100  1.0  2.0992
  P  P26  1  0.319200  0.283100  0.994900  1.0  1.7008
  P  P27  1  0.043000  0.619400  0.592700  1.0  1.76
  P  P28  1  0.188700  0.464900  0.516900  1.0  2.1002
  P  P29  1  0.180800  0.783100  0.505100  1.0  1.6982
  P  P30  1  0.543000  0.119400  0.592700  1.0  1.76
  P  P31  1  0.688700  0.964900  0.516900  1.0  2.1002
  P  P32  1  0.680800  0.283100  0.505100  1.0  1.6982
  P  P33  1  0.043000  0.380600  0.092700  1.0  1.7598
  P  P34  1  0.188700  0.535100  0.016900  1.0  2.1006
  P  P35  1  0.180800  0.216900  0.005100  1.0  1.6988
  P  P36  1  0.543000  0.880600  0.092700  1.0  1.7598
  P  P37  1  0.688700  0.035100  0.016900  1.0  2.1006
  P  P38  1  0.680800  0.716900  0.005100  1.0  1.6988
  P  P39  1  0.957000  0.380600  0.407300  1.0  1.7599
  P  P40  1  0.811300  0.535100  0.483100  1.0  2.0994
  P  P41  1  0.819200  0.216900  0.494900  1.0  1.7013
  P  P42  1  0.457000  0.880600  0.407300  1.0  1.7599
  P  P43  1  0.311300  0.035100  0.483100  1.0  2.0994
  P  P44  1  0.319200  0.716900  0.494900  1.0  1.7013
  O  O45  1  0.964300  0.529200  0.821000  1.0  -0.9952
  O  O46  1  0.980100  0.701400  0.853000  1.0  -0.5336
  O  O47  1  0.909600  0.640000  0.868000  1.0  -0.9285
  O  O48  1  0.971300  0.609000  0.087000  1.0  -0.8632
  O  O49  1  0.779600  0.529000  0.034000  1.0  -0.9958
  O  O50  1  0.786400  0.403200  0.849000  1.0  -0.9241
  O  O51  1  0.845000  0.522000  0.930000  1.0  -1.0227
  O  O52  1  0.834100  0.402400  0.118000  1.0  -0.9618
  O  O53  1  0.781700  0.846200  0.909000  1.0  -0.9182
  O  O54  1  0.803100  0.720000  0.114000  1.0  -0.9666
  O  O55  1  0.828900  0.720000  0.864000  1.0  -0.9311
  O  O56  1  0.858200  0.835000  0.079000  1.0  -0.5308
  O  O57  1  0.464300  0.029200  0.821000  1.0  -0.9952
  O  O58  1  0.480100  0.201400  0.853000  1.0  -0.5336
  O  O59  1  0.409600  0.140000  0.868000  1.0  -0.9285
  O  O60  1  0.471300  0.109000  0.087000  1.0  -0.8632
  O  O61  1  0.279600  0.029000  0.034000  1.0  -0.9958
  O  O62  1  0.286400  0.903200  0.849000  1.0  -0.9241
  O  O63  1  0.345000  0.022000  0.930000  1.0  -1.0227
  O  O64  1  0.334100  0.902400  0.118000  1.0  -0.9618
  O  O65  1  0.281700  0.346200  0.909000  1.0  -0.9182
  O  O66  1  0.303100  0.220000  0.114000  1.0  -0.9666
  O  O67  1  0.328900  0.220000  0.864000  1.0  -0.9311
  O  O68  1  0.358200  0.335000  0.079000  1.0  -0.5308
  O  O69  1  0.035700  0.529200  0.679000  1.0  -0.9955
  O  O70  1  0.019900  0.701400  0.647000  1.0  -0.5353
  O  O71  1  0.090400  0.640000  0.632000  1.0  -0.9275
  O  O72  1  0.028700  0.609000  0.413000  1.0  -0.8619
  O  O73  1  0.220400  0.529000  0.466000  1.0  -0.9957
  O  O74  1  0.213600  0.403200  0.651000  1.0  -0.9244
  O  O75  1  0.155000  0.522000  0.570000  1.0  -1.0225
  O  O76  1  0.165900  0.402400  0.382000  1.0  -0.9617
  O  O77  1  0.218300  0.846200  0.591000  1.0  -0.9191
  O  O78  1  0.196900  0.720000  0.386000  1.0  -0.9659
  O  O79  1  0.171100  0.720000  0.636000  1.0  -0.932
  O  O80  1  0.141800  0.835000  0.421000  1.0  -0.5298
  O  O81  1  0.535700  0.029200  0.679000  1.0  -0.9955
  O  O82  1  0.519900  0.201400  0.647000  1.0  -0.5353
  O  O83  1  0.590400  0.140000  0.632000  1.0  -0.9275
  O  O84  1  0.528700  0.109000  0.413000  1.0  -0.8619
  O  O85  1  0.720400  0.029000  0.466000  1.0  -0.9957
  O  O86  1  0.713600  0.903200  0.651000  1.0  -0.9244
  O  O87  1  0.655000  0.022000  0.570000  1.0  -1.0225
  O  O88  1  0.665900  0.902400  0.382000  1.0  -0.9617
  O  O89  1  0.718300  0.346200  0.591000  1.0  -0.9191
  O  O90  1  0.696900  0.220000  0.386000  1.0  -0.9659
  O  O91  1  0.671100  0.220000  0.636000  1.0  -0.932
  O  O92  1  0.641800  0.335000  0.421000  1.0  -0.5298
  O  O93  1  0.035700  0.470800  0.179000  1.0  -0.9949
  O  O94  1  0.019900  0.298600  0.147000  1.0  -0.5356
  O  O95  1  0.090400  0.360000  0.132000  1.0  -0.9275
  O  O96  1  0.028700  0.391000  0.913000  1.0  -0.8602
  O  O97  1  0.220400  0.471000  0.966000  1.0  -0.9965
  O  O98  1  0.213600  0.596800  0.151000  1.0  -0.9243
  O  O99  1  0.155000  0.478000  0.070000  1.0  -1.023
  O  O100  1  0.165900  0.597600  0.882000  1.0  -0.9605
  O  O101  1  0.218300  0.153800  0.091000  1.0  -0.9182
  O  O102  1  0.196900  0.280000  0.886000  1.0  -0.9657
  O  O103  1  0.171100  0.280000  0.136000  1.0  -0.9317
  O  O104  1  0.141800  0.165000  0.921000  1.0  -0.5301
  O  O105  1  0.535700  0.970800  0.179000  1.0  -0.9949
  O  O106  1  0.519900  0.798600  0.147000  1.0  -0.5356
  O  O107  1  0.590400  0.860000  0.132000  1.0  -0.9275
  O  O108  1  0.528700  0.891000  0.913000  1.0  -0.8602
  O  O109  1  0.720400  0.971000  0.966000  1.0  -0.9965
  O  O110  1  0.713600  0.096800  0.151000  1.0  -0.9243
  O  O111  1  0.655000  0.978000  0.070000  1.0  -1.023
  O  O112  1  0.665900  0.097600  0.882000  1.0  -0.9605
  O  O113  1  0.718300  0.653800  0.091000  1.0  -0.9182
  O  O114  1  0.696900  0.780000  0.886000  1.0  -0.9657
  O  O115  1  0.671100  0.780000  0.136000  1.0  -0.9317
  O  O116  1  0.641800  0.665000  0.921000  1.0  -0.5301
  O  O117  1  0.964300  0.470800  0.321000  1.0  -0.9946
  O  O118  1  0.980100  0.298600  0.353000  1.0  -0.5338
  O  O119  1  0.909600  0.360000  0.368000  1.0  -0.9278
  O  O120  1  0.971300  0.391000  0.587000  1.0  -0.8631
  O  O121  1  0.779600  0.471000  0.534000  1.0  -0.9964
  O  O122  1  0.786400  0.596800  0.349000  1.0  -0.9251
  O  O123  1  0.845000  0.478000  0.430000  1.0  -1.0233
  O  O124  1  0.834100  0.597600  0.618000  1.0  -0.9602
  O  O125  1  0.781700  0.153800  0.409000  1.0  -0.9168
  O  O126  1  0.803100  0.280000  0.614000  1.0  -0.9667
  O  O127  1  0.828900  0.280000  0.364000  1.0  -0.9308
  O  O128  1  0.858200  0.165000  0.579000  1.0  -0.5313
  O  O129  1  0.464300  0.970800  0.321000  1.0  -0.9946
  O  O130  1  0.480100  0.798600  0.353000  1.0  -0.5338
  O  O131  1  0.409600  0.860000  0.368000  1.0  -0.9278
  O  O132  1  0.471300  0.891000  0.587000  1.0  -0.8631
  O  O133  1  0.279600  0.971000  0.534000  1.0  -0.9964
  O  O134  1  0.286400  0.096800  0.349000  1.0  -0.9251
  O  O135  1  0.345000  0.978000  0.430000  1.0  -1.0233
  O  O136  1  0.334100  0.097600  0.618000  1.0  -0.9602
  O  O137  1  0.281700  0.653800  0.409000  1.0  -0.9168
  O  O138  1  0.303100  0.780000  0.614000  1.0  -0.9667
  O  O139  1  0.328900  0.780000  0.364000  1.0  -0.9308
  O  O140  1  0.358200  0.665000  0.579000  1.0  -0.5313
