# generated using pymatgen
data_GdH9C18(NO2)3
_symmetry_space_group_name_H-M   'P 1'
_cell_length_a   15.18750000
_cell_length_b   25.64870000
_cell_length_c   17.03780000
_cell_angle_alpha   97.91000000
_cell_angle_beta   90.00000000
_cell_angle_gamma   90.00000000
_symmetry_Int_Tables_number   1
_chemical_formula_structural   GdH9C18(NO2)3
_chemical_formula_sum   'Gd8 H72 C144 N24 O48'
_cell_volume   6573.75129172
_cell_formula_units_Z   8
loop_
 _symmetry_equiv_pos_site_id
 _symmetry_equiv_pos_as_xyz
  1  'x, y, z'
loop_
 _atom_site_type_symbol
 _atom_site_label
 _atom_site_symmetry_multiplicity
 _atom_site_fract_x
 _atom_site_fract_y
 _atom_site_fract_z
 _atom_site_occupancy
 _atom_site_charge
  Gd  Gd1  1  0.670760  0.750290  0.314980  1.0  2.2337
  Gd  Gd2  1  0.204290  0.250380  0.463220  1.0  2.2295
  Gd  Gd3  1  0.170760  0.249710  0.185020  1.0  2.2246
  Gd  Gd4  1  0.704290  0.749620  0.036780  1.0  2.2295
  Gd  Gd5  1  0.329240  0.249710  0.685020  1.0  2.2335
  Gd  Gd6  1  0.795710  0.749620  0.536780  1.0  2.2318
  Gd  Gd7  1  0.829240  0.750290  0.814980  1.0  2.2243
  Gd  Gd8  1  0.295710  0.250380  0.963220  1.0  2.2318
  H  H9  1  0.501200  0.615800  0.383000  1.0  0.0958
  H  H10  1  0.659800  0.613100  0.571200  1.0  0.1042
  H  H11  1  0.603400  0.531500  0.589300  1.0  0.1075
  H  H12  1  0.564500  0.867100  0.391500  1.0  0.0831
  H  H13  1  0.638900  0.911800  0.617100  1.0  0.1009
  H  H14  1  0.566500  0.991400  0.616800  1.0  0.1004
  H  H15  1  0.915300  0.639500  0.454900  1.0  0.0826
  H  H16  1  0.842600  0.595200  0.228700  1.0  0.1013
  H  H17  1  0.930100  0.520600  0.223900  1.0  0.11
  H  H18  1  0.145300  0.427400  0.450200  1.0  0.0958
  H  H19  1  0.039600  0.371000  0.239300  1.0  0.0958
  H  H20  1  0.974600  0.452100  0.232500  1.0  0.1115
  H  H21  1  0.033500  0.093600  0.209800  1.0  0.0904
  H  H22  1  0.142200  0.104200  0.426400  1.0  0.0969
  H  H23  1  0.087500  0.021500  0.440400  1.0  0.1104
  H  H24  1  0.976700  0.875600  0.465600  1.0  0.1
  H  H25  1  0.835600  0.877400  0.266500  1.0  0.102
  H  H26  1  0.907900  0.953400  0.243100  1.0  0.1069
  H  H27  1  0.001200  0.384200  0.117000  1.0  0.0963
  H  H28  1  0.159800  0.386900  0.928800  1.0  0.1044
  H  H29  1  0.103400  0.468500  0.910700  1.0  0.1075
  H  H30  1  0.064500  0.132900  0.108500  1.0  0.0817
  H  H31  1  0.138900  0.088200  0.882900  1.0  0.1002
  H  H32  1  0.066500  0.008600  0.883200  1.0  0.1011
  H  H33  1  0.415300  0.360500  0.045100  1.0  0.0833
  H  H34  1  0.342600  0.404800  0.271300  1.0  0.1011
  H  H35  1  0.430100  0.479400  0.276100  1.0  0.1116
  H  H36  1  0.645300  0.572600  0.049800  1.0  0.0964
  H  H37  1  0.539600  0.629000  0.260700  1.0  0.0937
  H  H38  1  0.474600  0.547900  0.267500  1.0  0.1119
  H  H39  1  0.533500  0.906400  0.290200  1.0  0.0899
  H  H40  1  0.642200  0.895800  0.073600  1.0  0.0973
  H  H41  1  0.587500  0.978500  0.059600  1.0  0.1105
  H  H42  1  0.476700  0.124400  0.034400  1.0  0.1004
  H  H43  1  0.335600  0.122600  0.233500  1.0  0.1017
  H  H44  1  0.407900  0.046600  0.256900  1.0  0.1064
  H  H45  1  0.498800  0.384200  0.617000  1.0  0.0959
  H  H46  1  0.340200  0.386900  0.428800  1.0  0.1043
  H  H47  1  0.396600  0.468500  0.410700  1.0  0.1072
  H  H48  1  0.435500  0.132900  0.608500  1.0  0.0818
  H  H49  1  0.361100  0.088200  0.382900  1.0  0.1002
  H  H50  1  0.433500  0.008600  0.383200  1.0  0.101
  H  H51  1  0.084700  0.360500  0.545100  1.0  0.0823
  H  H52  1  0.157400  0.404800  0.771300  1.0  0.101
  H  H53  1  0.069900  0.479400  0.776100  1.0  0.1112
  H  H54  1  0.854700  0.572600  0.549800  1.0  0.0961
  H  H55  1  0.960400  0.629000  0.760700  1.0  0.0963
  H  H56  1  0.025400  0.547900  0.767500  1.0  0.1116
  H  H57  1  0.966500  0.906400  0.790200  1.0  0.0894
  H  H58  1  0.857800  0.895800  0.573600  1.0  0.0973
  H  H59  1  0.912500  0.978500  0.559600  1.0  0.1105
  H  H60  1  0.023300  0.124400  0.534400  1.0  0.1008
  H  H61  1  0.164400  0.122600  0.733500  1.0  0.1016
  H  H62  1  0.092100  0.046600  0.756900  1.0  0.1068
  H  H63  1  0.998800  0.615800  0.883000  1.0  0.0964
  H  H64  1  0.840200  0.613100  0.071200  1.0  0.1042
  H  H65  1  0.896600  0.531500  0.089300  1.0  0.1074
  H  H66  1  0.935500  0.867100  0.891500  1.0  0.0836
  H  H67  1  0.861100  0.911800  0.117100  1.0  0.1007
  H  H68  1  0.933500  0.991400  0.116800  1.0  0.1004
  H  H69  1  0.584700  0.639500  0.954900  1.0  0.0822
  H  H70  1  0.657400  0.595200  0.728700  1.0  0.101
  H  H71  1  0.569900  0.520600  0.723900  1.0  0.1099
  H  H72  1  0.354700  0.427400  0.950200  1.0  0.096
  H  H73  1  0.460400  0.371000  0.739300  1.0  0.0941
  H  H74  1  0.525400  0.452100  0.732500  1.0  0.1119
  H  H75  1  0.466500  0.093600  0.709800  1.0  0.0905
  H  H76  1  0.357800  0.104200  0.926400  1.0  0.0973
  H  H77  1  0.412500  0.021500  0.940400  1.0  0.1108
  H  H78  1  0.523300  0.875600  0.965600  1.0  0.1008
  H  H79  1  0.664400  0.877400  0.766500  1.0  0.102
  H  H80  1  0.592100  0.953400  0.743100  1.0  0.107
  C  C81  1  0.518500  0.524800  0.497000  1.0  0.224
  C  C82  1  0.521700  0.598900  0.424400  1.0  0.2037
  C  C83  1  0.586100  0.622500  0.475300  1.0  -0.2309
  C  C84  1  0.616700  0.597300  0.537100  1.0  0.0098
  C  C85  1  0.582900  0.548400  0.548000  1.0  -0.1493
  C  C86  1  0.627500  0.673500  0.461000  1.0  0.7987
  C  C87  1  0.522200  0.977000  0.503900  1.0  0.2213
  C  C88  1  0.564900  0.892000  0.436600  1.0  0.2013
  C  C89  1  0.608900  0.881500  0.504300  1.0  -0.226
  C  C90  1  0.609500  0.918800  0.571800  1.0  0.0088
  C  C91  1  0.566100  0.966500  0.571600  1.0  -0.1284
  C  C92  1  0.660500  0.831700  0.503800  1.0  0.7924
  C  C93  1  0.975100  0.535400  0.336500  1.0  0.2249
  C  C94  1  0.918300  0.615700  0.408600  1.0  0.2047
  C  C95  1  0.870300  0.624800  0.342300  1.0  -0.2432
  C  C96  1  0.874700  0.589100  0.273100  1.0  0.0037
  C  C97  1  0.927100  0.544500  0.270200  1.0  -0.1866
  C  C98  1  0.815500  0.671500  0.343600  1.0  0.7947
  C  C99  1  0.021000  0.488400  0.337200  1.0  0.2274
  C  C100  1  0.111000  0.432400  0.406600  1.0  0.2053
  C  C101  1  0.098900  0.391200  0.345400  1.0  -0.2478
  C  C102  1  0.047700  0.398600  0.280200  1.0  0.0088
  C  C103  1  0.008800  0.447200  0.276100  1.0  -0.1861
  C  C104  1  0.132000  0.336700  0.348700  1.0  0.7931
  C  C105  1  0.027700  0.008000  0.333500  1.0  0.2207
  C  C106  1  0.044300  0.079100  0.256000  1.0  0.1762
  C  C107  1  0.093300  0.107100  0.316700  1.0  -0.2488
  C  C108  1  0.109500  0.085500  0.385800  1.0  0.0121
  C  C109  1  0.076700  0.036000  0.394200  1.0  -0.1394
  C  C110  1  0.124300  0.160600  0.305500  1.0  0.8357
  C  C111  1  0.985600  0.960100  0.340300  1.0  0.2324
  C  C112  1  0.962900  0.891200  0.421000  1.0  0.1897
  C  C113  1  0.899000  0.869000  0.368400  1.0  -0.2393
  C  C114  1  0.878400  0.892300  0.301700  1.0  0.004
  C  C115  1  0.921700  0.937800  0.287700  1.0  -0.1476
  C  C116  1  0.846900  0.820700  0.383200  1.0  0.8049
  C  C117  1  0.018500  0.475200  0.003000  1.0  0.2241
  C  C118  1  0.021700  0.401100  0.075600  1.0  0.204
  C  C119  1  0.086100  0.377500  0.024700  1.0  -0.2342
  C  C120  1  0.116700  0.402700  0.962900  1.0  0.0087
  C  C121  1  0.082900  0.451600  0.952000  1.0  -0.1497
  C  C122  1  0.127500  0.326500  0.039000  1.0  0.7987
  C  C123  1  0.022200  0.023000  0.996100  1.0  0.2212
  C  C124  1  0.064900  0.108000  0.063400  1.0  0.2004
  C  C125  1  0.108900  0.118500  0.995700  1.0  -0.225
  C  C126  1  0.109500  0.081200  0.928200  1.0  0.0091
  C  C127  1  0.066100  0.033500  0.928400  1.0  -0.1281
  C  C128  1  0.160500  0.168300  0.996200  1.0  0.7918
  C  C129  1  0.475100  0.464600  0.163500  1.0  0.2256
  C  C130  1  0.418300  0.384300  0.091400  1.0  0.2049
  C  C131  1  0.370300  0.375200  0.157700  1.0  -0.243
  C  C132  1  0.374700  0.410900  0.226900  1.0  0.0037
  C  C133  1  0.427100  0.455500  0.229800  1.0  -0.186
  C  C134  1  0.315500  0.328500  0.156400  1.0  0.7944
  C  C135  1  0.521000  0.511600  0.162800  1.0  0.2277
  C  C136  1  0.611000  0.567600  0.093400  1.0  0.206
  C  C137  1  0.598900  0.608800  0.154600  1.0  -0.2475
  C  C138  1  0.547700  0.601400  0.219800  1.0  0.0071
  C  C139  1  0.508800  0.552800  0.223900  1.0  -0.1861
  C  C140  1  0.632000  0.663300  0.151300  1.0  0.7926
  C  C141  1  0.527700  0.992000  0.166500  1.0  0.2206
  C  C142  1  0.544300  0.920900  0.244000  1.0  0.1769
  C  C143  1  0.593300  0.892900  0.183300  1.0  -0.2486
  C  C144  1  0.609500  0.914500  0.114200  1.0  0.0113
  C  C145  1  0.576700  0.964000  0.105800  1.0  -0.1389
  C  C146  1  0.624300  0.839400  0.194500  1.0  0.8345
  C  C147  1  0.485600  0.039900  0.159700  1.0  0.232
  C  C148  1  0.462900  0.108800  0.079000  1.0  0.189
  C  C149  1  0.399000  0.131000  0.131600  1.0  -0.2386
  C  C150  1  0.378400  0.107700  0.198300  1.0  0.0031
  C  C151  1  0.421700  0.062200  0.212300  1.0  -0.1477
  C  C152  1  0.346900  0.179300  0.116800  1.0  0.8048
  C  C153  1  0.481500  0.475200  0.503000  1.0  0.2222
  C  C154  1  0.478300  0.401100  0.575600  1.0  0.2039
  C  C155  1  0.413900  0.377500  0.524700  1.0  -0.2314
  C  C156  1  0.383300  0.402700  0.462900  1.0  0.007
  C  C157  1  0.417100  0.451600  0.452000  1.0  -0.1502
  C  C158  1  0.372500  0.326500  0.539000  1.0  0.799
  C  C159  1  0.477800  0.023000  0.496100  1.0  0.2215
  C  C160  1  0.435100  0.108000  0.563400  1.0  0.1993
  C  C161  1  0.391100  0.118500  0.495700  1.0  -0.2252
  C  C162  1  0.390500  0.081200  0.428200  1.0  0.0087
  C  C163  1  0.433900  0.033500  0.428400  1.0  -0.128
  C  C164  1  0.339500  0.168300  0.496200  1.0  0.7902
  C  C165  1  0.024900  0.464600  0.663500  1.0  0.2254
  C  C166  1  0.081700  0.384300  0.591400  1.0  0.2055
  C  C167  1  0.129700  0.375200  0.657700  1.0  -0.2442
  C  C168  1  0.125300  0.410900  0.726900  1.0  0.0058
  C  C169  1  0.072900  0.455500  0.729800  1.0  -0.1858
  C  C170  1  0.184500  0.328500  0.656400  1.0  0.7953
  C  C171  1  0.979000  0.511600  0.662800  1.0  0.2278
  C  C172  1  0.889000  0.567600  0.593400  1.0  0.2062
  C  C173  1  0.901100  0.608800  0.654600  1.0  -0.2477
  C  C174  1  0.952300  0.601400  0.719800  1.0  0.0071
  C  C175  1  0.991200  0.552800  0.723900  1.0  -0.187
  C  C176  1  0.868000  0.663300  0.651300  1.0  0.7954
  C  C177  1  0.972300  0.992000  0.666500  1.0  0.2208
  C  C178  1  0.955700  0.920900  0.744000  1.0  0.1767
  C  C179  1  0.906700  0.892900  0.683300  1.0  -0.2481
  C  C180  1  0.890500  0.914500  0.614200  1.0  0.0111
  C  C181  1  0.923300  0.964000  0.605800  1.0  -0.1404
  C  C182  1  0.875700  0.839400  0.694500  1.0  0.8348
  C  C183  1  0.014400  0.039900  0.659700  1.0  0.2322
  C  C184  1  0.037100  0.108800  0.579000  1.0  0.1919
  C  C185  1  0.101000  0.131000  0.631600  1.0  -0.2391
  C  C186  1  0.121600  0.107700  0.698300  1.0  0.0042
  C  C187  1  0.078300  0.062200  0.712300  1.0  -0.1455
  C  C188  1  0.153100  0.179300  0.616800  1.0  0.8042
  C  C189  1  0.981500  0.524800  0.997000  1.0  0.2221
  C  C190  1  0.978300  0.598900  0.924400  1.0  0.2029
  C  C191  1  0.913900  0.622500  0.975300  1.0  -0.2337
  C  C192  1  0.883300  0.597300  0.037100  1.0  0.008
  C  C193  1  0.917100  0.548400  0.048000  1.0  -0.15
  C  C194  1  0.872500  0.673500  0.961000  1.0  0.7972
  C  C195  1  0.977800  0.977000  0.003900  1.0  0.2218
  C  C196  1  0.935100  0.892000  0.936600  1.0  0.201
  C  C197  1  0.891100  0.881500  0.004300  1.0  -0.2261
  C  C198  1  0.890500  0.918800  0.071800  1.0  0.0085
  C  C199  1  0.933900  0.966500  0.071600  1.0  -0.1284
  C  C200  1  0.839500  0.831700  0.003800  1.0  0.7919
  C  C201  1  0.524900  0.535400  0.836500  1.0  0.2256
  C  C202  1  0.581700  0.615700  0.908600  1.0  0.2055
  C  C203  1  0.629700  0.624800  0.842300  1.0  -0.2438
  C  C204  1  0.625300  0.589100  0.773100  1.0  0.0062
  C  C205  1  0.572900  0.544500  0.770200  1.0  -0.1865
  C  C206  1  0.684500  0.671500  0.843600  1.0  0.7953
  C  C207  1  0.479000  0.488400  0.837200  1.0  0.228
  C  C208  1  0.389000  0.432400  0.906600  1.0  0.2051
  C  C209  1  0.401100  0.391200  0.845400  1.0  -0.2475
  C  C210  1  0.452300  0.398600  0.780200  1.0  0.0086
  C  C211  1  0.491200  0.447200  0.776100  1.0  -0.1868
  C  C212  1  0.368000  0.336700  0.848700  1.0  0.796
  C  C213  1  0.472300  0.008000  0.833500  1.0  0.2209
  C  C214  1  0.455700  0.079100  0.756000  1.0  0.1758
  C  C215  1  0.406700  0.107100  0.816700  1.0  -0.2485
  C  C216  1  0.390500  0.085500  0.885800  1.0  0.0124
  C  C217  1  0.423300  0.036000  0.894200  1.0  -0.1409
  C  C218  1  0.375700  0.160600  0.805500  1.0  0.835
  C  C219  1  0.514400  0.960100  0.840300  1.0  0.2325
  C  C220  1  0.537100  0.891200  0.921000  1.0  0.1923
  C  C221  1  0.601000  0.869000  0.868400  1.0  -0.2398
  C  C222  1  0.621600  0.892300  0.801700  1.0  0.0049
  C  C223  1  0.578300  0.937800  0.787700  1.0  -0.146
  C  C224  1  0.653100  0.820700  0.883200  1.0  0.803
  N  N225  1  0.487900  0.550100  0.435200  1.0  -0.4276
  N  N226  1  0.521600  0.939700  0.436500  1.0  -0.4138
  N  N227  1  0.970600  0.571000  0.405700  1.0  -0.3899
  N  N228  1  0.072100  0.481000  0.402500  1.0  -0.3726
  N  N229  1  0.011500  0.029600  0.264400  1.0  -0.4095
  N  N230  1  0.006200  0.936800  0.407000  1.0  -0.409
  N  N231  1  0.987900  0.449900  0.064800  1.0  -0.4276
  N  N232  1  0.021600  0.060300  0.063500  1.0  -0.4119
  N  N233  1  0.470600  0.429000  0.094300  1.0  -0.386
  N  N234  1  0.572100  0.519000  0.097500  1.0  -0.3726
  N  N235  1  0.511500  0.970400  0.235600  1.0  -0.4079
  N  N236  1  0.506200  0.063200  0.093000  1.0  -0.4099
  N  N237  1  0.512100  0.449900  0.564800  1.0  -0.4281
  N  N238  1  0.478400  0.060300  0.563500  1.0  -0.4127
  N  N239  1  0.029400  0.429000  0.594300  1.0  -0.3861
  N  N240  1  0.927900  0.519000  0.597500  1.0  -0.3727
  N  N241  1  0.988500  0.970400  0.735600  1.0  -0.4078
  N  N242  1  0.993800  0.063200  0.593000  1.0  -0.4095
  N  N243  1  0.012100  0.550100  0.935200  1.0  -0.4276
  N  N244  1  0.978400  0.939700  0.936500  1.0  -0.4145
  N  N245  1  0.529400  0.571000  0.905700  1.0  -0.3877
  N  N246  1  0.427900  0.481000  0.902500  1.0  -0.3727
  N  N247  1  0.488500  0.029600  0.764400  1.0  -0.4092
  N  N248  1  0.493800  0.936800  0.907000  1.0  -0.4092
  O  O249  1  0.660200  0.801800  0.440900  1.0  -0.8549
  O  O250  1  0.775500  0.679300  0.282300  1.0  -0.6848
  O  O251  1  0.802500  0.799300  0.329100  1.0  -0.6847
  O  O252  1  0.613500  0.685100  0.391500  1.0  -0.7203
  O  O253  1  0.114800  0.301300  0.295100  1.0  -0.7955
  O  O254  1  0.138200  0.172400  0.241000  1.0  -0.7198
  O  O255  1  0.176200  0.331200  0.410400  1.0  -0.6602
  O  O256  1  0.806100  0.701300  0.408100  1.0  -0.844
  O  O257  1  0.662700  0.700800  0.515300  1.0  -0.7059
  O  O258  1  0.697000  0.822000  0.565200  1.0  -0.6429
  O  O259  1  0.851200  0.810800  0.452900  1.0  -0.7566
  O  O260  1  0.137700  0.191600  0.367000  1.0  -0.7924
  O  O261  1  0.160200  0.198200  0.059100  1.0  -0.8573
  O  O262  1  0.275500  0.320700  0.217700  1.0  -0.6834
  O  O263  1  0.302500  0.200700  0.170900  1.0  -0.686
  O  O264  1  0.113500  0.314900  0.108500  1.0  -0.7209
  O  O265  1  0.614800  0.698700  0.204900  1.0  -0.7959
  O  O266  1  0.638200  0.827600  0.259000  1.0  -0.72
  O  O267  1  0.676200  0.668800  0.089600  1.0  -0.6605
  O  O268  1  0.306100  0.298700  0.091900  1.0  -0.8413
  O  O269  1  0.162700  0.299200  0.984700  1.0  -0.7085
  O  O270  1  0.197000  0.178000  0.934800  1.0  -0.642
  O  O271  1  0.351200  0.189200  0.047100  1.0  -0.7549
  O  O272  1  0.637700  0.808400  0.133000  1.0  -0.7921
  O  O273  1  0.339800  0.198200  0.559100  1.0  -0.8563
  O  O274  1  0.224500  0.320700  0.717700  1.0  -0.6842
  O  O275  1  0.197500  0.200700  0.670900  1.0  -0.6866
  O  O276  1  0.386500  0.314900  0.608500  1.0  -0.7182
  O  O277  1  0.885200  0.698700  0.704900  1.0  -0.7942
  O  O278  1  0.861800  0.827600  0.759000  1.0  -0.7194
  O  O279  1  0.823800  0.668800  0.589600  1.0  -0.6611
  O  O280  1  0.193900  0.298700  0.591900  1.0  -0.8413
  O  O281  1  0.337300  0.299200  0.484700  1.0  -0.7069
  O  O282  1  0.303000  0.178000  0.434800  1.0  -0.6415
  O  O283  1  0.148800  0.189200  0.547100  1.0  -0.7556
  O  O284  1  0.862300  0.808400  0.633000  1.0  -0.7912
  O  O285  1  0.839800  0.801800  0.940900  1.0  -0.8541
  O  O286  1  0.724500  0.679300  0.782300  1.0  -0.6855
  O  O287  1  0.697500  0.799300  0.829100  1.0  -0.6848
  O  O288  1  0.886500  0.685100  0.891500  1.0  -0.7165
  O  O289  1  0.385200  0.301300  0.795100  1.0  -0.7938
  O  O290  1  0.361800  0.172400  0.741000  1.0  -0.7187
  O  O291  1  0.323800  0.331200  0.910400  1.0  -0.661
  O  O292  1  0.693900  0.701300  0.908100  1.0  -0.8441
  O  O293  1  0.837300  0.700800  0.015300  1.0  -0.7049
  O  O294  1  0.803000  0.822000  0.065200  1.0  -0.643
  O  O295  1  0.648800  0.810800  0.952900  1.0  -0.7554
  O  O296  1  0.362300  0.191600  0.867000  1.0  -0.7907
