# generated using pymatgen
data_SmH9C18(NO2)3
_symmetry_space_group_name_H-M   'P 1'
_cell_length_a   15.51170000
_cell_length_b   25.52730000
_cell_length_c   17.10050000
_cell_angle_alpha   98.29800000
_cell_angle_beta   90.00000000
_cell_angle_gamma   90.00000000
_symmetry_Int_Tables_number   1
_chemical_formula_structural   SmH9C18(NO2)3
_chemical_formula_sum   'Sm8 H72 C144 N24 O48'
_cell_volume   6700.42602119
_cell_formula_units_Z   8
loop_
 _symmetry_equiv_pos_site_id
 _symmetry_equiv_pos_as_xyz
  1  'x, y, z'
loop_
 _atom_site_type_symbol
 _atom_site_label
 _atom_site_symmetry_multiplicity
 _atom_site_fract_x
 _atom_site_fract_y
 _atom_site_fract_z
 _atom_site_occupancy
 _atom_site_charge
  Sm  Sm1  1  0.825140  0.749350  0.685430  1.0  2.3071
  Sm  Sm2  1  0.294530  0.249540  0.536820  1.0  2.3164
  Sm  Sm3  1  0.325140  0.250650  0.814570  1.0  2.3158
  Sm  Sm4  1  0.794530  0.750460  0.963180  1.0  2.3235
  Sm  Sm5  1  0.174860  0.250650  0.314570  1.0  2.3217
  Sm  Sm6  1  0.705470  0.750460  0.463180  1.0  2.327
  Sm  Sm7  1  0.674860  0.749350  0.185430  1.0  2.3186
  Sm  Sm8  1  0.205470  0.249540  0.036820  1.0  2.3261
  H  H9  1  0.999400  0.886400  0.619300  1.0  0.0985
  H  H10  1  0.896600  0.971900  0.416300  1.0  0.1137
  H  H11  1  0.837800  0.891400  0.436800  1.0  0.1042
  H  H12  1  0.930700  0.634700  0.608800  1.0  0.0867
  H  H13  1  0.933900  0.509100  0.383900  1.0  0.1055
  H  H14  1  0.861300  0.588400  0.383000  1.0  0.1048
  H  H15  1  0.585800  0.859400  0.546600  1.0  0.0762
  H  H16  1  0.571200  0.982000  0.774600  1.0  0.1136
  H  H17  1  0.657100  0.907300  0.771500  1.0  0.1051
  H  H18  1  0.355900  0.074300  0.552000  1.0  0.0985
  H  H19  1  0.525700  0.049100  0.766800  1.0  0.1112
  H  H20  1  0.460200  0.130300  0.762600  1.0  0.0964
  H  H21  1  0.405400  0.381800  0.565900  1.0  0.0923
  H  H22  1  0.469600  0.504900  0.785300  1.0  0.1107
  H  H23  1  0.412000  0.423300  0.801600  1.0  0.0929
  H  H24  1  0.662400  0.621500  0.730800  1.0  0.1029
  H  H25  1  0.590900  0.545500  0.754200  1.0  0.1136
  H  H26  1  0.523100  0.623500  0.533100  1.0  0.0937
  H  H27  1  0.499400  0.113600  0.880700  1.0  0.0987
  H  H28  1  0.396600  0.028100  0.083700  1.0  0.1138
  H  H29  1  0.337800  0.108600  0.063200  1.0  0.1039
  H  H30  1  0.430700  0.365300  0.891200  1.0  0.0873
  H  H31  1  0.433900  0.490900  0.116100  1.0  0.1072
  H  H32  1  0.361300  0.411600  0.117000  1.0  0.1042
  H  H33  1  0.085800  0.140600  0.953400  1.0  0.0766
  H  H34  1  0.071200  0.018000  0.725400  1.0  0.1126
  H  H35  1  0.157100  0.092700  0.728500  1.0  0.1051
  H  H36  1  0.855900  0.925700  0.948000  1.0  0.0984
  H  H37  1  0.025700  0.950900  0.733200  1.0  0.1111
  H  H38  1  0.960200  0.869700  0.737400  1.0  0.0975
  H  H39  1  0.905400  0.618200  0.934100  1.0  0.0931
  H  H40  1  0.969600  0.495100  0.714700  1.0  0.1111
  H  H41  1  0.912000  0.576700  0.698400  1.0  0.0933
  H  H42  1  0.162400  0.378500  0.769200  1.0  0.103
  H  H43  1  0.090900  0.454500  0.745800  1.0  0.114
  H  H44  1  0.023100  0.376500  0.966900  1.0  0.0941
  H  H45  1  0.000600  0.113600  0.380700  1.0  0.0977
  H  H46  1  0.103400  0.028100  0.583700  1.0  0.1139
  H  H47  1  0.162200  0.108600  0.563200  1.0  0.1038
  H  H48  1  0.069300  0.365300  0.391200  1.0  0.0868
  H  H49  1  0.066100  0.490900  0.616100  1.0  0.1055
  H  H50  1  0.138700  0.411600  0.617000  1.0  0.1043
  H  H51  1  0.414200  0.140600  0.453400  1.0  0.077
  H  H52  1  0.428800  0.018000  0.225400  1.0  0.1126
  H  H53  1  0.342900  0.092700  0.228500  1.0  0.105
  H  H54  1  0.644100  0.925700  0.448000  1.0  0.0985
  H  H55  1  0.474300  0.950900  0.233200  1.0  0.1096
  H  H56  1  0.539800  0.869700  0.237400  1.0  0.0952
  H  H57  1  0.594600  0.618200  0.434100  1.0  0.0939
  H  H58  1  0.530400  0.495100  0.214700  1.0  0.1112
  H  H59  1  0.588000  0.576700  0.198400  1.0  0.0932
  H  H60  1  0.337600  0.378500  0.269200  1.0  0.1032
  H  H61  1  0.409100  0.454500  0.245800  1.0  0.1142
  H  H62  1  0.476900  0.376500  0.466900  1.0  0.0945
  H  H63  1  0.500600  0.886400  0.119300  1.0  0.099
  H  H64  1  0.603400  0.971900  0.916300  1.0  0.114
  H  H65  1  0.662200  0.891400  0.936800  1.0  0.1043
  H  H66  1  0.569300  0.634700  0.108800  1.0  0.0867
  H  H67  1  0.566100  0.509100  0.883900  1.0  0.1052
  H  H68  1  0.638700  0.588400  0.883000  1.0  0.1048
  H  H69  1  0.914200  0.859400  0.046600  1.0  0.0778
  H  H70  1  0.928800  0.982000  0.274600  1.0  0.1138
  H  H71  1  0.842900  0.907300  0.271500  1.0  0.105
  H  H72  1  0.144100  0.074300  0.052000  1.0  0.0992
  H  H73  1  0.974300  0.049100  0.266800  1.0  0.1097
  H  H74  1  0.039800  0.130300  0.262600  1.0  0.0974
  H  H75  1  0.094600  0.381800  0.065900  1.0  0.0909
  H  H76  1  0.030400  0.504900  0.285300  1.0  0.1106
  H  H77  1  0.088000  0.423300  0.301600  1.0  0.0929
  H  H78  1  0.837600  0.621500  0.230800  1.0  0.103
  H  H79  1  0.909100  0.545500  0.254200  1.0  0.114
  H  H80  1  0.976900  0.623500  0.033100  1.0  0.0946
  C  C81  1  0.912800  0.880900  0.530100  1.0  -0.1925
  C  C82  1  0.978800  0.903600  0.578600  1.0  0.1921
  C  C83  1  0.983200  0.977400  0.505500  1.0  0.2327
  C  C84  1  0.917200  0.954800  0.457000  1.0  -0.1546
  C  C85  1  0.882000  0.906500  0.469300  1.0  0.0021
  C  C86  1  0.871900  0.827400  0.542100  1.0  0.7682
  C  C87  1  0.888800  0.619500  0.495900  1.0  -0.2372
  C  C88  1  0.931300  0.609600  0.563700  1.0  0.1908
  C  C89  1  0.975800  0.524400  0.496900  1.0  0.2079
  C  C90  1  0.933300  0.534300  0.429000  1.0  -0.1432
  C  C91  1  0.889800  0.581800  0.428500  1.0  0.017
  C  C92  1  0.839100  0.666000  0.495400  1.0  0.8247
  C  C93  1  0.630000  0.875900  0.658800  1.0  -0.2402
  C  C94  1  0.582900  0.883900  0.592300  1.0  0.2091
  C  C95  1  0.527000  0.965400  0.662500  1.0  0.2337
  C  C96  1  0.574100  0.957400  0.728900  1.0  -0.177
  C  C97  1  0.625600  0.912700  0.727100  1.0  0.0093
  C  C98  1  0.686600  0.829000  0.659100  1.0  0.7958
  C  C99  1  0.401500  0.110400  0.656900  1.0  -0.2469
  C  C100  1  0.389900  0.069300  0.595000  1.0  0.1942
  C  C101  1  0.480100  0.013000  0.661900  1.0  0.232
  C  C102  1  0.491700  0.054100  0.723700  1.0  -0.1874
  C  C103  1  0.452400  0.102800  0.721200  1.0  0.0303
  C  C104  1  0.363100  0.162100  0.647200  1.0  0.8144
  C  C105  1  0.403000  0.394500  0.685400  1.0  -0.2669
  C  C106  1  0.418300  0.406500  0.609900  1.0  0.1899
  C  C107  1  0.472000  0.492200  0.665800  1.0  0.2304
  C  C108  1  0.456700  0.480200  0.741300  1.0  -0.2173
  C  C109  1  0.422200  0.431300  0.751100  1.0  0.0231
  C  C110  1  0.369700  0.341700  0.695300  1.0  0.8476
  C  C111  1  0.599800  0.630100  0.629700  1.0  -0.2296
  C  C112  1  0.620100  0.606700  0.695900  1.0  0.019
  C  C113  1  0.577300  0.561100  0.709900  1.0  -0.205
  C  C114  1  0.514100  0.539000  0.657700  1.0  0.2351
  C  C115  1  0.536700  0.607900  0.577400  1.0  0.2027
  C  C116  1  0.652800  0.679400  0.615300  1.0  0.8108
  C  C117  1  0.412800  0.119100  0.969900  1.0  -0.1922
  C  C118  1  0.478800  0.096400  0.921400  1.0  0.1915
  C  C119  1  0.483200  0.022600  0.994500  1.0  0.2296
  C  C120  1  0.417200  0.045200  0.043000  1.0  -0.1501
  C  C121  1  0.382000  0.093500  0.030700  1.0  0.0004
  C  C122  1  0.371900  0.172600  0.957900  1.0  0.7691
  C  C123  1  0.388800  0.380500  0.004100  1.0  -0.2373
  C  C124  1  0.431300  0.390400  0.936300  1.0  0.1925
  C  C125  1  0.475800  0.475600  0.003100  1.0  0.211
  C  C126  1  0.433300  0.465700  0.071000  1.0  -0.1446
  C  C127  1  0.389800  0.418200  0.071500  1.0  0.0163
  C  C128  1  0.339100  0.334000  0.004600  1.0  0.8212
  C  C129  1  0.130000  0.124100  0.841200  1.0  -0.2396
  C  C130  1  0.082900  0.116100  0.907700  1.0  0.206
  C  C131  1  0.027000  0.034600  0.837500  1.0  0.2362
  C  C132  1  0.074100  0.042600  0.771100  1.0  -0.1782
  C  C133  1  0.125600  0.087300  0.772900  1.0  0.009
  C  C134  1  0.186600  0.171000  0.840900  1.0  0.7959
  C  C135  1  0.901500  0.889600  0.843100  1.0  -0.2476
  C  C136  1  0.889900  0.930700  0.905000  1.0  0.1888
  C  C137  1  0.980100  0.987000  0.838100  1.0  0.2322
  C  C138  1  0.991700  0.945900  0.776300  1.0  -0.188
  C  C139  1  0.952400  0.897200  0.778800  1.0  0.0305
  C  C140  1  0.863100  0.837900  0.852800  1.0  0.8051
  C  C141  1  0.903000  0.605500  0.814600  1.0  -0.267
  C  C142  1  0.918300  0.593500  0.890100  1.0  0.1887
  C  C143  1  0.972000  0.507800  0.834200  1.0  0.2336
  C  C144  1  0.956700  0.519800  0.758700  1.0  -0.215
  C  C145  1  0.922200  0.568700  0.748900  1.0  0.0238
  C  C146  1  0.869700  0.658300  0.804700  1.0  0.8499
  C  C147  1  0.099800  0.369900  0.870300  1.0  -0.2298
  C  C148  1  0.120100  0.393300  0.804100  1.0  0.0191
  C  C149  1  0.077300  0.438900  0.790100  1.0  -0.2032
  C  C150  1  0.014100  0.461000  0.842300  1.0  0.2344
  C  C151  1  0.036700  0.392100  0.922600  1.0  0.1963
  C  C152  1  0.152800  0.320600  0.884700  1.0  0.8098
  C  C153  1  0.087200  0.119100  0.469900  1.0  -0.1916
  C  C154  1  0.021200  0.096400  0.421400  1.0  0.1923
  C  C155  1  0.016800  0.022600  0.494500  1.0  0.2275
  C  C156  1  0.082800  0.045200  0.543000  1.0  -0.1502
  C  C157  1  0.118000  0.093500  0.530700  1.0  0.0014
  C  C158  1  0.128100  0.172600  0.457900  1.0  0.7815
  C  C159  1  0.111200  0.380500  0.504100  1.0  -0.2387
  C  C160  1  0.068700  0.390400  0.436300  1.0  0.1943
  C  C161  1  0.024200  0.475600  0.503100  1.0  0.2088
  C  C162  1  0.066700  0.465700  0.571000  1.0  -0.148
  C  C163  1  0.110200  0.418200  0.571500  1.0  0.0167
  C  C164  1  0.160900  0.334000  0.504600  1.0  0.8208
  C  C165  1  0.370000  0.124100  0.341200  1.0  -0.2395
  C  C166  1  0.417100  0.116100  0.407700  1.0  0.204
  C  C167  1  0.473000  0.034600  0.337500  1.0  0.2342
  C  C168  1  0.425900  0.042600  0.271100  1.0  -0.1773
  C  C169  1  0.374400  0.087300  0.272900  1.0  0.0066
  C  C170  1  0.313400  0.171000  0.340900  1.0  0.7978
  C  C171  1  0.598500  0.889600  0.343100  1.0  -0.2467
  C  C172  1  0.610100  0.930700  0.405000  1.0  0.1837
  C  C173  1  0.519900  0.987000  0.338100  1.0  0.2335
  C  C174  1  0.508300  0.945900  0.276300  1.0  -0.1896
  C  C175  1  0.547600  0.897200  0.278800  1.0  0.0319
  C  C176  1  0.636900  0.837900  0.352800  1.0  0.8132
  C  C177  1  0.597000  0.605500  0.314600  1.0  -0.267
  C  C178  1  0.581700  0.593500  0.390100  1.0  0.1893
  C  C179  1  0.528000  0.507800  0.334200  1.0  0.2306
  C  C180  1  0.543300  0.519800  0.258700  1.0  -0.215
  C  C181  1  0.577800  0.568700  0.248900  1.0  0.0241
  C  C182  1  0.630300  0.658300  0.304700  1.0  0.8498
  C  C183  1  0.400200  0.369900  0.370300  1.0  -0.23
  C  C184  1  0.379900  0.393300  0.304100  1.0  0.0198
  C  C185  1  0.422700  0.438900  0.290100  1.0  -0.2061
  C  C186  1  0.485900  0.461000  0.342300  1.0  0.2327
  C  C187  1  0.463300  0.392100  0.422600  1.0  0.2021
  C  C188  1  0.347200  0.320600  0.384700  1.0  0.8125
  C  C189  1  0.587200  0.880900  0.030100  1.0  -0.1921
  C  C190  1  0.521200  0.903600  0.078600  1.0  0.1923
  C  C191  1  0.516800  0.977400  0.005500  1.0  0.2299
  C  C192  1  0.582800  0.954800  0.957000  1.0  -0.1516
  C  C193  1  0.618000  0.906500  0.969300  1.0  0.0008
  C  C194  1  0.628100  0.827400  0.042100  1.0  0.7836
  C  C195  1  0.611200  0.619500  0.995900  1.0  -0.2379
  C  C196  1  0.568700  0.609600  0.063700  1.0  0.1933
  C  C197  1  0.524200  0.524400  0.996900  1.0  0.2097
  C  C198  1  0.566700  0.534300  0.929000  1.0  -0.1449
  C  C199  1  0.610200  0.581800  0.928500  1.0  0.0168
  C  C200  1  0.660900  0.666000  0.995400  1.0  0.8264
  C  C201  1  0.870000  0.875900  0.158800  1.0  -0.24
  C  C202  1  0.917100  0.883900  0.092300  1.0  0.2066
  C  C203  1  0.973000  0.965400  0.162500  1.0  0.2332
  C  C204  1  0.925900  0.957400  0.228900  1.0  -0.175
  C  C205  1  0.874400  0.912700  0.227100  1.0  0.0073
  C  C206  1  0.813400  0.829000  0.159100  1.0  0.7975
  C  C207  1  0.098500  0.110400  0.156900  1.0  -0.2461
  C  C208  1  0.110100  0.069300  0.095000  1.0  0.1864
  C  C209  1  0.019900  0.013000  0.161900  1.0  0.2342
  C  C210  1  0.008300  0.054100  0.223700  1.0  -0.1869
  C  C211  1  0.047600  0.102800  0.221200  1.0  0.0313
  C  C212  1  0.136900  0.162100  0.147200  1.0  0.8122
  C  C213  1  0.097000  0.394500  0.185400  1.0  -0.2669
  C  C214  1  0.081700  0.406500  0.109900  1.0  0.19
  C  C215  1  0.028000  0.492200  0.165800  1.0  0.2332
  C  C216  1  0.043300  0.480200  0.241300  1.0  -0.2167
  C  C217  1  0.077800  0.431300  0.251100  1.0  0.0241
  C  C218  1  0.130300  0.341700  0.195300  1.0  0.8473
  C  C219  1  0.900200  0.630100  0.129700  1.0  -0.2294
  C  C220  1  0.879900  0.606700  0.195900  1.0  0.0198
  C  C221  1  0.922700  0.561100  0.209900  1.0  -0.2052
  C  C222  1  0.985900  0.539000  0.157700  1.0  0.2355
  C  C223  1  0.963300  0.607900  0.077400  1.0  0.1953
  C  C224  1  0.847200  0.679400  0.115300  1.0  0.8122
  N  N225  1  0.014000  0.951800  0.566300  1.0  -0.4199
  N  N226  1  0.974900  0.562000  0.564200  1.0  -0.4024
  N  N227  1  0.531400  0.928700  0.594200  1.0  -0.3815
  N  N228  1  0.429200  0.020600  0.597500  1.0  -0.3866
  N  N229  1  0.452800  0.455400  0.600100  1.0  -0.378
  N  N230  1  0.493800  0.562300  0.591500  1.0  -0.3887
  N  N231  1  0.514000  0.048200  0.933700  1.0  -0.4195
  N  N232  1  0.474900  0.438000  0.935800  1.0  -0.4018
  N  N233  1  0.031400  0.071300  0.905800  1.0  -0.382
  N  N234  1  0.929200  0.979400  0.902500  1.0  -0.3872
  N  N235  1  0.952800  0.544600  0.899900  1.0  -0.3764
  N  N236  1  0.993800  0.437700  0.908500  1.0  -0.3889
  N  N237  1  0.986000  0.048200  0.433700  1.0  -0.4192
  N  N238  1  0.025100  0.438000  0.435800  1.0  -0.4025
  N  N239  1  0.468600  0.071300  0.405800  1.0  -0.3801
  N  N240  1  0.570800  0.979400  0.402500  1.0  -0.3773
  N  N241  1  0.547200  0.544600  0.399900  1.0  -0.376
  N  N242  1  0.506200  0.437700  0.408500  1.0  -0.385
  N  N243  1  0.486000  0.951800  0.066300  1.0  -0.419
  N  N244  1  0.525100  0.562000  0.064200  1.0  -0.403
  N  N245  1  0.968600  0.928700  0.094200  1.0  -0.3808
  N  N246  1  0.070800  0.020600  0.097500  1.0  -0.3801
  N  N247  1  0.047200  0.455400  0.100100  1.0  -0.3776
  N  N248  1  0.006200  0.562300  0.091500  1.0  -0.3842
  O  O249  1  0.835700  0.698400  0.557600  1.0  -0.8707
  O  O250  1  0.724700  0.821800  0.719700  1.0  -0.6893
  O  O251  1  0.695000  0.700900  0.670900  1.0  -0.7037
  O  O252  1  0.883700  0.814700  0.611600  1.0  -0.7575
  O  O253  1  0.382000  0.198100  0.702900  1.0  -0.8223
  O  O254  1  0.351900  0.332100  0.761500  1.0  -0.7241
  O  O255  1  0.322300  0.168000  0.587600  1.0  -0.7164
  O  O256  1  0.695500  0.799200  0.593100  1.0  -0.8659
  O  O257  1  0.834500  0.800400  0.486900  1.0  -0.7144
  O  O258  1  0.800700  0.674600  0.436000  1.0  -0.6941
  O  O259  1  0.644700  0.689500  0.545800  1.0  -0.7457
  O  O260  1  0.360500  0.309000  0.635500  1.0  -0.8155
  O  O261  1  0.335700  0.301600  0.942400  1.0  -0.8669
  O  O262  1  0.224700  0.178200  0.780300  1.0  -0.6906
  O  O263  1  0.195000  0.299100  0.829100  1.0  -0.7021
  O  O264  1  0.383700  0.185300  0.888400  1.0  -0.7597
  O  O265  1  0.882000  0.801900  0.797100  1.0  -0.8226
  O  O266  1  0.851900  0.667900  0.738500  1.0  -0.7258
  O  O267  1  0.822300  0.832000  0.912400  1.0  -0.716
  O  O268  1  0.195500  0.200800  0.906900  1.0  -0.8664
  O  O269  1  0.334500  0.199600  0.013100  1.0  -0.7121
  O  O270  1  0.300700  0.325400  0.064000  1.0  -0.6941
  O  O271  1  0.144700  0.310500  0.954200  1.0  -0.7485
  O  O272  1  0.860500  0.691000  0.864500  1.0  -0.8119
  O  O273  1  0.164300  0.301600  0.442400  1.0  -0.8683
  O  O274  1  0.275300  0.178200  0.280300  1.0  -0.6897
  O  O275  1  0.305000  0.299100  0.329100  1.0  -0.7007
  O  O276  1  0.116300  0.185300  0.388400  1.0  -0.7629
  O  O277  1  0.618000  0.801900  0.297100  1.0  -0.8237
  O  O278  1  0.648100  0.667900  0.238500  1.0  -0.7277
  O  O279  1  0.677700  0.832000  0.412400  1.0  -0.717
  O  O280  1  0.304500  0.200800  0.406900  1.0  -0.8653
  O  O281  1  0.165500  0.199600  0.513100  1.0  -0.7168
  O  O282  1  0.199300  0.325400  0.564000  1.0  -0.6949
  O  O283  1  0.355300  0.310500  0.454200  1.0  -0.7496
  O  O284  1  0.639500  0.691000  0.364500  1.0  -0.8155
  O  O285  1  0.664300  0.698400  0.057600  1.0  -0.8718
  O  O286  1  0.775300  0.821800  0.219700  1.0  -0.6888
  O  O287  1  0.805000  0.700900  0.170900  1.0  -0.7012
  O  O288  1  0.616300  0.814700  0.111600  1.0  -0.7587
  O  O289  1  0.118000  0.198100  0.202900  1.0  -0.8239
  O  O290  1  0.148100  0.332100  0.261500  1.0  -0.7253
  O  O291  1  0.177700  0.168000  0.087600  1.0  -0.7176
  O  O292  1  0.804500  0.799200  0.093100  1.0  -0.8646
  O  O293  1  0.665500  0.800400  0.986900  1.0  -0.7177
  O  O294  1  0.699300  0.674600  0.936000  1.0  -0.6951
  O  O295  1  0.855300  0.689500  0.045800  1.0  -0.7442
  O  O296  1  0.139500  0.309000  0.135500  1.0  -0.8178
