# generated using pymatgen
data_SmH9C18(NO2)3
_symmetry_space_group_name_H-M   'P 1'
_cell_length_a   11.35100000
_cell_length_b   27.09510000
_cell_length_c   17.01840000
_cell_angle_alpha   98.21800000
_cell_angle_beta   90.00000000
_cell_angle_gamma   90.00000000
_symmetry_Int_Tables_number   1
_chemical_formula_structural   SmH9C18(NO2)3
_chemical_formula_sum   'Sm8 H72 C144 N24 O48'
_cell_volume   5180.37198771
_cell_formula_units_Z   8
loop_
 _symmetry_equiv_pos_site_id
 _symmetry_equiv_pos_as_xyz
  1  'x, y, z'
loop_
 _atom_site_type_symbol
 _atom_site_label
 _atom_site_symmetry_multiplicity
 _atom_site_fract_x
 _atom_site_fract_y
 _atom_site_fract_z
 _atom_site_occupancy
 _atom_site_charge
  Sm  Sm1  1  0.123560  0.751810  0.690440  1.0  2.3195
  Sm  Sm2  1  0.686610  0.249120  0.530170  1.0  2.3247
  Sm  Sm3  1  0.623560  0.248190  0.809560  1.0  2.3156
  Sm  Sm4  1  0.186610  0.750880  0.969830  1.0  2.3244
  Sm  Sm5  1  0.876440  0.248190  0.309560  1.0  2.3188
  Sm  Sm6  1  0.313390  0.750880  0.469830  1.0  2.3247
  Sm  Sm7  1  0.376440  0.751810  0.190440  1.0  2.3142
  Sm  Sm8  1  0.813390  0.249120  0.030170  1.0  2.3249
  H  H9  1  0.930200  0.894300  0.619900  1.0  0.1033
  H  H10  1  0.170600  0.878600  0.444800  1.0  0.0966
  H  H11  1  0.131900  0.959200  0.420700  1.0  0.1048
  H  H12  1  0.086400  0.515700  0.388200  1.0  0.1069
  H  H13  1  0.138100  0.598600  0.389400  1.0  0.0959
  H  H14  1  0.004400  0.631800  0.609300  1.0  0.0922
  H  H15  1  0.464000  0.858200  0.556700  1.0  0.0838
  H  H16  1  0.344500  0.897900  0.778900  1.0  0.0911
  H  H17  1  0.430600  0.975900  0.782100  1.0  0.1144
  H  H18  1  0.497000  0.038500  0.775400  1.0  0.1043
  H  H19  1  0.532000  0.121600  0.764300  1.0  0.0968
  H  H20  1  0.627700  0.082500  0.536600  1.0  0.0961
  H  H21  1  0.437100  0.486700  0.771900  1.0  0.1045
  H  H22  1  0.475400  0.403800  0.782500  1.0  0.0949
  H  H23  1  0.638100  0.387400  0.570600  1.0  0.0872
  H  H24  1  0.514100  0.618100  0.543900  1.0  0.0987
  H  H25  1  0.308500  0.626800  0.737600  1.0  0.0907
  H  H26  1  0.365400  0.547000  0.755600  1.0  0.1149
  H  H27  1  0.430200  0.105700  0.880100  1.0  0.1035
  H  H28  1  0.670600  0.121400  0.055200  1.0  0.0969
  H  H29  1  0.631900  0.040800  0.079300  1.0  0.1053
  H  H30  1  0.586400  0.484300  0.111800  1.0  0.1071
  H  H31  1  0.638100  0.401400  0.110600  1.0  0.0964
  H  H32  1  0.504400  0.368200  0.890700  1.0  0.0926
  H  H33  1  0.964000  0.141800  0.943300  1.0  0.0836
  H  H34  1  0.844500  0.102100  0.721100  1.0  0.0914
  H  H35  1  0.930600  0.024100  0.717900  1.0  0.1132
  H  H36  1  0.997000  0.961500  0.724600  1.0  0.1046
  H  H37  1  0.032000  0.878400  0.735700  1.0  0.0966
  H  H38  1  0.127700  0.917500  0.963400  1.0  0.0964
  H  H39  1  0.937100  0.513300  0.728100  1.0  0.1048
  H  H40  1  0.975400  0.596200  0.717500  1.0  0.0951
  H  H41  1  0.138100  0.612600  0.929400  1.0  0.0876
  H  H42  1  0.014100  0.381900  0.956100  1.0  0.0975
  H  H43  1  0.808500  0.373200  0.762400  1.0  0.0903
  H  H44  1  0.865400  0.453000  0.744400  1.0  0.1139
  H  H45  1  0.069800  0.105700  0.380100  1.0  0.1031
  H  H46  1  0.829400  0.121400  0.555200  1.0  0.0971
  H  H47  1  0.868100  0.040800  0.579300  1.0  0.1048
  H  H48  1  0.913600  0.484300  0.611800  1.0  0.1071
  H  H49  1  0.861900  0.401400  0.610600  1.0  0.0959
  H  H50  1  0.995600  0.368200  0.390700  1.0  0.0929
  H  H51  1  0.536000  0.141800  0.443300  1.0  0.0859
  H  H52  1  0.655500  0.102100  0.221100  1.0  0.0915
  H  H53  1  0.569400  0.024100  0.217900  1.0  0.1129
  H  H54  1  0.503000  0.961500  0.224600  1.0  0.1041
  H  H55  1  0.468000  0.878400  0.235700  1.0  0.0949
  H  H56  1  0.372300  0.917500  0.463400  1.0  0.0962
  H  H57  1  0.562900  0.513300  0.228100  1.0  0.1063
  H  H58  1  0.524600  0.596200  0.217500  1.0  0.0948
  H  H59  1  0.361900  0.612600  0.429400  1.0  0.0874
  H  H60  1  0.485900  0.381900  0.456100  1.0  0.0984
  H  H61  1  0.691500  0.373200  0.262400  1.0  0.0905
  H  H62  1  0.634600  0.453000  0.244400  1.0  0.1129
  H  H63  1  0.569800  0.894300  0.119900  1.0  0.1027
  H  H64  1  0.329400  0.878600  0.944800  1.0  0.0966
  H  H65  1  0.368100  0.959200  0.920700  1.0  0.1046
  H  H66  1  0.413600  0.515700  0.888200  1.0  0.1069
  H  H67  1  0.361900  0.598600  0.889400  1.0  0.0961
  H  H68  1  0.495600  0.631800  0.109300  1.0  0.0919
  H  H69  1  0.036000  0.858200  0.056700  1.0  0.0849
  H  H70  1  0.155500  0.897900  0.278900  1.0  0.0917
  H  H71  1  0.069400  0.975900  0.282100  1.0  0.1145
  H  H72  1  0.003000  0.038500  0.275400  1.0  0.105
  H  H73  1  0.968000  0.121600  0.264300  1.0  0.0949
  H  H74  1  0.872300  0.082500  0.036600  1.0  0.096
  H  H75  1  0.062900  0.486700  0.271900  1.0  0.1061
  H  H76  1  0.024600  0.403800  0.282500  1.0  0.0942
  H  H77  1  0.861900  0.387400  0.070600  1.0  0.087
  H  H78  1  0.985900  0.618100  0.043900  1.0  0.0984
  H  H79  1  0.191500  0.626800  0.237600  1.0  0.0907
  H  H80  1  0.134600  0.547000  0.255600  1.0  0.1145
  C  C81  1  0.007900  0.975000  0.505900  1.0  0.2215
  C  C82  1  0.970600  0.907300  0.579900  1.0  0.1917
  C  C83  1  0.054200  0.878440  0.534700  1.0  -0.245
  C  C84  1  0.114700  0.897900  0.475000  1.0  0.0287
  C  C85  1  0.091500  0.946200  0.460600  1.0  -0.1512
  C  C86  1  0.083100  0.827700  0.551700  1.0  0.8052
  C  C87  1  0.014500  0.524000  0.498000  1.0  0.2298
  C  C88  1  0.070000  0.538900  0.432500  1.0  -0.1448
  C  C89  1  0.101000  0.588600  0.433200  1.0  0.0163
  C  C90  1  0.076400  0.623400  0.499500  1.0  -0.2373
  C  C91  1  0.020900  0.608500  0.565000  1.0  0.2123
  C  C92  1  0.120200  0.675600  0.504100  1.0  0.8179
  C  C93  1  0.498900  0.963680  0.671200  1.0  0.2215
  C  C94  1  0.457300  0.881700  0.601800  1.0  0.1991
  C  C95  1  0.395700  0.870300  0.667500  1.0  -0.2415
  C  C96  1  0.385700  0.905600  0.735000  1.0  0.0108
  C  C97  1  0.437300  0.952300  0.736900  1.0  -0.1748
  C  C98  1  0.325800  0.823600  0.664600  1.0  0.8324
  C  C99  1  0.541400  0.010730  0.662700  1.0  0.2319
  C  C100  1  0.523200  0.047300  0.727600  1.0  -0.1919
  C  C101  1  0.544200  0.097100  0.720900  1.0  0.0273
  C  C102  1  0.583300  0.110280  0.649300  1.0  -0.2406
  C  C103  1  0.601500  0.073700  0.584400  1.0  0.2065
  C  C104  1  0.592100  0.164300  0.642000  1.0  0.8016
  C  C105  1  0.514700  0.486710  0.664900  1.0  0.233
  C  C106  1  0.477400  0.466800  0.731500  1.0  -0.1847
  C  C107  1  0.500300  0.417100  0.737900  1.0  -0.0103
  C  C108  1  0.560500  0.387380  0.677600  1.0  -0.2073
  C  C109  1  0.597800  0.407300  0.611000  1.0  0.1839
  C  C110  1  0.580300  0.334400  0.688500  1.0  0.8008
  C  C111  1  0.473800  0.534700  0.660600  1.0  0.2157
  C  C112  1  0.484300  0.603800  0.586300  1.0  0.2012
  C  C113  1  0.405600  0.630400  0.638900  1.0  -0.2431
  C  C114  1  0.361100  0.609100  0.702400  1.0  0.0227
  C  C115  1  0.395200  0.561200  0.713200  1.0  -0.1981
  C  C116  1  0.357000  0.678300  0.620300  1.0  0.8061
  C  C117  1  0.507900  0.025000  0.994100  1.0  0.2215
  C  C118  1  0.470600  0.092700  0.920100  1.0  0.1911
  C  C119  1  0.554200  0.121560  0.965300  1.0  -0.2438
  C  C120  1  0.614700  0.102100  0.025000  1.0  0.0295
  C  C121  1  0.591500  0.053800  0.039400  1.0  -0.1512
  C  C122  1  0.583100  0.172300  0.948300  1.0  0.8076
  C  C123  1  0.514500  0.476000  0.002000  1.0  0.2295
  C  C124  1  0.570000  0.461100  0.067500  1.0  -0.1454
  C  C125  1  0.601000  0.411400  0.066800  1.0  0.0149
  C  C126  1  0.576400  0.376600  0.000500  1.0  -0.238
  C  C127  1  0.520900  0.391500  0.935000  1.0  0.2137
  C  C128  1  0.620200  0.324400  0.995900  1.0  0.8157
  C  C129  1  0.998900  0.036320  0.828800  1.0  0.2201
  C  C130  1  0.957300  0.118300  0.898200  1.0  0.198
  C  C131  1  0.895700  0.129700  0.832500  1.0  -0.2409
  C  C132  1  0.885700  0.094400  0.765000  1.0  0.013
  C  C133  1  0.937300  0.047700  0.763100  1.0  -0.1747
  C  C134  1  0.825800  0.176400  0.835400  1.0  0.8319
  C  C135  1  0.041400  0.989270  0.837300  1.0  0.2303
  C  C136  1  0.023200  0.952700  0.772400  1.0  -0.1929
  C  C137  1  0.044200  0.902900  0.779100  1.0  0.0269
  C  C138  1  0.083300  0.889720  0.850700  1.0  -0.2415
  C  C139  1  0.101500  0.926300  0.915600  1.0  0.2063
  C  C140  1  0.092100  0.835700  0.858000  1.0  0.8043
  C  C141  1  0.014700  0.513290  0.835100  1.0  0.2321
  C  C142  1  0.977400  0.533200  0.768500  1.0  -0.185
  C  C143  1  0.000300  0.582900  0.762100  1.0  -0.0117
  C  C144  1  0.060500  0.612620  0.822400  1.0  -0.2067
  C  C145  1  0.097800  0.592700  0.889000  1.0  0.1846
  C  C146  1  0.080300  0.665600  0.811500  1.0  0.8072
  C  C147  1  0.973800  0.465300  0.839400  1.0  0.2133
  C  C148  1  0.984300  0.396200  0.913700  1.0  0.2015
  C  C149  1  0.905600  0.369600  0.861100  1.0  -0.243
  C  C150  1  0.861100  0.390900  0.797600  1.0  0.0214
  C  C151  1  0.895200  0.438800  0.786800  1.0  -0.1971
  C  C152  1  0.857000  0.321700  0.879700  1.0  0.8068
  C  C153  1  0.992100  0.025000  0.494100  1.0  0.2215
  C  C154  1  0.029400  0.092700  0.420100  1.0  0.1909
  C  C155  1  0.945800  0.121560  0.465300  1.0  -0.2438
  C  C156  1  0.885300  0.102100  0.525000  1.0  0.0302
  C  C157  1  0.908500  0.053800  0.539400  1.0  -0.151
  C  C158  1  0.916900  0.172300  0.448300  1.0  0.8058
  C  C159  1  0.985500  0.476000  0.502000  1.0  0.2274
  C  C160  1  0.930000  0.461100  0.567500  1.0  -0.1466
  C  C161  1  0.899000  0.411400  0.566800  1.0  0.0177
  C  C162  1  0.923600  0.376600  0.500500  1.0  -0.2367
  C  C163  1  0.979100  0.391500  0.435000  1.0  0.2111
  C  C164  1  0.879800  0.324400  0.495900  1.0  0.8158
  C  C165  1  0.501100  0.036320  0.328800  1.0  0.2202
  C  C166  1  0.542700  0.118300  0.398200  1.0  0.1989
  C  C167  1  0.604300  0.129700  0.332500  1.0  -0.2411
  C  C168  1  0.614300  0.094400  0.265000  1.0  0.0115
  C  C169  1  0.562700  0.047700  0.263100  1.0  -0.1749
  C  C170  1  0.674200  0.176400  0.335400  1.0  0.833
  C  C171  1  0.458600  0.989270  0.337300  1.0  0.2295
  C  C172  1  0.476800  0.952700  0.272400  1.0  -0.1932
  C  C173  1  0.455800  0.902900  0.279100  1.0  0.0275
  C  C174  1  0.416700  0.889720  0.350700  1.0  -0.2432
  C  C175  1  0.398500  0.926300  0.415600  1.0  0.2068
  C  C176  1  0.407900  0.835700  0.358000  1.0  0.8027
  C  C177  1  0.485300  0.513290  0.335100  1.0  0.2309
  C  C178  1  0.522600  0.533200  0.268500  1.0  -0.1851
  C  C179  1  0.499700  0.582900  0.262100  1.0  -0.0181
  C  C180  1  0.439500  0.612620  0.322400  1.0  -0.2104
  C  C181  1  0.402200  0.592700  0.389000  1.0  0.1845
  C  C182  1  0.419700  0.665600  0.311500  1.0  0.7988
  C  C183  1  0.526200  0.465300  0.339400  1.0  0.2133
  C  C184  1  0.515700  0.396200  0.413700  1.0  0.2022
  C  C185  1  0.594400  0.369600  0.361100  1.0  -0.2449
  C  C186  1  0.638900  0.390900  0.297600  1.0  0.0207
  C  C187  1  0.604800  0.438800  0.286800  1.0  -0.1981
  C  C188  1  0.643000  0.321700  0.379700  1.0  0.8037
  C  C189  1  0.492100  0.975000  0.005900  1.0  0.2218
  C  C190  1  0.529400  0.907300  0.079900  1.0  0.1911
  C  C191  1  0.445800  0.878440  0.034700  1.0  -0.2448
  C  C192  1  0.385300  0.897900  0.975000  1.0  0.0295
  C  C193  1  0.408500  0.946200  0.960600  1.0  -0.1512
  C  C194  1  0.416900  0.827700  0.051700  1.0  0.8052
  C  C195  1  0.485500  0.524000  0.998000  1.0  0.2276
  C  C196  1  0.430000  0.538900  0.932500  1.0  -0.1456
  C  C197  1  0.399000  0.588600  0.933200  1.0  0.0195
  C  C198  1  0.423600  0.623400  0.999500  1.0  -0.2369
  C  C199  1  0.479100  0.608500  0.065000  1.0  0.2105
  C  C200  1  0.379800  0.675600  0.004100  1.0  0.8164
  C  C201  1  0.001100  0.963680  0.171200  1.0  0.2216
  C  C202  1  0.042700  0.881700  0.101800  1.0  0.2009
  C  C203  1  0.104300  0.870300  0.167500  1.0  -0.241
  C  C204  1  0.114300  0.905600  0.235000  1.0  0.0095
  C  C205  1  0.062700  0.952300  0.236900  1.0  -0.1749
  C  C206  1  0.174200  0.823600  0.164600  1.0  0.8314
  C  C207  1  0.958600  0.010730  0.162700  1.0  0.2301
  C  C208  1  0.976800  0.047300  0.227600  1.0  -0.1923
  C  C209  1  0.955800  0.097100  0.220900  1.0  0.0281
  C  C210  1  0.916700  0.110280  0.149300  1.0  -0.2421
  C  C211  1  0.898500  0.073700  0.084400  1.0  0.207
  C  C212  1  0.907900  0.164300  0.142000  1.0  0.8035
  C  C213  1  0.985300  0.486710  0.164900  1.0  0.2314
  C  C214  1  0.022600  0.466800  0.231500  1.0  -0.1852
  C  C215  1  0.999700  0.417100  0.237900  1.0  -0.016
  C  C216  1  0.939500  0.387380  0.177600  1.0  -0.2112
  C  C217  1  0.902200  0.407300  0.111000  1.0  0.1836
  C  C218  1  0.919700  0.334400  0.188500  1.0  0.8058
  C  C219  1  0.026200  0.534700  0.160600  1.0  0.2154
  C  C220  1  0.015700  0.603800  0.086300  1.0  0.2024
  C  C221  1  0.094400  0.630400  0.138900  1.0  -0.2443
  C  C222  1  0.138900  0.609100  0.202400  1.0  0.0216
  C  C223  1  0.104800  0.561200  0.213200  1.0  -0.1987
  C  C224  1  0.143000  0.678300  0.120300  1.0  0.8046
  N  N225  1  0.947400  0.955500  0.565500  1.0  -0.4073
  N  N226  1  0.989900  0.558800  0.564300  1.0  -0.4095
  N  N227  1  0.508900  0.928400  0.603700  1.0  -0.3911
  N  N228  1  0.580500  0.023900  0.591100  1.0  -0.3896
  N  N229  1  0.574900  0.457000  0.604600  1.0  -0.3768
  N  N230  1  0.518400  0.556000  0.597100  1.0  -0.3853
  N  N231  1  0.447400  0.044500  0.934500  1.0  -0.408
  N  N232  1  0.489900  0.441200  0.935700  1.0  -0.4097
  N  N233  1  0.008900  0.071600  0.896300  1.0  -0.3919
  N  N234  1  0.080500  0.976100  0.908900  1.0  -0.388
  N  N235  1  0.074900  0.543000  0.895400  1.0  -0.3745
  N  N236  1  0.018400  0.444000  0.902900  1.0  -0.3862
  N  N237  1  0.052600  0.044500  0.434500  1.0  -0.4085
  N  N238  1  0.010100  0.441200  0.435700  1.0  -0.4058
  N  N239  1  0.491100  0.071600  0.396300  1.0  -0.39
  N  N240  1  0.419500  0.976100  0.408900  1.0  -0.3874
  N  N241  1  0.425100  0.543000  0.395400  1.0  -0.3741
  N  N242  1  0.481600  0.444000  0.402900  1.0  -0.3863
  N  N243  1  0.552600  0.955500  0.065500  1.0  -0.409
  N  N244  1  0.510100  0.558800  0.064300  1.0  -0.4065
  N  N245  1  0.991100  0.928400  0.103700  1.0  -0.3906
  N  N246  1  0.919500  0.023900  0.091100  1.0  -0.3906
  N  N247  1  0.925100  0.457000  0.104600  1.0  -0.3771
  N  N248  1  0.981600  0.556000  0.097100  1.0  -0.3847
  O  O249  1  0.100400  0.703000  0.568200  1.0  -0.8066
  O  O250  1  0.274200  0.815200  0.723000  1.0  -0.6968
  O  O251  1  0.301300  0.703100  0.675900  1.0  -0.7507
  O  O252  1  0.054300  0.816600  0.616100  1.0  -0.7205
  O  O253  1  0.561300  0.195000  0.698400  1.0  -0.7905
  O  O254  1  0.589100  0.322100  0.754000  1.0  -0.7251
  O  O255  1  0.638200  0.174600  0.580000  1.0  -0.7585
  O  O256  1  0.329400  0.796600  0.601100  1.0  -0.8262
  O  O257  1  0.141100  0.800800  0.497600  1.0  -0.7817
  O  O258  1  0.171500  0.686600  0.444500  1.0  -0.6987
  O  O259  1  0.377000  0.689000  0.553500  1.0  -0.727
  O  O260  1  0.575800  0.304800  0.620900  1.0  -0.8184
  O  O261  1  0.600400  0.297000  0.931800  1.0  -0.806
  O  O262  1  0.774200  0.184800  0.777000  1.0  -0.6956
  O  O263  1  0.801300  0.296900  0.824100  1.0  -0.7522
  O  O264  1  0.554300  0.183400  0.883900  1.0  -0.7212
  O  O265  1  0.061300  0.805000  0.801600  1.0  -0.7902
  O  O266  1  0.089100  0.677900  0.746000  1.0  -0.7248
  O  O267  1  0.138200  0.825400  0.920000  1.0  -0.757
  O  O268  1  0.829400  0.203400  0.898900  1.0  -0.8264
  O  O269  1  0.641100  0.199200  0.002400  1.0  -0.78
  O  O270  1  0.671500  0.313400  0.055500  1.0  -0.701
  O  O271  1  0.877000  0.311000  0.946500  1.0  -0.7289
  O  O272  1  0.075800  0.695200  0.879100  1.0  -0.816
  O  O273  1  0.899600  0.297000  0.431800  1.0  -0.8018
  O  O274  1  0.725800  0.184800  0.277000  1.0  -0.6977
  O  O275  1  0.698700  0.296900  0.324100  1.0  -0.7538
  O  O276  1  0.945700  0.183400  0.383900  1.0  -0.7212
  O  O277  1  0.438700  0.805000  0.301600  1.0  -0.7893
  O  O278  1  0.410900  0.677900  0.246000  1.0  -0.7231
  O  O279  1  0.361800  0.825400  0.420000  1.0  -0.7588
  O  O280  1  0.670600  0.203400  0.398900  1.0  -0.8275
  O  O281  1  0.858900  0.199200  0.502400  1.0  -0.7776
  O  O282  1  0.828500  0.313400  0.555500  1.0  -0.7029
  O  O283  1  0.623000  0.311000  0.446500  1.0  -0.7301
  O  O284  1  0.424200  0.695200  0.379100  1.0  -0.8126
  O  O285  1  0.399600  0.703000  0.068200  1.0  -0.8028
  O  O286  1  0.225800  0.815200  0.223000  1.0  -0.6984
  O  O287  1  0.198700  0.703100  0.175900  1.0  -0.7531
  O  O288  1  0.445700  0.816600  0.116100  1.0  -0.7198
  O  O289  1  0.938700  0.195000  0.198400  1.0  -0.7892
  O  O290  1  0.910900  0.322100  0.254000  1.0  -0.7241
  O  O291  1  0.861800  0.174600  0.080000  1.0  -0.7589
  O  O292  1  0.170600  0.796600  0.101100  1.0  -0.8283
  O  O293  1  0.358900  0.800800  0.997600  1.0  -0.7797
  O  O294  1  0.328500  0.686600  0.944500  1.0  -0.6991
  O  O295  1  0.123000  0.689000  0.053500  1.0  -0.729
  O  O296  1  0.924200  0.304800  0.120900  1.0  -0.8156
