# generated using pymatgen
data_GdH9C18(NO2)3
_symmetry_space_group_name_H-M   'P 1'
_cell_length_a   11.52130000
_cell_length_b   27.01540000
_cell_length_c   16.99500000
_cell_angle_alpha   98.13700000
_cell_angle_beta   90.00000000
_cell_angle_gamma   90.00000000
_symmetry_Int_Tables_number   1
_chemical_formula_structural   GdH9C18(NO2)3
_chemical_formula_sum   'Gd8 H72 C144 N24 O48'
_cell_volume   5236.48208434
_cell_formula_units_Z   8
loop_
 _symmetry_equiv_pos_site_id
 _symmetry_equiv_pos_as_xyz
  1  'x, y, z'
loop_
 _atom_site_type_symbol
 _atom_site_label
 _atom_site_symmetry_multiplicity
 _atom_site_fract_x
 _atom_site_fract_y
 _atom_site_fract_z
 _atom_site_occupancy
 _atom_site_charge
  Gd  Gd1  1  0.619870  0.751900  0.691050  1.0  2.2296
  Gd  Gd2  1  0.191200  0.249160  0.530760  1.0  2.2414
  Gd  Gd3  1  0.119870  0.248100  0.808950  1.0  2.229
  Gd  Gd4  1  0.691200  0.750840  0.969240  1.0  2.2415
  Gd  Gd5  1  0.380130  0.248100  0.308950  1.0  2.2286
  Gd  Gd6  1  0.808800  0.750840  0.469240  1.0  2.2421
  Gd  Gd7  1  0.880130  0.751900  0.191050  1.0  2.2292
  Gd  Gd8  1  0.308800  0.249160  0.030760  1.0  2.2415
  H  H9  1  0.432200  0.894900  0.621300  1.0  0.1033
  H  H10  1  0.669100  0.878300  0.445900  1.0  0.0962
  H  H11  1  0.630800  0.958900  0.420500  1.0  0.1039
  H  H12  1  0.632800  0.600700  0.390200  1.0  0.0924
  H  H13  1  0.501800  0.632000  0.610800  1.0  0.1038
  H  H14  1  0.454600  0.548300  0.608900  1.0  0.1125
  H  H15  1  0.965700  0.857400  0.556500  1.0  0.0881
  H  H16  1  0.831200  0.898900  0.774000  1.0  0.0925
  H  H17  1  0.916600  0.977000  0.778400  1.0  0.1055
  H  H18  1  0.025100  0.122900  0.763700  1.0  0.0882
  H  H19  1  0.131900  0.082300  0.538700  1.0  0.0998
  H  H20  1  0.090900  0.999500  0.549300  1.0  0.1066
  H  H21  1  0.981000  0.404100  0.783200  1.0  0.0876
  H  H22  1  0.136100  0.387800  0.569300  1.0  0.0953
  H  H23  1  0.092500  0.470200  0.557200  1.0  0.1092
  H  H24  1  0.862500  0.545900  0.754800  1.0  0.1059
  H  H25  1  0.796000  0.624000  0.733400  1.0  0.0922
  H  H26  1  0.002200  0.618200  0.541600  1.0  0.0959
  H  H27  1  0.932200  0.105100  0.878700  1.0  0.1035
  H  H28  1  0.169100  0.121700  0.054100  1.0  0.0963
  H  H29  1  0.130800  0.041100  0.079500  1.0  0.1041
  H  H30  1  0.132800  0.399300  0.109800  1.0  0.0945
  H  H31  1  0.001800  0.368000  0.889200  1.0  0.1044
  H  H32  1  0.954600  0.451700  0.891100  1.0  0.1138
  H  H33  1  0.465700  0.142600  0.943500  1.0  0.087
  H  H34  1  0.331200  0.101100  0.726000  1.0  0.0925
  H  H35  1  0.416600  0.023000  0.721600  1.0  0.106
  H  H36  1  0.525100  0.877100  0.736300  1.0  0.0885
  H  H37  1  0.631900  0.917700  0.961300  1.0  0.0998
  H  H38  1  0.590900  0.000500  0.950700  1.0  0.1064
  H  H39  1  0.481000  0.595900  0.716800  1.0  0.0874
  H  H40  1  0.636100  0.612200  0.930700  1.0  0.0958
  H  H41  1  0.592500  0.529800  0.942800  1.0  0.1093
  H  H42  1  0.362500  0.454100  0.745200  1.0  0.1054
  H  H43  1  0.296000  0.376000  0.766600  1.0  0.0919
  H  H44  1  0.502200  0.381800  0.958400  1.0  0.0952
  H  H45  1  0.567800  0.105100  0.378700  1.0  0.1042
  H  H46  1  0.330900  0.121700  0.554100  1.0  0.0969
  H  H47  1  0.369200  0.041100  0.579500  1.0  0.1036
  H  H48  1  0.367200  0.399300  0.609800  1.0  0.0928
  H  H49  1  0.498200  0.368000  0.389200  1.0  0.104
  H  H50  1  0.545400  0.451700  0.391100  1.0  0.1137
  H  H51  1  0.034300  0.142600  0.443500  1.0  0.0898
  H  H52  1  0.168800  0.101100  0.226000  1.0  0.0922
  H  H53  1  0.083400  0.023000  0.221600  1.0  0.1061
  H  H54  1  0.974900  0.877100  0.236300  1.0  0.088
  H  H55  1  0.868100  0.917700  0.461300  1.0  0.0995
  H  H56  1  0.909100  0.000500  0.450700  1.0  0.1061
  H  H57  1  0.019000  0.595900  0.216800  1.0  0.0872
  H  H58  1  0.863900  0.612200  0.430700  1.0  0.0961
  H  H59  1  0.907500  0.529800  0.442800  1.0  0.109
  H  H60  1  0.137500  0.454100  0.245200  1.0  0.1057
  H  H61  1  0.204000  0.376000  0.266600  1.0  0.0919
  H  H62  1  0.997800  0.381800  0.458400  1.0  0.0954
  H  H63  1  0.067800  0.894900  0.121300  1.0  0.1035
  H  H64  1  0.830900  0.878300  0.945900  1.0  0.0967
  H  H65  1  0.869200  0.958900  0.920500  1.0  0.1038
  H  H66  1  0.867200  0.600700  0.890200  1.0  0.0934
  H  H67  1  0.998200  0.632000  0.110800  1.0  0.1036
  H  H68  1  0.045400  0.548300  0.108900  1.0  0.1135
  H  H69  1  0.534300  0.857400  0.056500  1.0  0.0895
  H  H70  1  0.668800  0.898900  0.274000  1.0  0.0928
  H  H71  1  0.583400  0.977000  0.278400  1.0  0.1056
  H  H72  1  0.474900  0.122900  0.263700  1.0  0.0878
  H  H73  1  0.368100  0.082300  0.038700  1.0  0.0999
  H  H74  1  0.409100  0.999500  0.049300  1.0  0.1066
  H  H75  1  0.519000  0.404100  0.283200  1.0  0.0873
  H  H76  1  0.363900  0.387800  0.069300  1.0  0.0956
  H  H77  1  0.407500  0.470200  0.057200  1.0  0.1089
  H  H78  1  0.637500  0.545900  0.254800  1.0  0.1061
  H  H79  1  0.704000  0.624000  0.233400  1.0  0.092
  H  H80  1  0.497800  0.618200  0.041600  1.0  0.0952
  C  C81  1  0.508600  0.975200  0.505700  1.0  0.2221
  C  C82  1  0.472000  0.907700  0.581000  1.0  0.2121
  C  C83  1  0.554400  0.878600  0.536100  1.0  -0.2381
  C  C84  1  0.613900  0.897800  0.476000  1.0  0.0176
  C  C85  1  0.591000  0.946100  0.460800  1.0  -0.1518
  C  C86  1  0.583700  0.827000  0.553300  1.0  0.7946
  C  C87  1  0.515500  0.524400  0.498500  1.0  0.2225
  C  C88  1  0.597100  0.590200  0.434000  1.0  0.2005
  C  C89  1  0.572000  0.624600  0.500700  1.0  -0.2534
  C  C90  1  0.518600  0.608900  0.566200  1.0  -0.0071
  C  C91  1  0.490400  0.558800  0.565100  1.0  -0.1723
  C  C92  1  0.609000  0.677600  0.507800  1.0  0.8131
  C  C93  1  0.992300  0.964000  0.670100  1.0  0.2259
  C  C94  1  0.955900  0.881400  0.601000  1.0  0.1982
  C  C95  1  0.890000  0.870400  0.664800  1.0  -0.2497
  C  C96  1  0.875300  0.906200  0.731300  1.0  0.003
  C  C97  1  0.926400  0.953000  0.733900  1.0  -0.1289
  C  C98  1  0.826600  0.823000  0.660200  1.0  0.8154
  C  C99  1  0.033400  0.011500  0.662800  1.0  0.2188
  C  C100  1  0.038300  0.098100  0.720700  1.0  0.21
  C  C101  1  0.082600  0.110820  0.650100  1.0  -0.2138
  C  C102  1  0.102300  0.073800  0.585900  1.0  0.0212
  C  C103  1  0.077700  0.024200  0.592200  1.0  -0.144
  C  C104  1  0.098100  0.164000  0.639900  1.0  0.8053
  C  C105  1  0.010600  0.486500  0.663000  1.0  0.2183
  C  C106  1  0.003300  0.417300  0.737900  1.0  0.1876
  C  C107  1  0.062800  0.387700  0.677400  1.0  -0.2335
  C  C108  1  0.096200  0.407600  0.609700  1.0  0.0165
  C  C109  1  0.070100  0.456900  0.602500  1.0  -0.1195
  C  C110  1  0.084200  0.334500  0.686100  1.0  0.8181
  C  C111  1  0.972100  0.535300  0.661000  1.0  0.2249
  C  C112  1  0.890500  0.560400  0.712100  1.0  -0.1373
  C  C113  1  0.850600  0.607200  0.699300  1.0  0.0157
  C  C114  1  0.892500  0.628900  0.635400  1.0  -0.2466
  C  C115  1  0.974200  0.603700  0.584300  1.0  0.2007
  C  C116  1  0.845900  0.677300  0.620300  1.0  0.7881
  C  C117  1  0.008600  0.024800  0.994300  1.0  0.2222
  C  C118  1  0.972000  0.092300  0.919000  1.0  0.212
  C  C119  1  0.054400  0.121400  0.963900  1.0  -0.2371
  C  C120  1  0.113900  0.102200  0.024000  1.0  0.0179
  C  C121  1  0.091000  0.053900  0.039200  1.0  -0.1515
  C  C122  1  0.083700  0.173000  0.946700  1.0  0.7955
  C  C123  1  0.015500  0.475600  0.001500  1.0  0.2232
  C  C124  1  0.097100  0.409800  0.066000  1.0  0.2009
  C  C125  1  0.072000  0.375400  0.999300  1.0  -0.2529
  C  C126  1  0.018600  0.391100  0.933800  1.0  -0.0066
  C  C127  1  0.990400  0.441200  0.934900  1.0  -0.173
  C  C128  1  0.109000  0.322400  0.992200  1.0  0.8103
  C  C129  1  0.492300  0.036000  0.829900  1.0  0.2258
  C  C130  1  0.455900  0.118600  0.899000  1.0  0.197
  C  C131  1  0.390000  0.129600  0.835200  1.0  -0.2482
  C  C132  1  0.375300  0.093800  0.768700  1.0  0.0067
  C  C133  1  0.426400  0.047000  0.766100  1.0  -0.1292
  C  C134  1  0.326600  0.177000  0.839800  1.0  0.8148
  C  C135  1  0.533400  0.988500  0.837200  1.0  0.2198
  C  C136  1  0.538300  0.901900  0.779300  1.0  0.2113
  C  C137  1  0.582600  0.889180  0.849900  1.0  -0.2143
  C  C138  1  0.602300  0.926200  0.914100  1.0  0.0208
  C  C139  1  0.577700  0.975800  0.907800  1.0  -0.1442
  C  C140  1  0.598100  0.836000  0.860100  1.0  0.8032
  C  C141  1  0.510600  0.513500  0.837000  1.0  0.2181
  C  C142  1  0.503300  0.582700  0.762100  1.0  0.1864
  C  C143  1  0.562800  0.612300  0.822600  1.0  -0.2321
  C  C144  1  0.596200  0.592400  0.890300  1.0  0.0172
  C  C145  1  0.570100  0.543100  0.897500  1.0  -0.1201
  C  C146  1  0.584200  0.665500  0.813900  1.0  0.8198
  C  C147  1  0.472100  0.464700  0.839000  1.0  0.225
  C  C148  1  0.390500  0.439600  0.787900  1.0  -0.1371
  C  C149  1  0.350600  0.392800  0.800700  1.0  0.0167
  C  C150  1  0.392500  0.371100  0.864600  1.0  -0.2473
  C  C151  1  0.474200  0.396300  0.915700  1.0  0.2021
  C  C152  1  0.345900  0.322700  0.879700  1.0  0.7889
  C  C153  1  0.491400  0.024800  0.494300  1.0  0.2213
  C  C154  1  0.528000  0.092300  0.419000  1.0  0.2102
  C  C155  1  0.445600  0.121400  0.463900  1.0  -0.2373
  C  C156  1  0.386100  0.102200  0.524000  1.0  0.0203
  C  C157  1  0.409000  0.053900  0.539200  1.0  -0.1508
  C  C158  1  0.416300  0.173000  0.446700  1.0  0.7963
  C  C159  1  0.484500  0.475600  0.501500  1.0  0.2231
  C  C160  1  0.402900  0.409800  0.566000  1.0  0.2014
  C  C161  1  0.428000  0.375400  0.499300  1.0  -0.2529
  C  C162  1  0.481400  0.391100  0.433800  1.0  -0.0108
  C  C163  1  0.509600  0.441200  0.434900  1.0  -0.174
  C  C164  1  0.391000  0.322400  0.492200  1.0  0.8112
  C  C165  1  0.007700  0.036000  0.329900  1.0  0.2265
  C  C166  1  0.044100  0.118600  0.399000  1.0  0.199
  C  C167  1  0.110000  0.129600  0.335200  1.0  -0.2486
  C  C168  1  0.124700  0.093800  0.268700  1.0  0.0039
  C  C169  1  0.073600  0.047000  0.266100  1.0  -0.1275
  C  C170  1  0.173400  0.177000  0.339800  1.0  0.8171
  C  C171  1  0.966600  0.988500  0.337200  1.0  0.2196
  C  C172  1  0.961700  0.901900  0.279300  1.0  0.21
  C  C173  1  0.917400  0.889180  0.349900  1.0  -0.2165
  C  C174  1  0.897700  0.926200  0.414100  1.0  0.0228
  C  C175  1  0.922300  0.975800  0.407800  1.0  -0.1443
  C  C176  1  0.901900  0.836000  0.360100  1.0  0.8039
  C  C177  1  0.989400  0.513500  0.337000  1.0  0.218
  C  C178  1  0.996700  0.582700  0.262100  1.0  0.1846
  C  C179  1  0.937200  0.612300  0.322600  1.0  -0.234
  C  C180  1  0.903800  0.592400  0.390300  1.0  0.0201
  C  C181  1  0.929900  0.543100  0.397500  1.0  -0.1213
  C  C182  1  0.915800  0.665500  0.313900  1.0  0.8198
  C  C183  1  0.027900  0.464700  0.339000  1.0  0.2251
  C  C184  1  0.109500  0.439600  0.287900  1.0  -0.1372
  C  C185  1  0.149400  0.392800  0.300700  1.0  0.0188
  C  C186  1  0.107500  0.371100  0.364600  1.0  -0.2478
  C  C187  1  0.025800  0.396300  0.415700  1.0  0.2023
  C  C188  1  0.154100  0.322700  0.379700  1.0  0.7861
  C  C189  1  0.991400  0.975200  0.005700  1.0  0.2213
  C  C190  1  0.028000  0.907700  0.081000  1.0  0.2102
  C  C191  1  0.945600  0.878600  0.036100  1.0  -0.2385
  C  C192  1  0.886100  0.897800  0.976000  1.0  0.0194
  C  C193  1  0.909000  0.946100  0.960800  1.0  -0.1521
  C  C194  1  0.916300  0.827000  0.053300  1.0  0.7975
  C  C195  1  0.984500  0.524400  0.998500  1.0  0.2222
  C  C196  1  0.902900  0.590200  0.934000  1.0  0.2006
  C  C197  1  0.928000  0.624600  0.000700  1.0  -0.2539
  C  C198  1  0.981400  0.608900  0.066200  1.0  -0.0101
  C  C199  1  0.009600  0.558800  0.065100  1.0  -0.1719
  C  C200  1  0.891000  0.677600  0.007800  1.0  0.8123
  C  C201  1  0.507700  0.964000  0.170100  1.0  0.2266
  C  C202  1  0.544100  0.881400  0.101000  1.0  0.2009
  C  C203  1  0.610000  0.870400  0.164800  1.0  -0.25
  C  C204  1  0.624700  0.906200  0.231300  1.0  0.0006
  C  C205  1  0.573600  0.953000  0.233900  1.0  -0.1267
  C  C206  1  0.673400  0.823000  0.160200  1.0  0.8161
  C  C207  1  0.466600  0.011500  0.162800  1.0  0.2186
  C  C208  1  0.461700  0.098100  0.220700  1.0  0.2094
  C  C209  1  0.417400  0.110820  0.150100  1.0  -0.2161
  C  C210  1  0.397700  0.073800  0.085900  1.0  0.0238
  C  C211  1  0.422300  0.024200  0.092200  1.0  -0.1444
  C  C212  1  0.401900  0.164000  0.139900  1.0  0.8046
  C  C213  1  0.489400  0.486500  0.163000  1.0  0.2183
  C  C214  1  0.496700  0.417300  0.237900  1.0  0.1858
  C  C215  1  0.437200  0.387700  0.177400  1.0  -0.235
  C  C216  1  0.403800  0.407600  0.109700  1.0  0.0191
  C  C217  1  0.429900  0.456900  0.102500  1.0  -0.1201
  C  C218  1  0.415800  0.334500  0.186100  1.0  0.8195
  C  C219  1  0.527900  0.535300  0.161000  1.0  0.2251
  C  C220  1  0.609500  0.560400  0.212100  1.0  -0.1374
  C  C221  1  0.649400  0.607200  0.199300  1.0  0.0173
  C  C222  1  0.607500  0.628900  0.135400  1.0  -0.2473
  C  C223  1  0.525800  0.603700  0.084300  1.0  0.2018
  C  C224  1  0.654100  0.677300  0.120300  1.0  0.7863
  N  N225  1  0.449200  0.956000  0.565800  1.0  -0.4113
  N  N226  1  0.568900  0.540100  0.432900  1.0  -0.4029
  N  N227  1  0.007000  0.928200  0.603600  1.0  -0.4225
  N  N228  1  0.013700  0.048500  0.727000  1.0  -0.4165
  N  N229  1  0.977200  0.466700  0.730700  1.0  -0.3992
  N  N230  1  0.014000  0.557000  0.597100  1.0  -0.4197
  N  N231  1  0.949200  0.044000  0.934200  1.0  -0.411
  N  N232  1  0.068900  0.459900  0.067100  1.0  -0.4023
  N  N233  1  0.507000  0.071800  0.896400  1.0  -0.4216
  N  N234  1  0.513700  0.951500  0.773000  1.0  -0.4163
  N  N235  1  0.477200  0.533300  0.769300  1.0  -0.4009
  N  N236  1  0.514000  0.443000  0.902900  1.0  -0.4186
  N  N237  1  0.550800  0.044000  0.434200  1.0  -0.411
  N  N238  1  0.431100  0.459900  0.567100  1.0  -0.4019
  N  N239  1  0.993000  0.071800  0.396400  1.0  -0.4201
  N  N240  1  0.986300  0.951500  0.273000  1.0  -0.4149
  N  N241  1  0.022800  0.533300  0.269300  1.0  -0.4009
  N  N242  1  0.986000  0.443000  0.402900  1.0  -0.4177
  N  N243  1  0.050800  0.956000  0.065800  1.0  -0.4119
  N  N244  1  0.931100  0.540100  0.932900  1.0  -0.4029
  N  N245  1  0.493000  0.928200  0.103600  1.0  -0.4216
  N  N246  1  0.486300  0.048500  0.227000  1.0  -0.4158
  N  N247  1  0.522800  0.466700  0.230700  1.0  -0.3991
  N  N248  1  0.486000  0.557000  0.097100  1.0  -0.4186
  O  O249  1  0.586900  0.703800  0.572300  1.0  -0.788
  O  O250  1  0.771000  0.814300  0.717900  1.0  -0.7012
  O  O251  1  0.789700  0.702300  0.674300  1.0  -0.7263
  O  O252  1  0.552100  0.815200  0.617300  1.0  -0.7176
  O  O253  1  0.063600  0.196600  0.697300  1.0  -0.8011
  O  O254  1  0.076000  0.320000  0.749600  1.0  -0.7426
  O  O255  1  0.141100  0.174300  0.578900  1.0  -0.7092
  O  O256  1  0.832700  0.795600  0.597600  1.0  -0.7997
  O  O257  1  0.644400  0.800600  0.501400  1.0  -0.7685
  O  O258  1  0.661700  0.689100  0.449900  1.0  -0.6894
  O  O259  1  0.868200  0.688400  0.551500  1.0  -0.746
  O  O260  1  0.106000  0.307100  0.624400  1.0  -0.7522
  O  O261  1  0.086900  0.296200  0.927700  1.0  -0.7894
  O  O262  1  0.271000  0.185700  0.782100  1.0  -0.7005
  O  O263  1  0.289700  0.297700  0.825700  1.0  -0.7262
  O  O264  1  0.052100  0.184800  0.882700  1.0  -0.718
  O  O265  1  0.563600  0.803400  0.802700  1.0  -0.7985
  O  O266  1  0.576000  0.680000  0.750400  1.0  -0.7439
  O  O267  1  0.641100  0.825700  0.921100  1.0  -0.7084
  O  O268  1  0.332700  0.204400  0.902400  1.0  -0.8
  O  O269  1  0.144400  0.199400  0.998600  1.0  -0.7683
  O  O270  1  0.161700  0.310900  0.050100  1.0  -0.6903
  O  O271  1  0.368200  0.311600  0.948500  1.0  -0.7469
  O  O272  1  0.606000  0.692900  0.875600  1.0  -0.7538
  O  O273  1  0.413100  0.296200  0.427700  1.0  -0.7776
  O  O274  1  0.229000  0.185700  0.282100  1.0  -0.7025
  O  O275  1  0.210300  0.297700  0.325700  1.0  -0.7268
  O  O276  1  0.447900  0.184800  0.382700  1.0  -0.7137
  O  O277  1  0.936400  0.803400  0.302700  1.0  -0.8035
  O  O278  1  0.924000  0.680000  0.250400  1.0  -0.7422
  O  O279  1  0.858900  0.825700  0.421100  1.0  -0.7099
  O  O280  1  0.167300  0.204400  0.402400  1.0  -0.8015
  O  O281  1  0.355600  0.199400  0.498600  1.0  -0.767
  O  O282  1  0.338300  0.310900  0.550100  1.0  -0.6896
  O  O283  1  0.131800  0.311600  0.448500  1.0  -0.7479
  O  O284  1  0.894000  0.692900  0.375600  1.0  -0.7553
  O  O285  1  0.913100  0.703800  0.072300  1.0  -0.7766
  O  O286  1  0.729000  0.814300  0.217900  1.0  -0.7024
  O  O287  1  0.710300  0.702300  0.174300  1.0  -0.7265
  O  O288  1  0.947900  0.815200  0.117300  1.0  -0.713
  O  O289  1  0.436400  0.196600  0.197300  1.0  -0.8042
  O  O290  1  0.424000  0.320000  0.249600  1.0  -0.7423
  O  O291  1  0.358900  0.174300  0.078900  1.0  -0.709
  O  O292  1  0.667300  0.795600  0.097600  1.0  -0.8018
  O  O293  1  0.855600  0.800600  0.001400  1.0  -0.766
  O  O294  1  0.838300  0.689100  0.949900  1.0  -0.6881
  O  O295  1  0.631800  0.688400  0.051500  1.0  -0.7483
  O  O296  1  0.394000  0.307100  0.124400  1.0  -0.7551
