# generated using pymatgen
data_Cu2H16C23(NO)6
_symmetry_space_group_name_H-M   'P 1'
_cell_length_a   12.77110000
_cell_length_b   14.22900000
_cell_length_c   16.00300000
_cell_angle_alpha   106.64000000
_cell_angle_beta   103.93500000
_cell_angle_gamma   106.60600000
_symmetry_Int_Tables_number   1
_chemical_formula_structural   Cu2H16C23(NO)6
_chemical_formula_sum   'Cu6 H48 C69 N18 O18'
_cell_volume   2499.77411102
_cell_formula_units_Z   3
loop_
 _symmetry_equiv_pos_site_id
 _symmetry_equiv_pos_as_xyz
  1  'x, y, z'
loop_
 _atom_site_type_symbol
 _atom_site_label
 _atom_site_symmetry_multiplicity
 _atom_site_fract_x
 _atom_site_fract_y
 _atom_site_fract_z
 _atom_site_occupancy
 _atom_site_charge
  Cu  Cu1  1  0.532930  0.133200  0.265290  1.0  0.8013
  Cu  Cu2  1  0.726250  0.956890  0.052420  1.0  0.6438
  Cu  Cu3  1  0.585670  0.773730  0.266050  1.0  0.7076
  Cu  Cu4  1  0.691140  0.962340  0.490560  1.0  0.7771
  Cu  Cu5  1  0.483260  0.109610  0.843380  1.0  0.8424
  Cu  Cu6  1  0.788890  0.395410  0.143590  1.0  0.8056
  H  H7  1  0.742700  0.895000  0.643900  1.0  0.2593
  H  H8  1  0.415200  0.110900  0.069100  1.0  0.2794
  H  H9  1  0.936500  0.528000  0.334500  1.0  0.2393
  H  H10  1  0.312300  0.889800  0.733700  1.0  0.2113
  H  H11  1  0.891100  0.183500  0.134300  1.0  0.2749
  H  H12  1  0.529600  0.643400  0.371100  1.0  0.2327
  H  H13  1  0.396400  0.868400  0.400200  1.0  0.126
  H  H14  1  0.816200  0.125400  0.279100  1.0  0.098
  H  H15  1  0.826300  0.845300  0.763100  1.0  0.118
  H  H16  1  0.938300  0.818400  0.756900  1.0  0.1224
  H  H17  1  0.954500  0.932000  0.826500  1.0  0.1154
  H  H18  1  0.939900  0.058700  0.491300  1.0  0.1399
  H  H19  1  0.062000  0.116100  0.576100  1.0  0.1399
  H  H20  1  0.031300  0.002000  0.499400  1.0  0.1387
  H  H21  1  0.344800  0.140700  0.339900  1.0  0.1331
  H  H22  1  0.255300  0.197200  0.318900  1.0  0.144
  H  H23  1  0.207800  0.071300  0.290100  1.0  0.15
  H  H24  1  0.274600  0.088700  0.930300  1.0  0.1097
  H  H25  1  0.146100  0.017600  0.919600  1.0  0.1033
  H  H26  1  0.184000  0.143000  0.948000  1.0  0.1246
  H  H27  1  0.490500  0.335300  0.115600  1.0  0.0973
  H  H28  1  0.778200  0.128400  0.907400  1.0  0.1009
  H  H29  1  0.319500  0.224800  0.808100  1.0  0.1367
  H  H30  1  0.208600  0.193300  0.718300  1.0  0.124
  H  H31  1  0.191500  0.192200  0.813900  1.0  0.1209
  H  H32  1  0.140100  0.735400  0.647800  1.0  0.1167
  H  H33  1  0.029300  0.752000  0.669600  1.0  0.1326
  H  H34  1  0.046700  0.754300  0.574400  1.0  0.1255
  H  H35  1  0.101200  0.636200  0.480900  1.0  0.0934
  H  H36  1  0.215100  0.611400  0.477700  1.0  0.1202
  H  H37  1  0.204400  0.716200  0.465200  1.0  0.1262
  H  H38  1  0.979600  0.423700  0.056600  1.0  0.1391
  H  H39  1  0.091200  0.529200  0.085500  1.0  0.1335
  H  H40  1  0.108100  0.425800  0.096900  1.0  0.1273
  H  H41  1  0.449200  0.943200  0.074500  1.0  0.0988
  H  H42  1  0.891400  0.879600  0.320000  1.0  0.1087
  H  H43  1  0.344400  0.774100  0.180900  1.0  0.1409
  H  H44  1  0.223300  0.673800  0.136400  1.0  0.1399
  H  H45  1  0.245800  0.772900  0.226700  1.0  0.1256
  H  H46  1  0.437600  0.521600  0.427300  1.0  0.1177
  H  H47  1  0.329200  0.543200  0.449800  1.0  0.1243
  H  H48  1  0.307200  0.444800  0.359100  1.0  0.1056
  H  H49  1  0.072100  0.335400  0.225600  1.0  0.1061
  H  H50  1  0.169300  0.296100  0.270100  1.0  0.1078
  H  H51  1  0.173100  0.330500  0.183700  1.0  0.1267
  H  H52  1  0.873500  0.857400  0.977700  1.0  0.1259
  H  H53  1  0.993100  0.897000  0.959100  1.0  0.1275
  H  H54  1  0.993700  0.874800  0.051700  1.0  0.1381
  C  C55  1  0.487300  0.867800  0.515500  1.0  0.7141
  C  C56  1  0.452400  0.927200  0.460100  1.0  -0.0076
  C  C57  1  0.550800  0.022700  0.377200  1.0  0.5331
  C  C58  1  0.672100  0.064400  0.371200  1.0  0.5405
  C  C59  1  0.776900  0.174300  0.300600  1.0  0.0273
  C  C60  1  0.729500  0.210200  0.223700  1.0  0.6921
  C  C61  1  0.865100  0.274400  0.386300  1.0  -0.0457
  C  C62  1  0.907000  0.874400  0.765700  1.0  -0.3323
  C  C63  1  0.909800  0.917600  0.688800  1.0  0.1573
  C  C64  1  0.996700  0.964600  0.661600  1.0  -0.1444
  C  C65  1  0.944800  0.995100  0.591600  1.0  0.2098
  C  C66  1  0.999300  0.047600  0.534600  1.0  -0.3913
  C  C67  1  0.271900  0.133400  0.296000  1.0  -0.3818
  C  C68  1  0.283700  0.119300  0.201400  1.0  0.2098
  C  C69  1  0.198500  0.106200  0.119200  1.0  -0.1698
  C  C70  1  0.253800  0.103200  0.055900  1.0  0.1683
  C  C71  1  0.210900  0.086700  0.954600  1.0  -0.3621
  C  C72  1  0.636000  0.436600  0.231000  1.0  0.7135
  C  C73  1  0.564000  0.396100  0.129900  1.0  0.0274
  C  C74  1  0.533100  0.487800  0.111600  1.0  -0.1031
  C  C75  1  0.433600  0.455500  0.023800  1.0  0.1093
  C  C76  1  0.422000  0.552000  0.004000  1.0  -0.0664
  C  C77  1  0.324000  0.404000  0.017000  1.0  -0.0763
  C  C78  1  0.590600  0.291100  0.993100  1.0  0.6035
  C  C79  1  0.690100  0.263400  0.966100  1.0  0.5767
  C  C80  1  0.716800  0.125200  0.853200  1.0  0.0111
  C  C81  1  0.774100  0.164200  0.789300  1.0  -0.0677
  C  C82  1  0.886200  0.255800  0.834900  1.0  0.0755
  C  C83  1  0.935000  0.295000  0.765000  1.0  -0.0486
  C  C84  1  0.983500  0.227000  0.890100  1.0  -0.0583
  C  C85  1  0.629700  0.010600  0.798900  1.0  0.6759
  C  C86  1  0.237100  0.178600  0.773900  1.0  -0.4224
  C  C87  1  0.224700  0.067100  0.745800  1.0  0.2304
  C  C88  1  0.119800  0.974700  0.695800  1.0  -0.1816
  C  C89  1  0.155300  0.890200  0.687300  1.0  0.1754
  C  C90  1  0.086900  0.772800  0.640700  1.0  -0.3688
  C  C91  1  0.161100  0.642000  0.452100  1.0  -0.3734
  C  C92  1  0.104800  0.582100  0.349900  1.0  0.1478
  C  C93  1  0.150600  0.567700  0.279900  1.0  -0.1811
  C  C94  1  0.056700  0.505000  0.198200  1.0  0.2138
  C  C95  1  0.059100  0.467600  0.100800  1.0  -0.3989
  C  C96  1  0.531300  0.001800  0.990500  1.0  0.6681
  C  C97  1  0.485900  0.916800  0.029000  1.0  0.0168
  C  C98  1  0.394800  0.812200  0.947700  1.0  0.0761
  C  C99  1  0.286800  0.771000  0.934000  1.0  0.1228
  C  C100  1  0.220000  0.666000  0.847000  1.0  -0.0421
  C  C101  1  0.219500  0.806900  0.991800  1.0  -0.0698
  C  C102  1  0.594800  0.861000  0.139500  1.0  0.5334
  C  C103  1  0.718900  0.863900  0.175900  1.0  0.5303
  C  C104  1  0.826500  0.808000  0.290200  1.0  0.0157
  C  C105  1  0.791100  0.773600  0.367500  1.0  0.694
  C  C106  1  0.866000  0.729000  0.236200  1.0  -0.0143
  C  C107  1  0.930000  0.761000  0.177000  1.0  0.0488
  C  C108  1  0.944000  0.674000  0.110000  1.0  -0.096
  C  C109  1  0.047000  0.851000  0.234000  1.0  -0.0707
  C  C110  1  0.282200  0.729300  0.194700  1.0  -0.3993
  C  C111  1  0.333700  0.678300  0.256900  1.0  0.1645
  C  C112  1  0.277900  0.609100  0.293100  1.0  -0.0879
  C  C113  1  0.361000  0.587000  0.344700  1.0  0.1939
  C  C114  1  0.358500  0.518000  0.400000  1.0  -0.3432
  C  C115  1  0.121900  0.296200  0.212100  1.0  -0.3488
  C  C116  1  0.045800  0.182500  0.145000  1.0  0.1853
  C  C117  1  0.078900  0.100600  0.107300  1.0  -0.1419
  C  C118  1  0.974800  0.015800  0.057600  1.0  0.2187
  C  C119  1  0.957200  0.901000  0.007000  1.0  -0.3989
  C  C120  1  0.456000  0.086000  0.574100  1.0  0.0061
  C  C121  1  0.379000  0.987000  0.485000  1.0  -0.0156
  C  C122  1  0.382000  0.156000  0.587000  1.0  -0.0523
  C  C123  1  0.562000  0.149000  0.557000  1.0  -0.0416
  N  N124  1  0.811200  0.920000  0.638600  1.0  -0.139
  N  N125  1  0.832400  0.967700  0.576900  1.0  -0.3073
  N  N126  1  0.548800  0.973600  0.432100  1.0  -0.3564
  N  N127  1  0.675300  0.118500  0.318900  1.0  -0.4045
  N  N128  1  0.382100  0.121400  0.186300  1.0  -0.3391
  N  N129  1  0.363400  0.111600  0.096700  1.0  -0.1312
  N  N130  1  0.987200  0.529300  0.305700  1.0  -0.1311
  N  N131  1  0.957500  0.479700  0.213600  1.0  -0.3131
  N  N132  1  0.628200  0.361100  0.074500  1.0  -0.3577
  N  N133  1  0.648500  0.184600  0.887500  1.0  -0.2997
  N  N134  1  0.316200  0.037800  0.766300  1.0  -0.2885
  N  N135  1  0.270600  0.929100  0.729700  1.0  -0.1079
  N  N136  1  0.885800  0.041900  0.063300  1.0  -0.2985
  N  N137  1  0.932000  0.145600  0.118400  1.0  -0.1498
  N  N138  1  0.585000  0.899800  0.075200  1.0  -0.3801
  N  N139  1  0.721700  0.815500  0.236500  1.0  -0.3403
  N  N140  1  0.448900  0.698700  0.289300  1.0  -0.2803
  N  N141  1  0.461800  0.643200  0.341600  1.0  -0.1161
  O  O142  1  0.412600  0.810300  0.534600  1.0  -0.5763
  O  O143  1  0.592800  0.876400  0.538700  1.0  -0.566
  O  O144  1  0.752100  0.038600  0.413200  1.0  -0.5906
  O  O145  1  0.469900  0.043100  0.330100  1.0  -0.5973
  O  O146  1  0.620900  0.196100  0.197300  1.0  -0.573
  O  O147  1  0.798400  0.253300  0.189600  1.0  -0.6013
  O  O148  1  0.588800  0.453300  0.292000  1.0  -0.5946
  O  O149  1  0.744900  0.455700  0.251200  1.0  -0.5788
  O  O150  1  0.793400  0.313300  0.023000  1.0  -0.5755
  O  O151  1  0.486600  0.240400  0.935600  1.0  -0.5777
  O  O152  1  0.519700  0.990900  0.778000  1.0  -0.5949
  O  O153  1  0.666500  0.937200  0.776800  1.0  -0.5697
  O  O154  1  0.464700  0.040200  0.958700  1.0  -0.6069
  O  O155  1  0.637200  0.026900  0.992800  1.0  -0.5728
  O  O156  1  0.793300  0.904300  0.147500  1.0  -0.5404
  O  O157  1  0.517700  0.824400  0.171700  1.0  -0.5974
  O  O158  1  0.690900  0.761900  0.367700  1.0  -0.5805
  O  O159  1  0.863700  0.757700  0.421600  1.0  -0.5749
