# generated using pymatgen
data_CuH11C9(NO)3
_symmetry_space_group_name_H-M   'P 1'
_cell_length_a   9.72400000
_cell_length_b   10.76400000
_cell_length_c   26.96900000
_cell_angle_alpha   90.00000000
_cell_angle_beta   90.00000000
_cell_angle_gamma   90.00000000
_symmetry_Int_Tables_number   1
_chemical_formula_structural   CuH11C9(NO)3
_chemical_formula_sum   'Cu8 H88 C72 N24 O24'
_cell_volume   2822.82192878
_cell_formula_units_Z   8
loop_
 _symmetry_equiv_pos_site_id
 _symmetry_equiv_pos_as_xyz
  1  'x, y, z'
loop_
 _atom_site_type_symbol
 _atom_site_label
 _atom_site_symmetry_multiplicity
 _atom_site_fract_x
 _atom_site_fract_y
 _atom_site_fract_z
 _atom_site_occupancy
 _atom_site_charge
  Cu  Cu1  1  0.813200  0.110000  0.833910  1.0  0.8148
  Cu  Cu2  1  0.686460  0.885190  0.667740  1.0  0.7878
  Cu  Cu3  1  0.813200  0.890000  0.166090  1.0  0.8141
  Cu  Cu4  1  0.686460  0.114810  0.332260  1.0  0.7883
  Cu  Cu5  1  0.186800  0.390000  0.333910  1.0  0.8138
  Cu  Cu6  1  0.313540  0.614810  0.167740  1.0  0.7876
  Cu  Cu7  1  0.186800  0.610000  0.666090  1.0  0.814
  Cu  Cu8  1  0.313540  0.385190  0.832260  1.0  0.7884
  H  H9  1  0.034400  0.180900  0.736900  1.0  0.0987
  H  H10  1  0.418300  0.924100  0.756200  1.0  0.0907
  H  H11  1  0.912900  0.788300  0.601500  1.0  0.2963
  H  H12  1  0.943200  0.959400  0.901300  1.0  0.1289
  H  H13  1  0.961300  0.954400  0.959000  1.0  0.1328
  H  H14  1  0.867400  0.856800  0.932200  1.0  0.1357
  H  H15  1  0.542900  0.031400  0.599900  1.0  0.1316
  H  H16  1  0.602200  0.132700  0.564100  1.0  0.1258
  H  H17  1  0.520200  0.019500  0.542600  1.0  0.1285
  H  H18  1  0.079600  0.779100  0.536900  1.0  0.1295
  H  H19  1  0.010100  0.794400  0.484800  1.0  0.132
  H  H20  1  0.092000  0.905300  0.508200  1.0  0.1255
  H  H21  1  0.586100  0.222700  0.900600  1.0  0.2969
  H  H22  1  0.517400  0.774900  0.808800  1.0  0.116
  H  H23  1  0.390600  0.715900  0.781700  1.0  0.1075
  H  H24  1  0.540200  0.685200  0.763800  1.0  0.1209
  H  H25  1  0.451200  0.132700  0.016900  1.0  0.1378
  H  H26  1  0.473700  0.259600  0.989600  1.0  0.1201
  H  H27  1  0.385300  0.155200  0.964600  1.0  0.1326
  H  H28  1  0.096000  0.977900  0.716200  1.0  0.1079
  H  H29  1  0.220600  0.040900  0.743100  1.0  0.1123
  H  H30  1  0.126400  0.947400  0.771900  1.0  0.1189
  H  H31  1  0.034400  0.819100  0.263100  1.0  0.1004
  H  H32  1  0.418300  0.075900  0.243800  1.0  0.09
  H  H33  1  0.912900  0.211700  0.398500  1.0  0.2963
  H  H34  1  0.943200  0.040600  0.098700  1.0  0.1291
  H  H35  1  0.961300  0.045600  0.041000  1.0  0.1317
  H  H36  1  0.867400  0.143200  0.067800  1.0  0.1357
  H  H37  1  0.542900  0.968600  0.400100  1.0  0.131
  H  H38  1  0.602200  0.867300  0.435900  1.0  0.1254
  H  H39  1  0.520200  0.980500  0.457400  1.0  0.1295
  H  H40  1  0.079600  0.220900  0.463100  1.0  0.1291
  H  H41  1  0.010100  0.205600  0.515200  1.0  0.1321
  H  H42  1  0.092000  0.094700  0.491800  1.0  0.1254
  H  H43  1  0.586100  0.777300  0.099400  1.0  0.2965
  H  H44  1  0.517400  0.225100  0.191200  1.0  0.1155
  H  H45  1  0.390600  0.284100  0.218300  1.0  0.1074
  H  H46  1  0.540200  0.314800  0.236200  1.0  0.1206
  H  H47  1  0.451200  0.867300  0.983100  1.0  0.1362
  H  H48  1  0.473700  0.740400  0.010400  1.0  0.1198
  H  H49  1  0.385300  0.844800  0.035400  1.0  0.1331
  H  H50  1  0.096000  0.022100  0.283800  1.0  0.1075
  H  H51  1  0.220600  0.959100  0.256900  1.0  0.1133
  H  H52  1  0.126400  0.052600  0.228100  1.0  0.1189
  H  H53  1  0.965600  0.319100  0.236900  1.0  0.0987
  H  H54  1  0.581700  0.575900  0.256200  1.0  0.0909
  H  H55  1  0.087100  0.711700  0.101500  1.0  0.2962
  H  H56  1  0.056800  0.540600  0.401300  1.0  0.1287
  H  H57  1  0.038700  0.545600  0.459000  1.0  0.1324
  H  H58  1  0.132600  0.643200  0.432200  1.0  0.1372
  H  H59  1  0.457100  0.468600  0.099900  1.0  0.1315
  H  H60  1  0.397800  0.367300  0.064100  1.0  0.125
  H  H61  1  0.479800  0.480500  0.042600  1.0  0.1298
  H  H62  1  0.920400  0.720900  0.036900  1.0  0.1289
  H  H63  1  0.989900  0.705600  0.984800  1.0  0.1316
  H  H64  1  0.908000  0.594700  0.008200  1.0  0.1251
  H  H65  1  0.413900  0.277300  0.400600  1.0  0.2963
  H  H66  1  0.482600  0.725100  0.308800  1.0  0.1162
  H  H67  1  0.609400  0.784100  0.281700  1.0  0.1063
  H  H68  1  0.459800  0.814800  0.263800  1.0  0.1216
  H  H69  1  0.548800  0.367300  0.516900  1.0  0.1379
  H  H70  1  0.526300  0.240400  0.489600  1.0  0.1206
  H  H71  1  0.614700  0.344800  0.464600  1.0  0.1353
  H  H72  1  0.904000  0.522100  0.216200  1.0  0.1076
  H  H73  1  0.779400  0.459100  0.243100  1.0  0.1142
  H  H74  1  0.873600  0.552600  0.271900  1.0  0.1189
  H  H75  1  0.965600  0.680900  0.763100  1.0  0.0997
  H  H76  1  0.581700  0.424100  0.743800  1.0  0.0904
  H  H77  1  0.087100  0.288300  0.898500  1.0  0.2964
  H  H78  1  0.056800  0.459400  0.598700  1.0  0.1291
  H  H79  1  0.038700  0.454400  0.541000  1.0  0.1308
  H  H80  1  0.132600  0.356800  0.567800  1.0  0.1349
  H  H81  1  0.457100  0.531400  0.900100  1.0  0.1318
  H  H82  1  0.397800  0.632700  0.935900  1.0  0.1259
  H  H83  1  0.479800  0.519500  0.957400  1.0  0.1301
  H  H84  1  0.920400  0.279100  0.963100  1.0  0.129
  H  H85  1  0.989900  0.294400  0.015200  1.0  0.1323
  H  H86  1  0.908000  0.405300  0.991800  1.0  0.1259
  H  H87  1  0.413900  0.722700  0.599400  1.0  0.296
  H  H88  1  0.482600  0.274900  0.691200  1.0  0.1158
  H  H89  1  0.609400  0.215900  0.718300  1.0  0.1073
  H  H90  1  0.459800  0.185200  0.736200  1.0  0.1211
  H  H91  1  0.548800  0.632700  0.483100  1.0  0.1373
  H  H92  1  0.526300  0.759600  0.510400  1.0  0.1204
  H  H93  1  0.614700  0.655200  0.535400  1.0  0.1353
  H  H94  1  0.904000  0.477900  0.783800  1.0  0.1074
  H  H95  1  0.779400  0.540900  0.756900  1.0  0.1145
  H  H96  1  0.873600  0.447400  0.728100  1.0  0.118
  C  C97  1  0.820400  0.012000  0.739700  1.0  0.5385
  C  C98  1  0.685500  0.973500  0.762340  1.0  0.4967
  C  C99  1  0.808400  0.964500  0.523360  1.0  -0.186
  C  C100  1  0.905900  0.880500  0.539300  1.0  0.1808
  C  C101  1  0.416300  0.818100  0.691300  1.0  0.6652
  C  C102  1  0.036500  0.116900  0.762800  1.0  0.0804
  C  C103  1  0.083900  0.173200  0.811700  1.0  0.6388
  C  C104  1  0.717700  0.971500  0.563500  1.0  0.1714
  C  C105  1  0.476900  0.859200  0.741900  1.0  0.0972
  C  C106  1  0.898100  0.941600  0.932100  1.0  -0.3999
  C  C107  1  0.583100  0.045700  0.567900  1.0  -0.3779
  C  C108  1  0.033000  0.836000  0.515200  1.0  -0.3784
  C  C109  1  0.684300  0.035200  0.976460  1.0  -0.1428
  C  C110  1  0.481700  0.748500  0.777400  1.0  -0.3339
  C  C111  1  0.778300  0.025300  0.938100  1.0  0.2146
  C  C112  1  0.587800  0.121600  0.961500  1.0  0.1645
  C  C113  1  0.463800  0.171600  0.985200  1.0  -0.3579
  C  C114  1  0.128200  0.011200  0.747100  1.0  -0.3398
  C  C115  1  0.820400  0.988000  0.260300  1.0  0.5394
  C  C116  1  0.685500  0.026500  0.237660  1.0  0.4977
  C  C117  1  0.808400  0.035500  0.476640  1.0  -0.1865
  C  C118  1  0.905900  0.119500  0.460700  1.0  0.1811
  C  C119  1  0.416300  0.181900  0.308700  1.0  0.6657
  C  C120  1  0.036500  0.883100  0.237200  1.0  0.0804
  C  C121  1  0.083900  0.826800  0.188300  1.0  0.6386
  C  C122  1  0.717700  0.028500  0.436500  1.0  0.1713
  C  C123  1  0.476900  0.140800  0.258100  1.0  0.0973
  C  C124  1  0.898100  0.058400  0.067900  1.0  -0.4
  C  C125  1  0.583100  0.954300  0.432100  1.0  -0.3797
  C  C126  1  0.033000  0.164000  0.484800  1.0  -0.3775
  C  C127  1  0.684300  0.964800  0.023540  1.0  -0.1425
  C  C128  1  0.481700  0.251500  0.222600  1.0  -0.3341
  C  C129  1  0.778300  0.974700  0.061900  1.0  0.2147
  C  C130  1  0.587800  0.878400  0.038500  1.0  0.1645
  C  C131  1  0.463800  0.828400  0.014800  1.0  -0.3588
  C  C132  1  0.128200  0.988800  0.252900  1.0  -0.3396
  C  C133  1  0.179600  0.488000  0.239700  1.0  0.538
  C  C134  1  0.314500  0.526500  0.262340  1.0  0.4968
  C  C135  1  0.191600  0.535500  0.023360  1.0  -0.1863
  C  C136  1  0.094100  0.619500  0.039300  1.0  0.1808
  C  C137  1  0.583700  0.681900  0.191300  1.0  0.6644
  C  C138  1  0.963500  0.383100  0.262800  1.0  0.0817
  C  C139  1  0.916100  0.326800  0.311700  1.0  0.6374
  C  C140  1  0.282300  0.528500  0.063500  1.0  0.1723
  C  C141  1  0.523100  0.640800  0.241900  1.0  0.0973
  C  C142  1  0.101900  0.558400  0.432100  1.0  -0.4
  C  C143  1  0.416900  0.454300  0.067900  1.0  -0.3799
  C  C144  1  0.967000  0.664000  0.015200  1.0  -0.3768
  C  C145  1  0.315700  0.464800  0.476460  1.0  -0.1436
  C  C146  1  0.518300  0.751500  0.277400  1.0  -0.3339
  C  C147  1  0.221700  0.474700  0.438100  1.0  0.2149
  C  C148  1  0.412200  0.378400  0.461500  1.0  0.1648
  C  C149  1  0.536200  0.328400  0.485200  1.0  -0.3589
  C  C150  1  0.871800  0.488800  0.247100  1.0  -0.339
  C  C151  1  0.179600  0.512000  0.760300  1.0  0.5377
  C  C152  1  0.314500  0.473500  0.737660  1.0  0.4974
  C  C153  1  0.191600  0.464500  0.976640  1.0  -0.1867
  C  C154  1  0.094100  0.380500  0.960700  1.0  0.1805
  C  C155  1  0.583700  0.318100  0.808700  1.0  0.6648
  C  C156  1  0.963500  0.616900  0.737200  1.0  0.081
  C  C157  1  0.916100  0.673200  0.688300  1.0  0.6393
  C  C158  1  0.282300  0.471500  0.936500  1.0  0.1719
  C  C159  1  0.523100  0.359200  0.758100  1.0  0.0973
  C  C160  1  0.101900  0.441600  0.567900  1.0  -0.3983
  C  C161  1  0.416900  0.545700  0.932100  1.0  -0.3796
  C  C162  1  0.967000  0.336000  0.984800  1.0  -0.3763
  C  C163  1  0.315700  0.535200  0.523540  1.0  -0.1432
  C  C164  1  0.518300  0.248500  0.722600  1.0  -0.3336
  C  C165  1  0.221700  0.525300  0.561900  1.0  0.2156
  C  C166  1  0.412200  0.621600  0.538500  1.0  0.1652
  C  C167  1  0.536200  0.671600  0.514800  1.0  -0.3595
  C  C168  1  0.871800  0.511200  0.752900  1.0  -0.3391
  N  N169  1  0.752200  0.896200  0.599110  1.0  -0.3433
  N  N170  1  0.747000  0.107200  0.901310  1.0  -0.3879
  N  N171  1  0.609100  0.909500  0.732050  1.0  -0.3852
  N  N172  1  0.896600  0.069900  0.772030  1.0  -0.404
  N  N173  1  0.868000  0.841900  0.584220  1.0  -0.0809
  N  N174  1  0.628400  0.165700  0.916990  1.0  -0.2092
  N  N175  1  0.752200  0.103800  0.400890  1.0  -0.3431
  N  N176  1  0.747000  0.892800  0.098690  1.0  -0.3869
  N  N177  1  0.609100  0.090500  0.267950  1.0  -0.3846
  N  N178  1  0.896600  0.930100  0.227970  1.0  -0.4042
  N  N179  1  0.868000  0.158100  0.415780  1.0  -0.0825
  N  N180  1  0.628400  0.834300  0.083010  1.0  -0.208
  N  N181  1  0.247800  0.603800  0.099110  1.0  -0.3434
  N  N182  1  0.253000  0.392800  0.401310  1.0  -0.3888
  N  N183  1  0.390900  0.590500  0.232050  1.0  -0.385
  N  N184  1  0.103400  0.430100  0.272030  1.0  -0.404
  N  N185  1  0.132000  0.658100  0.084220  1.0  -0.0809
  N  N186  1  0.371600  0.334300  0.416990  1.0  -0.2087
  N  N187  1  0.247800  0.396200  0.900890  1.0  -0.3434
  N  N188  1  0.253000  0.607200  0.598690  1.0  -0.3874
  N  N189  1  0.390900  0.409500  0.767950  1.0  -0.3843
  N  N190  1  0.103400  0.569900  0.727970  1.0  -0.4041
  N  N191  1  0.132000  0.341900  0.915780  1.0  -0.084
  N  N192  1  0.371600  0.665700  0.583010  1.0  -0.2066
  O  O193  1  0.844400  0.986400  0.695190  1.0  -0.5497
  O  O194  1  0.658800  0.001800  0.807800  1.0  -0.5532
  O  O195  1  0.995000  0.184000  0.846800  1.0  -0.5959
  O  O196  1  0.497500  0.820100  0.653930  1.0  -0.5909
  O  O197  1  0.293800  0.784700  0.687890  1.0  -0.6485
  O  O198  1  0.206300  0.203400  0.814090  1.0  -0.6132
  O  O199  1  0.844400  0.013600  0.304810  1.0  -0.552
  O  O200  1  0.658800  0.998200  0.192200  1.0  -0.5543
  O  O201  1  0.995000  0.816000  0.153200  1.0  -0.5971
  O  O202  1  0.497500  0.179900  0.346070  1.0  -0.5887
  O  O203  1  0.293800  0.215300  0.312110  1.0  -0.6488
  O  O204  1  0.206300  0.796600  0.185910  1.0  -0.6129
  O  O205  1  0.155600  0.513600  0.195190  1.0  -0.5506
  O  O206  1  0.341200  0.498200  0.307800  1.0  -0.5522
  O  O207  1  0.005000  0.316000  0.346800  1.0  -0.5959
  O  O208  1  0.502500  0.679900  0.153930  1.0  -0.5906
  O  O209  1  0.706200  0.715300  0.187890  1.0  -0.6483
  O  O210  1  0.793700  0.296600  0.314090  1.0  -0.6141
  O  O211  1  0.155600  0.486400  0.804810  1.0  -0.5525
  O  O212  1  0.341200  0.501800  0.692200  1.0  -0.553
  O  O213  1  0.005000  0.684000  0.653200  1.0  -0.5965
  O  O214  1  0.502500  0.320100  0.846070  1.0  -0.588
  O  O215  1  0.706200  0.284700  0.812110  1.0  -0.6478
  O  O216  1  0.793700  0.703400  0.685910  1.0  -0.6138
