# generated using pymatgen
data_CuH11C9(NO)3
_symmetry_space_group_name_H-M   'P 1'
_cell_length_a   9.69720000
_cell_length_b   10.79570000
_cell_length_c   26.96710000
_cell_angle_alpha   90.00000000
_cell_angle_beta   90.00000000
_cell_angle_gamma   90.00000000
_symmetry_Int_Tables_number   1
_chemical_formula_structural   CuH11C9(NO)3
_chemical_formula_sum   'Cu8 H88 C72 N24 O24'
_cell_volume   2823.13343784
_cell_formula_units_Z   8
loop_
 _symmetry_equiv_pos_site_id
 _symmetry_equiv_pos_as_xyz
  1  'x, y, z'
loop_
 _atom_site_type_symbol
 _atom_site_label
 _atom_site_symmetry_multiplicity
 _atom_site_fract_x
 _atom_site_fract_y
 _atom_site_fract_z
 _atom_site_occupancy
 _atom_site_charge
  Cu  Cu1  1  0.314050  0.614930  0.332120  1.0  0.7846
  Cu  Cu2  1  0.186750  0.389800  0.166090  1.0  0.8097
  Cu  Cu3  1  0.314050  0.385070  0.667880  1.0  0.784
  Cu  Cu4  1  0.186750  0.610200  0.833910  1.0  0.8101
  Cu  Cu5  1  0.685950  0.885070  0.832120  1.0  0.7843
  Cu  Cu6  1  0.813250  0.110200  0.666090  1.0  0.8095
  Cu  Cu7  1  0.685950  0.114930  0.167880  1.0  0.7845
  Cu  Cu8  1  0.813250  0.889800  0.333910  1.0  0.8096
  H  H9  1  0.087800  0.714000  0.398600  1.0  0.2612
  H  H10  1  0.417700  0.279800  0.100700  1.0  0.2614
  H  H11  1  0.482900  0.723700  0.190700  1.0  0.1197
  H  H12  1  0.459000  0.814200  0.236900  1.0  0.1245
  H  H13  1  0.612200  0.784500  0.218400  1.0  0.1134
  H  H14  1  0.586100  0.575200  0.243300  1.0  0.0904
  H  H15  1  0.969500  0.317400  0.262900  1.0  0.0945
  H  H16  1  0.903000  0.519000  0.286400  1.0  0.1168
  H  H17  1  0.864600  0.551400  0.230200  1.0  0.1164
  H  H18  1  0.776100  0.450900  0.260000  1.0  0.1144
  H  H19  1  0.454800  0.466300  0.399500  1.0  0.1303
  H  H20  1  0.479700  0.477200  0.458000  1.0  0.1294
  H  H21  1  0.391500  0.364400  0.436100  1.0  0.1241
  H  H22  1  0.925200  0.728200  0.464000  1.0  0.1325
  H  H23  1  0.908600  0.601400  0.494100  1.0  0.1222
  H  H24  1  0.999500  0.711800  0.516500  1.0  0.1291
  H  H25  1  0.589900  0.272800  0.037200  1.0  0.1319
  H  H26  1  0.526300  0.297900  0.983400  1.0  0.1304
  H  H27  1  0.608700  0.405400  0.011500  1.0  0.134
  H  H28  1  0.051400  0.535400  0.097700  1.0  0.1242
  H  H29  1  0.127200  0.640400  0.065900  1.0  0.1312
  H  H30  1  0.035400  0.537600  0.038600  1.0  0.1293
  H  H31  1  0.087800  0.286000  0.601400  1.0  0.2604
  H  H32  1  0.417700  0.720200  0.899300  1.0  0.2618
  H  H33  1  0.482900  0.276300  0.809300  1.0  0.1202
  H  H34  1  0.459000  0.185800  0.763100  1.0  0.1248
  H  H35  1  0.612200  0.215500  0.781600  1.0  0.1124
  H  H36  1  0.586100  0.424800  0.756700  1.0  0.0901
  H  H37  1  0.969500  0.682600  0.737100  1.0  0.0934
  H  H38  1  0.903000  0.481000  0.713600  1.0  0.1153
  H  H39  1  0.864600  0.448600  0.769800  1.0  0.1174
  H  H40  1  0.776100  0.549100  0.740000  1.0  0.1133
  H  H41  1  0.454800  0.533700  0.600500  1.0  0.1307
  H  H42  1  0.479700  0.522800  0.542000  1.0  0.1286
  H  H43  1  0.391500  0.635600  0.563900  1.0  0.1235
  H  H44  1  0.925200  0.271800  0.536000  1.0  0.1325
  H  H45  1  0.908600  0.398600  0.505900  1.0  0.1231
  H  H46  1  0.999500  0.288200  0.483500  1.0  0.1291
  H  H47  1  0.589900  0.727200  0.962800  1.0  0.1318
  H  H48  1  0.526300  0.702100  0.016600  1.0  0.1311
  H  H49  1  0.608700  0.594600  0.988500  1.0  0.1337
  H  H50  1  0.051400  0.464600  0.902300  1.0  0.1228
  H  H51  1  0.127200  0.359600  0.934100  1.0  0.1318
  H  H52  1  0.035400  0.462400  0.961400  1.0  0.1311
  H  H53  1  0.912200  0.786000  0.898600  1.0  0.2613
  H  H54  1  0.582300  0.220200  0.600700  1.0  0.261
  H  H55  1  0.517100  0.776300  0.690700  1.0  0.1198
  H  H56  1  0.541000  0.685800  0.736900  1.0  0.1236
  H  H57  1  0.387800  0.715500  0.718400  1.0  0.1138
  H  H58  1  0.413900  0.924800  0.743300  1.0  0.0909
  H  H59  1  0.030500  0.182600  0.762900  1.0  0.0942
  H  H60  1  0.097000  0.981000  0.786400  1.0  0.1171
  H  H61  1  0.135400  0.948600  0.730200  1.0  0.1161
  H  H62  1  0.223900  0.049100  0.760000  1.0  0.1128
  H  H63  1  0.545200  0.033700  0.899500  1.0  0.1301
  H  H64  1  0.520300  0.022800  0.958000  1.0  0.1294
  H  H65  1  0.608500  0.135600  0.936100  1.0  0.124
  H  H66  1  0.074800  0.771800  0.964000  1.0  0.1325
  H  H67  1  0.091400  0.898600  0.994100  1.0  0.1235
  H  H68  1  0.000500  0.788200  0.016500  1.0  0.1292
  H  H69  1  0.410100  0.227200  0.537200  1.0  0.131
  H  H70  1  0.473700  0.202100  0.483400  1.0  0.1308
  H  H71  1  0.391300  0.094600  0.511500  1.0  0.1336
  H  H72  1  0.948600  0.964600  0.597700  1.0  0.1235
  H  H73  1  0.872800  0.859600  0.565900  1.0  0.1309
  H  H74  1  0.964600  0.962400  0.538600  1.0  0.1298
  H  H75  1  0.912200  0.214000  0.101400  1.0  0.2609
  H  H76  1  0.582300  0.779800  0.399300  1.0  0.2611
  H  H77  1  0.517100  0.223700  0.309300  1.0  0.1204
  H  H78  1  0.541000  0.314200  0.263100  1.0  0.124
  H  H79  1  0.387800  0.284500  0.281600  1.0  0.1145
  H  H80  1  0.413900  0.075200  0.256700  1.0  0.0907
  H  H81  1  0.030500  0.817400  0.237100  1.0  0.0934
  H  H82  1  0.097000  0.019000  0.213600  1.0  0.1158
  H  H83  1  0.135400  0.051400  0.269800  1.0  0.1165
  H  H84  1  0.223900  0.950900  0.240000  1.0  0.1125
  H  H85  1  0.545200  0.966300  0.100500  1.0  0.1306
  H  H86  1  0.520300  0.977200  0.042000  1.0  0.1287
  H  H87  1  0.608500  0.864400  0.063900  1.0  0.1236
  H  H88  1  0.074800  0.228200  0.036000  1.0  0.1324
  H  H89  1  0.091400  0.101400  0.005900  1.0  0.1229
  H  H90  1  0.000500  0.211800  0.983500  1.0  0.1292
  H  H91  1  0.410100  0.772800  0.462800  1.0  0.1318
  H  H92  1  0.473700  0.797900  0.516600  1.0  0.1318
  H  H93  1  0.391300  0.905400  0.488500  1.0  0.1334
  H  H94  1  0.948600  0.035400  0.402300  1.0  0.1239
  H  H95  1  0.872800  0.140400  0.434100  1.0  0.132
  H  H96  1  0.964600  0.037600  0.461400  1.0  0.1313
  C  C97  1  0.519400  0.750500  0.222850  1.0  -0.3454
  C  C98  1  0.525500  0.641000  0.257680  1.0  0.0876
  C  C99  1  0.583500  0.682600  0.308230  1.0  0.6556
  C  C100  1  0.316600  0.527000  0.237030  1.0  0.4283
  C  C101  1  0.181100  0.486900  0.259870  1.0  0.4332
  C  C102  1  0.965000  0.383700  0.237090  1.0  0.0878
  C  C103  1  0.868600  0.485200  0.255000  1.0  -0.3479
  C  C104  1  0.913900  0.326700  0.188630  1.0  0.65
  C  C105  1  0.413900  0.452400  0.432200  1.0  -0.3689
  C  C106  1  0.285300  0.527700  0.437080  1.0  0.2209
  C  C107  1  0.193500  0.535200  0.476440  1.0  -0.181
  C  C108  1  0.094700  0.619400  0.461040  1.0  0.1616
  C  C109  1  0.971800  0.669400  0.486000  1.0  -0.3638
  C  C110  1  0.546200  0.334800  0.015800  1.0  -0.3614
  C  C111  1  0.414700  0.378100  0.039130  1.0  0.1601
  C  C112  1  0.319700  0.464300  0.023300  1.0  -0.178
  C  C113  1  0.222200  0.472200  0.061510  1.0  0.2242
  C  C114  1  0.098400  0.553400  0.066300  1.0  -0.3759
  C  C115  1  0.519400  0.249500  0.777150  1.0  -0.3454
  C  C116  1  0.525500  0.359000  0.742320  1.0  0.0872
  C  C117  1  0.583500  0.317400  0.691770  1.0  0.6542
  C  C118  1  0.316600  0.473000  0.762970  1.0  0.4249
  C  C119  1  0.181100  0.513100  0.740130  1.0  0.4305
  C  C120  1  0.965000  0.616300  0.762910  1.0  0.0878
  C  C121  1  0.868600  0.514800  0.745000  1.0  -0.3478
  C  C122  1  0.913900  0.673300  0.811370  1.0  0.6484
  C  C123  1  0.413900  0.547600  0.567800  1.0  -0.3671
  C  C124  1  0.285300  0.472300  0.562920  1.0  0.221
  C  C125  1  0.193500  0.464800  0.523560  1.0  -0.1801
  C  C126  1  0.094700  0.380600  0.538960  1.0  0.1613
  C  C127  1  0.971800  0.330600  0.514000  1.0  -0.3645
  C  C128  1  0.546200  0.665200  0.984200  1.0  -0.3604
  C  C129  1  0.414700  0.621900  0.960870  1.0  0.1602
  C  C130  1  0.319700  0.535700  0.976700  1.0  -0.1786
  C  C131  1  0.222200  0.527800  0.938490  1.0  0.2241
  C  C132  1  0.098400  0.446600  0.933700  1.0  -0.3748
  C  C133  1  0.480600  0.749500  0.722850  1.0  -0.3451
  C  C134  1  0.474500  0.859000  0.757680  1.0  0.087
  C  C135  1  0.416500  0.817400  0.808230  1.0  0.6564
  C  C136  1  0.683400  0.973000  0.737030  1.0  0.4263
  C  C137  1  0.818900  0.013100  0.759870  1.0  0.4319
  C  C138  1  0.035000  0.116300  0.737090  1.0  0.0871
  C  C139  1  0.131400  0.014800  0.755000  1.0  -0.348
  C  C140  1  0.086100  0.173300  0.688630  1.0  0.6507
  C  C141  1  0.586100  0.047600  0.932200  1.0  -0.3666
  C  C142  1  0.714700  0.972300  0.937080  1.0  0.2217
  C  C143  1  0.806500  0.964800  0.976440  1.0  -0.1809
  C  C144  1  0.905300  0.880600  0.961040  1.0  0.1615
  C  C145  1  0.028200  0.830600  0.986000  1.0  -0.3643
  C  C146  1  0.453800  0.165200  0.515800  1.0  -0.3607
  C  C147  1  0.585300  0.121900  0.539130  1.0  0.1603
  C  C148  1  0.680300  0.035700  0.523300  1.0  -0.1781
  C  C149  1  0.777800  0.027800  0.561510  1.0  0.2251
  C  C150  1  0.901600  0.946600  0.566300  1.0  -0.3772
  C  C151  1  0.480600  0.250500  0.277150  1.0  -0.3449
  C  C152  1  0.474500  0.141000  0.242320  1.0  0.0878
  C  C153  1  0.416500  0.182600  0.191770  1.0  0.655
  C  C154  1  0.683400  0.027000  0.262970  1.0  0.424
  C  C155  1  0.818900  0.986900  0.240130  1.0  0.4298
  C  C156  1  0.035000  0.883700  0.262910  1.0  0.0878
  C  C157  1  0.131400  0.985200  0.245000  1.0  -0.3475
  C  C158  1  0.086100  0.826700  0.311370  1.0  0.6489
  C  C159  1  0.586100  0.952400  0.067800  1.0  -0.3677
  C  C160  1  0.714700  0.027700  0.062920  1.0  0.2216
  C  C161  1  0.806500  0.035200  0.023560  1.0  -0.1805
  C  C162  1  0.905300  0.119400  0.038960  1.0  0.1612
  C  C163  1  0.028200  0.169400  0.014000  1.0  -0.3648
  C  C164  1  0.453800  0.834800  0.484200  1.0  -0.3603
  C  C165  1  0.585300  0.878100  0.460870  1.0  0.1604
  C  C166  1  0.680300  0.964300  0.476700  1.0  -0.1789
  C  C167  1  0.777800  0.972200  0.438490  1.0  0.2243
  C  C168  1  0.901600  0.053400  0.433700  1.0  -0.375
  N  N169  1  0.390700  0.590100  0.267920  1.0  -0.4798
  N  N170  1  0.103200  0.429600  0.228030  1.0  -0.4928
  N  N171  1  0.247800  0.603500  0.401020  1.0  -0.3185
  N  N172  1  0.133200  0.658400  0.416090  1.0  -0.0411
  N  N173  1  0.373500  0.336600  0.083490  1.0  -0.0496
  N  N174  1  0.255200  0.392600  0.098770  1.0  -0.3385
  N  N175  1  0.390700  0.409900  0.732080  1.0  -0.481
  N  N176  1  0.103200  0.570400  0.771970  1.0  -0.4914
  N  N177  1  0.247800  0.396500  0.598980  1.0  -0.3211
  N  N178  1  0.133200  0.341600  0.583910  1.0  -0.0397
  N  N179  1  0.373500  0.663400  0.916510  1.0  -0.0512
  N  N180  1  0.255200  0.607400  0.901230  1.0  -0.3389
  N  N181  1  0.609300  0.909900  0.767920  1.0  -0.4798
  N  N182  1  0.896800  0.070400  0.728030  1.0  -0.4911
  N  N183  1  0.752200  0.896500  0.901020  1.0  -0.3188
  N  N184  1  0.866800  0.841600  0.916090  1.0  -0.0415
  N  N185  1  0.626500  0.163400  0.583490  1.0  -0.0501
  N  N186  1  0.744800  0.107400  0.598770  1.0  -0.3384
  N  N187  1  0.609300  0.090100  0.232080  1.0  -0.4815
  N  N188  1  0.896800  0.929600  0.271970  1.0  -0.4894
  N  N189  1  0.752200  0.103500  0.098980  1.0  -0.3218
  N  N190  1  0.866800  0.158400  0.083910  1.0  -0.0393
  N  N191  1  0.626500  0.836600  0.416510  1.0  -0.0519
  N  N192  1  0.744800  0.892600  0.401230  1.0  -0.3386
  O  O193  1  0.501800  0.682900  0.345310  1.0  -0.5877
  O  O194  1  0.157000  0.513000  0.304880  1.0  -0.5164
  O  O195  1  0.342800  0.496800  0.192270  1.0  -0.5215
  O  O196  1  0.001900  0.317600  0.152770  1.0  -0.5965
  O  O197  1  0.792200  0.296000  0.184900  1.0  -0.5935
  O  O198  1  0.705400  0.716700  0.310430  1.0  -0.6011
  O  O199  1  0.501800  0.317100  0.654690  1.0  -0.5894
  O  O200  1  0.157000  0.487000  0.695120  1.0  -0.5169
  O  O201  1  0.342800  0.503200  0.807730  1.0  -0.5203
  O  O202  1  0.001900  0.682400  0.847230  1.0  -0.5955
  O  O203  1  0.792200  0.704000  0.815100  1.0  -0.5927
  O  O204  1  0.705400  0.283300  0.689570  1.0  -0.6005
  O  O205  1  0.498200  0.817100  0.845310  1.0  -0.5879
  O  O206  1  0.843000  0.987000  0.804880  1.0  -0.5157
  O  O207  1  0.657200  0.003200  0.692270  1.0  -0.5225
  O  O208  1  0.998100  0.182400  0.652770  1.0  -0.5953
  O  O209  1  0.207800  0.204000  0.684900  1.0  -0.5941
  O  O210  1  0.294600  0.783300  0.810430  1.0  -0.6012
  O  O211  1  0.498200  0.182900  0.154690  1.0  -0.5897
  O  O212  1  0.843000  0.013000  0.195120  1.0  -0.5171
  O  O213  1  0.657200  0.996800  0.307730  1.0  -0.5212
  O  O214  1  0.998100  0.817600  0.347230  1.0  -0.5943
  O  O215  1  0.207800  0.796000  0.315100  1.0  -0.5937
  O  O216  1  0.294600  0.216700  0.189570  1.0  -0.6021
