# generated using pymatgen
data_ZnH8C7N6
_symmetry_space_group_name_H-M   'P 1'
_cell_length_a   10.57830000
_cell_length_b   12.32880000
_cell_length_c   17.23600000
_cell_angle_alpha   90.00000000
_cell_angle_beta   93.71400000
_cell_angle_gamma   90.00000000
_symmetry_Int_Tables_number   1
_chemical_formula_structural   ZnH8C7N6
_chemical_formula_sum   'Zn8 H64 C56 N48'
_cell_volume   2243.15930095
_cell_formula_units_Z   8
loop_
 _symmetry_equiv_pos_site_id
 _symmetry_equiv_pos_as_xyz
  1  'x, y, z'
loop_
 _atom_site_type_symbol
 _atom_site_label
 _atom_site_symmetry_multiplicity
 _atom_site_fract_x
 _atom_site_fract_y
 _atom_site_fract_z
 _atom_site_occupancy
 _atom_site_charge
  Zn  Zn1  1  0.283010  0.259560  0.406750  1.0  0.7981
  Zn  Zn2  1  0.294480  0.244000  0.054380  1.0  0.8028
  Zn  Zn3  1  0.216990  0.759560  0.093250  1.0  0.7986
  Zn  Zn4  1  0.205520  0.744000  0.445620  1.0  0.8033
  Zn  Zn5  1  0.716990  0.740440  0.593250  1.0  0.7987
  Zn  Zn6  1  0.705520  0.756000  0.945620  1.0  0.8034
  Zn  Zn7  1  0.783010  0.240440  0.906750  1.0  0.7983
  Zn  Zn8  1  0.794480  0.256000  0.554380  1.0  0.8027
  H  H9  1  0.443600  0.138700  0.289800  1.0  0.1359
  H  H10  1  0.499500  0.193700  0.215200  1.0  0.1456
  H  H11  1  0.400100  0.096100  0.204500  1.0  0.1492
  H  H12  1  0.003500  0.425800  0.160100  1.0  0.1673
  H  H13  1  0.123100  0.481300  0.124300  1.0  0.144
  H  H14  1  0.044000  0.192700  0.846800  1.0  0.1271
  H  H15  1  0.159700  0.151800  0.903700  1.0  0.1446
  H  H16  1  0.171200  0.262900  0.856700  1.0  0.1594
  H  H17  1  0.010400  0.983400  0.355900  1.0  0.1529
  H  H18  1  0.062700  0.081100  0.305900  1.0  0.1374
  H  H19  1  0.157000  0.015900  0.365300  1.0  0.1314
  H  H20  1  0.048200  0.371300  0.581200  1.0  0.1423
  H  H21  1  0.182000  0.310500  0.589000  1.0  0.1501
  H  H22  1  0.388900  0.610200  0.359700  1.0  0.1442
  H  H23  1  0.463500  0.501400  0.384200  1.0  0.1471
  H  H24  1  0.352300  0.498400  0.316700  1.0  0.1387
  H  H25  1  0.056400  0.638700  0.210200  1.0  0.1372
  H  H26  1  0.000500  0.693700  0.284800  1.0  0.1464
  H  H27  1  0.099900  0.596100  0.295500  1.0  0.1498
  H  H28  1  0.496500  0.925800  0.339900  1.0  0.165
  H  H29  1  0.376900  0.981300  0.375700  1.0  0.1435
  H  H30  1  0.456000  0.692700  0.653200  1.0  0.1248
  H  H31  1  0.340300  0.651800  0.596300  1.0  0.1455
  H  H32  1  0.328800  0.762900  0.643300  1.0  0.1587
  H  H33  1  0.489600  0.483400  0.144100  1.0  0.1537
  H  H34  1  0.437300  0.581100  0.194100  1.0  0.1367
  H  H35  1  0.343000  0.515900  0.134700  1.0  0.1313
  H  H36  1  0.451800  0.871300  0.918800  1.0  0.1424
  H  H37  1  0.318000  0.810500  0.911000  1.0  0.1502
  H  H38  1  0.111100  0.110200  0.140300  1.0  0.1437
  H  H39  1  0.036500  0.001400  0.115800  1.0  0.1462
  H  H40  1  0.147700  0.998400  0.183300  1.0  0.1396
  H  H41  1  0.556400  0.861300  0.710200  1.0  0.1367
  H  H42  1  0.500500  0.806300  0.784800  1.0  0.1465
  H  H43  1  0.599900  0.903900  0.795500  1.0  0.1501
  H  H44  1  0.996500  0.574200  0.839900  1.0  0.165
  H  H45  1  0.876900  0.518700  0.875700  1.0  0.1445
  H  H46  1  0.956000  0.807300  0.153200  1.0  0.1241
  H  H47  1  0.840300  0.848200  0.096300  1.0  0.146
  H  H48  1  0.828800  0.737100  0.143300  1.0  0.1589
  H  H49  1  0.989600  0.016600  0.644100  1.0  0.1533
  H  H50  1  0.937300  0.918900  0.694100  1.0  0.1364
  H  H51  1  0.843000  0.984100  0.634700  1.0  0.1319
  H  H52  1  0.951800  0.628700  0.418800  1.0  0.1433
  H  H53  1  0.818000  0.689500  0.411000  1.0  0.1502
  H  H54  1  0.611100  0.389800  0.640300  1.0  0.1442
  H  H55  1  0.536500  0.498600  0.615800  1.0  0.1462
  H  H56  1  0.647700  0.501600  0.683300  1.0  0.1395
  H  H57  1  0.943600  0.361300  0.789800  1.0  0.1359
  H  H58  1  0.999500  0.306300  0.715200  1.0  0.1458
  H  H59  1  0.900100  0.403900  0.704500  1.0  0.1501
  H  H60  1  0.503500  0.074200  0.660100  1.0  0.1673
  H  H61  1  0.623100  0.018700  0.624300  1.0  0.1444
  H  H62  1  0.544000  0.307300  0.346800  1.0  0.127
  H  H63  1  0.659700  0.348200  0.403700  1.0  0.1448
  H  H64  1  0.671200  0.237100  0.356700  1.0  0.1592
  H  H65  1  0.510400  0.516600  0.855900  1.0  0.153
  H  H66  1  0.562700  0.418900  0.805900  1.0  0.1363
  H  H67  1  0.657000  0.484100  0.865300  1.0  0.1317
  H  H68  1  0.548200  0.128700  0.081200  1.0  0.1434
  H  H69  1  0.682000  0.189500  0.089000  1.0  0.1499
  H  H70  1  0.888900  0.889800  0.859700  1.0  0.1449
  H  H71  1  0.963500  0.998600  0.884200  1.0  0.1468
  H  H72  1  0.852300  0.001600  0.816700  1.0  0.1386
  C  C73  1  0.424400  0.160300  0.235580  1.0  -0.4482
  C  C74  1  0.317800  0.239900  0.231390  1.0  0.4377
  C  C75  1  0.169800  0.345000  0.188060  1.0  0.4226
  C  C76  1  0.082200  0.410800  0.133820  1.0  -0.36
  C  C77  1  0.047200  0.358100  0.056800  1.0  0.4446
  C  C78  1  0.061100  0.276100  0.948880  1.0  0.4432
  C  C79  1  0.113500  0.215700  0.883420  1.0  -0.4591
  C  C80  1  0.070600  0.043800  0.356200  1.0  -0.4429
  C  C81  1  0.043100  0.121000  0.418860  1.0  0.4752
  C  C82  1  0.062500  0.249610  0.501640  1.0  0.4259
  C  C83  1  0.116300  0.340100  0.551300  1.0  -0.3739
  C  C84  1  0.173400  0.428400  0.505230  1.0  0.4508
  C  C85  1  0.287000  0.508800  0.425440  1.0  0.4455
  C  C86  1  0.381000  0.531700  0.366430  1.0  -0.4395
  C  C87  1  0.075600  0.660300  0.264420  1.0  -0.4471
  C  C88  1  0.182200  0.739900  0.268610  1.0  0.4375
  C  C89  1  0.330200  0.845000  0.311940  1.0  0.4232
  C  C90  1  0.417800  0.910800  0.366180  1.0  -0.3609
  C  C91  1  0.452800  0.858100  0.443200  1.0  0.4434
  C  C92  1  0.438900  0.776100  0.551120  1.0  0.4442
  C  C93  1  0.386500  0.715700  0.616580  1.0  -0.4602
  C  C94  1  0.429400  0.543800  0.143800  1.0  -0.4438
  C  C95  1  0.456900  0.621000  0.081140  1.0  0.4752
  C  C96  1  0.437500  0.749610  0.998360  1.0  0.4263
  C  C97  1  0.383700  0.840100  0.948700  1.0  -0.3708
  C  C98  1  0.326600  0.928400  0.994770  1.0  0.4505
  C  C99  1  0.213000  0.008800  0.074560  1.0  0.4454
  C  C100  1  0.119000  0.031700  0.133570  1.0  -0.4379
  C  C101  1  0.575600  0.839700  0.764420  1.0  -0.4473
  C  C102  1  0.682200  0.760100  0.768610  1.0  0.4373
  C  C103  1  0.830200  0.655000  0.811940  1.0  0.4232
  C  C104  1  0.917800  0.589200  0.866180  1.0  -0.3609
  C  C105  1  0.952800  0.641900  0.943200  1.0  0.4434
  C  C106  1  0.938900  0.723900  0.051120  1.0  0.444
  C  C107  1  0.886500  0.784300  0.116580  1.0  -0.4597
  C  C108  1  0.929400  0.956200  0.643800  1.0  -0.4438
  C  C109  1  0.956900  0.879000  0.581140  1.0  0.4753
  C  C110  1  0.937500  0.750390  0.498360  1.0  0.426
  C  C111  1  0.883700  0.659900  0.448700  1.0  -0.3708
  C  C112  1  0.826600  0.571600  0.494770  1.0  0.4508
  C  C113  1  0.713000  0.491200  0.574560  1.0  0.4457
  C  C114  1  0.619000  0.468300  0.633570  1.0  -0.4381
  C  C115  1  0.924400  0.339700  0.735580  1.0  -0.4486
  C  C116  1  0.817800  0.260100  0.731390  1.0  0.4376
  C  C117  1  0.669800  0.155000  0.688060  1.0  0.4228
  C  C118  1  0.582200  0.089200  0.633820  1.0  -0.3605
  C  C119  1  0.547200  0.141900  0.556800  1.0  0.4445
  C  C120  1  0.561100  0.223900  0.448880  1.0  0.4433
  C  C121  1  0.613500  0.284300  0.383420  1.0  -0.4591
  C  C122  1  0.570600  0.456200  0.856200  1.0  -0.4429
  C  C123  1  0.543100  0.379000  0.918860  1.0  0.4753
  C  C124  1  0.562500  0.250390  0.001640  1.0  0.4256
  C  C125  1  0.616300  0.159900  0.051300  1.0  -0.3743
  C  C126  1  0.673400  0.071600  0.005230  1.0  0.4507
  C  C127  1  0.787000  0.991200  0.925440  1.0  0.4455
  C  C128  1  0.881000  0.968300  0.866430  1.0  -0.4397
  N  N129  1  0.125600  0.198320  0.447210  1.0  -0.5311
  N  N130  1  0.935600  0.122790  0.453250  1.0  -0.3857
  N  N131  1  0.948100  0.207060  0.506880  1.0  -0.3074
  N  N132  1  0.259700  0.408840  0.451080  1.0  -0.5453
  N  N133  1  0.148300  0.531890  0.513360  1.0  -0.3653
  N  N134  1  0.222400  0.583960  0.460750  1.0  -0.3372
  N  N135  1  0.941000  0.305710  0.953160  1.0  -0.338
  N  N136  1  0.931700  0.359590  0.023610  1.0  -0.3683
  N  N137  1  0.131300  0.308010  0.012510  1.0  -0.5241
  N  N138  1  0.265500  0.281160  0.164710  1.0  -0.5515
  N  N139  1  0.163500  0.345650  0.263920  1.0  -0.3681
  N  N140  1  0.260500  0.276710  0.292030  1.0  -0.32
  N  N141  1  0.374400  0.698320  0.052790  1.0  -0.5302
  N  N142  1  0.564400  0.622790  0.046750  1.0  -0.3861
  N  N143  1  0.551900  0.707060  0.993120  1.0  -0.3068
  N  N144  1  0.240300  0.908840  0.048920  1.0  -0.5453
  N  N145  1  0.351700  0.031890  0.986640  1.0  -0.3634
  N  N146  1  0.277600  0.083960  0.039250  1.0  -0.3377
  N  N147  1  0.559000  0.805710  0.546840  1.0  -0.3387
  N  N148  1  0.568300  0.859590  0.476390  1.0  -0.369
  N  N149  1  0.368700  0.808010  0.487490  1.0  -0.5246
  N  N150  1  0.234500  0.781160  0.335290  1.0  -0.5506
  N  N151  1  0.336500  0.845650  0.236080  1.0  -0.3684
  N  N152  1  0.239500  0.776710  0.207970  1.0  -0.32
  N  N153  1  0.874400  0.801680  0.552790  1.0  -0.5299
  N  N154  1  0.064400  0.877210  0.546750  1.0  -0.3875
  N  N155  1  0.051900  0.792940  0.493120  1.0  -0.3073
  N  N156  1  0.740300  0.591160  0.548920  1.0  -0.545
  N  N157  1  0.851700  0.468110  0.486640  1.0  -0.3635
  N  N158  1  0.777600  0.416040  0.539250  1.0  -0.3376
  N  N159  1  0.059000  0.694290  0.046840  1.0  -0.3381
  N  N160  1  0.068300  0.640410  0.976390  1.0  -0.3686
  N  N161  1  0.868700  0.691990  0.987490  1.0  -0.5246
  N  N162  1  0.734500  0.718840  0.835290  1.0  -0.5506
  N  N163  1  0.836500  0.654350  0.736080  1.0  -0.3686
  N  N164  1  0.739500  0.723290  0.707970  1.0  -0.32
  N  N165  1  0.625600  0.301680  0.947210  1.0  -0.531
  N  N166  1  0.435600  0.377210  0.953250  1.0  -0.3869
  N  N167  1  0.448100  0.292940  0.006880  1.0  -0.3076
  N  N168  1  0.759700  0.091160  0.951080  1.0  -0.5454
  N  N169  1  0.648300  0.968110  0.013360  1.0  -0.3651
  N  N170  1  0.722400  0.916040  0.960750  1.0  -0.3364
  N  N171  1  0.441000  0.194290  0.453160  1.0  -0.3379
  N  N172  1  0.431700  0.140410  0.523610  1.0  -0.3677
  N  N173  1  0.631300  0.191990  0.512510  1.0  -0.524
  N  N174  1  0.765500  0.218840  0.664710  1.0  -0.5512
  N  N175  1  0.663500  0.154350  0.763920  1.0  -0.3683
  N  N176  1  0.760500  0.223290  0.792030  1.0  -0.3202
