# generated using pymatgen
data_ZnH8C7N6
_symmetry_space_group_name_H-M   'P 1'
_cell_length_a   10.68250000
_cell_length_b   12.33880000
_cell_length_c   17.12600000
_cell_angle_alpha   90.00000000
_cell_angle_beta   95.44700000
_cell_angle_gamma   90.00000000
_symmetry_Int_Tables_number   1
_chemical_formula_structural   ZnH8C7N6
_chemical_formula_sum   'Zn8 H64 C56 N48'
_cell_volume   2247.17160580
_cell_formula_units_Z   8
loop_
 _symmetry_equiv_pos_site_id
 _symmetry_equiv_pos_as_xyz
  1  'x, y, z'
loop_
 _atom_site_type_symbol
 _atom_site_label
 _atom_site_symmetry_multiplicity
 _atom_site_fract_x
 _atom_site_fract_y
 _atom_site_fract_z
 _atom_site_occupancy
 _atom_site_charge
  Zn  Zn1  1  0.273100  0.263410  0.399090  1.0  0.8065
  Zn  Zn2  1  0.793080  0.255010  0.543410  1.0  0.8075
  Zn  Zn3  1  0.226900  0.763410  0.100910  1.0  0.8068
  Zn  Zn4  1  0.706920  0.755010  0.956590  1.0  0.8077
  Zn  Zn5  1  0.726900  0.736590  0.600910  1.0  0.8069
  Zn  Zn6  1  0.206920  0.744990  0.456590  1.0  0.8074
  Zn  Zn7  1  0.773100  0.236590  0.899090  1.0  0.8067
  Zn  Zn8  1  0.293080  0.244990  0.043410  1.0  0.8072
  H  H9  1  0.933100  0.363200  0.787300  1.0  0.1378
  H  H10  1  0.991000  0.318200  0.710800  1.0  0.148
  H  H11  1  0.883800  0.409200  0.702500  1.0  0.1489
  H  H12  1  0.520400  0.055500  0.644200  1.0  0.165
  H  H13  1  0.641800  0.015200  0.604700  1.0  0.1417
  H  H14  1  0.528400  0.318400  0.338200  1.0  0.1279
  H  H15  1  0.642700  0.361100  0.397400  1.0  0.1466
  H  H16  1  0.658500  0.253200  0.347400  1.0  0.1605
  H  H17  1  0.980400  0.006300  0.326200  1.0  0.1546
  H  H18  1  0.072500  0.093900  0.293200  1.0  0.1403
  H  H19  1  0.127200  0.004900  0.355300  1.0  0.1381
  H  H20  1  0.043200  0.367400  0.574000  1.0  0.1449
  H  H21  1  0.174300  0.304000  0.583500  1.0  0.153
  H  H22  1  0.382700  0.614900  0.363700  1.0  0.1428
  H  H23  1  0.464300  0.512000  0.394100  1.0  0.1462
  H  H24  1  0.357600  0.499500  0.322600  1.0  0.1398
  H  H25  1  0.566900  0.863200  0.712700  1.0  0.1382
  H  H26  1  0.509000  0.818200  0.789200  1.0  0.1481
  H  H27  1  0.616200  0.909200  0.797500  1.0  0.1491
  H  H28  1  0.979600  0.555500  0.855800  1.0  0.163
  H  H29  1  0.858200  0.515200  0.895300  1.0  0.142
  H  H30  1  0.971600  0.818400  0.161800  1.0  0.127
  H  H31  1  0.857300  0.861100  0.102600  1.0  0.1467
  H  H32  1  0.841500  0.753200  0.152600  1.0  0.1596
  H  H33  1  0.519600  0.506300  0.173800  1.0  0.1542
  H  H34  1  0.427500  0.593900  0.206800  1.0  0.1374
  H  H35  1  0.372800  0.504900  0.144700  1.0  0.1381
  H  H36  1  0.456800  0.867400  0.926000  1.0  0.1459
  H  H37  1  0.325700  0.804000  0.916500  1.0  0.1541
  H  H38  1  0.117300  0.114900  0.136300  1.0  0.143
  H  H39  1  0.035700  0.012000  0.105900  1.0  0.1472
  H  H40  1  0.142400  0.999500  0.177400  1.0  0.1409
  H  H41  1  0.066900  0.636800  0.212700  1.0  0.139
  H  H42  1  0.009000  0.681800  0.289200  1.0  0.1483
  H  H43  1  0.116200  0.590800  0.297500  1.0  0.1487
  H  H44  1  0.479600  0.944500  0.355800  1.0  0.163
  H  H45  1  0.358200  0.984800  0.395300  1.0  0.1414
  H  H46  1  0.471600  0.681600  0.661800  1.0  0.1276
  H  H47  1  0.357300  0.638900  0.602600  1.0  0.1468
  H  H48  1  0.341500  0.746800  0.652600  1.0  0.159
  H  H49  1  0.019600  0.993700  0.673800  1.0  0.155
  H  H50  1  0.927500  0.906100  0.706800  1.0  0.1395
  H  H51  1  0.872800  0.995100  0.644700  1.0  0.1382
  H  H52  1  0.956800  0.632600  0.426000  1.0  0.1458
  H  H53  1  0.825700  0.696000  0.416500  1.0  0.154
  H  H54  1  0.617300  0.385100  0.636300  1.0  0.1419
  H  H55  1  0.535700  0.488000  0.605900  1.0  0.1472
  H  H56  1  0.642400  0.500500  0.677400  1.0  0.1411
  H  H57  1  0.433100  0.136800  0.287300  1.0  0.1381
  H  H58  1  0.491000  0.181800  0.210800  1.0  0.1481
  H  H59  1  0.383800  0.090800  0.202500  1.0  0.1484
  H  H60  1  0.020400  0.444500  0.144200  1.0  0.1651
  H  H61  1  0.141800  0.484800  0.104700  1.0  0.1413
  H  H62  1  0.028400  0.181600  0.838200  1.0  0.1278
  H  H63  1  0.142700  0.138900  0.897400  1.0  0.1468
  H  H64  1  0.158500  0.246800  0.847400  1.0  0.1603
  H  H65  1  0.480400  0.493700  0.826200  1.0  0.1542
  H  H66  1  0.572500  0.406100  0.793200  1.0  0.1376
  H  H67  1  0.627200  0.495100  0.855300  1.0  0.1378
  H  H68  1  0.543200  0.132600  0.074000  1.0  0.1449
  H  H69  1  0.674300  0.196000  0.083500  1.0  0.1527
  H  H70  1  0.882700  0.885100  0.863700  1.0  0.1429
  H  H71  1  0.964300  0.988000  0.894100  1.0  0.1461
  H  H72  1  0.857600  0.000500  0.822600  1.0  0.1397
  C  C73  1  0.914400  0.344700  0.731780  1.0  -0.4468
  C  C74  1  0.816200  0.258660  0.723690  1.0  0.441
  C  C75  1  0.676800  0.147400  0.675870  1.0  0.4335
  C  C76  1  0.594400  0.080400  0.618390  1.0  -0.375
  C  C77  1  0.549200  0.139040  0.544160  1.0  0.4421
  C  C78  1  0.553400  0.230560  0.439140  1.0  0.4447
  C  C79  1  0.599700  0.296400  0.375070  1.0  -0.4521
  C  C80  1  0.054900  0.051400  0.339200  1.0  -0.4404
  C  C81  1  0.031800  0.125900  0.404450  1.0  0.4786
  C  C82  1  0.055500  0.249490  0.491450  1.0  0.4318
  C  C83  1  0.110500  0.336660  0.544740  1.0  -0.3869
  C  C84  1  0.170800  0.426840  0.503040  1.0  0.4509
  C  C85  1  0.286100  0.510580  0.429230  1.0  0.443
  C  C86  1  0.381000  0.536500  0.372450  1.0  -0.4479
  C  C87  1  0.585600  0.844700  0.768220  1.0  -0.4464
  C  C88  1  0.683800  0.758660  0.776310  1.0  0.4407
  C  C89  1  0.823200  0.647400  0.824130  1.0  0.4333
  C  C90  1  0.905600  0.580400  0.881610  1.0  -0.3744
  C  C91  1  0.950800  0.639040  0.955840  1.0  0.4416
  C  C92  1  0.946600  0.730560  0.060860  1.0  0.4447
  C  C93  1  0.900300  0.796400  0.124930  1.0  -0.4515
  C  C94  1  0.445100  0.551400  0.160800  1.0  -0.4403
  C  C95  1  0.468200  0.625900  0.095550  1.0  0.4782
  C  C96  1  0.444500  0.749490  0.008550  1.0  0.4317
  C  C97  1  0.389500  0.836660  0.955260  1.0  -0.3857
  C  C98  1  0.329200  0.926840  0.996960  1.0  0.4508
  C  C99  1  0.213900  0.010580  0.070770  1.0  0.4432
  C  C100  1  0.119000  0.036500  0.127550  1.0  -0.4481
  C  C101  1  0.085600  0.655300  0.268220  1.0  -0.4464
  C  C102  1  0.183800  0.741340  0.276310  1.0  0.4407
  C  C103  1  0.323200  0.852600  0.324130  1.0  0.4333
  C  C104  1  0.405600  0.919600  0.381610  1.0  -0.3743
  C  C105  1  0.450800  0.860960  0.455840  1.0  0.4414
  C  C106  1  0.446600  0.769440  0.560860  1.0  0.4448
  C  C107  1  0.400300  0.703600  0.624930  1.0  -0.451
  C  C108  1  0.945100  0.948600  0.660800  1.0  -0.44
  C  C109  1  0.968200  0.874100  0.595550  1.0  0.4784
  C  C110  1  0.944500  0.750510  0.508550  1.0  0.4317
  C  C111  1  0.889500  0.663340  0.455260  1.0  -0.3858
  C  C112  1  0.829200  0.573160  0.496960  1.0  0.4509
  C  C113  1  0.713900  0.489420  0.570770  1.0  0.4433
  C  C114  1  0.619000  0.463500  0.627550  1.0  -0.4481
  C  C115  1  0.414400  0.155300  0.231780  1.0  -0.4472
  C  C116  1  0.316200  0.241340  0.223690  1.0  0.4409
  C  C117  1  0.176800  0.352600  0.175870  1.0  0.4334
  C  C118  1  0.094400  0.419600  0.118390  1.0  -0.3746
  C  C119  1  0.049200  0.360960  0.044160  1.0  0.4419
  C  C120  1  0.053400  0.269440  0.939140  1.0  0.4447
  C  C121  1  0.099700  0.203600  0.875070  1.0  -0.4511
  C  C122  1  0.554900  0.448600  0.839200  1.0  -0.4387
  C  C123  1  0.531800  0.374100  0.904450  1.0  0.4785
  C  C124  1  0.555500  0.250510  0.991450  1.0  0.4318
  C  C125  1  0.610500  0.163340  0.044740  1.0  -0.3872
  C  C126  1  0.670800  0.073160  0.003040  1.0  0.4508
  C  C127  1  0.786100  0.989420  0.929230  1.0  0.443
  C  C128  1  0.881000  0.963500  0.872450  1.0  -0.448
  N  N129  1  0.116790  0.200470  0.435720  1.0  -0.5336
  N  N130  1  0.925500  0.126920  0.437770  1.0  -0.3955
  N  N131  1  0.941990  0.207770  0.494470  1.0  -0.2926
  N  N132  1  0.255250  0.409780  0.449350  1.0  -0.5466
  N  N133  1  0.148910  0.529920  0.515860  1.0  -0.363
  N  N134  1  0.224330  0.584230  0.466640  1.0  -0.3305
  N  N135  1  0.434590  0.200970  0.444750  1.0  -0.3436
  N  N136  1  0.431510  0.141190  0.513460  1.0  -0.3693
  N  N137  1  0.629230  0.193080  0.500350  1.0  -0.5333
  N  N138  1  0.768850  0.215830  0.655060  1.0  -0.5624
  N  N139  1  0.668770  0.144410  0.751740  1.0  -0.3709
  N  N140  1  0.759640  0.217580  0.782840  1.0  -0.3246
  N  N141  1  0.383210  0.700470  0.064280  1.0  -0.5339
  N  N142  1  0.574500  0.626920  0.062230  1.0  -0.3959
  N  N143  1  0.558010  0.707770  0.005530  1.0  -0.2923
  N  N144  1  0.244750  0.909780  0.050650  1.0  -0.5479
  N  N145  1  0.351090  0.029920  0.984140  1.0  -0.362
  N  N146  1  0.275670  0.084230  0.033360  1.0  -0.33
  N  N147  1  0.065410  0.700970  0.055250  1.0  -0.343
  N  N148  1  0.068490  0.641190  0.986540  1.0  -0.3695
  N  N149  1  0.870770  0.693080  0.999650  1.0  -0.533
  N  N150  1  0.731150  0.715830  0.844940  1.0  -0.564
  N  N151  1  0.831230  0.644410  0.748260  1.0  -0.3708
  N  N152  1  0.740360  0.717580  0.717160  1.0  -0.3243
  N  N153  1  0.883210  0.799530  0.564280  1.0  -0.5336
  N  N154  1  0.074500  0.873080  0.562230  1.0  -0.3974
  N  N155  1  0.058010  0.792230  0.505530  1.0  -0.2923
  N  N156  1  0.744750  0.590220  0.550650  1.0  -0.5474
  N  N157  1  0.851090  0.470080  0.484140  1.0  -0.3625
  N  N158  1  0.775670  0.415770  0.533360  1.0  -0.3297
  N  N159  1  0.565410  0.799030  0.555250  1.0  -0.3437
  N  N160  1  0.568490  0.858810  0.486540  1.0  -0.3695
  N  N161  1  0.370770  0.806920  0.499650  1.0  -0.5327
  N  N162  1  0.231150  0.784170  0.344940  1.0  -0.5642
  N  N163  1  0.331230  0.855590  0.248260  1.0  -0.3708
  N  N164  1  0.240360  0.782420  0.217160  1.0  -0.3244
  N  N165  1  0.616790  0.299530  0.935720  1.0  -0.5337
  N  N166  1  0.425500  0.373080  0.937770  1.0  -0.3957
  N  N167  1  0.441990  0.292230  0.994470  1.0  -0.2925
  N  N168  1  0.755250  0.090220  0.949350  1.0  -0.5466
  N  N169  1  0.648910  0.970080  0.015860  1.0  -0.363
  N  N170  1  0.724330  0.915770  0.966640  1.0  -0.3294
  N  N171  1  0.934590  0.299030  0.944750  1.0  -0.3438
  N  N172  1  0.931510  0.358810  0.013460  1.0  -0.3695
  N  N173  1  0.129230  0.306920  0.000350  1.0  -0.5335
  N  N174  1  0.268850  0.284170  0.155060  1.0  -0.5627
  N  N175  1  0.168770  0.355590  0.251740  1.0  -0.371
  N  N176  1  0.259640  0.282420  0.282840  1.0  -0.3244
