# generated using pymatgen
data_ZnH8C7N6
_symmetry_space_group_name_H-M   'P 1'
_cell_length_a   10.82910000
_cell_length_b   12.52900000
_cell_length_c   16.84800000
_cell_angle_alpha   90.00000000
_cell_angle_beta   94.99300000
_cell_angle_gamma   90.00000000
_symmetry_Int_Tables_number   1
_chemical_formula_structural   ZnH8C7N6
_chemical_formula_sum   'Zn8 H64 C56 N48'
_cell_volume   2277.22525746
_cell_formula_units_Z   8
loop_
 _symmetry_equiv_pos_site_id
 _symmetry_equiv_pos_as_xyz
  1  'x, y, z'
loop_
 _atom_site_type_symbol
 _atom_site_label
 _atom_site_symmetry_multiplicity
 _atom_site_fract_x
 _atom_site_fract_y
 _atom_site_fract_z
 _atom_site_occupancy
 _atom_site_charge
  Zn  Zn1  1  0.275400  0.267850  0.404420  1.0  0.8024
  Zn  Zn2  1  0.794210  0.256730  0.543270  1.0  0.8033
  Zn  Zn3  1  0.224600  0.767850  0.095580  1.0  0.8019
  Zn  Zn4  1  0.705790  0.756730  0.956730  1.0  0.8039
  Zn  Zn5  1  0.724600  0.732150  0.595580  1.0  0.8017
  Zn  Zn6  1  0.205790  0.743270  0.456730  1.0  0.8037
  Zn  Zn7  1  0.775400  0.232150  0.904420  1.0  0.8024
  Zn  Zn8  1  0.294210  0.243270  0.043270  1.0  0.8036
  H  H9  1  0.935100  0.356000  0.792200  1.0  0.1363
  H  H10  1  0.988400  0.316700  0.711500  1.0  0.147
  H  H11  1  0.882900  0.406400  0.708600  1.0  0.135
  H  H12  1  0.531200  0.051700  0.644800  1.0  0.1663
  H  H13  1  0.651200  0.019800  0.601100  1.0  0.1429
  H  H14  1  0.520200  0.330000  0.342400  1.0  0.1306
  H  H15  1  0.635700  0.370500  0.400300  1.0  0.1489
  H  H16  1  0.649000  0.266800  0.346200  1.0  0.1612
  H  H17  1  0.999500  0.028200  0.317000  1.0  0.1531
  H  H18  1  0.133100  0.082500  0.315500  1.0  0.1331
  H  H19  1  0.113700  0.985700  0.375200  1.0  0.1398
  H  H20  1  0.166700  0.312700  0.589200  1.0  0.1526
  H  H21  1  0.036500  0.373100  0.575600  1.0  0.1469
  H  H22  1  0.369300  0.613100  0.358400  1.0  0.14
  H  H23  1  0.459000  0.523100  0.398700  1.0  0.1432
  H  H24  1  0.360600  0.493100  0.325700  1.0  0.1397
  H  H25  1  0.564900  0.856000  0.707800  1.0  0.1374
  H  H26  1  0.511600  0.816700  0.788500  1.0  0.1475
  H  H27  1  0.617100  0.906400  0.791400  1.0  0.1354
  H  H28  1  0.968800  0.551700  0.855200  1.0  0.1648
  H  H29  1  0.848800  0.519800  0.898900  1.0  0.143
  H  H30  1  0.979800  0.830000  0.157600  1.0  0.1303
  H  H31  1  0.864300  0.870500  0.099700  1.0  0.1488
  H  H32  1  0.851000  0.766800  0.153800  1.0  0.1613
  H  H33  1  0.500500  0.528200  0.183000  1.0  0.1514
  H  H34  1  0.366900  0.582500  0.184500  1.0  0.1331
  H  H35  1  0.386300  0.485700  0.124800  1.0  0.1397
  H  H36  1  0.333333  0.812700  0.910800  1.0  0.1528
  H  H37  1  0.463500  0.873100  0.924400  1.0  0.1466
  H  H38  1  0.130700  0.113100  0.141600  1.0  0.1391
  H  H39  1  0.041000  0.023100  0.101300  1.0  0.1449
  H  H40  1  0.139400  0.993100  0.174300  1.0  0.1392
  H  H41  1  0.064900  0.644000  0.207800  1.0  0.1372
  H  H42  1  0.011600  0.683300  0.288500  1.0  0.1474
  H  H43  1  0.117100  0.593600  0.291400  1.0  0.1367
  H  H44  1  0.468800  0.948300  0.355200  1.0  0.1647
  H  H45  1  0.348800  0.980200  0.398900  1.0  0.1424
  H  H46  1  0.479800  0.670000  0.657600  1.0  0.1308
  H  H47  1  0.364300  0.629500  0.599700  1.0  0.1489
  H  H48  1  0.351000  0.733200  0.653800  1.0  0.1607
  H  H49  1  0.000500  0.971800  0.683000  1.0  0.1515
  H  H50  1  0.866900  0.917500  0.684500  1.0  0.1338
  H  H51  1  0.886300  0.014300  0.624800  1.0  0.1397
  H  H52  1  0.833300  0.687300  0.410800  1.0  0.1532
  H  H53  1  0.963500  0.626900  0.424400  1.0  0.1467
  H  H54  1  0.630700  0.386900  0.641600  1.0  0.1389
  H  H55  1  0.541000  0.476900  0.601300  1.0  0.1449
  H  H56  1  0.639400  0.506900  0.674300  1.0  0.1392
  H  H57  1  0.435100  0.144000  0.292200  1.0  0.1359
  H  H58  1  0.488400  0.183300  0.211500  1.0  0.1467
  H  H59  1  0.382900  0.093600  0.208600  1.0  0.1362
  H  H60  1  0.031200  0.448300  0.144800  1.0  0.1664
  H  H61  1  0.151200  0.480200  0.101100  1.0  0.1423
  H  H62  1  0.020200  0.170000  0.842400  1.0  0.1304
  H  H63  1  0.135700  0.129500  0.900300  1.0  0.1488
  H  H64  1  0.149000  0.233200  0.846200  1.0  0.1609
  H  H65  1  0.499500  0.471800  0.817000  1.0  0.153
  H  H66  1  0.633100  0.417500  0.815500  1.0  0.1338
  H  H67  1  0.613700  0.514300  0.875200  1.0  0.1392
  H  H68  1  0.666667  0.187300  0.089200  1.0  0.1526
  H  H69  1  0.536500  0.126900  0.075600  1.0  0.147
  H  H70  1  0.869300  0.886900  0.858400  1.0  0.1398
  H  H71  1  0.959000  0.976900  0.898700  1.0  0.1432
  H  H72  1  0.860600  0.006900  0.825700  1.0  0.1396
  C  C73  1  0.914200  0.341200  0.735500  1.0  -0.4467
  C  C74  1  0.816700  0.256500  0.726500  1.0  0.4426
  C  C75  1  0.681500  0.146500  0.677500  1.0  0.4338
  C  C76  1  0.601900  0.080900  0.618200  1.0  -0.3783
  C  C77  1  0.553000  0.142500  0.546100  1.0  0.4477
  C  C78  1  0.551700  0.239100  0.442200  1.0  0.4469
  C  C79  1  0.592700  0.307400  0.377200  1.0  -0.4598
  C  C80  1  0.075100  0.049100  0.349600  1.0  -0.4353
  C  C81  1  0.043400  0.126000  0.411500  1.0  0.4821
  C  C82  1  0.055900  0.253900  0.494600  1.0  0.4297
  C  C83  1  0.105500  0.342600  0.548000  1.0  -0.3834
  C  C84  1  0.165900  0.430500  0.505100  1.0  0.4528
  C  C85  1  0.282000  0.512500  0.430300  1.0  0.4435
  C  C86  1  0.375700  0.537600  0.373400  1.0  -0.4473
  C  C87  1  0.585800  0.841200  0.764500  1.0  -0.4463
  C  C88  1  0.683300  0.756500  0.773500  1.0  0.4426
  C  C89  1  0.818500  0.646500  0.822500  1.0  0.4348
  C  C90  1  0.898100  0.580900  0.881800  1.0  -0.3782
  C  C91  1  0.947000  0.642500  0.953900  1.0  0.4474
  C  C92  1  0.948300  0.739100  0.057800  1.0  0.4473
  C  C93  1  0.907300  0.807400  0.122800  1.0  -0.4602
  C  C94  1  0.424900  0.549100  0.150400  1.0  -0.4366
  C  C95  1  0.456600  0.626000  0.088500  1.0  0.4818
  C  C96  1  0.444100  0.753900  0.005400  1.0  0.4296
  C  C97  1  0.394500  0.842600  0.952000  1.0  -0.3811
  C  C98  1  0.334100  0.930500  0.994900  1.0  0.4516
  C  C99  1  0.218000  0.012500  0.069700  1.0  0.4434
  C  C100  1  0.124300  0.037600  0.126600  1.0  -0.4454
  C  C101  1  0.085800  0.658800  0.264500  1.0  -0.4463
  C  C102  1  0.183300  0.743500  0.273500  1.0  0.4426
  C  C103  1  0.318500  0.853500  0.322500  1.0  0.4349
  C  C104  1  0.398100  0.919100  0.381800  1.0  -0.3783
  C  C105  1  0.447000  0.857500  0.453900  1.0  0.4471
  C  C106  1  0.448300  0.760900  0.557800  1.0  0.4474
  C  C107  1  0.407300  0.692600  0.622800  1.0  -0.4603
  C  C108  1  0.924900  0.950900  0.650400  1.0  -0.435
  C  C109  1  0.956600  0.874000  0.588500  1.0  0.4819
  C  C110  1  0.944100  0.746100  0.505400  1.0  0.4293
  C  C111  1  0.894500  0.657400  0.452000  1.0  -0.3813
  C  C112  1  0.834100  0.569500  0.494900  1.0  0.4511
  C  C113  1  0.718000  0.487500  0.569700  1.0  0.4436
  C  C114  1  0.624300  0.462400  0.626600  1.0  -0.4455
  C  C115  1  0.414200  0.158800  0.235500  1.0  -0.4469
  C  C116  1  0.316700  0.243500  0.226500  1.0  0.4427
  C  C117  1  0.181500  0.353500  0.177500  1.0  0.4339
  C  C118  1  0.101900  0.419100  0.118200  1.0  -0.3779
  C  C119  1  0.053000  0.357500  0.046100  1.0  0.4475
  C  C120  1  0.051700  0.260900  0.942200  1.0  0.4467
  C  C121  1  0.092700  0.192600  0.877200  1.0  -0.4596
  C  C122  1  0.575100  0.450900  0.849600  1.0  -0.4349
  C  C123  1  0.543400  0.374000  0.911500  1.0  0.4819
  C  C124  1  0.555900  0.246100  0.994600  1.0  0.4294
  C  C125  1  0.605500  0.157400  0.048000  1.0  -0.3834
  C  C126  1  0.665900  0.069500  0.005100  1.0  0.4521
  C  C127  1  0.782000  0.987500  0.930300  1.0  0.4436
  C  C128  1  0.875700  0.962400  0.873400  1.0  -0.4474
  N  N129  1  0.121700  0.204600  0.441600  1.0  -0.5346
  N  N130  1  0.936800  0.126100  0.442700  1.0  -0.3893
  N  N131  1  0.945100  0.209600  0.497100  1.0  -0.3025
  N  N132  1  0.251600  0.412800  0.452140  1.0  -0.5423
  N  N133  1  0.143700  0.532200  0.517300  1.0  -0.3648
  N  N134  1  0.219100  0.585000  0.467200  1.0  -0.3268
  N  N135  1  0.435500  0.207800  0.449400  1.0  -0.3382
  N  N136  1  0.436600  0.144700  0.517500  1.0  -0.3689
  N  N137  1  0.628900  0.200100  0.501600  1.0  -0.5335
  N  N138  1  0.771200  0.215700  0.656500  1.0  -0.5634
  N  N139  1  0.673400  0.142500  0.754400  1.0  -0.3654
  N  N140  1  0.761700  0.214800  0.785900  1.0  -0.3202
  N  N141  1  0.378300  0.704600  0.058400  1.0  -0.5342
  N  N142  1  0.563200  0.626100  0.057300  1.0  -0.3893
  N  N143  1  0.554900  0.709600  0.002900  1.0  -0.3009
  N  N144  1  0.248400  0.912800  0.047860  1.0  -0.5427
  N  N145  1  0.356300  0.032200  0.982700  1.0  -0.365
  N  N146  1  0.280900  0.085000  0.032800  1.0  -0.3264
  N  N147  1  0.064500  0.707800  0.050600  1.0  -0.3389
  N  N148  1  0.063400  0.644700  0.982500  1.0  -0.3702
  N  N149  1  0.871100  0.700100  0.998400  1.0  -0.5337
  N  N150  1  0.728800  0.715700  0.843500  1.0  -0.565
  N  N151  1  0.826600  0.642500  0.745600  1.0  -0.3654
  N  N152  1  0.738300  0.714800  0.714100  1.0  -0.3202
  N  N153  1  0.878300  0.795400  0.558400  1.0  -0.5337
  N  N154  1  0.063200  0.873900  0.557300  1.0  -0.391
  N  N155  1  0.054900  0.790400  0.502900  1.0  -0.3013
  N  N156  1  0.748400  0.587200  0.547860  1.0  -0.543
  N  N157  1  0.856300  0.467800  0.482700  1.0  -0.3651
  N  N158  1  0.780900  0.415000  0.532800  1.0  -0.3258
  N  N159  1  0.564500  0.792200  0.550600  1.0  -0.3394
  N  N160  1  0.563400  0.855300  0.482500  1.0  -0.3703
  N  N161  1  0.371100  0.799900  0.498400  1.0  -0.5335
  N  N162  1  0.228800  0.784300  0.343500  1.0  -0.5649
  N  N163  1  0.326600  0.857500  0.245600  1.0  -0.3653
  N  N164  1  0.238300  0.785200  0.214100  1.0  -0.3202
  N  N165  1  0.621700  0.295400  0.941600  1.0  -0.5343
  N  N166  1  0.436800  0.373900  0.942700  1.0  -0.3898
  N  N167  1  0.445100  0.290400  0.997100  1.0  -0.3027
  N  N168  1  0.751600  0.087200  0.952140  1.0  -0.5424
  N  N169  1  0.643700  0.967800  0.017300  1.0  -0.3647
  N  N170  1  0.719100  0.915000  0.967200  1.0  -0.3254
  N  N171  1  0.935500  0.292200  0.949400  1.0  -0.3383
  N  N172  1  0.936600  0.355300  0.017500  1.0  -0.3693
  N  N173  1  0.128900  0.299900  0.001600  1.0  -0.5338
  N  N174  1  0.271200  0.284300  0.156500  1.0  -0.5635
  N  N175  1  0.173400  0.357500  0.254400  1.0  -0.3649
  N  N176  1  0.261700  0.285200  0.285900  1.0  -0.3203
