# generated using pymatgen
data_ZnH8C17(SO2)2
_symmetry_space_group_name_H-M   'P 1'
_cell_length_a   19.29300000
_cell_length_b   19.29300000
_cell_length_c   20.83800000
_cell_angle_alpha   90.00000000
_cell_angle_beta   90.00000000
_cell_angle_gamma   120.00000000
_symmetry_Int_Tables_number   1
_chemical_formula_structural   ZnH8C17(SO2)2
_chemical_formula_sum   'Zn12 H96 C204 S24 O48'
_cell_volume   6717.16774667
_cell_formula_units_Z   12
loop_
 _symmetry_equiv_pos_site_id
 _symmetry_equiv_pos_as_xyz
  1  'x, y, z'
loop_
 _atom_site_type_symbol
 _atom_site_label
 _atom_site_symmetry_multiplicity
 _atom_site_fract_x
 _atom_site_fract_y
 _atom_site_fract_z
 _atom_site_occupancy
 _atom_site_charge
  Zn  Zn1  1  0.435690  0.722840  0.879870  1.0  1.0777
  Zn  Zn2  1  0.368870  0.646590  0.042810  1.0  1.0599
  Zn  Zn3  1  0.287150  0.564310  0.213200  1.0  1.0808
  Zn  Zn4  1  0.277720  0.631130  0.376140  1.0  1.0651
  Zn  Zn5  1  0.277160  0.712850  0.546540  1.0  1.0817
  Zn  Zn6  1  0.353410  0.722280  0.709480  1.0  1.0648
  Zn  Zn7  1  0.564310  0.277160  0.379870  1.0  1.0818
  Zn  Zn8  1  0.631130  0.353410  0.542810  1.0  1.0663
  Zn  Zn9  1  0.712850  0.435690  0.713200  1.0  1.0814
  Zn  Zn10  1  0.722280  0.368870  0.876140  1.0  1.0608
  Zn  Zn11  1  0.722840  0.287150  0.046540  1.0  1.0815
  Zn  Zn12  1  0.646590  0.277720  0.209480  1.0  1.0625
  H  H13  1  0.944500  0.351100  0.851800  1.0  0.1184
  H  H14  1  0.930100  0.157300  0.993800  1.0  0.1207
  H  H15  1  0.038700  0.309800  0.845500  1.0  0.1272
  H  H16  1  0.837200  0.200800  0.000900  1.0  0.1112
  H  H17  1  0.214500  0.489800  0.976900  1.0  0.1188
  H  H18  1  0.127700  0.351200  0.980000  1.0  0.1262
  H  H19  1  0.253500  0.323600  0.835500  1.0  0.1135
  H  H20  1  0.340100  0.461700  0.833200  1.0  0.1171
  H  H21  1  0.195700  0.735300  0.785500  1.0  0.1123
  H  H22  1  0.112500  0.789900  0.795100  1.0  0.1183
  H  H23  1  0.257200  0.939200  0.934000  1.0  0.1105
  H  H24  1  0.339600  0.884300  0.924600  1.0  0.1145
  H  H25  1  0.823000  0.673500  0.776800  1.0  0.1064
  H  H26  1  0.916700  0.806200  0.799400  1.0  0.1253
  H  H27  1  0.029000  0.731600  0.921600  1.0  0.1299
  H  H28  1  0.933900  0.599100  0.899000  1.0  0.1149
  H  H29  1  0.406600  0.055500  0.185130  1.0  0.117
  H  H30  1  0.227200  0.069900  0.327130  1.0  0.1205
  H  H31  1  0.271100  0.961300  0.178830  1.0  0.1259
  H  H32  1  0.363600  0.162800  0.334230  1.0  0.111
  H  H33  1  0.275300  0.785500  0.310230  1.0  0.1189
  H  H34  1  0.223500  0.872300  0.313330  1.0  0.1254
  H  H35  1  0.070100  0.746500  0.168830  1.0  0.1135
  H  H36  1  0.121600  0.659900  0.166530  1.0  0.1162
  H  H37  1  0.539600  0.804300  0.118830  1.0  0.1131
  H  H38  1  0.677400  0.887500  0.128430  1.0  0.1175
  H  H39  1  0.682000  0.742800  0.267330  1.0  0.1128
  H  H40  1  0.544700  0.660400  0.257930  1.0  0.1149
  H  H41  1  0.850500  0.177000  0.110130  1.0  0.1065
  H  H42  1  0.889500  0.083300  0.132730  1.0  0.1257
  H  H43  1  0.702600  0.971000  0.254930  1.0  0.1291
  H  H44  1  0.665200  0.066100  0.232330  1.0  0.1152
  H  H45  1  0.648900  0.593400  0.518470  1.0  0.1171
  H  H46  1  0.842700  0.772800  0.660470  1.0  0.12
  H  H47  1  0.690200  0.728900  0.512170  1.0  0.126
  H  H48  1  0.799200  0.636400  0.667570  1.0  0.1117
  H  H49  1  0.510200  0.724700  0.643570  1.0  0.1188
  H  H50  1  0.648800  0.776500  0.646670  1.0  0.127
  H  H51  1  0.676400  0.929900  0.502170  1.0  0.1132
  H  H52  1  0.538300  0.878400  0.499870  1.0  0.1161
  H  H53  1  0.264700  0.460400  0.452170  1.0  0.1132
  H  H54  1  0.210100  0.322600  0.461770  1.0  0.1184
  H  H55  1  0.060800  0.318000  0.600670  1.0  0.1118
  H  H56  1  0.115700  0.455300  0.591270  1.0  0.1147
  H  H57  1  0.326500  0.149500  0.443470  1.0  0.1061
  H  H58  1  0.193800  0.110500  0.466070  1.0  0.1259
  H  H59  1  0.268400  0.297400  0.588270  1.0  0.1294
  H  H60  1  0.400900  0.334800  0.565670  1.0  0.1157
  H  H61  1  0.055500  0.648900  0.351800  1.0  0.1172
  H  H62  1  0.069900  0.842700  0.493800  1.0  0.1209
  H  H63  1  0.961300  0.690200  0.345500  1.0  0.1268
  H  H64  1  0.162800  0.799200  0.500900  1.0  0.111
  H  H65  1  0.785500  0.510200  0.476900  1.0  0.1187
  H  H66  1  0.872300  0.648800  0.480000  1.0  0.1264
  H  H67  1  0.746500  0.676400  0.335500  1.0  0.1135
  H  H68  1  0.659900  0.538300  0.333200  1.0  0.1166
  H  H69  1  0.804300  0.264700  0.285500  1.0  0.1135
  H  H70  1  0.887500  0.210100  0.295100  1.0  0.118
  H  H71  1  0.742800  0.060800  0.434000  1.0  0.1113
  H  H72  1  0.660400  0.115700  0.424600  1.0  0.1146
  H  H73  1  0.177000  0.326500  0.276800  1.0  0.1066
  H  H74  1  0.083300  0.193800  0.299400  1.0  0.1254
  H  H75  1  0.971000  0.268400  0.421600  1.0  0.1294
  H  H76  1  0.066100  0.400900  0.399000  1.0  0.1151
  H  H77  1  0.593400  0.944500  0.685130  1.0  0.1172
  H  H78  1  0.772800  0.930100  0.827130  1.0  0.121
  H  H79  1  0.728900  0.038700  0.678830  1.0  0.1259
  H  H80  1  0.636400  0.837200  0.834230  1.0  0.1113
  H  H81  1  0.724700  0.214500  0.810230  1.0  0.1187
  H  H82  1  0.776500  0.127700  0.813330  1.0  0.1259
  H  H83  1  0.929900  0.253500  0.668830  1.0  0.1133
  H  H84  1  0.878400  0.340100  0.666530  1.0  0.1167
  H  H85  1  0.460400  0.195700  0.618830  1.0  0.1128
  H  H86  1  0.322600  0.112500  0.628430  1.0  0.1171
  H  H87  1  0.318000  0.257200  0.767330  1.0  0.1128
  H  H88  1  0.455300  0.339600  0.757930  1.0  0.1153
  H  H89  1  0.149500  0.823000  0.610130  1.0  0.106
  H  H90  1  0.110500  0.916700  0.632730  1.0  0.1256
  H  H91  1  0.297400  0.029000  0.754930  1.0  0.1281
  H  H92  1  0.334800  0.933900  0.732330  1.0  0.1149
  H  H93  1  0.351100  0.406600  0.018470  1.0  0.1174
  H  H94  1  0.157300  0.227200  0.160470  1.0  0.1201
  H  H95  1  0.309800  0.271100  0.012170  1.0  0.1264
  H  H96  1  0.200800  0.363600  0.167570  1.0  0.1114
  H  H97  1  0.489800  0.275300  0.143570  1.0  0.1192
  H  H98  1  0.351200  0.223500  0.146670  1.0  0.1266
  H  H99  1  0.323600  0.070100  0.002170  1.0  0.1137
  H  H100  1  0.461700  0.121600  0.999870  1.0  0.1165
  H  H101  1  0.735300  0.539600  0.952170  1.0  0.1132
  H  H102  1  0.789900  0.677400  0.961770  1.0  0.1182
  H  H103  1  0.939200  0.682000  0.100670  1.0  0.1118
  H  H104  1  0.884300  0.544700  0.091270  1.0  0.1148
  H  H105  1  0.673500  0.850500  0.943470  1.0  0.1064
  H  H106  1  0.806200  0.889500  0.966070  1.0  0.1258
  H  H107  1  0.731600  0.702600  0.088270  1.0  0.13
  H  H108  1  0.599100  0.665200  0.065670  1.0  0.1157
  C  C109  1  0.088100  0.085700  0.904330  1.0  -0.0467
  C  C110  1  0.087000  0.017000  0.896860  1.0  -0.0389
  C  C111  1  0.048200  0.196400  0.913280  1.0  -0.132
  C  C112  1  0.128400  0.235800  0.909530  1.0  -0.138
  C  C113  1  0.122500  0.904200  0.874600  1.0  -0.1536
  C  C114  1  0.042300  0.867400  0.874240  1.0  -0.1313
  C  C115  1  0.879900  0.277500  0.925620  1.0  -0.1262
  C  C116  1  0.941300  0.311200  0.880310  1.0  -0.0388
  C  C117  1  0.933000  0.196600  0.964830  1.0  -0.124
  C  C118  1  0.993200  0.228900  0.918780  1.0  0.0146
  C  C119  1  0.997300  0.287000  0.876720  1.0  -0.0778
  C  C120  1  0.877330  0.221910  0.968590  1.0  -0.0347
  C  C121  1  0.814770  0.298730  0.928010  1.0  0.7159
  C  C122  1  0.285020  0.488660  0.904900  1.0  -0.1145
  C  C123  1  0.222340  0.455960  0.948390  1.0  -0.0085
  C  C124  1  0.170900  0.373600  0.950300  1.0  -0.0866
  C  C125  1  0.182700  0.323600  0.908350  1.0  0.0021
  C  C126  1  0.245700  0.357100  0.864430  1.0  -0.0887
  C  C127  1  0.296900  0.439100  0.862880  1.0  -0.0335
  C  C128  1  0.341100  0.576300  0.902070  1.0  0.6728
  C  C129  1  0.275600  0.803500  0.854220  1.0  -0.1273
  C  C130  1  0.208000  0.776500  0.816020  1.0  -0.0601
  C  C131  1  0.158300  0.808800  0.821810  1.0  -0.0923
  C  C132  1  0.175000  0.869000  0.866580  1.0  -0.0134
  C  C133  1  0.244000  0.897100  0.904130  1.0  -0.0915
  C  C134  1  0.293300  0.864800  0.898350  1.0  -0.0323
  C  C135  1  0.328000  0.767400  0.849090  1.0  0.6692
  C  C136  1  0.869500  0.623200  0.835430  1.0  -0.1453
  C  C137  1  0.865100  0.685300  0.806210  1.0  -0.0201
  C  C138  1  0.921100  0.764300  0.819180  1.0  -0.0978
  C  C139  1  0.983300  0.781700  0.861080  1.0  0.0125
  C  C140  1  0.987500  0.720000  0.891670  1.0  -0.1035
  C  C141  1  0.930700  0.641400  0.878270  1.0  -0.0435
  C  C142  1  0.810000  0.538300  0.819700  1.0  0.7133
  C  C143  1  0.997600  0.911900  0.237660  1.0  -0.0468
  C  C144  1  0.930000  0.913000  0.230190  1.0  -0.0367
  C  C145  1  0.148200  0.951800  0.246610  1.0  -0.1288
  C  C146  1  0.107400  0.871600  0.242860  1.0  -0.1376
  C  C147  1  0.781700  0.877500  0.207930  1.0  -0.1545
  C  C148  1  0.825100  0.957700  0.207570  1.0  -0.1312
  C  C149  1  0.397600  0.120100  0.258950  1.0  -0.1261
  C  C150  1  0.369900  0.058700  0.213640  1.0  -0.0409
  C  C151  1  0.263600  0.067000  0.298160  1.0  -0.1233
  C  C152  1  0.235700  0.006800  0.252110  1.0  0.0141
  C  C153  1  0.289700  0.002700  0.210050  1.0  -0.0769
  C  C154  1  0.344580  0.122670  0.301920  1.0  -0.0357
  C  C155  1  0.483960  0.185230  0.261340  1.0  0.715
  C  C156  1  0.203640  0.714980  0.238230  1.0  -0.1187
  C  C157  1  0.233620  0.777660  0.281720  1.0  -0.0056
  C  C158  1  0.202700  0.829100  0.283630  1.0  -0.0887
  C  C159  1  0.140900  0.817300  0.241680  1.0  0.0022
  C  C160  1  0.111400  0.754300  0.197760  1.0  -0.0859
  C  C161  1  0.142200  0.703100  0.196210  1.0  -0.0327
  C  C162  1  0.235200  0.658900  0.235400  1.0  0.6726
  C  C163  1  0.527900  0.724400  0.187550  1.0  -0.1267
  C  C164  1  0.568500  0.792000  0.149350  1.0  -0.0566
  C  C165  1  0.650500  0.841700  0.155140  1.0  -0.0888
  C  C166  1  0.694000  0.825000  0.199910  1.0  -0.0124
  C  C167  1  0.653100  0.756000  0.237460  1.0  -0.092
  C  C168  1  0.571500  0.706700  0.231680  1.0  -0.0336
  C  C169  1  0.439400  0.672000  0.182420  1.0  0.669
  C  C170  1  0.753700  0.130500  0.168760  1.0  -0.1465
  C  C171  1  0.820200  0.134900  0.139540  1.0  -0.0214
  C  C172  1  0.843200  0.078900  0.152510  1.0  -0.1001
  C  C173  1  0.798400  0.016700  0.194410  1.0  0.0137
  C  C174  1  0.732500  0.012500  0.225000  1.0  -0.1041
  C  C175  1  0.710700  0.069300  0.211600  1.0  -0.0511
  C  C176  1  0.728300  0.190000  0.153030  1.0  0.711
  C  C177  1  0.914300  0.002400  0.571000  1.0  -0.0472
  C  C178  1  0.983000  0.070000  0.563530  1.0  -0.0375
  C  C179  1  0.803600  0.851800  0.579950  1.0  -0.1321
  C  C180  1  0.764200  0.892600  0.576200  1.0  -0.1378
  C  C181  1  0.095800  0.218300  0.541270  1.0  -0.155
  C  C182  1  0.132600  0.174900  0.540910  1.0  -0.1322
  C  C183  1  0.722500  0.602400  0.592290  1.0  -0.1275
  C  C184  1  0.688800  0.630100  0.546980  1.0  -0.0417
  C  C185  1  0.803400  0.736400  0.631500  1.0  -0.1228
  C  C186  1  0.771100  0.764300  0.585450  1.0  0.014
  C  C187  1  0.713000  0.710300  0.543390  1.0  -0.0768
  C  C188  1  0.778090  0.655420  0.635260  1.0  -0.0348
  C  C189  1  0.701270  0.516040  0.594680  1.0  0.719
  C  C190  1  0.511340  0.796360  0.571570  1.0  -0.1202
  C  C191  1  0.544040  0.766380  0.615060  1.0  -0.0074
  C  C192  1  0.626400  0.797300  0.616970  1.0  -0.0909
  C  C193  1  0.676400  0.859100  0.575020  1.0  0.002
  C  C194  1  0.642900  0.888600  0.531100  1.0  -0.0904
  C  C195  1  0.560900  0.857800  0.529550  1.0  -0.0335
  C  C196  1  0.423700  0.764800  0.568740  1.0  0.6708
  C  C197  1  0.196500  0.472100  0.520890  1.0  -0.1216
  C  C198  1  0.223500  0.431500  0.482690  1.0  -0.0595
  C  C199  1  0.191200  0.349500  0.488480  1.0  -0.0908
  C  C200  1  0.131000  0.306000  0.533250  1.0  -0.0124
  C  C201  1  0.102900  0.346900  0.570800  1.0  -0.0911
  C  C202  1  0.135200  0.428500  0.565020  1.0  -0.0345
  C  C203  1  0.232600  0.560600  0.515760  1.0  0.6701
  C  C204  1  0.376800  0.246300  0.502100  1.0  -0.1458
  C  C205  1  0.314700  0.179800  0.472880  1.0  -0.0223
  C  C206  1  0.235700  0.156800  0.485850  1.0  -0.1011
  C  C207  1  0.218300  0.201600  0.527750  1.0  0.0153
  C  C208  1  0.280000  0.267500  0.558340  1.0  -0.1066
  C  C209  1  0.358600  0.289300  0.544940  1.0  -0.0483
  C  C210  1  0.461700  0.271700  0.486370  1.0  0.7112
  C  C211  1  0.911900  0.914300  0.404330  1.0  -0.0472
  C  C212  1  0.913000  0.983000  0.396860  1.0  -0.0378
  C  C213  1  0.951800  0.803600  0.413280  1.0  -0.1315
  C  C214  1  0.871600  0.764200  0.409530  1.0  -0.1377
  C  C215  1  0.877500  0.095800  0.374600  1.0  -0.1538
  C  C216  1  0.957700  0.132600  0.374240  1.0  -0.1331
  C  C217  1  0.120100  0.722500  0.425620  1.0  -0.1267
  C  C218  1  0.058700  0.688800  0.380310  1.0  -0.042
  C  C219  1  0.067000  0.803400  0.464830  1.0  -0.1255
  C  C220  1  0.006800  0.771100  0.418780  1.0  0.0148
  C  C221  1  0.002700  0.713000  0.376720  1.0  -0.0773
  C  C222  1  0.122670  0.778090  0.468590  1.0  -0.0353
  C  C223  1  0.185230  0.701270  0.428010  1.0  0.7158
  C  C224  1  0.714980  0.511340  0.404900  1.0  -0.1158
  C  C225  1  0.777660  0.544040  0.448390  1.0  -0.0076
  C  C226  1  0.829100  0.626400  0.450300  1.0  -0.0873
  C  C227  1  0.817300  0.676400  0.408350  1.0  0.005
  C  C228  1  0.754300  0.642900  0.364430  1.0  -0.0868
  C  C229  1  0.703100  0.560900  0.362880  1.0  -0.0326
  C  C230  1  0.658900  0.423700  0.402070  1.0  0.6734
  C  C231  1  0.724400  0.196500  0.354220  1.0  -0.1285
  C  C232  1  0.792000  0.223500  0.316020  1.0  -0.0553
  C  C233  1  0.841700  0.191200  0.321810  1.0  -0.0911
  C  C234  1  0.825000  0.131000  0.366580  1.0  -0.0132
  C  C235  1  0.756000  0.102900  0.404130  1.0  -0.0937
  C  C236  1  0.706700  0.135200  0.398350  1.0  -0.0316
  C  C237  1  0.672000  0.232600  0.349090  1.0  0.6689
  C  C238  1  0.130500  0.376800  0.335430  1.0  -0.1431
  C  C239  1  0.134900  0.314700  0.306210  1.0  -0.0202
  C  C240  1  0.078900  0.235700  0.319180  1.0  -0.0998
  C  C241  1  0.016700  0.218300  0.361080  1.0  0.0158
  C  C242  1  0.012500  0.280000  0.391670  1.0  -0.1026
  C  C243  1  0.069300  0.358600  0.378270  1.0  -0.0492
  C  C244  1  0.190000  0.461700  0.319700  1.0  0.7143
  C  C245  1  0.002400  0.088100  0.737660  1.0  -0.0468
  C  C246  1  0.070000  0.087000  0.730190  1.0  -0.0363
  C  C247  1  0.851800  0.048200  0.746610  1.0  -0.1303
  C  C248  1  0.892600  0.128400  0.742860  1.0  -0.1377
  C  C249  1  0.218300  0.122500  0.707930  1.0  -0.1544
  C  C250  1  0.174900  0.042300  0.707570  1.0  -0.1314
  C  C251  1  0.602400  0.879900  0.758950  1.0  -0.1271
  C  C252  1  0.630100  0.941300  0.713640  1.0  -0.039
  C  C253  1  0.736400  0.933000  0.798160  1.0  -0.1226
  C  C254  1  0.764300  0.993200  0.752110  1.0  0.0147
  C  C255  1  0.710300  0.997300  0.710050  1.0  -0.0766
  C  C256  1  0.655420  0.877330  0.801920  1.0  -0.0351
  C  C257  1  0.516040  0.814770  0.761340  1.0  0.7176
  C  C258  1  0.796360  0.285020  0.738230  1.0  -0.1183
  C  C259  1  0.766380  0.222340  0.781720  1.0  -0.0054
  C  C260  1  0.797300  0.170900  0.783630  1.0  -0.0869
  C  C261  1  0.859100  0.182700  0.741680  1.0  0.0026
  C  C262  1  0.888600  0.245700  0.697760  1.0  -0.0873
  C  C263  1  0.857800  0.296900  0.696210  1.0  -0.0324
  C  C264  1  0.764800  0.341100  0.735400  1.0  0.6701
  C  C265  1  0.472100  0.275600  0.687550  1.0  -0.1259
  C  C266  1  0.431500  0.208000  0.649350  1.0  -0.0603
  C  C267  1  0.349500  0.158300  0.655140  1.0  -0.0887
  C  C268  1  0.306000  0.175000  0.699910  1.0  -0.0124
  C  C269  1  0.346900  0.244000  0.737460  1.0  -0.0912
  C  C270  1  0.428500  0.293300  0.731680  1.0  -0.0323
  C  C271  1  0.560600  0.328000  0.682420  1.0  0.6689
  C  C272  1  0.246300  0.869500  0.668760  1.0  -0.1456
  C  C273  1  0.179800  0.865100  0.639540  1.0  -0.0209
  C  C274  1  0.156800  0.921100  0.652510  1.0  -0.0988
  C  C275  1  0.201600  0.983300  0.694410  1.0  0.0096
  C  C276  1  0.267500  0.987500  0.725000  1.0  -0.1038
  C  C277  1  0.289300  0.930700  0.711600  1.0  -0.0448
  C  C278  1  0.271700  0.810000  0.653030  1.0  0.7121
  C  C279  1  0.085700  0.997600  0.071000  1.0  -0.0472
  C  C280  1  0.017000  0.930000  0.063530  1.0  -0.0375
  C  C281  1  0.196400  0.148200  0.079950  1.0  -0.1318
  C  C282  1  0.235800  0.107400  0.076200  1.0  -0.1385
  C  C283  1  0.904200  0.781700  0.041270  1.0  -0.154
  C  C284  1  0.867400  0.825100  0.040910  1.0  -0.1322
  C  C285  1  0.277500  0.397600  0.092290  1.0  -0.1265
  C  C286  1  0.311200  0.369900  0.046980  1.0  -0.039
  C  C287  1  0.196600  0.263600  0.131500  1.0  -0.1218
  C  C288  1  0.228900  0.235700  0.085450  1.0  0.0146
  C  C289  1  0.287000  0.289700  0.043390  1.0  -0.077
  C  C290  1  0.221910  0.344580  0.135260  1.0  -0.0349
  C  C291  1  0.298730  0.483960  0.094680  1.0  0.7186
  C  C292  1  0.488660  0.203640  0.071570  1.0  -0.1188
  C  C293  1  0.455960  0.233620  0.115060  1.0  -0.008
  C  C294  1  0.373600  0.202700  0.116970  1.0  -0.0905
  C  C295  1  0.323600  0.140900  0.075020  1.0  -0.0064
  C  C296  1  0.357100  0.111400  0.031100  1.0  -0.0902
  C  C297  1  0.439100  0.142200  0.029550  1.0  -0.0327
  C  C298  1  0.576300  0.235200  0.068740  1.0  0.6731
  C  C299  1  0.803500  0.527900  0.020890  1.0  -0.122
  C  C300  1  0.776500  0.568500  0.982690  1.0  -0.0634
  C  C301  1  0.808800  0.650500  0.988480  1.0  -0.0895
  C  C302  1  0.869000  0.694000  0.033250  1.0  -0.0115
  C  C303  1  0.897100  0.653100  0.070800  1.0  -0.0916
  C  C304  1  0.864800  0.571500  0.065020  1.0  -0.0335
  C  C305  1  0.767400  0.439400  0.015760  1.0  0.67
  C  C306  1  0.623200  0.753700  0.002100  1.0  -0.1465
  C  C307  1  0.685300  0.820200  0.972880  1.0  -0.0227
  C  C308  1  0.764300  0.843200  0.985850  1.0  -0.1019
  C  C309  1  0.781700  0.798400  0.027750  1.0  0.0154
  C  C310  1  0.720000  0.732500  0.058340  1.0  -0.1048
  C  C311  1  0.641400  0.710700  0.044940  1.0  -0.0503
  C  C312  1  0.538300  0.728300  0.986370  1.0  0.712
  S  S313  1  0.000420  0.090990  0.914110  1.0  0.0423
  S  S314  1  0.176640  0.178680  0.906340  1.0  0.0583
  S  S315  1  0.173540  0.008490  0.890730  1.0  0.0417
  S  S316  1  0.997500  0.924540  0.893100  1.0  0.0677
  S  S317  1  0.090570  0.999580  0.247440  1.0  0.0416
  S  S318  1  0.002040  0.823360  0.239670  1.0  0.0563
  S  S319  1  0.834950  0.826460  0.224060  1.0  0.0448
  S  S320  1  0.927040  0.002500  0.226430  1.0  0.0672
  S  S321  1  0.909010  0.909430  0.580780  1.0  0.0424
  S  S322  1  0.821320  0.997960  0.573010  1.0  0.0574
  S  S323  1  0.991510  0.165050  0.557400  1.0  0.0402
  S  S324  1  0.075460  0.072960  0.559770  1.0  0.0689
  S  S325  1  0.999580  0.909010  0.414110  1.0  0.0413
  S  S326  1  0.823360  0.821320  0.406340  1.0  0.0572
  S  S327  1  0.826460  0.991510  0.390730  1.0  0.0429
  S  S328  1  0.002500  0.075460  0.393100  1.0  0.0681
  S  S329  1  0.909430  0.000420  0.747440  1.0  0.0431
  S  S330  1  0.997960  0.176640  0.739670  1.0  0.0583
  S  S331  1  0.165050  0.173540  0.724060  1.0  0.0419
  S  S332  1  0.072960  0.997500  0.726430  1.0  0.0683
  S  S333  1  0.090990  0.090570  0.080780  1.0  0.0423
  S  S334  1  0.178680  0.002040  0.073010  1.0  0.057
  S  S335  1  0.008490  0.834950  0.057400  1.0  0.0426
  S  S336  1  0.924540  0.927040  0.059770  1.0  0.0668
  O  O337  1  0.817670  0.351490  0.891250  1.0  -0.5751
  O  O338  1  0.758460  0.258510  0.966730  1.0  -0.6051
  O  O339  1  0.393280  0.605480  0.858540  1.0  -0.5558
  O  O340  1  0.335470  0.622940  0.942490  1.0  -0.6531
  O  O341  1  0.385030  0.789680  0.889830  1.0  -0.5835
  O  O342  1  0.315340  0.716100  0.806490  1.0  -0.6627
  O  O343  1  0.807550  0.485000  0.854670  1.0  -0.5952
  O  O344  1  0.766540  0.527560  0.770180  1.0  -0.5994
  O  O345  1  0.533820  0.182330  0.224580  1.0  -0.5768
  O  O346  1  0.500050  0.241540  0.300060  1.0  -0.6035
  O  O347  1  0.212200  0.606720  0.191870  1.0  -0.5551
  O  O348  1  0.287470  0.664530  0.275820  1.0  -0.6526
  O  O349  1  0.404650  0.614970  0.223160  1.0  -0.5844
  O  O350  1  0.400760  0.684660  0.139820  1.0  -0.6639
  O  O351  1  0.677450  0.192450  0.188000  1.0  -0.5966
  O  O352  1  0.761020  0.233460  0.103510  1.0  -0.599
  O  O353  1  0.648510  0.466180  0.557920  1.0  -0.5749
  O  O354  1  0.741490  0.499950  0.633400  1.0  -0.6049
  O  O355  1  0.394520  0.787800  0.525210  1.0  -0.5553
  O  O356  1  0.377060  0.712530  0.609160  1.0  -0.6498
  O  O357  1  0.210320  0.595350  0.556500  1.0  -0.5848
  O  O358  1  0.283900  0.599240  0.473160  1.0  -0.6653
  O  O359  1  0.515000  0.322550  0.521340  1.0  -0.5977
  O  O360  1  0.472440  0.238980  0.436850  1.0  -0.5983
  O  O361  1  0.182330  0.648510  0.391250  1.0  -0.5752
  O  O362  1  0.241540  0.741490  0.466730  1.0  -0.6051
  O  O363  1  0.606720  0.394520  0.358540  1.0  -0.5545
  O  O364  1  0.664530  0.377060  0.442490  1.0  -0.6534
  O  O365  1  0.614970  0.210320  0.389830  1.0  -0.5841
  O  O366  1  0.684660  0.283900  0.306490  1.0  -0.6627
  O  O367  1  0.192450  0.515000  0.354670  1.0  -0.5967
  O  O368  1  0.233460  0.472440  0.270180  1.0  -0.5995
  O  O369  1  0.466180  0.817670  0.724580  1.0  -0.5741
  O  O370  1  0.499950  0.758460  0.800060  1.0  -0.6049
  O  O371  1  0.787800  0.393280  0.691870  1.0  -0.5572
  O  O372  1  0.712530  0.335470  0.775820  1.0  -0.6525
  O  O373  1  0.595350  0.385030  0.723160  1.0  -0.586
  O  O374  1  0.599240  0.315340  0.639820  1.0  -0.6655
  O  O375  1  0.322550  0.807550  0.688000  1.0  -0.5958
  O  O376  1  0.238980  0.766540  0.603510  1.0  -0.5988
  O  O377  1  0.351490  0.533820  0.057920  1.0  -0.5773
  O  O378  1  0.258510  0.500050  0.133400  1.0  -0.6043
  O  O379  1  0.605480  0.212200  0.025210  1.0  -0.5554
  O  O380  1  0.622940  0.287470  0.109160  1.0  -0.65
  O  O381  1  0.789680  0.404650  0.056500  1.0  -0.5842
  O  O382  1  0.716100  0.400760  0.973160  1.0  -0.6642
  O  O383  1  0.485000  0.677450  0.021340  1.0  -0.5958
  O  O384  1  0.527560  0.761020  0.936850  1.0  -0.5994
