# generated using pymatgen
data_ZnH8C7N6
_symmetry_space_group_name_H-M   'P 1'
_cell_length_a   10.87700000
_cell_length_b   12.82900000
_cell_length_c   16.88100000
_cell_angle_alpha   90.00000000
_cell_angle_beta   94.44500000
_cell_angle_gamma   90.00000000
_symmetry_Int_Tables_number   1
_chemical_formula_structural   ZnH8C7N6
_chemical_formula_sum   'Zn8 H64 C56 N48'
_cell_volume   2348.50700374
_cell_formula_units_Z   8
loop_
 _symmetry_equiv_pos_site_id
 _symmetry_equiv_pos_as_xyz
  1  'x, y, z'
loop_
 _atom_site_type_symbol
 _atom_site_label
 _atom_site_symmetry_multiplicity
 _atom_site_fract_x
 _atom_site_fract_y
 _atom_site_fract_z
 _atom_site_occupancy
 _atom_site_charge
  Zn  Zn1  1  0.276070  0.273140  0.405340  1.0  0.805
  Zn  Zn2  1  0.794730  0.260170  0.544910  1.0  0.8045
  Zn  Zn3  1  0.223930  0.773140  0.094660  1.0  0.8052
  Zn  Zn4  1  0.705270  0.760170  0.955090  1.0  0.8056
  Zn  Zn5  1  0.723930  0.726860  0.594660  1.0  0.8052
  Zn  Zn6  1  0.205270  0.739830  0.455090  1.0  0.8051
  Zn  Zn7  1  0.776070  0.226860  0.905340  1.0  0.8049
  Zn  Zn8  1  0.294730  0.239830  0.044910  1.0  0.8046
  H  H9  1  0.933400  0.351600  0.793300  1.0  0.1411
  H  H10  1  0.993200  0.306100  0.716800  1.0  0.1501
  H  H11  1  0.891500  0.396300  0.706900  1.0  0.1448
  H  H12  1  0.525700  0.063600  0.645600  1.0  0.1612
  H  H13  1  0.643600  0.028600  0.601200  1.0  0.1391
  H  H14  1  0.522300  0.334800  0.343900  1.0  0.1349
  H  H15  1  0.628000  0.381700  0.404900  1.0  0.1402
  H  H16  1  0.655500  0.281100  0.353100  1.0  0.1606
  H  H17  1  0.016400  0.005400  0.343800  1.0  0.1541
  H  H18  1  0.110600  0.087400  0.310500  1.0  0.137
  H  H19  1  0.155900  0.010500  0.381500  1.0  0.1361
  H  H20  1  0.033600  0.377200  0.574400  1.0  0.1433
  H  H21  1  0.163900  0.320100  0.589200  1.0  0.1524
  H  H22  1  0.369900  0.612900  0.359100  1.0  0.1418
  H  H23  1  0.449300  0.513100  0.388000  1.0  0.1449
  H  H24  1  0.343300  0.502400  0.317300  1.0  0.1419
  H  H25  1  0.566600  0.851600  0.706700  1.0  0.1416
  H  H26  1  0.506800  0.806100  0.783200  1.0  0.1501
  H  H27  1  0.608500  0.896300  0.793100  1.0  0.1449
  H  H28  1  0.974300  0.563600  0.854400  1.0  0.161
  H  H29  1  0.856400  0.528600  0.898800  1.0  0.1399
  H  H30  1  0.977700  0.834800  0.156100  1.0  0.1336
  H  H31  1  0.872000  0.881700  0.095100  1.0  0.1409
  H  H32  1  0.844500  0.781100  0.146900  1.0  0.1605
  H  H33  1  0.483600  0.505400  0.156200  1.0  0.1532
  H  H34  1  0.389400  0.587400  0.189500  1.0  0.1368
  H  H35  1  0.344100  0.510500  0.118500  1.0  0.1358
  H  H36  1  0.466400  0.877200  0.925600  1.0  0.1431
  H  H37  1  0.336100  0.820100  0.910800  1.0  0.1523
  H  H38  1  0.130100  0.112900  0.140900  1.0  0.1412
  H  H39  1  0.050700  0.013100  0.112000  1.0  0.1456
  H  H40  1  0.156700  0.002400  0.182700  1.0  0.1419
  H  H41  1  0.066600  0.648400  0.206700  1.0  0.1416
  H  H42  1  0.006800  0.693900  0.283200  1.0  0.1498
  H  H43  1  0.108500  0.603700  0.293100  1.0  0.1454
  H  H44  1  0.474300  0.936400  0.354400  1.0  0.1609
  H  H45  1  0.356400  0.971400  0.398800  1.0  0.1394
  H  H46  1  0.477700  0.665200  0.656100  1.0  0.134
  H  H47  1  0.372000  0.618300  0.595100  1.0  0.141
  H  H48  1  0.344500  0.718900  0.646900  1.0  0.1601
  H  H49  1  0.983600  0.994600  0.656200  1.0  0.153
  H  H50  1  0.889400  0.912600  0.689500  1.0  0.1366
  H  H51  1  0.844100  0.989500  0.618500  1.0  0.1365
  H  H52  1  0.966400  0.622800  0.425600  1.0  0.143
  H  H53  1  0.836100  0.679900  0.410800  1.0  0.1522
  H  H54  1  0.630100  0.387100  0.640900  1.0  0.1408
  H  H55  1  0.550700  0.486900  0.612000  1.0  0.1457
  H  H56  1  0.656700  0.497600  0.682700  1.0  0.1421
  H  H57  1  0.433400  0.148400  0.293300  1.0  0.1411
  H  H58  1  0.493200  0.193900  0.216800  1.0  0.1499
  H  H59  1  0.391500  0.103700  0.206900  1.0  0.1454
  H  H60  1  0.025700  0.436400  0.145600  1.0  0.1611
  H  H61  1  0.143600  0.471400  0.101200  1.0  0.139
  H  H62  1  0.022300  0.165200  0.843900  1.0  0.1347
  H  H63  1  0.128000  0.118300  0.904900  1.0  0.1409
  H  H64  1  0.155500  0.218900  0.853100  1.0  0.1602
  H  H65  1  0.516400  0.494600  0.843800  1.0  0.1538
  H  H66  1  0.610600  0.412600  0.810500  1.0  0.1372
  H  H67  1  0.655900  0.489500  0.881500  1.0  0.1361
  H  H68  1  0.533600  0.122800  0.074400  1.0  0.1432
  H  H69  1  0.663900  0.179900  0.089200  1.0  0.1522
  H  H70  1  0.869900  0.887100  0.859100  1.0  0.1421
  H  H71  1  0.949300  0.986900  0.888000  1.0  0.1452
  H  H72  1  0.843300  0.997600  0.817300  1.0  0.1417
  C  C73  1  0.917600  0.333700  0.737000  1.0  -0.4556
  C  C74  1  0.818400  0.253400  0.727700  1.0  0.4445
  C  C75  1  0.679900  0.151000  0.678000  1.0  0.4368
  C  C76  1  0.597500  0.089800  0.618800  1.0  -0.3824
  C  C77  1  0.551800  0.151500  0.547600  1.0  0.4514
  C  C78  1  0.551000  0.248800  0.445200  1.0  0.4437
  C  C79  1  0.592800  0.317500  0.381300  1.0  -0.4562
  C  C80  1  0.086300  0.051600  0.358200  1.0  -0.4401
  C  C81  1  0.050200  0.129900  0.416800  1.0  0.475
  C  C82  1  0.056600  0.258800  0.496000  1.0  0.4306
  C  C83  1  0.103500  0.347600  0.547500  1.0  -0.3802
  C  C84  1  0.163500  0.433800  0.504200  1.0  0.446
  C  C85  1  0.275800  0.512900  0.426800  1.0  0.4419
  C  C86  1  0.367500  0.537400  0.367700  1.0  -0.452
  C  C87  1  0.582400  0.833700  0.763000  1.0  -0.4561
  C  C88  1  0.681600  0.753400  0.772300  1.0  0.4441
  C  C89  1  0.820100  0.651000  0.822000  1.0  0.4364
  C  C90  1  0.902500  0.589800  0.881200  1.0  -0.3819
  C  C91  1  0.948200  0.651500  0.952400  1.0  0.451
  C  C92  1  0.949000  0.748800  0.054800  1.0  0.444
  C  C93  1  0.907200  0.817500  0.118700  1.0  -0.4568
  C  C94  1  0.413700  0.551600  0.141800  1.0  -0.4408
  C  C95  1  0.449800  0.629900  0.083200  1.0  0.4746
  C  C96  1  0.443400  0.758800  0.004000  1.0  0.4305
  C  C97  1  0.396500  0.847600  0.952500  1.0  -0.377
  C  C98  1  0.336500  0.933800  0.995800  1.0  0.4448
  C  C99  1  0.224200  0.012900  0.073200  1.0  0.442
  C  C100  1  0.132500  0.037400  0.132300  1.0  -0.4512
  C  C101  1  0.082400  0.666300  0.263000  1.0  -0.456
  C  C102  1  0.181600  0.746600  0.272300  1.0  0.4441
  C  C103  1  0.320100  0.849000  0.322000  1.0  0.4364
  C  C104  1  0.402500  0.910200  0.381200  1.0  -0.382
  C  C105  1  0.448200  0.848500  0.452400  1.0  0.4507
  C  C106  1  0.449000  0.751200  0.554800  1.0  0.4442
  C  C107  1  0.407200  0.682500  0.618700  1.0  -0.4571
  C  C108  1  0.913700  0.948400  0.641800  1.0  -0.4405
  C  C109  1  0.949800  0.870100  0.583200  1.0  0.4745
  C  C110  1  0.943400  0.741200  0.504000  1.0  0.4304
  C  C111  1  0.896500  0.652400  0.452500  1.0  -0.3768
  C  C112  1  0.836500  0.566200  0.495800  1.0  0.4444
  C  C113  1  0.724200  0.487100  0.573200  1.0  0.4421
  C  C114  1  0.632500  0.462600  0.632300  1.0  -0.4514
  C  C115  1  0.417600  0.166300  0.237000  1.0  -0.4556
  C  C116  1  0.318400  0.246600  0.227700  1.0  0.4444
  C  C117  1  0.179900  0.349000  0.178000  1.0  0.4369
  C  C118  1  0.097500  0.410200  0.118800  1.0  -0.3817
  C  C119  1  0.051800  0.348500  0.047600  1.0  0.4514
  C  C120  1  0.051000  0.251200  0.945200  1.0  0.4437
  C  C121  1  0.092800  0.182500  0.881300  1.0  -0.456
  C  C122  1  0.586300  0.448400  0.858200  1.0  -0.4394
  C  C123  1  0.550200  0.370100  0.916800  1.0  0.4747
  C  C124  1  0.556600  0.241200  0.996000  1.0  0.4305
  C  C125  1  0.603500  0.152400  0.047500  1.0  -0.3804
  C  C126  1  0.663500  0.066200  0.004200  1.0  0.4457
  C  C127  1  0.775800  0.987100  0.926800  1.0  0.4419
  C  C128  1  0.867500  0.962600  0.867700  1.0  -0.452
  N  N129  1  0.124200  0.209100  0.444600  1.0  -0.5304
  N  N130  1  0.941200  0.130400  0.447500  1.0  -0.39
  N  N131  1  0.947200  0.214800  0.498700  1.0  -0.2891
  N  N132  1  0.247000  0.416100  0.449560  1.0  -0.543
  N  N133  1  0.141800  0.532600  0.515740  1.0  -0.3587
  N  N134  1  0.214900  0.584500  0.464500  1.0  -0.3275
  N  N135  1  0.435900  0.217800  0.452000  1.0  -0.3272
  N  N136  1  0.435500  0.154300  0.519000  1.0  -0.3767
  N  N137  1  0.627600  0.209300  0.504250  1.0  -0.5387
  N  N138  1  0.770800  0.216500  0.657420  1.0  -0.5584
  N  N139  1  0.671400  0.144800  0.755000  1.0  -0.3728
  N  N140  1  0.761700  0.212800  0.787200  1.0  -0.3215
  N  N141  1  0.375800  0.709100  0.055400  1.0  -0.5311
  N  N142  1  0.558800  0.630400  0.052500  1.0  -0.3921
  N  N143  1  0.552800  0.714800  0.001300  1.0  -0.2879
  N  N144  1  0.253000  0.916100  0.050440  1.0  -0.5439
  N  N145  1  0.358200  0.032600  0.984260  1.0  -0.3585
  N  N146  1  0.285100  0.084500  0.035500  1.0  -0.3279
  N  N147  1  0.064100  0.717800  0.048000  1.0  -0.3278
  N  N148  1  0.064500  0.654300  0.981000  1.0  -0.3768
  N  N149  1  0.872400  0.709300  0.995750  1.0  -0.5381
  N  N150  1  0.729200  0.716500  0.842580  1.0  -0.5607
  N  N151  1  0.828600  0.644800  0.745000  1.0  -0.3724
  N  N152  1  0.738300  0.712800  0.712800  1.0  -0.3208
  N  N153  1  0.875800  0.790900  0.555400  1.0  -0.5309
  N  N154  1  0.058800  0.869600  0.552500  1.0  -0.3935
  N  N155  1  0.052800  0.785200  0.501300  1.0  -0.2882
  N  N156  1  0.753000  0.583900  0.550440  1.0  -0.5439
  N  N157  1  0.858200  0.467400  0.484260  1.0  -0.3586
  N  N158  1  0.785100  0.415500  0.535500  1.0  -0.3275
  N  N159  1  0.564100  0.782200  0.548000  1.0  -0.3283
  N  N160  1  0.564500  0.845700  0.481000  1.0  -0.3775
  N  N161  1  0.372400  0.790700  0.495750  1.0  -0.538
  N  N162  1  0.229200  0.783500  0.342580  1.0  -0.5606
  N  N163  1  0.328600  0.855200  0.245000  1.0  -0.3724
  N  N164  1  0.238300  0.787200  0.212800  1.0  -0.3208
  N  N165  1  0.624200  0.290900  0.944600  1.0  -0.5304
  N  N166  1  0.441200  0.369600  0.947500  1.0  -0.391
  N  N167  1  0.447200  0.285200  0.998700  1.0  -0.2891
  N  N168  1  0.747000  0.083900  0.949560  1.0  -0.5434
  N  N169  1  0.641800  0.967400  0.015740  1.0  -0.358
  N  N170  1  0.714900  0.915500  0.964500  1.0  -0.3266
  N  N171  1  0.935900  0.282200  0.952000  1.0  -0.3273
  N  N172  1  0.935500  0.345700  0.019000  1.0  -0.3774
  N  N173  1  0.127600  0.290700  0.004250  1.0  -0.5387
  N  N174  1  0.270800  0.283500  0.157420  1.0  -0.5585
  N  N175  1  0.171400  0.355200  0.255000  1.0  -0.3722
  N  N176  1  0.261700  0.287200  0.287200  1.0  -0.3217
