# generated using pymatgen
data_PrHC5(NO2)2
_symmetry_space_group_name_H-M   'P 1'
_cell_length_a   16.60040000
_cell_length_b   16.60040000
_cell_length_c   16.60040000
_cell_angle_alpha   104.57300000
_cell_angle_beta   104.57300000
_cell_angle_gamma   119.78600000
_symmetry_Int_Tables_number   1
_chemical_formula_structural   PrHC5(NO2)2
_chemical_formula_sum   'Pr16 H16 C80 N32 O64'
_cell_volume   3434.65772470
_cell_formula_units_Z   16
loop_
 _symmetry_equiv_pos_site_id
 _symmetry_equiv_pos_as_xyz
  1  'x, y, z'
loop_
 _atom_site_type_symbol
 _atom_site_label
 _atom_site_symmetry_multiplicity
 _atom_site_fract_x
 _atom_site_fract_y
 _atom_site_fract_z
 _atom_site_occupancy
 _atom_site_charge
  Pr  Pr1  1  0.745100  0.761640  0.361180  1.0  2.1299
  Pr  Pr2  1  0.488830  0.870840  0.017910  1.0  2.1807
  Pr  Pr3  1  0.900460  0.383920  0.138820  1.0  2.1338
  Pr  Pr4  1  0.352930  0.470920  0.482090  1.0  2.1729
  Pr  Pr5  1  0.883920  0.245100  0.483460  1.0  2.1383
  Pr  Pr6  1  0.970920  0.988830  0.117990  1.0  2.1781
  Pr  Pr7  1  0.261640  0.400460  0.016540  1.0  2.1417
  Pr  Pr8  1  0.370840  0.852930  0.382010  1.0  2.1786
  Pr  Pr9  1  0.254900  0.238360  0.638820  1.0  2.1293
  Pr  Pr10  1  0.511170  0.129160  0.982090  1.0  2.1761
  Pr  Pr11  1  0.099540  0.616080  0.861180  1.0  2.134
  Pr  Pr12  1  0.647070  0.529080  0.517910  1.0  2.1734
  Pr  Pr13  1  0.116080  0.754900  0.516540  1.0  2.1398
  Pr  Pr14  1  0.029080  0.011170  0.882010  1.0  2.1783
  Pr  Pr15  1  0.738360  0.599540  0.983460  1.0  2.14
  Pr  Pr16  1  0.629160  0.147070  0.617990  1.0  2.1807
  H  H17  1  0.686700  0.912500  0.236200  1.0  0.0325
  H  H18  1  0.623000  0.896100  0.385300  1.0  0.0337
  H  H19  1  0.176300  0.450500  0.263800  1.0  0.0314
  H  H20  1  0.010800  0.237700  0.114700  1.0  0.0345
  H  H21  1  0.950500  0.186700  0.274200  1.0  0.0305
  H  H22  1  0.737700  0.123000  0.226900  1.0  0.0322
  H  H23  1  0.412500  0.676300  0.225800  1.0  0.031
  H  H24  1  0.396100  0.510800  0.273100  1.0  0.0325
  H  H25  1  0.313300  0.087500  0.763800  1.0  0.032
  H  H26  1  0.377000  0.103900  0.614700  1.0  0.0335
  H  H27  1  0.823700  0.549500  0.736200  1.0  0.0321
  H  H28  1  0.989200  0.762300  0.885300  1.0  0.0345
  H  H29  1  0.049500  0.813300  0.725800  1.0  0.0315
  H  H30  1  0.262300  0.877000  0.773100  1.0  0.0315
  H  H31  1  0.587500  0.323700  0.774200  1.0  0.0313
  H  H32  1  0.603900  0.489200  0.726900  1.0  0.0348
  C  C33  1  0.635000  0.841500  0.200700  1.0  0.3981
  C  C34  1  0.550400  0.680000  0.153800  1.0  -0.022
  C  C35  1  0.497500  0.697200  0.089900  1.0  0.0103
  C  C36  1  0.401500  0.632800  0.000300  1.0  0.7703
  C  C37  1  0.531000  0.584300  0.163300  1.0  0.7317
  C  C38  1  0.590800  0.843100  0.401900  1.0  0.4172
  C  C39  1  0.556300  0.717900  0.435400  1.0  0.0045
  C  C40  1  0.489700  0.743900  0.444600  1.0  0.0369
  C  C41  1  0.400400  0.698600  0.466800  1.0  0.7464
  C  C42  1  0.573500  0.642300  0.447800  1.0  0.7256
  C  C43  1  0.140800  0.434300  0.299300  1.0  0.3992
  C  C44  1  0.026200  0.396600  0.346200  1.0  -0.021
  C  C45  1  0.107300  0.407600  0.410100  1.0  0.0094
  C  C46  1  0.132500  0.401200  0.499700  1.0  0.7776
  C  C47  1  0.921000  0.367700  0.336700  1.0  0.7296
  C  C48  1  0.941200  0.188900  0.098100  1.0  0.4171
  C  C49  1  0.782500  0.120900  0.064600  1.0  0.0047
  C  C50  1  0.799300  0.045100  0.055400  1.0  0.0332
  C  C51  1  0.731800  0.933600  0.033200  1.0  0.7428
  C  C52  1  0.694500  0.125700  0.052200  1.0  0.7256
  C  C53  1  0.934300  0.135000  0.293500  1.0  0.4004
  C  C54  1  0.896600  0.050400  0.370400  1.0  -0.023
  C  C55  1  0.907600  0.997500  0.300300  1.0  0.0083
  C  C56  1  0.901200  0.901500  0.268700  1.0  0.7678
  C  C57  1  0.867700  0.031000  0.446700  1.0  0.7356
  C  C58  1  0.688900  0.090800  0.247700  1.0  0.4179
  C  C59  1  0.620900  0.056300  0.338400  1.0  0.0043
  C  C60  1  0.545100  0.989700  0.245800  1.0  0.0328
  C  C61  1  0.433600  0.900400  0.201800  1.0  0.7461
  C  C62  1  0.625700  0.073500  0.431200  1.0  0.7286
  C  C63  1  0.341500  0.640800  0.206500  1.0  0.3982
  C  C64  1  0.180000  0.526200  0.129600  1.0  -0.0224
  C  C65  1  0.197200  0.607300  0.199700  1.0  0.0064
  C  C66  1  0.132800  0.632500  0.231300  1.0  0.7689
  C  C67  1  0.084300  0.421000  0.053300  1.0  0.733
  C  C68  1  0.343100  0.441200  0.252300  1.0  0.4167
  C  C69  1  0.217900  0.282500  0.161600  1.0  0.0053
  C  C70  1  0.243900  0.299300  0.254200  1.0  0.0322
  C  C71  1  0.198600  0.231800  0.298200  1.0  0.7452
  C  C72  1  0.142300  0.194500  0.068800  1.0  0.727
  C  C73  1  0.365000  0.158500  0.799300  1.0  0.3988
  C  C74  1  0.449600  0.320000  0.846200  1.0  -0.0214
  C  C75  1  0.502500  0.302800  0.910100  1.0  0.009
  C  C76  1  0.598500  0.367200  0.999700  1.0  0.7721
  C  C77  1  0.469000  0.415700  0.836700  1.0  0.7306
  C  C78  1  0.409200  0.156900  0.598100  1.0  0.4185
  C  C79  1  0.443700  0.282100  0.564600  1.0  0.0046
  C  C80  1  0.510300  0.256100  0.555400  1.0  0.0335
  C  C81  1  0.599600  0.301400  0.533200  1.0  0.7474
  C  C82  1  0.426500  0.357700  0.552200  1.0  0.7264
  C  C83  1  0.859200  0.565700  0.700700  1.0  0.4003
  C  C84  1  0.973800  0.603400  0.653800  1.0  -0.0206
  C  C85  1  0.892700  0.592400  0.589900  1.0  0.01
  C  C86  1  0.867500  0.598800  0.500300  1.0  0.7738
  C  C87  1  0.079000  0.632300  0.663300  1.0  0.7299
  C  C88  1  0.058800  0.811100  0.901900  1.0  0.4188
  C  C89  1  0.217500  0.879100  0.935400  1.0  0.0047
  C  C90  1  0.200700  0.954900  0.944600  1.0  0.0343
  C  C91  1  0.268200  0.066400  0.966800  1.0  0.7414
  C  C92  1  0.305500  0.874300  0.947800  1.0  0.7253
  C  C93  1  0.065700  0.865000  0.706500  1.0  0.3988
  C  C94  1  0.103400  0.949600  0.629600  1.0  -0.0217
  C  C95  1  0.092400  0.002500  0.699700  1.0  0.0066
  C  C96  1  0.098800  0.098500  0.731300  1.0  0.7692
  C  C97  1  0.132300  0.969000  0.553300  1.0  0.7352
  C  C98  1  0.311100  0.909200  0.752300  1.0  0.4188
  C  C99  1  0.379100  0.943700  0.661600  1.0  0.0037
  C  C100  1  0.454900  0.010300  0.754200  1.0  0.0327
  C  C101  1  0.566400  0.099600  0.798200  1.0  0.7473
  C  C102  1  0.374300  0.926500  0.568800  1.0  0.7282
  C  C103  1  0.658500  0.359200  0.793500  1.0  0.3998
  C  C104  1  0.820000  0.473800  0.870400  1.0  -0.0216
  C  C105  1  0.802800  0.392700  0.800300  1.0  0.0092
  C  C106  1  0.867200  0.367500  0.768700  1.0  0.7701
  C  C107  1  0.915700  0.579000  0.946700  1.0  0.7321
  C  C108  1  0.656900  0.558800  0.747700  1.0  0.4178
  C  C109  1  0.782100  0.717500  0.838400  1.0  0.0056
  C  C110  1  0.756100  0.700700  0.745800  1.0  0.0326
  C  C111  1  0.801400  0.768200  0.701800  1.0  0.7465
  C  C112  1  0.857700  0.805500  0.931200  1.0  0.7273
  N  N113  1  0.553100  0.803900  0.122400  1.0  -0.5744
  N  N114  1  0.639400  0.773800  0.225400  1.0  -0.5961
  N  N115  1  0.621300  0.784400  0.406900  1.0  -0.5847
  N  N116  1  0.511200  0.823400  0.421400  1.0  -0.5996
  N  N117  1  0.181500  0.430700  0.377600  1.0  -0.577
  N  N118  1  0.048400  0.414000  0.274600  1.0  -0.598
  N  N119  1  0.877500  0.214400  0.093100  1.0  -0.5892
  N  N120  1  0.902000  0.089800  0.078600  1.0  -0.5989
  N  N121  1  0.930700  0.053100  0.249200  1.0  -0.5724
  N  N122  1  0.914000  0.139400  0.365600  1.0  -0.5996
  N  N123  1  0.714400  0.121300  0.336900  1.0  -0.5875
  N  N124  1  0.589800  0.011200  0.187800  1.0  -0.5954
  N  N125  1  0.303900  0.681500  0.250800  1.0  -0.576
  N  N126  1  0.273800  0.548400  0.134400  1.0  -0.5994
  N  N127  1  0.284400  0.377500  0.163100  1.0  -0.5894
  N  N128  1  0.323400  0.402000  0.312200  1.0  -0.5965
  N  N129  1  0.446900  0.196100  0.877600  1.0  -0.5757
  N  N130  1  0.360600  0.226200  0.774600  1.0  -0.598
  N  N131  1  0.378700  0.215600  0.593100  1.0  -0.5849
  N  N132  1  0.488800  0.176600  0.578600  1.0  -0.6004
  N  N133  1  0.818500  0.569300  0.622400  1.0  -0.5756
  N  N134  1  0.951600  0.586000  0.725400  1.0  -0.5973
  N  N135  1  0.122500  0.785600  0.906900  1.0  -0.5882
  N  N136  1  0.098000  0.910200  0.921400  1.0  -0.5988
  N  N137  1  0.069300  0.946900  0.750800  1.0  -0.5717
  N  N138  1  0.086000  0.860600  0.634400  1.0  -0.6005
  N  N139  1  0.285600  0.878700  0.663100  1.0  -0.5875
  N  N140  1  0.410200  0.988800  0.812200  1.0  -0.5967
  N  N141  1  0.696100  0.318500  0.749200  1.0  -0.577
  N  N142  1  0.726200  0.451600  0.865600  1.0  -0.5988
  N  N143  1  0.715600  0.622500  0.836900  1.0  -0.5897
  N  N144  1  0.676600  0.598000  0.687800  1.0  -0.5965
  O  O145  1  0.390900  0.681100  0.956400  1.0  -0.7063
  O  O146  1  0.337800  0.536700  0.970100  1.0  -0.7745
  O  O147  1  0.445500  0.497500  0.105200  1.0  -0.726
  O  O148  1  0.602200  0.597800  0.227000  1.0  -0.6716
  O  O149  1  0.349900  0.734600  0.456300  1.0  -0.6617
  O  O150  1  0.382400  0.631200  0.495800  1.0  -0.7312
  O  O151  1  0.527400  0.585200  0.484400  1.0  -0.8098
  O  O152  1  0.639700  0.637600  0.425300  1.0  -0.757
  O  O153  1  0.224700  0.434500  0.543600  1.0  -0.7048
  O  O154  1  0.066600  0.367700  0.529900  1.0  -0.7751
  O  O155  1  0.892300  0.340300  0.394800  1.0  -0.7252
  O  O156  1  0.870800  0.375200  0.273000  1.0  -0.6719
  O  O157  1  0.778300  0.893600  0.043700  1.0  -0.6595
  O  O158  1  0.635400  0.886600  0.004200  1.0  -0.7281
  O  O159  1  0.600800  0.043000  0.015600  1.0  -0.8088
  O  O160  1  0.712300  0.214400  0.074700  1.0  -0.7572
  O  O161  1  0.934500  0.890900  0.209800  1.0  -0.7057
  O  O162  1  0.867700  0.837800  0.301100  1.0  -0.7747
  O  O163  1  0.840300  0.945500  0.448000  1.0  -0.7262
  O  O164  1  0.875200  0.102200  0.504400  1.0  -0.6738
  O  O165  1  0.393600  0.849900  0.115300  1.0  -0.6615
  O  O166  1  0.386600  0.882400  0.251200  1.0  -0.73
  O  O167  1  0.543000  0.027400  0.442200  1.0  -0.8081
  O  O168  1  0.714400  0.139700  0.502100  1.0  -0.7571
  O  O169  1  0.181100  0.724700  0.290200  1.0  -0.7054
  O  O170  1  0.036700  0.566600  0.198900  1.0  -0.7722
  O  O171  1  0.997500  0.392300  0.052000  1.0  -0.7253
  O  O172  1  0.097800  0.370800  0.995600  1.0  -0.6743
  O  O173  1  0.234600  0.278300  0.384700  1.0  -0.6607
  O  O174  1  0.131200  0.135400  0.248800  1.0  -0.7304
  O  O175  1  0.085200  0.100800  0.057800  1.0  -0.808
  O  O176  1  0.137600  0.212300  0.997900  1.0  -0.7609
  O  O177  1  0.609100  0.318900  0.043600  1.0  -0.7079
  O  O178  1  0.662200  0.463300  0.029900  1.0  -0.7731
  O  O179  1  0.554500  0.502500  0.894800  1.0  -0.7276
  O  O180  1  0.397800  0.402200  0.773000  1.0  -0.6738
  O  O181  1  0.650100  0.265400  0.543700  1.0  -0.6614
  O  O182  1  0.617600  0.368800  0.504200  1.0  -0.73
  O  O183  1  0.472600  0.414800  0.515600  1.0  -0.8111
  O  O184  1  0.360300  0.362400  0.574700  1.0  -0.7561
  O  O185  1  0.775300  0.565500  0.456400  1.0  -0.7043
  O  O186  1  0.933400  0.632300  0.470100  1.0  -0.7756
  O  O187  1  0.107700  0.659700  0.605200  1.0  -0.7263
  O  O188  1  0.129200  0.624800  0.727000  1.0  -0.671
  O  O189  1  0.221700  0.106400  0.956300  1.0  -0.658
  O  O190  1  0.364600  0.113400  0.995800  1.0  -0.7292
  O  O191  1  0.399200  0.957000  0.984400  1.0  -0.807
  O  O192  1  0.287700  0.785600  0.925300  1.0  -0.7558
  O  O193  1  0.065500  0.109100  0.790200  1.0  -0.7077
  O  O194  1  0.132300  0.162200  0.698900  1.0  -0.7758
  O  O195  1  0.159700  0.054500  0.552000  1.0  -0.7301
  O  O196  1  0.124800  0.897800  0.495600  1.0  -0.6739
  O  O197  1  0.606400  0.150100  0.884700  1.0  -0.6636
  O  O198  1  0.613400  0.117600  0.748800  1.0  -0.7301
  O  O199  1  0.457000  0.972600  0.557800  1.0  -0.8087
  O  O200  1  0.285600  0.860300  0.497900  1.0  -0.7583
  O  O201  1  0.818900  0.275300  0.709800  1.0  -0.7028
  O  O202  1  0.963300  0.433400  0.801100  1.0  -0.773
  O  O203  1  0.002500  0.607700  0.948000  1.0  -0.7261
  O  O204  1  0.902200  0.629200  0.004400  1.0  -0.6747
  O  O205  1  0.765400  0.721700  0.615300  1.0  -0.6615
  O  O206  1  0.868800  0.864600  0.751200  1.0  -0.7288
  O  O207  1  0.914800  0.899200  0.942200  1.0  -0.808
  O  O208  1  0.862400  0.787700  0.002100  1.0  -0.7617
