# generated using pymatgen
data_YHC5(NO2)2
_symmetry_space_group_name_H-M   'P 1'
_cell_length_a   20.15470000
_cell_length_b   20.15470000
_cell_length_c   15.90500000
_cell_angle_alpha   90.00000000
_cell_angle_beta   90.00000000
_cell_angle_gamma   90.00000000
_symmetry_Int_Tables_number   1
_chemical_formula_structural   YHC5(NO2)2
_chemical_formula_sum   'Y32 H32 C160 N64 O128'
_cell_volume   6460.80077989
_cell_formula_units_Z   32
loop_
 _symmetry_equiv_pos_site_id
 _symmetry_equiv_pos_as_xyz
  1  'x, y, z'
loop_
 _atom_site_type_symbol
 _atom_site_label
 _atom_site_symmetry_multiplicity
 _atom_site_fract_x
 _atom_site_fract_y
 _atom_site_fract_z
 _atom_site_occupancy
 _atom_site_charge
  Y  Y1  1  0.292660  0.173020  0.908810  1.0  2.071
  Y  Y2  1  0.293270  0.819100  0.830830  1.0  2.0733
  Y  Y3  1  0.792660  0.673020  0.408810  1.0  2.071
  Y  Y4  1  0.793270  0.319100  0.330830  1.0  2.0733
  Y  Y5  1  0.207340  0.826980  0.408810  1.0  2.0717
  Y  Y6  1  0.206730  0.180900  0.330830  1.0  2.0729
  Y  Y7  1  0.707340  0.326980  0.908810  1.0  2.0717
  Y  Y8  1  0.706730  0.680900  0.830830  1.0  2.0729
  Y  Y9  1  0.576980  0.542660  0.158810  1.0  2.0675
  Y  Y10  1  0.930900  0.543270  0.080830  1.0  2.073
  Y  Y11  1  0.076980  0.042660  0.658810  1.0  2.0675
  Y  Y12  1  0.430900  0.043270  0.580830  1.0  2.073
  Y  Y13  1  0.923020  0.457340  0.658810  1.0  2.0593
  Y  Y14  1  0.569100  0.456730  0.580830  1.0  2.0733
  Y  Y15  1  0.423020  0.957340  0.158810  1.0  2.0593
  Y  Y16  1  0.069100  0.956730  0.080830  1.0  2.0733
  Y  Y17  1  0.707340  0.826980  0.091190  1.0  2.0718
  Y  Y18  1  0.706730  0.180900  0.169170  1.0  2.0729
  Y  Y19  1  0.207340  0.326980  0.591190  1.0  2.0718
  Y  Y20  1  0.206730  0.680900  0.669170  1.0  2.0729
  Y  Y21  1  0.792660  0.173020  0.591190  1.0  2.0712
  Y  Y22  1  0.793270  0.819100  0.669170  1.0  2.0735
  Y  Y23  1  0.292660  0.673020  0.091190  1.0  2.0712
  Y  Y24  1  0.293270  0.319100  0.169170  1.0  2.0735
  Y  Y25  1  0.423020  0.457340  0.841190  1.0  2.0594
  Y  Y26  1  0.069100  0.456730  0.919170  1.0  2.0735
  Y  Y27  1  0.923020  0.957340  0.341190  1.0  2.0594
  Y  Y28  1  0.569100  0.956730  0.419170  1.0  2.0735
  Y  Y29  1  0.076980  0.542660  0.341190  1.0  2.0675
  Y  Y30  1  0.430900  0.543270  0.419170  1.0  2.0732
  Y  Y31  1  0.576980  0.042660  0.841190  1.0  2.0675
  Y  Y32  1  0.930900  0.043270  0.919170  1.0  2.0732
  H  H33  1  0.246200  0.003100  0.806700  1.0  0.0501
  H  H34  1  0.157700  0.059000  0.920700  1.0  0.0518
  H  H35  1  0.746200  0.503100  0.306700  1.0  0.0501
  H  H36  1  0.657700  0.559000  0.420700  1.0  0.0518
  H  H37  1  0.253800  0.996900  0.306700  1.0  0.0502
  H  H38  1  0.342300  0.941000  0.420700  1.0  0.0522
  H  H39  1  0.753800  0.496900  0.806700  1.0  0.0502
  H  H40  1  0.842300  0.441000  0.920700  1.0  0.0522
  H  H41  1  0.746900  0.496200  0.056700  1.0  0.0513
  H  H42  1  0.691000  0.407700  0.170700  1.0  0.0523
  H  H43  1  0.246900  0.996200  0.556700  1.0  0.0513
  H  H44  1  0.191000  0.907700  0.670700  1.0  0.0523
  H  H45  1  0.753100  0.503800  0.556700  1.0  0.0508
  H  H46  1  0.809000  0.592300  0.670700  1.0  0.0531
  H  H47  1  0.253100  0.003800  0.056700  1.0  0.0508
  H  H48  1  0.309000  0.092300  0.170700  1.0  0.0531
  H  H49  1  0.753800  0.996900  0.193300  1.0  0.0507
  H  H50  1  0.842300  0.941000  0.079300  1.0  0.0531
  H  H51  1  0.253800  0.496900  0.693300  1.0  0.0507
  H  H52  1  0.342300  0.441000  0.579300  1.0  0.0531
  H  H53  1  0.746200  0.003100  0.693300  1.0  0.0502
  H  H54  1  0.657700  0.059000  0.579300  1.0  0.0526
  H  H55  1  0.246200  0.503100  0.193300  1.0  0.0502
  H  H56  1  0.157700  0.559000  0.079300  1.0  0.0526
  H  H57  1  0.253100  0.503800  0.943300  1.0  0.0507
  H  H58  1  0.309000  0.592300  0.829300  1.0  0.0538
  H  H59  1  0.753100  0.003800  0.443300  1.0  0.0507
  H  H60  1  0.809000  0.092300  0.329300  1.0  0.0538
  H  H61  1  0.246900  0.496200  0.443300  1.0  0.0516
  H  H62  1  0.191000  0.407700  0.329300  1.0  0.0535
  H  H63  1  0.746900  0.996200  0.943300  1.0  0.0516
  H  H64  1  0.691000  0.907700  0.829300  1.0  0.0535
  C  C65  1  0.277900  0.998100  0.848700  1.0  0.284
  C  C66  1  0.347200  0.019400  0.943100  1.0  0.0419
  C  C67  1  0.343600  0.950800  0.935800  1.0  -0.01
  C  C68  1  0.378100  0.894900  0.974300  1.0  0.7098
  C  C69  1  0.382800  0.062900  0.999600  1.0  0.6959
  C  C70  1  0.162500  0.078000  0.973600  1.0  0.3785
  C  C71  1  0.196700  0.140600  0.073300  1.0  0.0392
  C  C72  1  0.147100  0.099600  0.103000  1.0  0.0412
  C  C73  1  0.118600  0.087000  0.187200  1.0  0.702
  C  C74  1  0.237900  0.192800  0.108900  1.0  0.7045
  C  C75  1  0.777900  0.498100  0.348700  1.0  0.284
  C  C76  1  0.847200  0.519400  0.443100  1.0  0.0419
  C  C77  1  0.843600  0.450800  0.435800  1.0  -0.01
  C  C78  1  0.878100  0.394900  0.474300  1.0  0.7098
  C  C79  1  0.882800  0.562900  0.499600  1.0  0.6959
  C  C80  1  0.662500  0.578000  0.473600  1.0  0.3785
  C  C81  1  0.696700  0.640600  0.573300  1.0  0.0392
  C  C82  1  0.647100  0.599600  0.603000  1.0  0.0412
  C  C83  1  0.618600  0.587000  0.687200  1.0  0.702
  C  C84  1  0.737900  0.692800  0.608900  1.0  0.7045
  C  C85  1  0.222100  0.001900  0.348700  1.0  0.2835
  C  C86  1  0.152800  0.980600  0.443100  1.0  0.0415
  C  C87  1  0.156400  0.049200  0.435800  1.0  -0.0094
  C  C88  1  0.121900  0.105100  0.474300  1.0  0.7093
  C  C89  1  0.117200  0.937100  0.499600  1.0  0.6962
  C  C90  1  0.337500  0.922000  0.473600  1.0  0.3785
  C  C91  1  0.303300  0.859400  0.573300  1.0  0.0384
  C  C92  1  0.352900  0.900400  0.603000  1.0  0.0415
  C  C93  1  0.381400  0.913000  0.687200  1.0  0.7024
  C  C94  1  0.262100  0.807200  0.608900  1.0  0.705
  C  C95  1  0.722100  0.501900  0.848700  1.0  0.2835
  C  C96  1  0.652800  0.480600  0.943100  1.0  0.0415
  C  C97  1  0.656400  0.549200  0.935800  1.0  -0.0094
  C  C98  1  0.621900  0.605100  0.974300  1.0  0.7093
  C  C99  1  0.617200  0.437100  0.999600  1.0  0.6962
  C  C100  1  0.837500  0.422000  0.973600  1.0  0.3785
  C  C101  1  0.803300  0.359400  0.073300  1.0  0.0384
  C  C102  1  0.852900  0.400400  0.103000  1.0  0.0415
  C  C103  1  0.881400  0.413000  0.187200  1.0  0.7024
  C  C104  1  0.762100  0.307200  0.108900  1.0  0.705
  C  C105  1  0.751900  0.527900  0.098700  1.0  0.2842
  C  C106  1  0.730600  0.597200  0.193100  1.0  0.0416
  C  C107  1  0.799200  0.593600  0.185800  1.0  -0.0068
  C  C108  1  0.855100  0.628100  0.224300  1.0  0.7093
  C  C109  1  0.687100  0.632800  0.249600  1.0  0.7005
  C  C110  1  0.672000  0.412500  0.223600  1.0  0.3783
  C  C111  1  0.609400  0.446700  0.323300  1.0  0.0344
  C  C112  1  0.650400  0.397100  0.353000  1.0  0.0424
  C  C113  1  0.663000  0.368600  0.437200  1.0  0.7015
  C  C114  1  0.557200  0.487900  0.358900  1.0  0.7041
  C  C115  1  0.251900  0.027900  0.598700  1.0  0.2842
  C  C116  1  0.230600  0.097200  0.693100  1.0  0.0416
  C  C117  1  0.299200  0.093600  0.685800  1.0  -0.0068
  C  C118  1  0.355100  0.128100  0.724300  1.0  0.7093
  C  C119  1  0.187100  0.132800  0.749600  1.0  0.7005
  C  C120  1  0.172000  0.912500  0.723600  1.0  0.3783
  C  C121  1  0.109400  0.946700  0.823300  1.0  0.0344
  C  C122  1  0.150400  0.897100  0.853000  1.0  0.0424
  C  C123  1  0.163000  0.868600  0.937200  1.0  0.7015
  C  C124  1  0.057200  0.987900  0.858900  1.0  0.7041
  C  C125  1  0.748100  0.472100  0.598700  1.0  0.2829
  C  C126  1  0.769400  0.402800  0.693100  1.0  0.0427
  C  C127  1  0.700800  0.406400  0.685800  1.0  -0.0066
  C  C128  1  0.644900  0.371900  0.724300  1.0  0.7079
  C  C129  1  0.812900  0.367200  0.749600  1.0  0.7004
  C  C130  1  0.828000  0.587500  0.723600  1.0  0.3792
  C  C131  1  0.890600  0.553300  0.823300  1.0  0.0329
  C  C132  1  0.849600  0.602900  0.853000  1.0  0.0425
  C  C133  1  0.837000  0.631400  0.937200  1.0  0.7004
  C  C134  1  0.942800  0.512100  0.858900  1.0  0.7037
  C  C135  1  0.248100  0.972100  0.098700  1.0  0.2829
  C  C136  1  0.269400  0.902800  0.193100  1.0  0.0427
  C  C137  1  0.200800  0.906400  0.185800  1.0  -0.0066
  C  C138  1  0.144900  0.871900  0.224300  1.0  0.7079
  C  C139  1  0.312900  0.867200  0.249600  1.0  0.7004
  C  C140  1  0.328000  0.087500  0.223600  1.0  0.3792
  C  C141  1  0.390600  0.053300  0.323300  1.0  0.0329
  C  C142  1  0.349600  0.102900  0.353000  1.0  0.0425
  C  C143  1  0.337000  0.131400  0.437200  1.0  0.7004
  C  C144  1  0.442800  0.012100  0.358900  1.0  0.7037
  C  C145  1  0.722100  0.001900  0.151300  1.0  0.2837
  C  C146  1  0.652800  0.980600  0.056900  1.0  0.0412
  C  C147  1  0.656400  0.049200  0.064200  1.0  -0.0098
  C  C148  1  0.621900  0.105100  0.025700  1.0  0.7093
  C  C149  1  0.617200  0.937100  0.000400  1.0  0.6965
  C  C150  1  0.837500  0.922000  0.026400  1.0  0.3784
  C  C151  1  0.803300  0.859400  0.926700  1.0  0.0387
  C  C152  1  0.852900  0.900400  0.897000  1.0  0.0429
  C  C153  1  0.881400  0.913000  0.812800  1.0  0.7036
  C  C154  1  0.762100  0.807200  0.891100  1.0  0.7052
  C  C155  1  0.222100  0.501900  0.651300  1.0  0.2837
  C  C156  1  0.152800  0.480600  0.556900  1.0  0.0412
  C  C157  1  0.156400  0.549200  0.564200  1.0  -0.0098
  C  C158  1  0.121900  0.605100  0.525700  1.0  0.7093
  C  C159  1  0.117200  0.437100  0.500400  1.0  0.6965
  C  C160  1  0.337500  0.422000  0.526400  1.0  0.3784
  C  C161  1  0.303300  0.359400  0.426700  1.0  0.0387
  C  C162  1  0.352900  0.400400  0.397000  1.0  0.0429
  C  C163  1  0.381400  0.413000  0.312800  1.0  0.7036
  C  C164  1  0.262100  0.307200  0.391100  1.0  0.7052
  C  C165  1  0.777900  0.998100  0.651300  1.0  0.284
  C  C166  1  0.847200  0.019400  0.556900  1.0  0.0418
  C  C167  1  0.843600  0.950800  0.564200  1.0  -0.0101
  C  C168  1  0.878100  0.894900  0.525700  1.0  0.7098
  C  C169  1  0.882800  0.062900  0.500400  1.0  0.696
  C  C170  1  0.662500  0.078000  0.526400  1.0  0.3787
  C  C171  1  0.696700  0.140600  0.426700  1.0  0.0388
  C  C172  1  0.647100  0.099600  0.397000  1.0  0.0416
  C  C173  1  0.618600  0.087000  0.312800  1.0  0.7044
  C  C174  1  0.737900  0.192800  0.391100  1.0  0.7049
  C  C175  1  0.277900  0.498100  0.151300  1.0  0.284
  C  C176  1  0.347200  0.519400  0.056900  1.0  0.0418
  C  C177  1  0.343600  0.450800  0.064200  1.0  -0.0101
  C  C178  1  0.378100  0.394900  0.025700  1.0  0.7098
  C  C179  1  0.382800  0.562900  0.000400  1.0  0.696
  C  C180  1  0.162500  0.578000  0.026400  1.0  0.3787
  C  C181  1  0.196700  0.640600  0.926700  1.0  0.0388
  C  C182  1  0.147100  0.599600  0.897000  1.0  0.0416
  C  C183  1  0.118600  0.587000  0.812800  1.0  0.7044
  C  C184  1  0.237900  0.692800  0.891100  1.0  0.7049
  C  C185  1  0.248100  0.472100  0.901300  1.0  0.2831
  C  C186  1  0.269400  0.402800  0.806900  1.0  0.0425
  C  C187  1  0.200800  0.406400  0.814200  1.0  -0.0069
  C  C188  1  0.144900  0.371900  0.775700  1.0  0.7076
  C  C189  1  0.312900  0.367200  0.750400  1.0  0.7002
  C  C190  1  0.328000  0.587500  0.776400  1.0  0.379
  C  C191  1  0.390600  0.553300  0.676700  1.0  0.0326
  C  C192  1  0.349600  0.602900  0.647000  1.0  0.044
  C  C193  1  0.337000  0.631400  0.562800  1.0  0.7028
  C  C194  1  0.442800  0.512100  0.641100  1.0  0.7035
  C  C195  1  0.748100  0.972100  0.401300  1.0  0.2831
  C  C196  1  0.769400  0.902800  0.306900  1.0  0.0425
  C  C197  1  0.700800  0.906400  0.314200  1.0  -0.0069
  C  C198  1  0.644900  0.871900  0.275700  1.0  0.7076
  C  C199  1  0.812900  0.867200  0.250400  1.0  0.7002
  C  C200  1  0.828000  0.087500  0.276400  1.0  0.379
  C  C201  1  0.890600  0.053300  0.176700  1.0  0.0326
  C  C202  1  0.849600  0.102900  0.147000  1.0  0.044
  C  C203  1  0.837000  0.131400  0.062800  1.0  0.7028
  C  C204  1  0.942800  0.012100  0.141100  1.0  0.7035
  C  C205  1  0.251900  0.527900  0.401300  1.0  0.2841
  C  C206  1  0.230600  0.597200  0.306900  1.0  0.0411
  C  C207  1  0.299200  0.593600  0.314200  1.0  -0.0072
  C  C208  1  0.355100  0.628100  0.275700  1.0  0.709
  C  C209  1  0.187100  0.632800  0.250400  1.0  0.701
  C  C210  1  0.172000  0.412500  0.276400  1.0  0.3791
  C  C211  1  0.109400  0.446700  0.176700  1.0  0.0341
  C  C212  1  0.150400  0.397100  0.147000  1.0  0.0434
  C  C213  1  0.163000  0.368600  0.062800  1.0  0.7023
  C  C214  1  0.057200  0.487900  0.141100  1.0  0.7043
  C  C215  1  0.751900  0.027900  0.901300  1.0  0.2841
  C  C216  1  0.730600  0.097200  0.806900  1.0  0.0411
  C  C217  1  0.799200  0.093600  0.814200  1.0  -0.0072
  C  C218  1  0.855100  0.128100  0.775700  1.0  0.709
  C  C219  1  0.687100  0.132800  0.750400  1.0  0.701
  C  C220  1  0.672000  0.912500  0.776400  1.0  0.3791
  C  C221  1  0.609400  0.946700  0.676700  1.0  0.0341
  C  C222  1  0.650400  0.897100  0.647000  1.0  0.0434
  C  C223  1  0.663000  0.868600  0.562800  1.0  0.7023
  C  C224  1  0.557200  0.987900  0.641100  1.0  0.7043
  N  N225  1  0.299500  0.936900  0.873400  1.0  -0.5123
  N  N226  1  0.303600  0.048500  0.886200  1.0  -0.4532
  N  N227  1  0.206100  0.125500  0.989800  1.0  -0.5648
  N  N228  1  0.126500  0.059900  0.039100  1.0  -0.5344
  N  N229  1  0.799500  0.436900  0.373400  1.0  -0.5123
  N  N230  1  0.803600  0.548500  0.386200  1.0  -0.4532
  N  N231  1  0.706100  0.625500  0.489800  1.0  -0.5648
  N  N232  1  0.626500  0.559900  0.539100  1.0  -0.5344
  N  N233  1  0.200500  0.063100  0.373400  1.0  -0.5122
  N  N234  1  0.196400  0.951500  0.386200  1.0  -0.4506
  N  N235  1  0.293900  0.874500  0.489800  1.0  -0.5628
  N  N236  1  0.373500  0.940100  0.539100  1.0  -0.5328
  N  N237  1  0.700500  0.563100  0.873400  1.0  -0.5122
  N  N238  1  0.696400  0.451500  0.886200  1.0  -0.4506
  N  N239  1  0.793900  0.374500  0.989800  1.0  -0.5628
  N  N240  1  0.873500  0.440100  0.039100  1.0  -0.5328
  N  N241  1  0.813100  0.549500  0.123400  1.0  -0.5142
  N  N242  1  0.701500  0.553600  0.136200  1.0  -0.4514
  N  N243  1  0.624500  0.456100  0.239800  1.0  -0.5597
  N  N244  1  0.690100  0.376500  0.289100  1.0  -0.5356
  N  N245  1  0.313100  0.049500  0.623400  1.0  -0.5142
  N  N246  1  0.201500  0.053600  0.636200  1.0  -0.4514
  N  N247  1  0.124500  0.956100  0.739800  1.0  -0.5597
  N  N248  1  0.190100  0.876500  0.789100  1.0  -0.5356
  N  N249  1  0.686900  0.450500  0.623400  1.0  -0.5126
  N  N250  1  0.798500  0.446400  0.636200  1.0  -0.4503
  N  N251  1  0.875500  0.543900  0.739800  1.0  -0.5605
  N  N252  1  0.809900  0.623500  0.789100  1.0  -0.5402
  N  N253  1  0.186900  0.950500  0.123400  1.0  -0.5126
  N  N254  1  0.298500  0.946400  0.136200  1.0  -0.4503
  N  N255  1  0.375500  0.043900  0.239800  1.0  -0.5605
  N  N256  1  0.309900  0.123500  0.289100  1.0  -0.5402
  N  N257  1  0.700500  0.063100  0.126600  1.0  -0.5125
  N  N258  1  0.696400  0.951500  0.113800  1.0  -0.4504
  N  N259  1  0.793900  0.874500  0.010200  1.0  -0.5624
  N  N260  1  0.873500  0.940100  0.960900  1.0  -0.5325
  N  N261  1  0.200500  0.563100  0.626600  1.0  -0.5125
  N  N262  1  0.196400  0.451500  0.613800  1.0  -0.4504
  N  N263  1  0.293900  0.374500  0.510200  1.0  -0.5624
  N  N264  1  0.373500  0.440100  0.460900  1.0  -0.5325
  N  N265  1  0.799500  0.936900  0.626600  1.0  -0.5118
  N  N266  1  0.803600  0.048500  0.613800  1.0  -0.4536
  N  N267  1  0.706100  0.125500  0.510200  1.0  -0.5646
  N  N268  1  0.626500  0.059900  0.460900  1.0  -0.5345
  N  N269  1  0.299500  0.436900  0.126600  1.0  -0.5118
  N  N270  1  0.303600  0.548500  0.113800  1.0  -0.4536
  N  N271  1  0.206100  0.625500  0.010200  1.0  -0.5646
  N  N272  1  0.126500  0.559900  0.960900  1.0  -0.5345
  N  N273  1  0.186900  0.450500  0.876600  1.0  -0.5122
  N  N274  1  0.298500  0.446400  0.863800  1.0  -0.4504
  N  N275  1  0.375500  0.543900  0.760200  1.0  -0.5601
  N  N276  1  0.309900  0.623500  0.710900  1.0  -0.5402
  N  N277  1  0.686900  0.950500  0.376600  1.0  -0.5122
  N  N278  1  0.798500  0.946400  0.363800  1.0  -0.4504
  N  N279  1  0.875500  0.043900  0.260200  1.0  -0.5601
  N  N280  1  0.809900  0.123500  0.210900  1.0  -0.5402
  N  N281  1  0.313100  0.549500  0.376600  1.0  -0.5139
  N  N282  1  0.201500  0.553600  0.363800  1.0  -0.4511
  N  N283  1  0.124500  0.456100  0.260200  1.0  -0.5601
  N  N284  1  0.190100  0.376500  0.210900  1.0  -0.5355
  N  N285  1  0.813100  0.049500  0.876600  1.0  -0.5139
  N  N286  1  0.701500  0.053600  0.863800  1.0  -0.4511
  N  N287  1  0.624500  0.956100  0.760200  1.0  -0.5601
  N  N288  1  0.690100  0.876500  0.710900  1.0  -0.5355
  O  O289  1  0.365700  0.838300  0.943100  1.0  -0.7053
  O  O290  1  0.417700  0.900900  0.034800  1.0  -0.7486
  O  O291  1  0.414300  0.042400  0.062600  1.0  -0.7347
  O  O292  1  0.379900  0.124800  0.983600  1.0  -0.6688
  O  O293  1  0.080800  0.036700  0.192500  1.0  -0.642
  O  O294  1  0.132700  0.125000  0.247200  1.0  -0.7312
  O  O295  1  0.229800  0.216700  0.182400  1.0  -0.7898
  O  O296  1  0.282700  0.216500  0.062300  1.0  -0.7441
  O  O297  1  0.865700  0.338300  0.443100  1.0  -0.7053
  O  O298  1  0.917700  0.400900  0.534800  1.0  -0.7486
  O  O299  1  0.914300  0.542400  0.562600  1.0  -0.7347
  O  O300  1  0.879900  0.624800  0.483600  1.0  -0.6688
  O  O301  1  0.580800  0.536700  0.692500  1.0  -0.642
  O  O302  1  0.632700  0.625000  0.747200  1.0  -0.7312
  O  O303  1  0.729800  0.716700  0.682400  1.0  -0.7898
  O  O304  1  0.782700  0.716500  0.562300  1.0  -0.7441
  O  O305  1  0.134300  0.161700  0.443100  1.0  -0.7012
  O  O306  1  0.082300  0.099100  0.534800  1.0  -0.7475
  O  O307  1  0.085700  0.957600  0.562600  1.0  -0.7338
  O  O308  1  0.120100  0.875200  0.483600  1.0  -0.6715
  O  O309  1  0.419200  0.963300  0.692500  1.0  -0.6424
  O  O310  1  0.367300  0.875000  0.747200  1.0  -0.7313
  O  O311  1  0.270200  0.783300  0.682400  1.0  -0.7889
  O  O312  1  0.217300  0.783500  0.562300  1.0  -0.7437
  O  O313  1  0.634300  0.661700  0.943100  1.0  -0.7012
  O  O314  1  0.582300  0.599100  0.034800  1.0  -0.7475
  O  O315  1  0.585700  0.457600  0.062600  1.0  -0.7338
  O  O316  1  0.620100  0.375200  0.983600  1.0  -0.6715
  O  O317  1  0.919200  0.463300  0.192500  1.0  -0.6424
  O  O318  1  0.867300  0.375000  0.247200  1.0  -0.7313
  O  O319  1  0.770200  0.283300  0.182400  1.0  -0.7889
  O  O320  1  0.717300  0.283500  0.062300  1.0  -0.7437
  O  O321  1  0.911700  0.615700  0.193100  1.0  -0.6995
  O  O322  1  0.849100  0.667700  0.284800  1.0  -0.7484
  O  O323  1  0.707600  0.664300  0.312600  1.0  -0.7467
  O  O324  1  0.625200  0.629900  0.233600  1.0  -0.6773
  O  O325  1  0.713300  0.330800  0.442500  1.0  -0.6438
  O  O326  1  0.625000  0.382700  0.497200  1.0  -0.7327
  O  O327  1  0.533300  0.479800  0.432400  1.0  -0.7872
  O  O328  1  0.533500  0.532700  0.312300  1.0  -0.7436
  O  O329  1  0.411700  0.115700  0.693100  1.0  -0.6995
  O  O330  1  0.349100  0.167700  0.784800  1.0  -0.7484
  O  O331  1  0.207600  0.164300  0.812600  1.0  -0.7467
  O  O332  1  0.125200  0.129900  0.733600  1.0  -0.6773
  O  O333  1  0.213300  0.830800  0.942500  1.0  -0.6438
  O  O334  1  0.125000  0.882700  0.997200  1.0  -0.7327
  O  O335  1  0.033300  0.979800  0.932400  1.0  -0.7872
  O  O336  1  0.033500  0.032700  0.812300  1.0  -0.7436
  O  O337  1  0.588300  0.384300  0.693100  1.0  -0.7009
  O  O338  1  0.650900  0.332300  0.784800  1.0  -0.7475
  O  O339  1  0.792400  0.335700  0.812600  1.0  -0.7443
  O  O340  1  0.874800  0.370100  0.733600  1.0  -0.6748
  O  O341  1  0.786700  0.669200  0.942500  1.0  -0.6432
  O  O342  1  0.875000  0.617300  0.997200  1.0  -0.7355
  O  O343  1  0.966700  0.520200  0.932400  1.0  -0.788
  O  O344  1  0.966500  0.467300  0.812300  1.0  -0.7437
  O  O345  1  0.088300  0.884300  0.193100  1.0  -0.7009
  O  O346  1  0.150900  0.832300  0.284800  1.0  -0.7475
  O  O347  1  0.292400  0.835700  0.312600  1.0  -0.7443
  O  O348  1  0.374800  0.870100  0.233600  1.0  -0.6748
  O  O349  1  0.286700  0.169200  0.442500  1.0  -0.6432
  O  O350  1  0.375000  0.117300  0.497200  1.0  -0.7355
  O  O351  1  0.466700  0.020200  0.432400  1.0  -0.788
  O  O352  1  0.466500  0.967300  0.312300  1.0  -0.7437
  O  O353  1  0.634300  0.161700  0.056900  1.0  -0.7015
  O  O354  1  0.582300  0.099100  0.965200  1.0  -0.7479
  O  O355  1  0.585700  0.957600  0.937400  1.0  -0.7344
  O  O356  1  0.620100  0.875200  0.016400  1.0  -0.6717
  O  O357  1  0.919200  0.963300  0.807500  1.0  -0.6419
  O  O358  1  0.867300  0.875000  0.752800  1.0  -0.7322
  O  O359  1  0.770200  0.783300  0.817600  1.0  -0.7883
  O  O360  1  0.717300  0.783500  0.937700  1.0  -0.7439
  O  O361  1  0.134300  0.661700  0.556900  1.0  -0.7015
  O  O362  1  0.082300  0.599100  0.465200  1.0  -0.7479
  O  O363  1  0.085700  0.457600  0.437400  1.0  -0.7344
  O  O364  1  0.120100  0.375200  0.516400  1.0  -0.6717
  O  O365  1  0.419200  0.463300  0.307500  1.0  -0.6419
  O  O366  1  0.367300  0.375000  0.252800  1.0  -0.7322
  O  O367  1  0.270200  0.283300  0.317600  1.0  -0.7883
  O  O368  1  0.217300  0.283500  0.437700  1.0  -0.7439
  O  O369  1  0.865700  0.838300  0.556900  1.0  -0.706
  O  O370  1  0.917700  0.900900  0.465200  1.0  -0.7484
  O  O371  1  0.914300  0.042400  0.437400  1.0  -0.7338
  O  O372  1  0.879900  0.124800  0.516400  1.0  -0.6696
  O  O373  1  0.580800  0.036700  0.307500  1.0  -0.6415
  O  O374  1  0.632700  0.125000  0.252800  1.0  -0.7307
  O  O375  1  0.729800  0.216700  0.317600  1.0  -0.7885
  O  O376  1  0.782700  0.216500  0.437700  1.0  -0.7457
  O  O377  1  0.365700  0.338300  0.056900  1.0  -0.706
  O  O378  1  0.417700  0.400900  0.965200  1.0  -0.7484
  O  O379  1  0.414300  0.542400  0.937400  1.0  -0.7338
  O  O380  1  0.379900  0.624800  0.016400  1.0  -0.6696
  O  O381  1  0.080800  0.536700  0.807500  1.0  -0.6415
  O  O382  1  0.132700  0.625000  0.752800  1.0  -0.7307
  O  O383  1  0.229800  0.716700  0.817600  1.0  -0.7885
  O  O384  1  0.282700  0.716500  0.937700  1.0  -0.7457
  O  O385  1  0.088300  0.384300  0.806900  1.0  -0.7016
  O  O386  1  0.150900  0.332300  0.715200  1.0  -0.7479
  O  O387  1  0.292400  0.335700  0.687400  1.0  -0.7439
  O  O388  1  0.374800  0.370100  0.766400  1.0  -0.6756
  O  O389  1  0.286700  0.669200  0.557500  1.0  -0.6426
  O  O390  1  0.375000  0.617300  0.502800  1.0  -0.7348
  O  O391  1  0.466700  0.520200  0.567600  1.0  -0.7872
  O  O392  1  0.466500  0.467300  0.687700  1.0  -0.7441
  O  O393  1  0.588300  0.884300  0.306900  1.0  -0.7016
  O  O394  1  0.650900  0.832300  0.215200  1.0  -0.7479
  O  O395  1  0.792400  0.835700  0.187400  1.0  -0.7439
  O  O396  1  0.874800  0.870100  0.266400  1.0  -0.6756
  O  O397  1  0.786700  0.169200  0.057500  1.0  -0.6426
  O  O398  1  0.875000  0.117300  0.002800  1.0  -0.7348
  O  O399  1  0.966700  0.020200  0.067600  1.0  -0.7872
  O  O400  1  0.966500  0.967300  0.187700  1.0  -0.7441
  O  O401  1  0.411700  0.615700  0.306900  1.0  -0.7005
  O  O402  1  0.349100  0.667700  0.215200  1.0  -0.7481
  O  O403  1  0.207600  0.664300  0.187400  1.0  -0.7467
  O  O404  1  0.125200  0.629900  0.266400  1.0  -0.678
  O  O405  1  0.213300  0.330800  0.057500  1.0  -0.6433
  O  O406  1  0.125000  0.382700  0.002800  1.0  -0.7336
  O  O407  1  0.033300  0.479800  0.067600  1.0  -0.7874
  O  O408  1  0.033500  0.532700  0.187700  1.0  -0.7448
  O  O409  1  0.911700  0.115700  0.806900  1.0  -0.7005
  O  O410  1  0.849100  0.167700  0.715200  1.0  -0.7481
  O  O411  1  0.707600  0.164300  0.687400  1.0  -0.7467
  O  O412  1  0.625200  0.129900  0.766400  1.0  -0.678
  O  O413  1  0.713300  0.830800  0.557500  1.0  -0.6433
  O  O414  1  0.625000  0.882700  0.502800  1.0  -0.7336
  O  O415  1  0.533300  0.979800  0.567600  1.0  -0.7874
  O  O416  1  0.533500  0.032700  0.687700  1.0  -0.7448
