# generated using pymatgen
data_ErHC5(NO2)2
_symmetry_space_group_name_H-M   'P 1'
_cell_length_a   15.87300000
_cell_length_b   16.30620000
_cell_length_c   16.30620000
_cell_angle_alpha   76.29670000
_cell_angle_beta   60.87500000
_cell_angle_gamma   60.87500000
_symmetry_Int_Tables_number   1
_chemical_formula_structural   ErHC5(NO2)2
_chemical_formula_sum   'Er16 H16 C80 N32 O64'
_cell_volume   3220.69768724
_cell_formula_units_Z   16
loop_
 _symmetry_equiv_pos_site_id
 _symmetry_equiv_pos_as_xyz
  1  'x, y, z'
loop_
 _atom_site_type_symbol
 _atom_site_label
 _atom_site_symmetry_multiplicity
 _atom_site_fract_x
 _atom_site_fract_y
 _atom_site_fract_z
 _atom_site_occupancy
 _atom_site_charge
  Er  Er1  1  0.735690  0.465310  0.880160  1.0  1.5743
  Er  Er2  1  0.011110  0.112650  0.526250  1.0  1.5152
  Er  Er3  1  0.581150  0.034690  0.619840  1.0  1.5726
  Er  Er4  1  0.150010  0.387350  0.973750  1.0  1.5128
  Er  Er5  1  0.615840  0.119840  0.965320  1.0  1.5704
  Er  Er6  1  0.537360  0.473750  0.612650  1.0  1.5135
  Er  Er7  1  0.201000  0.380160  0.534680  1.0  1.5717
  Er  Er8  1  0.123760  0.026250  0.887350  1.0  1.5133
  Er  Er9  1  0.264310  0.534690  0.119840  1.0  1.5715
  Er  Er10  1  0.988890  0.887350  0.473750  1.0  1.5135
  Er  Er11  1  0.418850  0.965310  0.380160  1.0  1.5748
  Er  Er12  1  0.849990  0.612650  0.026250  1.0  1.5143
  Er  Er13  1  0.384160  0.880160  0.034680  1.0  1.5708
  Er  Er14  1  0.462640  0.526250  0.387350  1.0  1.5128
  Er  Er15  1  0.799000  0.619840  0.465320  1.0  1.5719
  Er  Er16  1  0.876240  0.973750  0.112650  1.0  1.5137
  H  H17  1  0.804500  0.245900  0.756100  1.0  0.1082
  H  H18  1  0.859100  0.216600  0.903600  1.0  0.1031
  H  H19  1  0.306500  0.254100  0.743900  1.0  0.1069
  H  H20  1  0.479300  0.283400  0.596400  1.0  0.1019
  H  H21  1  0.560600  0.243900  0.745900  1.0  0.1065
  H  H22  1  0.762700  0.096400  0.716600  1.0  0.1033
  H  H23  1  0.050400  0.256100  0.754100  1.0  0.1077
  H  H24  1  0.075700  0.403600  0.783400  1.0  0.1005
  H  H25  1  0.195500  0.754100  0.243900  1.0  0.1061
  H  H26  1  0.140900  0.783400  0.096400  1.0  0.1032
  H  H27  1  0.693500  0.745900  0.256100  1.0  0.1083
  H  H28  1  0.520700  0.716600  0.403600  1.0  0.1015
  H  H29  1  0.439400  0.756100  0.254100  1.0  0.1075
  H  H30  1  0.237300  0.903600  0.283400  1.0  0.1024
  H  H31  1  0.949600  0.743900  0.245900  1.0  0.1076
  H  H32  1  0.924300  0.596400  0.216600  1.0  0.1026
  C  C33  1  0.850800  0.273400  0.719600  1.0  0.4091
  C  C34  1  0.923900  0.366900  0.672900  1.0  0.0305
  C  C35  1  0.983400  0.295600  0.607200  1.0  0.0663
  C  C36  1  0.077800  0.274600  0.517000  1.0  0.7798
  C  C37  1  0.936100  0.447700  0.680700  1.0  0.7776
  C  C38  1  0.894200  0.240100  0.916700  1.0  0.4584
  C  C39  1  0.932000  0.337500  0.944500  1.0  0.0703
  C  C40  1  0.004600  0.245900  0.951300  1.0  0.06
  C  C41  1  0.100500  0.206200  0.968200  1.0  0.796
  C  C42  1  0.915100  0.431200  0.955600  1.0  0.7656
  C  C43  1  0.343800  0.226600  0.780400  1.0  0.4087
  C  C44  1  0.463700  0.133100  0.827100  1.0  0.0297
  C  C45  1  0.386200  0.204400  0.892800  1.0  0.0655
  C  C46  1  0.369400  0.225400  0.983000  1.0  0.7871
  C  C47  1  0.564500  0.052300  0.819300  1.0  0.7726
  C  C48  1  0.551000  0.259900  0.583300  1.0  0.4586
  C  C49  1  0.714000  0.162500  0.555500  1.0  0.0697
  C  C50  1  0.701800  0.254100  0.548700  1.0  0.0545
  C  C51  1  0.774900  0.293800  0.531800  1.0  0.7933
  C  C52  1  0.801900  0.068800  0.544400  1.0  0.7701
  C  C53  1  0.570400  0.280400  0.773400  1.0  0.4095
  C  C54  1  0.596800  0.327100  0.866900  1.0  0.0285
  C  C55  1  0.590600  0.392800  0.795600  1.0  0.0664
  C  C56  1  0.594800  0.483000  0.774600  1.0  0.7801
  C  C57  1  0.616800  0.319300  0.947700  1.0  0.7817
  C  C58  1  0.810900  0.083300  0.740100  1.0  0.4573
  C  C59  1  0.876500  0.055500  0.837500  1.0  0.0691
  C  C60  1  0.955900  0.048700  0.745900  1.0  0.0553
  C  C61  1  0.068700  0.031800  0.706200  1.0  0.7908
  C  C62  1  0.870700  0.044400  0.931200  1.0  0.7678
  C  C63  1  0.124200  0.219600  0.726600  1.0  0.4093
  C  C64  1  0.290800  0.172900  0.633100  1.0  0.029
  C  C65  1  0.279000  0.107200  0.704400  1.0  0.0659
  C  C66  1  0.352400  0.017000  0.725400  1.0  0.7791
  C  C67  1  0.383800  0.180700  0.552300  1.0  0.7748
  C  C68  1  0.134300  0.416700  0.759900  1.0  0.4579
  C  C69  1  0.269500  0.444500  0.662500  1.0  0.0721
  C  C70  1  0.250500  0.451300  0.754100  1.0  0.055
  C  C71  1  0.306700  0.468200  0.793800  1.0  0.7888
  C  C72  1  0.346300  0.455600  0.568800  1.0  0.7666
  C  C73  1  0.149200  0.726600  0.280400  1.0  0.4076
  C  C74  1  0.076100  0.633100  0.327100  1.0  0.0299
  C  C75  1  0.016600  0.704400  0.392800  1.0  0.0664
  C  C76  1  0.922200  0.725400  0.483000  1.0  0.7793
  C  C77  1  0.063900  0.552300  0.319300  1.0  0.7759
  C  C78  1  0.105800  0.759900  0.083300  1.0  0.4584
  C  C79  1  0.068000  0.662500  0.055500  1.0  0.0713
  C  C80  1  0.995400  0.754100  0.048700  1.0  0.0576
  C  C81  1  0.899500  0.793800  0.031800  1.0  0.7951
  C  C82  1  0.084900  0.568800  0.044400  1.0  0.7697
  C  C83  1  0.656200  0.773400  0.219600  1.0  0.4082
  C  C84  1  0.536300  0.866900  0.172900  1.0  0.0301
  C  C85  1  0.613800  0.795600  0.107200  1.0  0.066
  C  C86  1  0.630600  0.774600  0.017000  1.0  0.787
  C  C87  1  0.435500  0.947700  0.180700  1.0  0.7771
  C  C88  1  0.449000  0.740100  0.416700  1.0  0.4598
  C  C89  1  0.286000  0.837500  0.444500  1.0  0.0686
  C  C90  1  0.298200  0.745900  0.451300  1.0  0.0572
  C  C91  1  0.225100  0.706200  0.468200  1.0  0.7931
  C  C92  1  0.198100  0.931200  0.455600  1.0  0.7685
  C  C93  1  0.429600  0.719600  0.226600  1.0  0.4076
  C  C94  1  0.403200  0.672900  0.133100  1.0  0.0272
  C  C95  1  0.409400  0.607200  0.204400  1.0  0.0667
  C  C96  1  0.405200  0.517000  0.225400  1.0  0.7793
  C  C97  1  0.383200  0.680700  0.052300  1.0  0.78
  C  C98  1  0.189100  0.916700  0.259900  1.0  0.4568
  C  C99  1  0.123500  0.944500  0.162500  1.0  0.0721
  C  C100  1  0.044100  0.951300  0.254100  1.0  0.0537
  C  C101  1  0.931300  0.968200  0.293800  1.0  0.79
  C  C102  1  0.129300  0.955600  0.068800  1.0  0.7655
  C  C103  1  0.875800  0.780400  0.273400  1.0  0.4093
  C  C104  1  0.709200  0.827100  0.366900  1.0  0.0297
  C  C105  1  0.721000  0.892800  0.295600  1.0  0.0645
  C  C106  1  0.647600  0.983000  0.274600  1.0  0.7805
  C  C107  1  0.616200  0.819300  0.447700  1.0  0.776
  C  C108  1  0.865700  0.583300  0.240100  1.0  0.4568
  C  C109  1  0.730500  0.555500  0.337500  1.0  0.0707
  C  C110  1  0.749500  0.548700  0.245900  1.0  0.0544
  C  C111  1  0.693300  0.531800  0.206200  1.0  0.7911
  C  C112  1  0.653700  0.544400  0.431200  1.0  0.7705
  N  N113  1  0.935800  0.236400  0.638200  1.0  -0.4884
  N  N114  1  0.837600  0.353400  0.744400  1.0  -0.537
  N  N115  1  0.863100  0.331900  0.919900  1.0  -0.544
  N  N116  1  0.979000  0.184600  0.933400  1.0  -0.5807
  N  N117  1  0.310400  0.263600  0.861800  1.0  -0.4885
  N  N118  1  0.435400  0.146600  0.755600  1.0  -0.5345
  N  N119  1  0.614900  0.168100  0.580100  1.0  -0.5454
  N  N120  1  0.597000  0.315400  0.566600  1.0  -0.5814
  N  N121  1  0.574000  0.361800  0.736400  1.0  -0.488
  N  N122  1  0.582000  0.255600  0.853400  1.0  -0.5362
  N  N123  1  0.783000  0.080100  0.831900  1.0  -0.54
  N  N124  1  0.912400  0.066600  0.684600  1.0  -0.5804
  N  N125  1  0.172200  0.138200  0.763600  1.0  -0.4824
  N  N126  1  0.191000  0.244400  0.646600  1.0  -0.5361
  N  N127  1  0.195000  0.419900  0.668100  1.0  -0.5453
  N  N128  1  0.163600  0.433400  0.815400  1.0  -0.5811
  N  N129  1  0.064200  0.763600  0.361800  1.0  -0.4561
  N  N130  1  0.162400  0.646600  0.255600  1.0  -0.5267
  N  N131  1  0.136900  0.668100  0.080100  1.0  -0.5084
  N  N132  1  0.021000  0.815400  0.066600  1.0  -0.539
  N  N133  1  0.689600  0.736400  0.138200  1.0  -0.4595
  N  N134  1  0.564600  0.853400  0.244400  1.0  -0.5306
  N  N135  1  0.385100  0.831900  0.419900  1.0  -0.541
  N  N136  1  0.403000  0.684600  0.433400  1.0  -0.5393
  N  N137  1  0.426000  0.638200  0.263600  1.0  -0.4798
  N  N138  1  0.418000  0.744400  0.146600  1.0  -0.5264
  N  N139  1  0.217000  0.919900  0.168100  1.0  -0.5153
  N  N140  1  0.087600  0.933400  0.315400  1.0  -0.5389
  N  N141  1  0.827800  0.861800  0.236400  1.0  -0.4877
  N  N142  1  0.809000  0.755600  0.353400  1.0  -0.5155
  N  N143  1  0.805000  0.580100  0.331900  1.0  -0.5038
  N  N144  1  0.836400  0.566600  0.184600  1.0  -0.5425
  O  O145  1  0.104600  0.203700  0.471700  1.0  -0.6339
  O  O146  1  0.134100  0.319000  0.482800  1.0  -0.6853
  O  O147  1  0.020900  0.455800  0.627600  1.0  -0.7006
  O  O148  1  0.857600  0.505600  0.745600  1.0  -0.6082
  O  O149  1  0.155300  0.118400  0.956200  1.0  -0.6172
  O  O150  1  0.121000  0.257600  0.994400  1.0  -0.6899
  O  O151  1  0.964700  0.447100  0.987900  1.0  -0.7437
  O  O152  1  0.845800  0.499700  0.933100  1.0  -0.73
  O  O153  1  0.280000  0.296300  0.028300  1.0  -0.6303
  O  O154  1  0.435900  0.181000  0.017200  1.0  -0.6902
  O  O155  1  0.604300  0.044200  0.872400  1.0  -0.7006
  O  O156  1  0.608800  0.994400  0.754400  1.0  -0.6074
  O  O157  1  0.729900  0.381600  0.543800  1.0  -0.617
  O  O158  1  0.873000  0.242400  0.505600  1.0  -0.6835
  O  O159  1  0.899700  0.052900  0.512100  1.0  -0.7441
  O  O160  1  0.778600  0.000300  0.566900  1.0  -0.7279
  O  O161  1  0.576300  0.528300  0.703700  1.0  -0.634
  O  O162  1  0.616900  0.517200  0.819000  1.0  -0.681
  O  O163  1  0.648500  0.372400  0.955800  1.0  -0.7039
  O  O164  1  0.603200  0.254400  0.005600  1.0  -0.6091
  O  O165  1  0.111500  0.043800  0.618400  1.0  -0.6141
  O  O166  1  0.115400  0.005600  0.757600  1.0  -0.6854
  O  O167  1  0.952600  0.012100  0.947100  1.0  -0.7428
  O  O168  1  0.778900  0.066900  0.999700  1.0  -0.7289
  O  O169  1  0.308300  0.971700  0.796300  1.0  -0.6314
  O  O170  1  0.453100  0.982800  0.681000  1.0  -0.6836
  O  O171  1  0.476700  0.127600  0.544200  1.0  -0.699
  O  O172  1  0.363200  0.245600  0.494400  1.0  -0.611
  O  O173  1  0.273700  0.456200  0.881600  1.0  -0.6191
  O  O174  1  0.378600  0.494400  0.742400  1.0  -0.6828
  O  O175  1  0.411800  0.487900  0.552900  1.0  -0.7426
  O  O176  1  0.345500  0.433100  0.500300  1.0  -0.7332
  O  O177  1  0.895400  0.796300  0.528300  1.0  -0.6345
  O  O178  1  0.865900  0.681000  0.517200  1.0  -0.6865
  O  O179  1  0.979100  0.544200  0.372400  1.0  -0.6992
  O  O180  1  0.142400  0.494400  0.254400  1.0  -0.6076
  O  O181  1  0.844700  0.881600  0.043800  1.0  -0.6172
  O  O182  1  0.879000  0.742400  0.005600  1.0  -0.6876
  O  O183  1  0.035300  0.552900  0.012100  1.0  -0.7455
  O  O184  1  0.154200  0.500300  0.066900  1.0  -0.7291
  O  O185  1  0.720000  0.703700  0.971700  1.0  -0.6292
  O  O186  1  0.564100  0.819000  0.982800  1.0  -0.6899
  O  O187  1  0.395700  0.955800  0.127600  1.0  -0.7006
  O  O188  1  0.391200  0.005600  0.245600  1.0  -0.6088
  O  O189  1  0.270100  0.618400  0.456200  1.0  -0.6164
  O  O190  1  0.127000  0.757600  0.494400  1.0  -0.6836
  O  O191  1  0.100300  0.947100  0.487900  1.0  -0.7428
  O  O192  1  0.221400  0.999700  0.433100  1.0  -0.729
  O  O193  1  0.423700  0.471700  0.296300  1.0  -0.6316
  O  O194  1  0.383100  0.482800  0.181000  1.0  -0.6856
  O  O195  1  0.351500  0.627600  0.044200  1.0  -0.7009
  O  O196  1  0.396800  0.745600  0.994400  1.0  -0.6102
  O  O197  1  0.888500  0.956200  0.381600  1.0  -0.6148
  O  O198  1  0.884600  0.994400  0.242400  1.0  -0.684
  O  O199  1  0.047400  0.987900  0.052900  1.0  -0.7433
  O  O200  1  0.221100  0.933100  0.000300  1.0  -0.7304
  O  O201  1  0.691700  0.028300  0.203700  1.0  -0.632
  O  O202  1  0.546900  0.017200  0.319000  1.0  -0.6836
  O  O203  1  0.523300  0.872400  0.455800  1.0  -0.6991
  O  O204  1  0.636800  0.754400  0.505600  1.0  -0.6112
  O  O205  1  0.726300  0.543800  0.118400  1.0  -0.6165
  O  O206  1  0.621400  0.505600  0.257600  1.0  -0.6836
  O  O207  1  0.588200  0.512100  0.447100  1.0  -0.7421
  O  O208  1  0.654500  0.566900  0.499700  1.0  -0.7342
