# generated using pymatgen
data_NdHC5(NO2)2
_symmetry_space_group_name_H-M   'P 1'
_cell_length_a   16.54410000
_cell_length_b   16.54410000
_cell_length_c   16.54410000
_cell_angle_alpha   60.10360000
_cell_angle_beta   75.47610000
_cell_angle_gamma   104.52400000
_symmetry_Int_Tables_number   1
_chemical_formula_structural   NdHC5(NO2)2
_chemical_formula_sum   'Nd16 H16 C80 N32 O64'
_cell_volume   3397.93800201
_cell_formula_units_Z   16
loop_
 _symmetry_equiv_pos_site_id
 _symmetry_equiv_pos_as_xyz
  1  'x, y, z'
loop_
 _atom_site_type_symbol
 _atom_site_label
 _atom_site_symmetry_multiplicity
 _atom_site_fract_x
 _atom_site_fract_y
 _atom_site_fract_z
 _atom_site_occupancy
 _atom_site_charge
  Nd  Nd1  1  0.639020  0.400790  0.615790  1.0  2.2384
  Nd  Nd2  1  0.981840  0.852830  0.529450  1.0  2.2683
  Nd  Nd3  1  0.860980  0.245190  0.238230  1.0  2.2363
  Nd  Nd4  1  0.518160  0.988710  0.129010  1.0  2.2678
  Nd  Nd5  1  0.983420  0.384210  0.754810  1.0  2.2398
  Nd  Nd6  1  0.617720  0.470550  0.011290  1.0  2.2643
  Nd  Nd7  1  0.516580  0.761770  0.599210  1.0  2.2388
  Nd  Nd8  1  0.882280  0.870990  0.147170  1.0  2.2675
  Nd  Nd9  1  0.360980  0.599210  0.384210  1.0  2.2375
  Nd  Nd10  1  0.018160  0.147170  0.470550  1.0  2.2685
  Nd  Nd11  1  0.139020  0.754810  0.761770  1.0  2.2346
  Nd  Nd12  1  0.481840  0.011290  0.870990  1.0  2.2687
  Nd  Nd13  1  0.016580  0.615790  0.245190  1.0  2.2389
  Nd  Nd14  1  0.382280  0.529450  0.988710  1.0  2.2686
  Nd  Nd15  1  0.483420  0.238230  0.400790  1.0  2.2388
  Nd  Nd16  1  0.117720  0.129010  0.852830  1.0  2.2708
  H  H17  1  0.760500  0.678500  0.550600  1.0  0.0367
  H  H18  1  0.615500  0.514200  0.761900  1.0  0.0374
  H  H19  1  0.739500  0.188900  0.082000  1.0  0.0366
  H  H20  1  0.884500  0.122600  0.101300  1.0  0.0358
  H  H21  1  0.770900  0.449400  0.811100  1.0  0.0366
  H  H22  1  0.723900  0.238100  0.877400  1.0  0.0367
  H  H23  1  0.729100  0.918000  0.321500  1.0  0.0383
  H  H24  1  0.776100  0.898700  0.485800  1.0  0.0355
  H  H25  1  0.239500  0.321500  0.449400  1.0  0.0375
  H  H26  1  0.384500  0.485800  0.238100  1.0  0.0373
  H  H27  1  0.260500  0.811100  0.918000  1.0  0.0378
  H  H28  1  0.115500  0.877400  0.898700  1.0  0.0358
  H  H29  1  0.229100  0.550600  0.188900  1.0  0.0378
  H  H30  1  0.276100  0.761900  0.122600  1.0  0.0369
  H  H31  1  0.270900  0.082000  0.678500  1.0  0.038
  H  H32  1  0.223900  0.101300  0.514200  1.0  0.0359
  C  C33  1  0.796300  0.642900  0.565800  1.0  0.3889
  C  C34  1  0.844700  0.524300  0.604000  1.0  -0.0407
  C  C35  1  0.908100  0.607700  0.593000  1.0  0.0225
  C  C36  1  0.996800  0.632200  0.599800  1.0  0.7791
  C  C37  1  0.838500  0.422600  0.630500  1.0  0.7696
  C  C38  1  0.599600  0.444300  0.810100  1.0  0.4286
  C  C39  1  0.567400  0.282700  0.877700  1.0  0.0091
  C  C40  1  0.557500  0.300000  0.954700  1.0  0.0352
  C  C41  1  0.535200  0.232500  0.065900  1.0  0.7334
  C  C42  1  0.552700  0.196200  0.873900  1.0  0.7477
  C  C43  1  0.703700  0.137900  0.153400  1.0  0.391
  C  C44  1  0.655300  0.051300  0.320400  1.0  -0.0393
  C  C45  1  0.591900  0.998900  0.300400  1.0  0.0209
  C  C46  1  0.503200  0.903400  0.364600  1.0  0.7766
  C  C47  1  0.661500  0.031000  0.415900  1.0  0.7751
  C  C48  1  0.900400  0.090300  0.155300  1.0  0.4309
  C  C49  1  0.932600  0.054900  0.284700  1.0  0.008
  C  C50  1  0.942500  0.987800  0.257500  1.0  0.034
  C  C51  1  0.964800  0.898900  0.302700  1.0  0.7328
  C  C52  1  0.947300  0.073400  0.356500  1.0  0.7483
  C  C53  1  0.791300  0.434200  0.862100  1.0  0.3907
  C  C54  1  0.871700  0.396000  0.948700  1.0  -0.0393
  C  C55  1  0.799300  0.407000  0.001100  1.0  0.0257
  C  C56  1  0.768000  0.400200  0.096600  1.0  0.7882
  C  C57  1  0.946900  0.369500  0.969000  1.0  0.7647
  C  C58  1  0.745600  0.189900  0.909700  1.0  0.4317
  C  C59  1  0.839600  0.122300  0.945100  1.0  0.0089
  C  C60  1  0.745300  0.045300  0.012200  1.0  0.0364
  C  C61  1  0.701600  0.934100  0.101100  1.0  0.7304
  C  C62  1  0.929900  0.126100  0.926600  1.0  0.7459
  C  C63  1  0.708700  0.846600  0.357100  1.0  0.3901
  C  C64  1  0.628300  0.679600  0.475700  1.0  -0.0403
  C  C65  1  0.700700  0.699600  0.392300  1.0  0.0251
  C  C66  1  0.732000  0.635400  0.367800  1.0  0.7785
  C  C67  1  0.553100  0.584100  0.577400  1.0  0.7654
  C  C68  1  0.754400  0.844700  0.555700  1.0  0.4295
  C  C69  1  0.660400  0.715300  0.717300  1.0  0.0077
  C  C70  1  0.754700  0.742500  0.700000  1.0  0.0374
  C  C71  1  0.798400  0.697300  0.767500  1.0  0.7389
  C  C72  1  0.570100  0.643500  0.803800  1.0  0.7485
  C  C73  1  0.203700  0.357100  0.434200  1.0  0.3903
  C  C74  1  0.155300  0.475700  0.396000  1.0  -0.0399
  C  C75  1  0.091900  0.392300  0.407000  1.0  0.021
  C  C76  1  0.003200  0.367800  0.400200  1.0  0.7751
  C  C77  1  0.161500  0.577400  0.369500  1.0  0.7699
  C  C78  1  0.400400  0.555700  0.189900  1.0  0.4289
  C  C79  1  0.432600  0.717300  0.122300  1.0  0.0097
  C  C80  1  0.442500  0.700000  0.045300  1.0  0.035
  C  C81  1  0.464800  0.767500  0.934100  1.0  0.7323
  C  C82  1  0.447300  0.803800  0.126100  1.0  0.7473
  C  C83  1  0.296300  0.862100  0.846600  1.0  0.3907
  C  C84  1  0.344700  0.948700  0.679600  1.0  -0.0403
  C  C85  1  0.408100  0.001100  0.699600  1.0  0.0214
  C  C86  1  0.496800  0.096600  0.635400  1.0  0.7772
  C  C87  1  0.338500  0.969000  0.584100  1.0  0.7759
  C  C88  1  0.099600  0.909700  0.844700  1.0  0.4303
  C  C89  1  0.067400  0.945100  0.715300  1.0  0.0082
  C  C90  1  0.057500  0.012200  0.742500  1.0  0.0327
  C  C91  1  0.035200  0.101100  0.697300  1.0  0.7337
  C  C92  1  0.052700  0.926600  0.643500  1.0  0.7484
  C  C93  1  0.208700  0.565800  0.137900  1.0  0.3905
  C  C94  1  0.128300  0.604000  0.051300  1.0  -0.0402
  C  C95  1  0.200700  0.593000  0.998900  1.0  0.0252
  C  C96  1  0.232000  0.599800  0.903400  1.0  0.7877
  C  C97  1  0.053100  0.630500  0.031000  1.0  0.7675
  C  C98  1  0.254400  0.810100  0.090300  1.0  0.4315
  C  C99  1  0.160400  0.877700  0.054900  1.0  0.0083
  C  C100  1  0.254700  0.954700  0.987800  1.0  0.0344
  C  C101  1  0.298400  0.065900  0.898900  1.0  0.7292
  C  C102  1  0.070100  0.873900  0.073400  1.0  0.7457
  C  C103  1  0.291300  0.153400  0.642900  1.0  0.3909
  C  C104  1  0.371700  0.320400  0.524300  1.0  -0.0392
  C  C105  1  0.299300  0.300400  0.607700  1.0  0.0254
  C  C106  1  0.268000  0.364600  0.632200  1.0  0.7773
  C  C107  1  0.446900  0.415900  0.422600  1.0  0.7658
  C  C108  1  0.245600  0.155300  0.444300  1.0  0.429
  C  C109  1  0.339600  0.284700  0.282700  1.0  0.0068
  C  C110  1  0.245300  0.257500  0.300000  1.0  0.0366
  C  C111  1  0.201600  0.302700  0.232500  1.0  0.7365
  C  C112  1  0.429900  0.356500  0.196200  1.0  0.7467
  N  N113  1  0.875400  0.679800  0.569400  1.0  -0.5615
  N  N114  1  0.773700  0.548900  0.586400  1.0  -0.602
  N  N115  1  0.596600  0.379900  0.783700  1.0  -0.6094
  N  N116  1  0.578400  0.402700  0.909100  1.0  -0.5991
  N  N117  1  0.624600  0.055200  0.195600  1.0  -0.5584
  N  N118  1  0.726300  0.139900  0.224800  1.0  -0.6062
  N  N119  1  0.903400  0.119700  0.216700  1.0  -0.6088
  N  N120  1  0.921600  0.012500  0.175700  1.0  -0.6004
  N  N121  1  0.750800  0.430600  0.944800  1.0  -0.5633
  N  N122  1  0.864700  0.413600  0.860100  1.0  -0.6059
  N  N123  1  0.836400  0.216300  0.880300  1.0  -0.6102
  N  N124  1  0.688200  0.090900  0.987500  1.0  -0.599
  N  N125  1  0.749200  0.804400  0.320200  1.0  -0.5645
  N  N126  1  0.635300  0.775200  0.451100  1.0  -0.6019
  N  N127  1  0.663600  0.783300  0.620100  1.0  -0.6064
  N  N128  1  0.811800  0.824300  0.597300  1.0  -0.5986
  N  N129  1  0.124600  0.320200  0.430600  1.0  -0.559
  N  N130  1  0.226300  0.451100  0.413600  1.0  -0.6025
  N  N131  1  0.403400  0.620100  0.216300  1.0  -0.6094
  N  N132  1  0.421600  0.597300  0.090900  1.0  -0.5998
  N  N133  1  0.375400  0.944800  0.804400  1.0  -0.5618
  N  N134  1  0.273700  0.860100  0.775200  1.0  -0.6059
  N  N135  1  0.096600  0.880300  0.783300  1.0  -0.609
  N  N136  1  0.078400  0.987500  0.824300  1.0  -0.5994
  N  N137  1  0.249200  0.569400  0.055200  1.0  -0.565
  N  N138  1  0.135300  0.586400  0.139900  1.0  -0.6024
  N  N139  1  0.163600  0.783700  0.119700  1.0  -0.61
  N  N140  1  0.311800  0.909100  0.012500  1.0  -0.5976
  N  N141  1  0.250800  0.195600  0.679800  1.0  -0.5629
  N  N142  1  0.364700  0.224800  0.548900  1.0  -0.6057
  N  N143  1  0.336400  0.216700  0.379900  1.0  -0.6087
  N  N144  1  0.188200  0.175700  0.402700  1.0  -0.6004
  O  O145  1  0.042300  0.725200  0.566700  1.0  -0.7278
  O  O146  1  0.027300  0.565600  0.633300  1.0  -0.8039
  O  O147  1  0.892500  0.389800  0.663500  1.0  -0.759
  O  O148  1  0.771800  0.370100  0.628300  1.0  -0.708
  O  O149  1  0.546800  0.280300  0.106700  1.0  -0.6863
  O  O150  1  0.503800  0.134400  0.114800  1.0  -0.751
  O  O151  1  0.516100  0.101400  0.956900  1.0  -0.853
  O  O152  1  0.573200  0.212000  0.786600  1.0  -0.7899
  O  O153  1  0.457700  0.891000  0.317100  1.0  -0.7362
  O  O154  1  0.472700  0.839400  0.461700  1.0  -0.8045
  O  O155  1  0.607500  0.944000  0.502700  1.0  -0.7619
  O  O156  1  0.728200  0.099900  0.401700  1.0  -0.7104
  O  O157  1  0.953200  0.846500  0.266500  1.0  -0.6856
  O  O158  1  0.996200  0.881400  0.369400  1.0  -0.7511
  O  O159  1  0.983900  0.027000  0.414700  1.0  -0.8524
  O  O160  1  0.926800  0.140200  0.361200  1.0  -0.7882
  O  O161  1  0.708100  0.433300  0.109000  1.0  -0.7364
  O  O162  1  0.801100  0.366700  0.160600  1.0  -0.809
  O  O163  1  0.946700  0.336500  0.056000  1.0  -0.7561
  O  O164  1  0.001600  0.371700  0.900100  1.0  -0.7035
  O  O165  1  0.613000  0.893300  0.153500  1.0  -0.6825
  O  O166  1  0.750800  0.885200  0.118600  1.0  -0.751
  O  O167  1  0.941700  0.043100  0.973000  1.0  -0.8513
  O  O168  1  0.001400  0.213400  0.859800  1.0  -0.7856
  O  O169  1  0.791900  0.682900  0.274800  1.0  -0.7378
  O  O170  1  0.698900  0.538300  0.434400  1.0  -0.8085
  O  O171  1  0.553300  0.497300  0.610200  1.0  -0.7575
  O  O172  1  0.498400  0.598300  0.629900  1.0  -0.7049
  O  O173  1  0.887000  0.733500  0.719700  1.0  -0.6852
  O  O174  1  0.749200  0.630600  0.865600  1.0  -0.7508
  O  O175  1  0.558300  0.585300  0.898600  1.0  -0.8563
  O  O176  1  0.498600  0.638800  0.788000  1.0  -0.787
  O  O177  1  0.957700  0.274800  0.433300  1.0  -0.732
  O  O178  1  0.972700  0.434400  0.366700  1.0  -0.8027
  O  O179  1  0.107500  0.610200  0.336500  1.0  -0.7588
  O  O180  1  0.228200  0.629900  0.371700  1.0  -0.7097
  O  O181  1  0.453200  0.719700  0.893300  1.0  -0.6857
  O  O182  1  0.496200  0.865600  0.885200  1.0  -0.7471
  O  O183  1  0.483900  0.898600  0.043100  1.0  -0.8521
  O  O184  1  0.426800  0.788000  0.213400  1.0  -0.7918
  O  O185  1  0.542300  0.109000  0.682900  1.0  -0.7328
  O  O186  1  0.527300  0.160600  0.538300  1.0  -0.8085
  O  O187  1  0.392500  0.056000  0.497300  1.0  -0.7611
  O  O188  1  0.271800  0.900100  0.598300  1.0  -0.708
  O  O189  1  0.046800  0.153500  0.733500  1.0  -0.6847
  O  O190  1  0.003800  0.118600  0.630600  1.0  -0.7514
  O  O191  1  0.016100  0.973000  0.585300  1.0  -0.8533
  O  O192  1  0.073200  0.859800  0.638800  1.0  -0.7881
  O  O193  1  0.291900  0.566700  0.891000  1.0  -0.7342
  O  O194  1  0.198900  0.633300  0.839400  1.0  -0.8109
  O  O195  1  0.053300  0.663500  0.944000  1.0  -0.7578
  O  O196  1  0.998400  0.628300  0.099900  1.0  -0.704
  O  O197  1  0.387000  0.106700  0.846500  1.0  -0.6823
  O  O198  1  0.249200  0.114800  0.881400  1.0  -0.7508
  O  O199  1  0.058300  0.956900  0.027000  1.0  -0.8533
  O  O200  1  0.998600  0.786600  0.140200  1.0  -0.785
  O  O201  1  0.208100  0.317100  0.725200  1.0  -0.7393
  O  O202  1  0.301100  0.461700  0.565600  1.0  -0.8062
  O  O203  1  0.446700  0.502700  0.389800  1.0  -0.7562
  O  O204  1  0.501600  0.401700  0.370100  1.0  -0.7038
  O  O205  1  0.113000  0.266500  0.280300  1.0  -0.6851
  O  O206  1  0.250800  0.369400  0.134400  1.0  -0.7507
  O  O207  1  0.441700  0.414700  0.101400  1.0  -0.8555
  O  O208  1  0.501400  0.361200  0.212000  1.0  -0.787
