# generated using pymatgen
data_TbHC5(NO2)2
_symmetry_space_group_name_H-M   'P 1'
_cell_length_a   16.02300000
_cell_length_b   16.38330000
_cell_length_c   16.38330000
_cell_angle_alpha   76.16510000
_cell_angle_beta   60.72490000
_cell_angle_gamma   60.72480000
_symmetry_Int_Tables_number   1
_chemical_formula_structural   TbHC5(NO2)2
_chemical_formula_sum   'Tb16 H16 C80 N32 O64'
_cell_volume   3272.35089233
_cell_formula_units_Z   16
loop_
 _symmetry_equiv_pos_site_id
 _symmetry_equiv_pos_as_xyz
  1  'x, y, z'
loop_
 _atom_site_type_symbol
 _atom_site_label
 _atom_site_symmetry_multiplicity
 _atom_site_fract_x
 _atom_site_fract_y
 _atom_site_fract_z
 _atom_site_occupancy
 _atom_site_charge
  Tb  Tb1  1  0.236730  0.879670  0.466650  1.0  2.2306
  Tb  Tb2  1  0.511850  0.524690  0.113090  1.0  2.2444
  Tb  Tb3  1  0.083050  0.620330  0.033350  1.0  2.2337
  Tb  Tb4  1  0.649630  0.975310  0.386910  1.0  2.2452
  Tb  Tb5  1  0.703380  0.533350  0.379670  1.0  2.2408
  Tb  Tb6  1  0.624940  0.886910  0.024690  1.0  2.2433
  Tb  Tb7  1  0.116400  0.966650  0.120330  1.0  2.2397
  Tb  Tb8  1  0.036540  0.613090  0.475310  1.0  2.2453
  Tb  Tb9  1  0.763270  0.120330  0.533350  1.0  2.2295
  Tb  Tb10  1  0.488150  0.475310  0.886910  1.0  2.245
  Tb  Tb11  1  0.916950  0.379670  0.966650  1.0  2.2339
  Tb  Tb12  1  0.350370  0.024690  0.613090  1.0  2.2446
  Tb  Tb13  1  0.296620  0.466650  0.620330  1.0  2.2381
  Tb  Tb14  1  0.375060  0.113090  0.975310  1.0  2.2438
  Tb  Tb15  1  0.883600  0.033350  0.879670  1.0  2.2413
  Tb  Tb16  1  0.963460  0.386910  0.524690  1.0  2.2433
  H  H17  1  0.308200  0.752800  0.246000  1.0  0.0399
  H  H18  1  0.361800  0.900600  0.219000  1.0  0.0372
  H  H19  1  0.807000  0.747200  0.254000  1.0  0.0413
  H  H20  1  0.981400  0.599400  0.281000  1.0  0.035
  H  H21  1  0.554200  0.754000  0.252800  1.0  0.0411
  H  H22  1  0.580800  0.781000  0.400600  1.0  0.039
  H  H23  1  0.061000  0.746000  0.247200  1.0  0.0404
  H  H24  1  0.262400  0.719000  0.099400  1.0  0.0373
  H  H25  1  0.691800  0.247200  0.754000  1.0  0.0407
  H  H26  1  0.638200  0.099400  0.781000  1.0  0.0383
  H  H27  1  0.193000  0.252800  0.746000  1.0  0.0413
  H  H28  1  0.018600  0.400600  0.719000  1.0  0.0366
  H  H29  1  0.445800  0.246000  0.747200  1.0  0.0416
  H  H30  1  0.419200  0.219000  0.599400  1.0  0.0381
  H  H31  1  0.939000  0.254000  0.752800  1.0  0.0412
  H  H32  1  0.737600  0.281000  0.900600  1.0  0.0373
  C  C33  1  0.354000  0.716500  0.273700  1.0  0.3456
  C  C34  1  0.425600  0.671700  0.367500  1.0  0.0203
  C  C35  1  0.485300  0.606400  0.296200  1.0  0.0073
  C  C36  1  0.579500  0.516300  0.274500  1.0  0.7155
  C  C37  1  0.437200  0.678600  0.447600  1.0  0.7203
  C  C38  1  0.395700  0.915400  0.241800  1.0  0.3772
  C  C39  1  0.436900  0.943000  0.335800  1.0  0.0491
  C  C40  1  0.504900  0.951100  0.246700  1.0  0.0486
  C  C41  1  0.600800  0.967400  0.203800  1.0  0.7132
  C  C42  1  0.415700  0.953300  0.430300  1.0  0.6636
  C  C43  1  0.844200  0.783500  0.226300  1.0  0.3459
  C  C44  1  0.964800  0.828300  0.132500  1.0  0.022
  C  C45  1  0.887900  0.893600  0.203800  1.0  0.0054
  C  C46  1  0.870300  0.983700  0.225500  1.0  0.7148
  C  C47  1  0.063400  0.821400  0.052400  1.0  0.7102
  C  C48  1  0.052900  0.584600  0.258200  1.0  0.3775
  C  C49  1  0.215700  0.557000  0.164200  1.0  0.0511
  C  C50  1  0.202700  0.548900  0.253300  1.0  0.0467
  C  C51  1  0.272000  0.532600  0.296200  1.0  0.7149
  C  C52  1  0.299300  0.546700  0.069700  1.0  0.6641
  C  C53  1  0.627700  0.726300  0.216500  1.0  0.3452
  C  C54  1  0.793100  0.632500  0.171700  1.0  0.0207
  C  C55  1  0.781500  0.703800  0.106400  1.0  0.0078
  C  C56  1  0.854000  0.725500  0.016300  1.0  0.7195
  C  C57  1  0.884800  0.552400  0.178600  1.0  0.7116
  C  C58  1  0.637500  0.758200  0.415400  1.0  0.3783
  C  C59  1  0.772700  0.664200  0.443000  1.0  0.0491
  C  C60  1  0.751600  0.753300  0.451100  1.0  0.0497
  C  C61  1  0.804600  0.796200  0.467400  1.0  0.7232
  C  C62  1  0.846000  0.569700  0.453300  1.0  0.6645
  C  C63  1  0.070500  0.773700  0.283500  1.0  0.3462
  C  C64  1  0.097300  0.867500  0.328300  1.0  0.0227
  C  C65  1  0.091700  0.796200  0.393600  1.0  0.0071
  C  C66  1  0.095800  0.774500  0.483700  1.0  0.7259
  C  C67  1  0.115800  0.947600  0.321400  1.0  0.7141
  C  C68  1  0.311100  0.741800  0.084600  1.0  0.3799
  C  C69  1  0.379900  0.835800  0.057000  1.0  0.0508
  C  C70  1  0.456000  0.746700  0.048900  1.0  0.0494
  C  C71  1  0.568200  0.703800  0.032600  1.0  0.7168
  C  C72  1  0.369000  0.930300  0.046700  1.0  0.6646
  C  C73  1  0.646000  0.283500  0.726300  1.0  0.344
  C  C74  1  0.574400  0.328300  0.632500  1.0  0.0208
  C  C75  1  0.514700  0.393600  0.703800  1.0  0.0062
  C  C76  1  0.420500  0.483700  0.725500  1.0  0.7152
  C  C77  1  0.562800  0.321400  0.552400  1.0  0.7191
  C  C78  1  0.604300  0.084600  0.758200  1.0  0.3771
  C  C79  1  0.563100  0.057000  0.664200  1.0  0.0501
  C  C80  1  0.495100  0.048900  0.753300  1.0  0.0476
  C  C81  1  0.399200  0.032600  0.796200  1.0  0.7154
  C  C82  1  0.584300  0.046700  0.569700  1.0  0.6637
  C  C83  1  0.155800  0.216500  0.773700  1.0  0.3459
  C  C84  1  0.035200  0.171700  0.867500  1.0  0.0211
  C  C85  1  0.112100  0.106400  0.796200  1.0  0.0062
  C  C86  1  0.129700  0.016300  0.774500  1.0  0.7162
  C  C87  1  0.936600  0.178600  0.947600  1.0  0.7134
  C  C88  1  0.947100  0.415400  0.741800  1.0  0.3775
  C  C89  1  0.784300  0.443000  0.835800  1.0  0.0508
  C  C90  1  0.797300  0.451100  0.746700  1.0  0.0472
  C  C91  1  0.728000  0.467400  0.703800  1.0  0.7131
  C  C92  1  0.700700  0.453300  0.930300  1.0  0.6648
  C  C93  1  0.372300  0.273700  0.783500  1.0  0.3444
  C  C94  1  0.206900  0.367500  0.828300  1.0  0.0216
  C  C95  1  0.218500  0.296200  0.893600  1.0  0.007
  C  C96  1  0.146000  0.274500  0.983700  1.0  0.7143
  C  C97  1  0.115200  0.447600  0.821400  1.0  0.7119
  C  C98  1  0.362500  0.241800  0.584600  1.0  0.3778
  C  C99  1  0.227300  0.335800  0.557000  1.0  0.0503
  C  C100  1  0.248400  0.246700  0.548900  1.0  0.0495
  C  C101  1  0.195400  0.203800  0.532600  1.0  0.7212
  C  C102  1  0.154000  0.430300  0.546700  1.0  0.6645
  C  C103  1  0.929500  0.226300  0.716500  1.0  0.3442
  C  C104  1  0.902700  0.132500  0.671700  1.0  0.0219
  C  C105  1  0.908300  0.203800  0.606400  1.0  0.0079
  C  C106  1  0.904200  0.225500  0.516300  1.0  0.7284
  C  C107  1  0.884200  0.052400  0.678600  1.0  0.7126
  C  C108  1  0.688900  0.258200  0.915400  1.0  0.3801
  C  C109  1  0.620100  0.164200  0.943000  1.0  0.0497
  C  C110  1  0.544000  0.253300  0.951100  1.0  0.0494
  C  C111  1  0.431800  0.296200  0.967400  1.0  0.7182
  C  C112  1  0.631000  0.069700  0.953300  1.0  0.6654
  N  N113  1  0.437900  0.634000  0.237200  1.0  -0.5938
  N  N114  1  0.339900  0.743700  0.352700  1.0  -0.598
  N  N115  1  0.364800  0.920500  0.331500  1.0  -0.5948
  N  N116  1  0.479700  0.932800  0.185400  1.0  -0.6522
  N  N117  1  0.809100  0.866000  0.262800  1.0  -0.5974
  N  N118  1  0.936300  0.756300  0.147300  1.0  -0.599
  N  N119  1  0.116800  0.579500  0.168500  1.0  -0.591
  N  N120  1  0.097900  0.567200  0.314600  1.0  -0.6502
  N  N121  1  0.675100  0.762800  0.134000  1.0  -0.5946
  N  N122  1  0.692600  0.647300  0.243700  1.0  -0.5996
  N  N123  1  0.696300  0.668500  0.420500  1.0  -0.5932
  N  N124  1  0.665100  0.814600  0.432800  1.0  -0.6527
  N  N125  1  0.071900  0.737200  0.366000  1.0  -0.5957
  N  N126  1  0.083600  0.852700  0.256300  1.0  -0.6021
  N  N127  1  0.285300  0.831500  0.079500  1.0  -0.5936
  N  N128  1  0.412500  0.685400  0.067200  1.0  -0.6515
  N  N129  1  0.562100  0.366000  0.762800  1.0  -0.5949
  N  N130  1  0.660100  0.256300  0.647300  1.0  -0.5983
  N  N131  1  0.635200  0.079500  0.668500  1.0  -0.5937
  N  N132  1  0.520300  0.067200  0.814600  1.0  -0.6494
  N  N133  1  0.190900  0.134000  0.737200  1.0  -0.5955
  N  N134  1  0.063700  0.243700  0.852700  1.0  -0.5977
  N  N135  1  0.883200  0.420500  0.831500  1.0  -0.5934
  N  N136  1  0.902100  0.432800  0.685400  1.0  -0.6511
  N  N137  1  0.324900  0.237200  0.866000  1.0  -0.5948
  N  N138  1  0.307400  0.352700  0.756300  1.0  -0.6011
  N  N139  1  0.303700  0.331500  0.579500  1.0  -0.5948
  N  N140  1  0.334900  0.185400  0.567200  1.0  -0.652
  N  N141  1  0.928100  0.262800  0.634000  1.0  -0.5946
  N  N142  1  0.916400  0.147300  0.743700  1.0  -0.6007
  N  N143  1  0.714700  0.168500  0.920500  1.0  -0.5926
  N  N144  1  0.587500  0.314600  0.932800  1.0  -0.6516
  O  O145  1  0.604300  0.470200  0.207200  1.0  -0.7101
  O  O146  1  0.633100  0.482200  0.319600  1.0  -0.758
  O  O147  1  0.520500  0.628300  0.455100  1.0  -0.7111
  O  O148  1  0.357000  0.742700  0.508100  1.0  -0.7229
  O  O149  1  0.655200  0.957000  0.117600  1.0  -0.65
  O  O150  1  0.620200  0.993500  0.256100  1.0  -0.7579
  O  O151  1  0.467300  0.986800  0.445200  1.0  -0.8166
  O  O152  1  0.349000  0.932600  0.498000  1.0  -0.653
  O  O153  1  0.781700  0.029800  0.292800  1.0  -0.7081
  O  O154  1  0.934900  0.017800  0.180400  1.0  -0.7601
  O  O155  1  0.103900  0.871700  0.044900  1.0  -0.7088
  O  O156  1  0.107800  0.757300  0.991900  1.0  -0.7224
  O  O157  1  0.229800  0.543000  0.382400  1.0  -0.6492
  O  O158  1  0.369800  0.506500  0.243900  1.0  -0.7582
  O  O159  1  0.399300  0.513200  0.054800  1.0  -0.8139
  O  O160  1  0.279600  0.567400  0.002000  1.0  -0.6553
  O  O161  1  0.811500  0.792800  0.970200  1.0  -0.7116
  O  O162  1  0.952700  0.680400  0.982200  1.0  -0.7614
  O  O163  1  0.975600  0.544900  0.128300  1.0  -0.7097
  O  O164  1  0.865100  0.491900  0.242700  1.0  -0.7239
  O  O165  1  0.772800  0.882400  0.457000  1.0  -0.6514
  O  O166  1  0.876300  0.743900  0.493500  1.0  -0.7635
  O  O167  1  0.912500  0.554800  0.486800  1.0  -0.8174
  O  O168  1  0.847000  0.502000  0.432600  1.0  -0.6523
  O  O169  1  0.074500  0.707200  0.529800  1.0  -0.7112
  O  O170  1  0.115300  0.819600  0.517800  1.0  -0.765
  O  O171  1  0.148800  0.955100  0.371700  1.0  -0.7117
  O  O172  1  0.099700  0.008100  0.257300  1.0  -0.7238
  O  O173  1  0.612200  0.617600  0.043000  1.0  -0.6517
  O  O174  1  0.613700  0.756100  0.006500  1.0  -0.759
  O  O175  1  0.454100  0.945200  0.013200  1.0  -0.8133
  O  O176  1  0.281600  0.998000  0.067400  1.0  -0.6524
  O  O177  1  0.395700  0.529800  0.792800  1.0  -0.708
  O  O178  1  0.366900  0.517800  0.680400  1.0  -0.7584
  O  O179  1  0.479500  0.371700  0.544900  1.0  -0.712
  O  O180  1  0.643000  0.257300  0.491900  1.0  -0.7223
  O  O181  1  0.344800  0.043000  0.882400  1.0  -0.648
  O  O182  1  0.379800  0.006500  0.743900  1.0  -0.7576
  O  O183  1  0.532700  0.013200  0.554800  1.0  -0.8171
  O  O184  1  0.651000  0.067400  0.502000  1.0  -0.6532
  O  O185  1  0.218300  0.970200  0.707200  1.0  -0.709
  O  O186  1  0.065100  0.982200  0.819600  1.0  -0.7592
  O  O187  1  0.896100  0.128300  0.955100  1.0  -0.7084
  O  O188  1  0.892200  0.242700  0.008100  1.0  -0.7229
  O  O189  1  0.770200  0.457000  0.617600  1.0  -0.651
  O  O190  1  0.630200  0.493500  0.756100  1.0  -0.7567
  O  O191  1  0.600700  0.486800  0.945200  1.0  -0.8152
  O  O192  1  0.720400  0.432600  0.998000  1.0  -0.6546
  O  O193  1  0.188500  0.207200  0.029800  1.0  -0.7148
  O  O194  1  0.047300  0.319600  0.017800  1.0  -0.7603
  O  O195  1  0.024400  0.455100  0.871700  1.0  -0.7101
  O  O196  1  0.134900  0.508100  0.757300  1.0  -0.7233
  O  O197  1  0.227200  0.117600  0.543000  1.0  -0.6507
  O  O198  1  0.123700  0.256100  0.506500  1.0  -0.763
  O  O199  1  0.087500  0.445200  0.513200  1.0  -0.8212
  O  O200  1  0.153000  0.498000  0.567400  1.0  -0.653
  O  O201  1  0.925500  0.292800  0.470200  1.0  -0.7094
  O  O202  1  0.884700  0.180400  0.482200  1.0  -0.764
  O  O203  1  0.851200  0.044900  0.628300  1.0  -0.7117
  O  O204  1  0.900300  0.991900  0.742700  1.0  -0.7236
  O  O205  1  0.387800  0.382400  0.957000  1.0  -0.6518
  O  O206  1  0.386300  0.243900  0.993500  1.0  -0.7571
  O  O207  1  0.545900  0.054800  0.986800  1.0  -0.815
  O  O208  1  0.718400  0.002000  0.932600  1.0  -0.6519
