# generated using pymatgen
data_GdHC5(NO2)2
_symmetry_space_group_name_H-M   'P 1'
_cell_length_a   16.11590000
_cell_length_b   16.44220000
_cell_length_c   16.44220000
_cell_angle_alpha   76.10300000
_cell_angle_beta   60.65420000
_cell_angle_gamma   60.65430000
_symmetry_Int_Tables_number   1
_chemical_formula_structural   GdHC5(NO2)2
_chemical_formula_sum   'Gd16 H16 C80 N32 O64'
_cell_volume   3310.44833855
_cell_formula_units_Z   16
loop_
 _symmetry_equiv_pos_site_id
 _symmetry_equiv_pos_as_xyz
  1  'x, y, z'
loop_
 _atom_site_type_symbol
 _atom_site_label
 _atom_site_symmetry_multiplicity
 _atom_site_fract_x
 _atom_site_fract_y
 _atom_site_fract_z
 _atom_site_occupancy
 _atom_site_charge
  Gd  Gd1  1  0.915480  0.968070  0.379230  1.0  2.1907
  Gd  Gd2  1  0.350390  0.613370  0.023670  1.0  2.184
  Gd  Gd3  1  0.762780  0.531930  0.120770  1.0  2.1896
  Gd  Gd4  1  0.487430  0.886630  0.476330  1.0  2.1847
  Gd  Gd5  1  0.294710  0.620770  0.468070  1.0  2.1861
  Gd  Gd6  1  0.374060  0.976330  0.113370  1.0  2.1857
  Gd  Gd7  1  0.883550  0.879230  0.031930  1.0  2.1814
  Gd  Gd8  1  0.963760  0.523670  0.386630  1.0  2.1865
  Gd  Gd9  1  0.084520  0.031930  0.620770  1.0  2.1897
  Gd  Gd10  1  0.649610  0.386630  0.976330  1.0  2.1844
  Gd  Gd11  1  0.237220  0.468070  0.879230  1.0  2.1908
  Gd  Gd12  1  0.512570  0.113370  0.523670  1.0  2.186
  Gd  Gd13  1  0.705290  0.379230  0.531930  1.0  2.1848
  Gd  Gd14  1  0.625940  0.023670  0.886630  1.0  2.1868
  Gd  Gd15  1  0.116450  0.120770  0.968070  1.0  2.1835
  Gd  Gd16  1  0.036240  0.476330  0.613370  1.0  2.1858
  H  H17  1  0.192000  0.746000  0.260000  1.0  0.0936
  H  H18  1  0.017000  0.722000  0.394000  1.0  0.1149
  H  H19  1  0.698000  0.754000  0.240000  1.0  0.0934
  H  H20  1  0.633000  0.778000  0.106000  1.0  0.1146
  H  H21  1  0.452000  0.740000  0.246000  1.0  0.0963
  H  H22  1  0.411000  0.606000  0.222000  1.0  0.1151
  H  H23  1  0.938000  0.760000  0.254000  1.0  0.0956
  H  H24  1  0.739000  0.894000  0.278000  1.0  0.1133
  H  H25  1  0.808000  0.254000  0.740000  1.0  0.0928
  H  H26  1  0.983000  0.278000  0.606000  1.0  0.1152
  H  H27  1  0.302000  0.246000  0.760000  1.0  0.0947
  H  H28  1  0.367000  0.222000  0.894000  1.0  0.1145
  H  H29  1  0.548000  0.260000  0.754000  1.0  0.0961
  H  H30  1  0.589000  0.394000  0.778000  1.0  0.1145
  H  H31  1  0.062000  0.240000  0.746000  1.0  0.0961
  H  H32  1  0.261000  0.106000  0.722000  1.0  0.1143
  C  C33  1  0.153300  0.777300  0.217300  1.0  0.2301
  C  C34  1  0.034500  0.868700  0.171100  1.0  0.0132
  C  C35  1  0.111900  0.796900  0.105500  1.0  0.0233
  C  C36  1  0.129800  0.776400  0.015400  1.0  0.7625
  C  C37  1  0.934900  0.947700  0.178900  1.0  0.743
  C  C38  1  0.946400  0.741500  0.413900  1.0  0.325
  C  C39  1  0.785400  0.836600  0.442200  1.0  0.0249
  C  C40  1  0.797700  0.745800  0.450200  1.0  0.0347
  C  C41  1  0.726800  0.705800  0.467600  1.0  0.7731
  C  C42  1  0.697900  0.930800  0.453600  1.0  0.7287
  C  C43  1  0.647900  0.722700  0.282700  1.0  0.2294
  C  C44  1  0.574300  0.631300  0.328900  1.0  0.0121
  C  C45  1  0.514300  0.703100  0.394500  1.0  0.0252
  C  C46  1  0.421600  0.723600  0.484600  1.0  0.7522
  C  C47  1  0.561500  0.552300  0.321100  1.0  0.7435
  C  C48  1  0.601800  0.758500  0.086100  1.0  0.3214
  C  C49  1  0.564200  0.663400  0.057800  1.0  0.0258
  C  C50  1  0.493700  0.754200  0.049800  1.0  0.0331
  C  C51  1  0.400200  0.794200  0.032400  1.0  0.7761
  C  C52  1  0.582300  0.569200  0.046400  1.0  0.728
  C  C53  1  0.370600  0.782700  0.277300  1.0  0.2299
  C  C54  1  0.205600  0.828900  0.368700  1.0  0.0127
  C  C55  1  0.217400  0.894500  0.296900  1.0  0.0223
  C  C56  1  0.145200  0.984600  0.276400  1.0  0.754
  C  C57  1  0.113800  0.821100  0.447700  1.0  0.7428
  C  C58  1  0.360300  0.586100  0.241500  1.0  0.3206
  C  C59  1  0.227600  0.557800  0.336600  1.0  0.0252
  C  C60  1  0.247900  0.549800  0.245800  1.0  0.0316
  C  C61  1  0.194400  0.532400  0.205800  1.0  0.7715
  C  C62  1  0.151500  0.546400  0.430800  1.0  0.7288
  C  C63  1  0.930600  0.717300  0.222700  1.0  0.2294
  C  C64  1  0.903200  0.671100  0.131300  1.0  0.0111
  C  C65  1  0.908800  0.605500  0.203100  1.0  0.0233
  C  C66  1  0.906200  0.515400  0.223600  1.0  0.7533
  C  C67  1  0.882600  0.678900  0.052300  1.0  0.7525
  C  C68  1  0.687900  0.913900  0.258500  1.0  0.3207
  C  C69  1  0.622000  0.942200  0.163400  1.0  0.0256
  C  C70  1  0.543500  0.950200  0.254200  1.0  0.0308
  C  C71  1  0.432600  0.967600  0.294200  1.0  0.7702
  C  C72  1  0.628700  0.953600  0.069200  1.0  0.7287
  C  C73  1  0.846700  0.222700  0.782700  1.0  0.2295
  C  C74  1  0.965500  0.131300  0.828900  1.0  0.0119
  C  C75  1  0.888100  0.203100  0.894500  1.0  0.0258
  C  C76  1  0.870200  0.223600  0.984600  1.0  0.7624
  C  C77  1  0.065100  0.052300  0.821100  1.0  0.7422
  C  C78  1  0.053600  0.258500  0.586100  1.0  0.3258
  C  C79  1  0.214600  0.163400  0.557800  1.0  0.0253
  C  C80  1  0.202300  0.254200  0.549800  1.0  0.0331
  C  C81  1  0.273200  0.294200  0.532400  1.0  0.7714
  C  C82  1  0.302100  0.069200  0.546400  1.0  0.7284
  C  C83  1  0.352100  0.277300  0.717300  1.0  0.2291
  C  C84  1  0.425700  0.368700  0.671100  1.0  0.0129
  C  C85  1  0.485700  0.296900  0.605500  1.0  0.0232
  C  C86  1  0.578400  0.276400  0.515400  1.0  0.7555
  C  C87  1  0.438500  0.447700  0.678900  1.0  0.7429
  C  C88  1  0.398200  0.241500  0.913900  1.0  0.3232
  C  C89  1  0.435800  0.336600  0.942200  1.0  0.0256
  C  C90  1  0.506300  0.245800  0.950200  1.0  0.0347
  C  C91  1  0.599800  0.205800  0.967600  1.0  0.7778
  C  C92  1  0.417700  0.430800  0.953600  1.0  0.7282
  C  C93  1  0.629400  0.217300  0.722700  1.0  0.2279
  C  C94  1  0.794400  0.171100  0.631300  1.0  0.0129
  C  C95  1  0.782600  0.105500  0.703100  1.0  0.0225
  C  C96  1  0.854800  0.015400  0.723600  1.0  0.7543
  C  C97  1  0.886200  0.178900  0.552300  1.0  0.7407
  C  C98  1  0.639700  0.413900  0.758500  1.0  0.322
  C  C99  1  0.772400  0.442200  0.663400  1.0  0.0266
  C  C100  1  0.752100  0.450200  0.754200  1.0  0.0315
  C  C101  1  0.805600  0.467600  0.794200  1.0  0.7683
  C  C102  1  0.848500  0.453600  0.569200  1.0  0.7286
  C  C103  1  0.069400  0.282700  0.777300  1.0  0.2293
  C  C104  1  0.096800  0.328900  0.868700  1.0  0.0114
  C  C105  1  0.091200  0.394500  0.796900  1.0  0.0239
  C  C106  1  0.093800  0.484600  0.776400  1.0  0.7524
  C  C107  1  0.117400  0.321100  0.947700  1.0  0.7548
  C  C108  1  0.312100  0.086100  0.741500  1.0  0.3207
  C  C109  1  0.378000  0.057800  0.836600  1.0  0.0247
  C  C110  1  0.456500  0.049800  0.745800  1.0  0.0322
  C  C111  1  0.567400  0.032400  0.705800  1.0  0.7698
  C  C112  1  0.371300  0.046400  0.930800  1.0  0.7296
  N  N113  1  0.187700  0.739400  0.136000  1.0  -0.5429
  N  N114  1  0.062400  0.854600  0.242000  1.0  -0.5678
  N  N115  1  0.882500  0.832900  0.417500  1.0  -0.6297
  N  N116  1  0.900800  0.685900  0.431700  1.0  -0.6053
  N  N117  1  0.563100  0.760600  0.364000  1.0  -0.5446
  N  N118  1  0.659000  0.645400  0.258000  1.0  -0.5679
  N  N119  1  0.632900  0.667100  0.082500  1.0  -0.6291
  N  N120  1  0.518400  0.814100  0.068300  1.0  -0.6072
  N  N121  1  0.323700  0.864000  0.239400  1.0  -0.5471
  N  N122  1  0.304400  0.758000  0.354600  1.0  -0.5683
  N  N123  1  0.300000  0.582500  0.332900  1.0  -0.6279
  N  N124  1  0.332500  0.568300  0.185900  1.0  -0.6025
  N  N125  1  0.927100  0.636000  0.260600  1.0  -0.5435
  N  N126  1  0.917000  0.742000  0.145400  1.0  -0.5683
  N  N127  1  0.715400  0.917500  0.167100  1.0  -0.6319
  N  N128  1  0.586700  0.931700  0.314100  1.0  -0.6051
  N  N129  1  0.812300  0.260600  0.864000  1.0  -0.5438
  N  N130  1  0.937600  0.145400  0.758000  1.0  -0.5684
  N  N131  1  0.117500  0.167100  0.582500  1.0  -0.6301
  N  N132  1  0.099200  0.314100  0.568300  1.0  -0.6069
  N  N133  1  0.436900  0.239400  0.636000  1.0  -0.5456
  N  N134  1  0.341000  0.354600  0.742000  1.0  -0.5683
  N  N135  1  0.367100  0.332900  0.917500  1.0  -0.6292
  N  N136  1  0.481600  0.185900  0.931700  1.0  -0.6056
  N  N137  1  0.676300  0.136000  0.760600  1.0  -0.5452
  N  N138  1  0.695600  0.242000  0.645400  1.0  -0.5691
  N  N139  1  0.700000  0.417500  0.667100  1.0  -0.6296
  N  N140  1  0.667500  0.431700  0.814100  1.0  -0.6046
  N  N141  1  0.072900  0.364000  0.739400  1.0  -0.5456
  N  N142  1  0.083000  0.258000  0.854600  1.0  -0.568
  N  N143  1  0.284600  0.082500  0.832900  1.0  -0.6306
  N  N144  1  0.413300  0.068300  0.685900  1.0  -0.6031
  O  O145  1  0.218600  0.707300  0.969900  1.0  -0.7067
  O  O146  1  0.063700  0.821100  0.982100  1.0  -0.7644
  O  O147  1  0.893600  0.954700  0.128500  1.0  -0.7308
  O  O148  1  0.891900  0.007800  0.240800  1.0  -0.7041
  O  O149  1  0.771100  0.618300  0.457300  1.0  -0.6576
  O  O150  1  0.629600  0.756300  0.494100  1.0  -0.7297
  O  O151  1  0.601700  0.944600  0.485400  1.0  -0.816
  O  O152  1  0.719800  0.999000  0.432000  1.0  -0.7712
  O  O153  1  0.395800  0.792700  0.530100  1.0  -0.7119
  O  O154  1  0.366900  0.678900  0.517900  1.0  -0.7575
  O  O155  1  0.476800  0.545300  0.371500  1.0  -0.728
  O  O156  1  0.640500  0.492200  0.259200  1.0  -0.7052
  O  O157  1  0.346700  0.881700  0.042700  1.0  -0.6593
  O  O158  1  0.380000  0.743700  0.005900  1.0  -0.734
  O  O159  1  0.531700  0.555400  0.014600  1.0  -0.8232
  O  O160  1  0.650800  0.501000  0.068000  1.0  -0.7701
  O  O161  1  0.188500  0.030100  0.207300  1.0  -0.7084
  O  O162  1  0.045800  0.017900  0.321100  1.0  -0.7568
  O  O163  1  0.022100  0.871500  0.454700  1.0  -0.7266
  O  O164  1  0.132700  0.759200  0.507800  1.0  -0.704
  O  O165  1  0.228400  0.542700  0.118300  1.0  -0.6567
  O  O166  1  0.123700  0.505900  0.256300  1.0  -0.7284
  O  O167  1  0.087100  0.514600  0.444600  1.0  -0.8164
  O  O168  1  0.151800  0.568000  0.499000  1.0  -0.7784
  O  O169  1  0.925900  0.469900  0.292700  1.0  -0.7085
  O  O170  1  0.884800  0.482100  0.178900  1.0  -0.7598
  O  O171  1  0.848300  0.628500  0.045300  1.0  -0.7299
  O  O172  1  0.899700  0.740800  0.992200  1.0  -0.7031
  O  O173  1  0.389400  0.957300  0.381700  1.0  -0.6576
  O  O174  1  0.385900  0.994100  0.243700  1.0  -0.7311
  O  O175  1  0.546300  0.985400  0.055400  1.0  -0.8195
  O  O176  1  0.718800  0.932000  0.001000  1.0  -0.773
  O  O177  1  0.781400  0.292700  0.030100  1.0  -0.7076
  O  O178  1  0.936300  0.178900  0.017900  1.0  -0.7637
  O  O179  1  0.106400  0.045300  0.871500  1.0  -0.7302
  O  O180  1  0.108100  0.992200  0.759200  1.0  -0.7056
  O  O181  1  0.228900  0.381700  0.542700  1.0  -0.6588
  O  O182  1  0.370400  0.243700  0.505900  1.0  -0.7313
  O  O183  1  0.398300  0.055400  0.514600  1.0  -0.8159
  O  O184  1  0.280200  0.001000  0.568000  1.0  -0.77
  O  O185  1  0.604200  0.207300  0.469900  1.0  -0.7098
  O  O186  1  0.633100  0.321100  0.482100  1.0  -0.7585
  O  O187  1  0.523200  0.454700  0.628500  1.0  -0.7308
  O  O188  1  0.359500  0.507800  0.740800  1.0  -0.7038
  O  O189  1  0.653300  0.118300  0.957300  1.0  -0.658
  O  O190  1  0.620000  0.256300  0.994100  1.0  -0.7343
  O  O191  1  0.468300  0.444600  0.985400  1.0  -0.8183
  O  O192  1  0.349200  0.499000  0.932000  1.0  -0.7728
  O  O193  1  0.811500  0.969900  0.792700  1.0  -0.707
  O  O194  1  0.954200  0.982100  0.678900  1.0  -0.7575
  O  O195  1  0.977900  0.128500  0.545300  1.0  -0.7254
  O  O196  1  0.867300  0.240800  0.492200  1.0  -0.7031
  O  O197  1  0.771600  0.457300  0.881700  1.0  -0.6601
  O  O198  1  0.876300  0.494100  0.743700  1.0  -0.7313
  O  O199  1  0.912900  0.485400  0.555400  1.0  -0.8183
  O  O200  1  0.848200  0.432000  0.501000  1.0  -0.7767
  O  O201  1  0.074100  0.530100  0.707300  1.0  -0.7096
  O  O202  1  0.115200  0.517900  0.821100  1.0  -0.757
  O  O203  1  0.151700  0.371500  0.954700  1.0  -0.7326
  O  O204  1  0.100300  0.259200  0.007800  1.0  -0.7033
  O  O205  1  0.610600  0.042700  0.618300  1.0  -0.6585
  O  O206  1  0.614100  0.005900  0.756300  1.0  -0.7294
  O  O207  1  0.453700  0.014600  0.944600  1.0  -0.8168
  O  O208  1  0.281200  0.068000  0.999000  1.0  -0.772
