# generated using pymatgen
data_Cd3H30C24(NO7)2
_symmetry_space_group_name_H-M   'P 1'
_cell_length_a   9.57740000
_cell_length_b   9.71820000
_cell_length_c   25.39600000
_cell_angle_alpha   90.00000000
_cell_angle_beta   90.00000000
_cell_angle_gamma   119.52200000
_symmetry_Int_Tables_number   1
_chemical_formula_structural   Cd3H30C24(NO7)2
_chemical_formula_sum   'Cd6 H60 C48 N4 O28'
_cell_volume   2056.84309953
_cell_formula_units_Z   2
loop_
 _symmetry_equiv_pos_site_id
 _symmetry_equiv_pos_as_xyz
  1  'x, y, z'
loop_
 _atom_site_type_symbol
 _atom_site_label
 _atom_site_symmetry_multiplicity
 _atom_site_fract_x
 _atom_site_fract_y
 _atom_site_fract_z
 _atom_site_occupancy
 _atom_site_charge
  Cd  Cd1  1  0.935510  0.828700  0.392110  1.0  1.0185
  Cd  Cd2  1  0.064490  0.171300  0.892110  1.0  1.0183
  Cd  Cd3  1  0.893190  0.828700  0.107890  1.0  1.0189
  Cd  Cd4  1  0.106810  0.171300  0.607890  1.0  1.0183
  Cd  Cd5  1  0.232200  0.000000  0.500000  1.0  1.1023
  Cd  Cd6  1  0.767800  0.000000  0.000000  1.0  1.1031
  H  H7  1  0.190600  0.581000  0.479600  1.0  0.1164
  H  H8  1  0.092800  0.406200  0.382200  1.0  0.0977
  H  H9  1  0.989200  0.353400  0.433800  1.0  0.0976
  H  H10  1  0.175400  0.309800  0.475600  1.0  0.1197
  H  H11  1  0.364300  0.422200  0.380700  1.0  0.123
  H  H12  1  0.416300  0.360400  0.429400  1.0  0.1242
  H  H13  1  0.457900  0.574800  0.476600  1.0  0.1053
  H  H14  1  0.359300  0.679600  0.384500  1.0  0.1399
  H  H15  1  0.411400  0.774200  0.437500  1.0  0.1198
  H  H16  1  0.113300  0.033400  0.286200  1.0  0.0937
  H  H17  1  0.164700  0.904200  0.294800  1.0  0.118
  H  H18  1  0.852600  0.992600  0.299900  1.0  0.1095
  H  H19  1  0.707800  0.822400  0.289700  1.0  0.1207
  H  H20  1  0.898900  0.600400  0.287300  1.0  0.1022
  H  H21  1  0.735100  0.596600  0.296500  1.0  0.098
  H  H22  1  0.809400  0.419000  0.979600  1.0  0.1166
  H  H23  1  0.907200  0.593800  0.882200  1.0  0.0988
  H  H24  1  0.010800  0.646600  0.933800  1.0  0.098
  H  H25  1  0.824600  0.690200  0.975600  1.0  0.1197
  H  H26  1  0.635700  0.577800  0.880700  1.0  0.1242
  H  H27  1  0.583700  0.639600  0.929400  1.0  0.1206
  H  H28  1  0.542100  0.425200  0.976600  1.0  0.105
  H  H29  1  0.640700  0.320400  0.884500  1.0  0.1395
  H  H30  1  0.588600  0.225800  0.937500  1.0  0.1199
  H  H31  1  0.886700  0.966600  0.786200  1.0  0.0932
  H  H32  1  0.835300  0.095800  0.794800  1.0  0.1223
  H  H33  1  0.147400  0.007400  0.799900  1.0  0.1115
  H  H34  1  0.292200  0.177600  0.789700  1.0  0.1203
  H  H35  1  0.101100  0.399600  0.787300  1.0  0.1024
  H  H36  1  0.264900  0.403400  0.796500  1.0  0.0975
  H  H37  1  0.390400  0.581000  0.020400  1.0  0.1177
  H  H38  1  0.313400  0.406200  0.117800  1.0  0.0975
  H  H39  1  0.364200  0.353400  0.066200  1.0  0.0977
  H  H40  1  0.134400  0.309800  0.024400  1.0  0.1195
  H  H41  1  0.057900  0.422200  0.119300  1.0  0.1242
  H  H42  1  0.944100  0.360400  0.070600  1.0  0.1222
  H  H43  1  0.116900  0.574800  0.023400  1.0  0.1055
  H  H44  1  0.320300  0.679600  0.115500  1.0  0.1379
  H  H45  1  0.362800  0.774200  0.062500  1.0  0.12
  H  H46  1  0.920100  0.033400  0.213800  1.0  0.0928
  H  H47  1  0.739500  0.904200  0.205200  1.0  0.1219
  H  H48  1  0.140000  0.992600  0.200100  1.0  0.111
  H  H49  1  0.114600  0.822400  0.210300  1.0  0.1186
  H  H50  1  0.701500  0.600400  0.212700  1.0  0.1035
  H  H51  1  0.861500  0.596600  0.203500  1.0  0.0978
  H  H52  1  0.609600  0.419000  0.520400  1.0  0.1181
  H  H53  1  0.686600  0.593800  0.617800  1.0  0.0977
  H  H54  1  0.635800  0.646600  0.566200  1.0  0.0974
  H  H55  1  0.865600  0.690200  0.524400  1.0  0.1198
  H  H56  1  0.942100  0.577800  0.619300  1.0  0.1235
  H  H57  1  0.055900  0.639600  0.570600  1.0  0.1225
  H  H58  1  0.883100  0.425200  0.523400  1.0  0.1055
  H  H59  1  0.679700  0.320400  0.615500  1.0  0.1379
  H  H60  1  0.637200  0.225800  0.562500  1.0  0.1191
  H  H61  1  0.079900  0.966600  0.713800  1.0  0.0913
  H  H62  1  0.260500  0.095800  0.705200  1.0  0.1185
  H  H63  1  0.860000  0.007400  0.700100  1.0  0.1099
  H  H64  1  0.885400  0.177600  0.710300  1.0  0.1194
  H  H65  1  0.298500  0.399600  0.712700  1.0  0.1018
  H  H66  1  0.138500  0.403400  0.703500  1.0  0.0973
  C  C67  1  0.085200  0.667000  0.422200  1.0  0.5816
  C  C68  1  0.189900  0.583200  0.441000  1.0  -0.1351
  C  C69  1  0.098200  0.406200  0.420300  1.0  -0.1372
  C  C70  1  0.180000  0.319200  0.437100  1.0  -0.1207
  C  C71  1  0.362800  0.418600  0.418900  1.0  -0.1425
  C  C72  1  0.458700  0.580800  0.438000  1.0  -0.0651
  C  C73  1  0.358500  0.668800  0.422500  1.0  -0.1478
  C  C74  1  0.091800  0.158000  0.413300  1.0  0.4809
  C  C75  1  0.616300  0.660400  0.423100  1.0  0.3293
  C  C76  1  0.084100  0.924400  0.279200  1.0  0.0084
  C  C77  1  0.819800  0.893600  0.281600  1.0  -0.0445
  C  C78  1  0.839100  0.654600  0.279600  1.0  -0.0155
  C  C79  1  0.914800  0.333000  0.922200  1.0  0.582
  C  C80  1  0.810100  0.416800  0.941000  1.0  -0.1366
  C  C81  1  0.901800  0.593800  0.920300  1.0  -0.1356
  C  C82  1  0.820000  0.680800  0.937100  1.0  -0.1207
  C  C83  1  0.637200  0.581400  0.918900  1.0  -0.1414
  C  C84  1  0.541300  0.419200  0.938000  1.0  -0.0634
  C  C85  1  0.641500  0.331200  0.922500  1.0  -0.1478
  C  C86  1  0.908200  0.842000  0.913300  1.0  0.4807
  C  C87  1  0.383700  0.339600  0.923100  1.0  0.3277
  C  C88  1  0.915900  0.075600  0.779200  1.0  0.0086
  C  C89  1  0.180200  0.106400  0.781600  1.0  -0.0431
  C  C90  1  0.160900  0.345400  0.779600  1.0  -0.0165
  C  C91  1  0.581800  0.667000  0.077800  1.0  0.5806
  C  C92  1  0.393300  0.583200  0.059000  1.0  -0.1338
  C  C93  1  0.308000  0.406200  0.079700  1.0  -0.1369
  C  C94  1  0.139200  0.319200  0.062900  1.0  -0.121
  C  C95  1  0.055800  0.418600  0.081100  1.0  -0.1419
  C  C96  1  0.122100  0.580800  0.062000  1.0  -0.0633
  C  C97  1  0.310300  0.668800  0.077500  1.0  -0.1477
  C  C98  1  0.066200  0.158000  0.086700  1.0  0.4831
  C  C99  1  0.044100  0.660400  0.076900  1.0  0.3277
  C  C100  1  0.840300  0.924400  0.220800  1.0  0.0085
  C  C101  1  0.073800  0.893600  0.218400  1.0  -0.0421
  C  C102  1  0.815500  0.654600  0.220400  1.0  -0.0158
  C  C103  1  0.418200  0.333000  0.577800  1.0  0.5822
  C  C104  1  0.606700  0.416800  0.559000  1.0  -0.134
  C  C105  1  0.692000  0.593800  0.579700  1.0  -0.1372
  C  C106  1  0.860800  0.680800  0.562900  1.0  -0.1209
  C  C107  1  0.944200  0.581400  0.581100  1.0  -0.1413
  C  C108  1  0.877900  0.419200  0.562000  1.0  -0.0661
  C  C109  1  0.689700  0.331200  0.577500  1.0  -0.1483
  C  C110  1  0.933800  0.842000  0.586700  1.0  0.4799
  C  C111  1  0.955900  0.339600  0.576900  1.0  0.3299
  C  C112  1  0.159700  0.075600  0.720800  1.0  0.0071
  C  C113  1  0.926200  0.106400  0.718400  1.0  -0.0431
  C  C114  1  0.184500  0.345400  0.720400  1.0  -0.0178
  N  N115  1  0.926500  0.817800  0.301600  1.0  -0.133
  N  N116  1  0.073500  0.182200  0.801600  1.0  -0.1338
  N  N117  1  0.891300  0.817800  0.198400  1.0  -0.1302
  N  N118  1  0.108700  0.182200  0.698400  1.0  -0.1297
  O  O119  1  0.087200  0.759400  0.461700  1.0  -0.6482
  O  O120  1  0.066400  0.678600  0.377000  1.0  -0.5258
  O  O121  1  0.109300  0.045000  0.433200  1.0  -0.6529
  O  O122  1  0.005300  0.146400  0.380800  1.0  -0.4884
  O  O123  1  0.711000  0.784400  0.438000  1.0  -0.5771
  O  O124  1  0.667400  0.606800  0.390900  1.0  -0.5788
  O  O125  1  0.380400  0.906800  0.542800  1.0  -0.2439
  O  O126  1  0.912800  0.240600  0.961700  1.0  -0.6484
  O  O127  1  0.933600  0.321400  0.877000  1.0  -0.5264
  O  O128  1  0.890700  0.955000  0.933200  1.0  -0.6533
  O  O129  1  0.994700  0.853600  0.880800  1.0  -0.4889
  O  O130  1  0.289000  0.215600  0.938000  1.0  -0.5771
  O  O131  1  0.332600  0.393200  0.890900  1.0  -0.5781
  O  O132  1  0.619600  0.093200  0.042800  1.0  -0.2482
  O  O133  1  0.672200  0.759400  0.038300  1.0  -0.6484
  O  O134  1  0.612200  0.678600  0.123000  1.0  -0.5275
  O  O135  1  0.935700  0.045000  0.066800  1.0  -0.6523
  O  O136  1  0.141100  0.146400  0.119200  1.0  -0.4882
  O  O137  1  0.073400  0.784400  0.062000  1.0  -0.5781
  O  O138  1  0.939400  0.606800  0.109100  1.0  -0.5775
  O  O139  1  0.526400  0.906800  0.957200  1.0  -0.2478
  O  O140  1  0.327800  0.240600  0.538300  1.0  -0.6481
  O  O141  1  0.387800  0.321400  0.623000  1.0  -0.5257
  O  O142  1  0.064300  0.955000  0.566800  1.0  -0.6529
  O  O143  1  0.858900  0.853600  0.619200  1.0  -0.4865
  O  O144  1  0.926600  0.215600  0.562000  1.0  -0.5769
  O  O145  1  0.060600  0.393200  0.609100  1.0  -0.5786
  O  O146  1  0.473600  0.093200  0.457200  1.0  -0.2445
