# generated using pymatgen
data_Cu3H34C40(N3O4)2
_symmetry_space_group_name_H-M   'P 1'
_cell_length_a   9.20910000
_cell_length_b   22.75320000
_cell_length_c   23.09020000
_cell_angle_alpha   90.00000000
_cell_angle_beta   90.00000000
_cell_angle_gamma   90.00000000
_symmetry_Int_Tables_number   1
_chemical_formula_structural   Cu3H34C40(N3O4)2
_chemical_formula_sum   'Cu12 H136 C160 N24 O32'
_cell_volume   4838.23955653
_cell_formula_units_Z   4
loop_
 _symmetry_equiv_pos_site_id
 _symmetry_equiv_pos_as_xyz
  1  'x, y, z'
loop_
 _atom_site_type_symbol
 _atom_site_label
 _atom_site_symmetry_multiplicity
 _atom_site_fract_x
 _atom_site_fract_y
 _atom_site_fract_z
 _atom_site_occupancy
 _atom_site_charge
  Cu  Cu1  1  0.388840  0.032820  0.532640  1.0  0.4642
  Cu  Cu2  1  0.111160  0.967180  0.032640  1.0  0.4636
  Cu  Cu3  1  0.611160  0.532820  0.467360  1.0  0.4636
  Cu  Cu4  1  0.888840  0.467180  0.967360  1.0  0.464
  Cu  Cu5  1  0.611160  0.967180  0.467360  1.0  0.4636
  Cu  Cu6  1  0.888840  0.032820  0.967360  1.0  0.4641
  Cu  Cu7  1  0.388840  0.467180  0.532640  1.0  0.4641
  Cu  Cu8  1  0.111160  0.532820  0.032640  1.0  0.4636
  Cu  Cu9  1  0.264820  0.250000  0.527340  1.0  0.7212
  Cu  Cu10  1  0.235180  0.750000  0.027340  1.0  0.7214
  Cu  Cu11  1  0.735180  0.750000  0.472660  1.0  0.7212
  Cu  Cu12  1  0.764820  0.250000  0.972660  1.0  0.7214
  H  H13  1  0.550900  0.971600  0.622200  1.0  0.0799
  H  H14  1  0.652300  0.991600  0.710200  1.0  0.1048
  H  H15  1  0.559600  0.158700  0.688200  1.0  0.1127
  H  H16  1  0.457400  0.136400  0.600900  1.0  0.0762
  H  H17  1  0.689600  0.129800  0.775000  1.0  0.0965
  H  H18  1  0.749400  0.065400  0.779700  1.0  0.0882
  H  H19  1  0.461500  0.099100  0.806800  1.0  0.0854
  H  H20  1  0.513100  0.033500  0.807500  1.0  0.0778
  H  H21  1  0.601500  0.121200  0.885700  1.0  0.0988
  H  H22  1  0.678100  0.059600  0.883300  1.0  0.0895
  H  H23  1  0.217900  0.087300  0.005100  1.0  0.0705
  H  H24  1  0.388700  0.129300  0.947900  1.0  0.1137
  H  H25  1  0.511600  0.969200  0.899400  1.0  0.122
  H  H26  1  0.339500  0.931100  0.958200  1.0  0.0845
  H  H27  1  0.949100  0.028400  0.122200  1.0  0.0794
  H  H28  1  0.847700  0.008400  0.210200  1.0  0.1036
  H  H29  1  0.940400  0.841300  0.188200  1.0  0.1125
  H  H30  1  0.042600  0.863600  0.100900  1.0  0.0761
  H  H31  1  0.810400  0.870200  0.275000  1.0  0.0968
  H  H32  1  0.750600  0.934600  0.279700  1.0  0.0868
  H  H33  1  0.038500  0.900900  0.306800  1.0  0.0864
  H  H34  1  0.986900  0.966500  0.307500  1.0  0.0827
  H  H35  1  0.898500  0.878800  0.385700  1.0  0.099
  H  H36  1  0.821900  0.940400  0.383300  1.0  0.0885
  H  H37  1  0.282100  0.912700  0.505100  1.0  0.0709
  H  H38  1  0.111300  0.870700  0.447900  1.0  0.1136
  H  H39  1  0.988400  0.030800  0.399400  1.0  0.1227
  H  H40  1  0.160500  0.068900  0.458200  1.0  0.0843
  H  H41  1  0.449100  0.471600  0.377800  1.0  0.0801
  H  H42  1  0.347700  0.491600  0.289800  1.0  0.104
  H  H43  1  0.440400  0.658700  0.311800  1.0  0.1129
  H  H44  1  0.542600  0.636400  0.399100  1.0  0.0763
  H  H45  1  0.310400  0.629800  0.225000  1.0  0.096
  H  H46  1  0.250600  0.565400  0.220300  1.0  0.0873
  H  H47  1  0.538500  0.599100  0.193200  1.0  0.0865
  H  H48  1  0.486900  0.533500  0.192500  1.0  0.0774
  H  H49  1  0.398500  0.621200  0.114300  1.0  0.0988
  H  H50  1  0.321900  0.559600  0.116700  1.0  0.0875
  H  H51  1  0.782100  0.587300  0.994900  1.0  0.0708
  H  H52  1  0.611300  0.629300  0.052100  1.0  0.1147
  H  H53  1  0.488400  0.469200  0.100600  1.0  0.1224
  H  H54  1  0.660500  0.431100  0.041800  1.0  0.0848
  H  H55  1  0.050900  0.528400  0.877800  1.0  0.0791
  H  H56  1  0.152300  0.508400  0.789800  1.0  0.1045
  H  H57  1  0.059600  0.341300  0.811800  1.0  0.113
  H  H58  1  0.957400  0.363600  0.899100  1.0  0.0756
  H  H59  1  0.189600  0.370200  0.725000  1.0  0.0962
  H  H60  1  0.249400  0.434600  0.720300  1.0  0.0877
  H  H61  1  0.961500  0.400900  0.693200  1.0  0.085
  H  H62  1  0.013100  0.466500  0.692500  1.0  0.0818
  H  H63  1  0.101500  0.378800  0.614300  1.0  0.0974
  H  H64  1  0.178100  0.440400  0.616700  1.0  0.0887
  H  H65  1  0.717900  0.412700  0.494900  1.0  0.0705
  H  H66  1  0.888700  0.370700  0.552100  1.0  0.1137
  H  H67  1  0.011600  0.530800  0.600600  1.0  0.1223
  H  H68  1  0.839500  0.568900  0.541800  1.0  0.0839
  H  H69  1  0.449100  0.028400  0.377800  1.0  0.0793
  H  H70  1  0.347700  0.008400  0.289800  1.0  0.1044
  H  H71  1  0.440400  0.841300  0.311800  1.0  0.1128
  H  H72  1  0.542600  0.863600  0.399100  1.0  0.076
  H  H73  1  0.310400  0.870200  0.225000  1.0  0.0969
  H  H74  1  0.250600  0.934600  0.220300  1.0  0.0868
  H  H75  1  0.538500  0.900900  0.193200  1.0  0.0864
  H  H76  1  0.486900  0.966500  0.192500  1.0  0.0822
  H  H77  1  0.398500  0.878800  0.114300  1.0  0.0982
  H  H78  1  0.321900  0.940400  0.116700  1.0  0.0883
  H  H79  1  0.782100  0.912700  0.994900  1.0  0.0706
  H  H80  1  0.611300  0.870700  0.052100  1.0  0.114
  H  H81  1  0.488400  0.030800  0.100600  1.0  0.1223
  H  H82  1  0.660500  0.068900  0.041800  1.0  0.0841
  H  H83  1  0.050900  0.971600  0.877800  1.0  0.0799
  H  H84  1  0.152300  0.991600  0.789800  1.0  0.1044
  H  H85  1  0.059600  0.158700  0.811800  1.0  0.1129
  H  H86  1  0.957400  0.136400  0.899100  1.0  0.076
  H  H87  1  0.189600  0.129800  0.725000  1.0  0.0964
  H  H88  1  0.249400  0.065400  0.720300  1.0  0.0878
  H  H89  1  0.961500  0.099100  0.693200  1.0  0.0854
  H  H90  1  0.013100  0.033500  0.692500  1.0  0.0779
  H  H91  1  0.101500  0.121200  0.614300  1.0  0.0983
  H  H92  1  0.178100  0.059600  0.616700  1.0  0.0887
  H  H93  1  0.717900  0.087300  0.494900  1.0  0.0707
  H  H94  1  0.888700  0.129300  0.552100  1.0  0.1143
  H  H95  1  0.011600  0.969200  0.600600  1.0  0.1225
  H  H96  1  0.839500  0.931100  0.541800  1.0  0.0847
  H  H97  1  0.550900  0.528400  0.622200  1.0  0.0794
  H  H98  1  0.652300  0.508400  0.710200  1.0  0.1037
  H  H99  1  0.559600  0.341300  0.688200  1.0  0.1126
  H  H100  1  0.457400  0.363600  0.600900  1.0  0.0756
  H  H101  1  0.689600  0.370200  0.775000  1.0  0.0961
  H  H102  1  0.749400  0.434600  0.779700  1.0  0.0878
  H  H103  1  0.461500  0.400900  0.806800  1.0  0.0848
  H  H104  1  0.513100  0.466500  0.807500  1.0  0.0822
  H  H105  1  0.601500  0.378800  0.885700  1.0  0.0984
  H  H106  1  0.678100  0.440400  0.883300  1.0  0.089
  H  H107  1  0.217900  0.412700  0.005100  1.0  0.0707
  H  H108  1  0.388700  0.370700  0.947900  1.0  0.1132
  H  H109  1  0.511600  0.530800  0.899400  1.0  0.1226
  H  H110  1  0.339500  0.568900  0.958200  1.0  0.0842
  H  H111  1  0.949100  0.471600  0.122200  1.0  0.0799
  H  H112  1  0.847700  0.491600  0.210200  1.0  0.1045
  H  H113  1  0.940400  0.658700  0.188200  1.0  0.1127
  H  H114  1  0.042600  0.636400  0.100900  1.0  0.0765
  H  H115  1  0.810400  0.629800  0.275000  1.0  0.096
  H  H116  1  0.750600  0.565400  0.279700  1.0  0.0876
  H  H117  1  0.038500  0.599100  0.306800  1.0  0.0867
  H  H118  1  0.986900  0.533500  0.307500  1.0  0.0772
  H  H119  1  0.898500  0.621200  0.385700  1.0  0.0991
  H  H120  1  0.821900  0.559600  0.383300  1.0  0.0884
  H  H121  1  0.282100  0.587300  0.505100  1.0  0.0705
  H  H122  1  0.111300  0.629300  0.447900  1.0  0.1141
  H  H123  1  0.988400  0.469200  0.399400  1.0  0.1218
  H  H124  1  0.160500  0.431100  0.458200  1.0  0.0846
  H  H125  1  0.590400  0.160600  0.386100  1.0  0.1161
  H  H126  1  0.590400  0.339400  0.386100  1.0  0.1159
  H  H127  1  0.041900  0.250000  0.720900  1.0  0.1201
  H  H128  1  0.811300  0.250000  0.686000  1.0  0.0766
  H  H129  1  0.758900  0.250000  0.591400  1.0  0.128
  H  H130  1  0.667100  0.250000  0.346700  1.0  0.1083
  H  H131  1  0.909600  0.839400  0.886100  1.0  0.116
  H  H132  1  0.909600  0.660600  0.886100  1.0  0.1159
  H  H133  1  0.458100  0.750000  0.220900  1.0  0.1203
  H  H134  1  0.688700  0.750000  0.186000  1.0  0.0776
  H  H135  1  0.741100  0.750000  0.091400  1.0  0.1274
  H  H136  1  0.832900  0.750000  0.846700  1.0  0.1078
  H  H137  1  0.409600  0.660600  0.613900  1.0  0.1166
  H  H138  1  0.409600  0.839400  0.613900  1.0  0.1166
  H  H139  1  0.958100  0.750000  0.279100  1.0  0.1199
  H  H140  1  0.188700  0.750000  0.314000  1.0  0.0778
  H  H141  1  0.241100  0.750000  0.408600  1.0  0.1276
  H  H142  1  0.332900  0.750000  0.653300  1.0  0.1085
  H  H143  1  0.090400  0.339400  0.113900  1.0  0.1165
  H  H144  1  0.090400  0.160600  0.113900  1.0  0.1167
  H  H145  1  0.541900  0.250000  0.779100  1.0  0.1194
  H  H146  1  0.311300  0.250000  0.814000  1.0  0.0769
  H  H147  1  0.258900  0.250000  0.908600  1.0  0.1278
  H  H148  1  0.167100  0.250000  0.153300  1.0  0.1081
  C  C149  1  0.550600  0.010100  0.635600  1.0  0.1548
  C  C150  1  0.611800  0.022200  0.688900  1.0  -0.1854
  C  C151  1  0.614300  0.076600  0.710800  1.0  0.1215
  C  C152  1  0.557200  0.119800  0.675900  1.0  -0.2282
  C  C153  1  0.496500  0.106100  0.623200  1.0  0.1735
  C  C154  1  0.663800  0.088700  0.771300  1.0  -0.2029
  C  C155  1  0.544100  0.073700  0.814200  1.0  -0.0851
  C  C156  1  0.587000  0.079900  0.876800  1.0  -0.1801
  C  C157  1  0.278300  0.063000  0.983500  1.0  0.182
  C  C158  1  0.380800  0.088600  0.949100  1.0  -0.2281
  C  C159  1  0.471700  0.054800  0.916500  1.0  0.1377
  C  C160  1  0.452700  0.994300  0.920800  1.0  -0.2069
  C  C161  1  0.349300  0.971800  0.955900  1.0  0.1532
  C  C162  1  0.949400  0.989900  0.135600  1.0  0.1566
  C  C163  1  0.888200  0.977800  0.188900  1.0  -0.1847
  C  C164  1  0.885700  0.923400  0.210800  1.0  0.121
  C  C165  1  0.942800  0.880200  0.175900  1.0  -0.2294
  C  C166  1  0.003500  0.893900  0.123200  1.0  0.1741
  C  C167  1  0.836200  0.911300  0.271300  1.0  -0.2025
  C  C168  1  0.955900  0.926300  0.314200  1.0  -0.0848
  C  C169  1  0.913000  0.920100  0.376800  1.0  -0.1821
  C  C170  1  0.221700  0.937000  0.483500  1.0  0.1828
  C  C171  1  0.119200  0.911400  0.449100  1.0  -0.2293
  C  C172  1  0.028300  0.945200  0.416500  1.0  0.1373
  C  C173  1  0.047300  0.005700  0.420800  1.0  -0.2104
  C  C174  1  0.150700  0.028200  0.455900  1.0  0.1549
  C  C175  1  0.449400  0.510100  0.364400  1.0  0.1542
  C  C176  1  0.388200  0.522200  0.311100  1.0  -0.1852
  C  C177  1  0.385700  0.576600  0.289200  1.0  0.1212
  C  C178  1  0.442800  0.619800  0.324100  1.0  -0.2274
  C  C179  1  0.503500  0.606100  0.376800  1.0  0.1738
  C  C180  1  0.336200  0.588700  0.228700  1.0  -0.2019
  C  C181  1  0.455900  0.573700  0.185800  1.0  -0.0846
  C  C182  1  0.413000  0.579900  0.123200  1.0  -0.1804
  C  C183  1  0.721700  0.563000  0.016500  1.0  0.1826
  C  C184  1  0.619200  0.588600  0.050900  1.0  -0.2284
  C  C185  1  0.528300  0.554800  0.083500  1.0  0.1372
  C  C186  1  0.547300  0.494300  0.079200  1.0  -0.2072
  C  C187  1  0.650700  0.471800  0.044100  1.0  0.1545
  C  C188  1  0.050600  0.489900  0.864400  1.0  0.1567
  C  C189  1  0.111800  0.477800  0.811100  1.0  -0.1841
  C  C190  1  0.114300  0.423400  0.789200  1.0  0.1203
  C  C191  1  0.057200  0.380200  0.824100  1.0  -0.2291
  C  C192  1  0.996500  0.393900  0.876800  1.0  0.1735
  C  C193  1  0.163800  0.411300  0.728700  1.0  -0.2028
  C  C194  1  0.044100  0.426300  0.685800  1.0  -0.0854
  C  C195  1  0.087000  0.420100  0.623200  1.0  -0.1805
  C  C196  1  0.778300  0.437000  0.516500  1.0  0.1843
  C  C197  1  0.880800  0.411400  0.550900  1.0  -0.2295
  C  C198  1  0.971700  0.445200  0.583500  1.0  0.1377
  C  C199  1  0.952700  0.505700  0.579200  1.0  -0.2104
  C  C200  1  0.849300  0.528200  0.544100  1.0  0.155
  C  C201  1  0.449400  0.989900  0.364400  1.0  0.1562
  C  C202  1  0.388200  0.977800  0.311100  1.0  -0.1852
  C  C203  1  0.385700  0.923400  0.289200  1.0  0.1208
  C  C204  1  0.442800  0.880200  0.324100  1.0  -0.2291
  C  C205  1  0.503500  0.893900  0.376800  1.0  0.1743
  C  C206  1  0.336200  0.911300  0.228700  1.0  -0.2022
  C  C207  1  0.455900  0.926300  0.185800  1.0  -0.0851
  C  C208  1  0.413000  0.920100  0.123200  1.0  -0.1807
  C  C209  1  0.721700  0.937000  0.016500  1.0  0.1836
  C  C210  1  0.619200  0.911400  0.050900  1.0  -0.2299
  C  C211  1  0.528300  0.945200  0.083500  1.0  0.1373
  C  C212  1  0.547300  0.005700  0.079200  1.0  -0.2113
  C  C213  1  0.650700  0.028200  0.044100  1.0  0.1551
  C  C214  1  0.050600  0.010100  0.864400  1.0  0.1547
  C  C215  1  0.111800  0.022200  0.811100  1.0  -0.1852
  C  C216  1  0.114300  0.076600  0.789200  1.0  0.121
  C  C217  1  0.057200  0.119800  0.824100  1.0  -0.2276
  C  C218  1  0.996500  0.106100  0.876800  1.0  0.1732
  C  C219  1  0.163800  0.088700  0.728700  1.0  -0.2025
  C  C220  1  0.044100  0.073700  0.685800  1.0  -0.0852
  C  C221  1  0.087000  0.079900  0.623200  1.0  -0.1803
  C  C222  1  0.778300  0.063000  0.516500  1.0  0.1832
  C  C223  1  0.880800  0.088600  0.550900  1.0  -0.2281
  C  C224  1  0.971700  0.054800  0.583500  1.0  0.1377
  C  C225  1  0.952700  0.994300  0.579200  1.0  -0.2077
  C  C226  1  0.849300  0.971800  0.544100  1.0  0.1544
  C  C227  1  0.550600  0.489900  0.635600  1.0  0.1571
  C  C228  1  0.611800  0.477800  0.688900  1.0  -0.1836
  C  C229  1  0.614300  0.423400  0.710800  1.0  0.1208
  C  C230  1  0.557200  0.380200  0.675900  1.0  -0.2293
  C  C231  1  0.496500  0.393900  0.623200  1.0  0.1737
  C  C232  1  0.663800  0.411300  0.771300  1.0  -0.2032
  C  C233  1  0.544100  0.426300  0.814200  1.0  -0.0853
  C  C234  1  0.587000  0.420100  0.876800  1.0  -0.181
  C  C235  1  0.278300  0.437000  0.983500  1.0  0.183
  C  C236  1  0.380800  0.411400  0.949100  1.0  -0.229
  C  C237  1  0.471700  0.445200  0.916500  1.0  0.1377
  C  C238  1  0.452700  0.505700  0.920800  1.0  -0.2101
  C  C239  1  0.349300  0.528200  0.955900  1.0  0.1547
  C  C240  1  0.949400  0.510100  0.135600  1.0  0.1543
  C  C241  1  0.888200  0.522200  0.188900  1.0  -0.1855
  C  C242  1  0.885700  0.576600  0.210800  1.0  0.1214
  C  C243  1  0.942800  0.619800  0.175900  1.0  -0.2281
  C  C244  1  0.003500  0.606100  0.123200  1.0  0.1738
  C  C245  1  0.836200  0.588700  0.271300  1.0  -0.2022
  C  C246  1  0.955900  0.573700  0.314200  1.0  -0.0843
  C  C247  1  0.913000  0.579900  0.376800  1.0  -0.1811
  C  C248  1  0.221700  0.563000  0.483500  1.0  0.182
  C  C249  1  0.119200  0.588600  0.449100  1.0  -0.2282
  C  C250  1  0.028300  0.554800  0.416500  1.0  0.1372
  C  C251  1  0.047300  0.494300  0.420800  1.0  -0.2062
  C  C252  1  0.150700  0.471800  0.455900  1.0  0.1535
  C  C253  1  0.464000  0.197800  0.446000  1.0  0.1515
  C  C254  1  0.557700  0.196100  0.401200  1.0  -0.0757
  C  C255  1  0.405500  0.144200  0.476600  1.0  0.6512
  C  C256  1  0.464000  0.302200  0.446000  1.0  0.1505
  C  C257  1  0.557700  0.303900  0.401200  1.0  -0.076
  C  C258  1  0.405500  0.355800  0.476600  1.0  0.6508
  C  C259  1  0.139400  0.250000  0.640200  1.0  0.1215
  C  C260  1  0.024000  0.250000  0.681200  1.0  -0.1578
  C  C261  1  0.888000  0.250000  0.659700  1.0  -0.0886
  C  C262  1  0.855000  0.250000  0.604000  1.0  -0.1785
  C  C263  1  0.973000  0.250000  0.564100  1.0  0.1362
  C  C264  1  0.294000  0.250000  0.649500  1.0  0.6457
  C  C265  1  0.958000  0.250000  0.499700  1.0  0.6603
  C  C266  1  0.603900  0.250000  0.378100  1.0  -0.1523
  C  C267  1  0.036000  0.802200  0.946000  1.0  0.1512
  C  C268  1  0.942300  0.803900  0.901200  1.0  -0.0754
  C  C269  1  0.094500  0.855800  0.976600  1.0  0.651
  C  C270  1  0.036000  0.697800  0.946000  1.0  0.1505
  C  C271  1  0.942300  0.696100  0.901200  1.0  -0.0749
  C  C272  1  0.094500  0.644200  0.976600  1.0  0.651
  C  C273  1  0.360600  0.750000  0.140200  1.0  0.122
  C  C274  1  0.476000  0.750000  0.181200  1.0  -0.158
  C  C275  1  0.612000  0.750000  0.159700  1.0  -0.0895
  C  C276  1  0.645000  0.750000  0.104000  1.0  -0.1775
  C  C277  1  0.527000  0.750000  0.064100  1.0  0.1361
  C  C278  1  0.206000  0.750000  0.149500  1.0  0.6459
  C  C279  1  0.542000  0.750000  0.999700  1.0  0.6608
  C  C280  1  0.896100  0.750000  0.878100  1.0  -0.1519
  C  C281  1  0.536000  0.697800  0.554000  1.0  0.1499
  C  C282  1  0.442300  0.696100  0.598800  1.0  -0.0755
  C  C283  1  0.594500  0.644200  0.523400  1.0  0.6517
  C  C284  1  0.536000  0.802200  0.554000  1.0  0.1483
  C  C285  1  0.442300  0.803900  0.598800  1.0  -0.0765
  C  C286  1  0.594500  0.855800  0.523400  1.0  0.6519
  C  C287  1  0.860600  0.750000  0.359800  1.0  0.1219
  C  C288  1  0.976000  0.750000  0.318800  1.0  -0.157
  C  C289  1  0.112000  0.750000  0.340300  1.0  -0.0888
  C  C290  1  0.145000  0.750000  0.396000  1.0  -0.1771
  C  C291  1  0.027000  0.750000  0.435900  1.0  0.1371
  C  C292  1  0.706000  0.750000  0.350500  1.0  0.6454
  C  C293  1  0.042000  0.750000  0.500300  1.0  0.6603
  C  C294  1  0.396100  0.750000  0.621900  1.0  -0.1525
  C  C295  1  0.964000  0.302200  0.054000  1.0  0.1485
  C  C296  1  0.057700  0.303900  0.098800  1.0  -0.0753
  C  C297  1  0.905500  0.355800  0.023400  1.0  0.6514
  C  C298  1  0.964000  0.197800  0.054000  1.0  0.1489
  C  C299  1  0.057700  0.196100  0.098800  1.0  -0.0748
  C  C300  1  0.905500  0.144200  0.023400  1.0  0.6517
  C  C301  1  0.639400  0.250000  0.859800  1.0  0.1215
  C  C302  1  0.524000  0.250000  0.818800  1.0  -0.1565
  C  C303  1  0.388000  0.250000  0.840300  1.0  -0.0882
  C  C304  1  0.355000  0.250000  0.896000  1.0  -0.1774
  C  C305  1  0.473000  0.250000  0.935900  1.0  0.1371
  C  C306  1  0.794000  0.250000  0.850500  1.0  0.6452
  C  C307  1  0.458000  0.250000  0.000300  1.0  0.659
  C  C308  1  0.103900  0.250000  0.121900  1.0  -0.1517
  N  N309  1  0.491300  0.051800  0.602700  1.0  -0.3402
  N  N310  1  0.259900  0.005700  0.987800  1.0  -0.3321
  N  N311  1  0.008700  0.948200  0.102700  1.0  -0.339
  N  N312  1  0.240100  0.994300  0.487800  1.0  -0.3317
  N  N313  1  0.508700  0.551800  0.397300  1.0  -0.3363
  N  N314  1  0.740100  0.505700  0.012200  1.0  -0.3323
  N  N315  1  0.991300  0.448200  0.897300  1.0  -0.3373
  N  N316  1  0.759900  0.494300  0.512200  1.0  -0.3311
  N  N317  1  0.508700  0.948200  0.397300  1.0  -0.3369
  N  N318  1  0.740100  0.994300  0.012200  1.0  -0.3315
  N  N319  1  0.991300  0.051800  0.897300  1.0  -0.3368
  N  N320  1  0.759900  0.005700  0.512200  1.0  -0.3324
  N  N321  1  0.491300  0.448200  0.602700  1.0  -0.3389
  N  N322  1  0.259900  0.494300  0.987800  1.0  -0.3323
  N  N323  1  0.008700  0.551800  0.102700  1.0  -0.3398
  N  N324  1  0.240100  0.505700  0.487800  1.0  -0.3313
  N  N325  1  0.107500  0.250000  0.583300  1.0  -0.2889
  N  N326  1  0.417200  0.250000  0.467200  1.0  -0.3096
  N  N327  1  0.392500  0.750000  0.083300  1.0  -0.2896
  N  N328  1  0.082800  0.750000  0.967200  1.0  -0.3082
  N  N329  1  0.892500  0.750000  0.416700  1.0  -0.2898
  N  N330  1  0.582800  0.750000  0.532800  1.0  -0.3107
  N  N331  1  0.607500  0.250000  0.916700  1.0  -0.2888
  N  N332  1  0.917200  0.250000  0.032800  1.0  -0.312
  O  O333  1  0.462600  0.097200  0.462700  1.0  -0.5925
  O  O334  1  0.307300  0.151300  0.511900  1.0  -0.6175
  O  O335  1  0.462600  0.402800  0.462700  1.0  -0.5939
  O  O336  1  0.307300  0.348700  0.511900  1.0  -0.6172
  O  O337  1  0.348200  0.250000  0.699100  1.0  -0.5523
  O  O338  1  0.383200  0.250000  0.603800  1.0  -0.569
  O  O339  1  0.084200  0.250000  0.473800  1.0  -0.5779
  O  O340  1  0.843200  0.250000  0.476000  1.0  -0.5037
  O  O341  1  0.037400  0.902800  0.962700  1.0  -0.5933
  O  O342  1  0.192700  0.848700  0.011900  1.0  -0.6174
  O  O343  1  0.037400  0.597200  0.962700  1.0  -0.5918
  O  O344  1  0.192700  0.651300  0.011900  1.0  -0.6176
  O  O345  1  0.151800  0.750000  0.199100  1.0  -0.5533
  O  O346  1  0.116800  0.750000  0.103800  1.0  -0.5706
  O  O347  1  0.415800  0.750000  0.973800  1.0  -0.58
  O  O348  1  0.656800  0.750000  0.976000  1.0  -0.5078
  O  O349  1  0.537400  0.597200  0.537300  1.0  -0.5937
  O  O350  1  0.692700  0.651300  0.488100  1.0  -0.6176
  O  O351  1  0.537400  0.902800  0.537300  1.0  -0.5941
  O  O352  1  0.692700  0.848700  0.488100  1.0  -0.6176
  O  O353  1  0.651800  0.750000  0.300900  1.0  -0.556
  O  O354  1  0.616800  0.750000  0.396200  1.0  -0.5707
  O  O355  1  0.915800  0.750000  0.526200  1.0  -0.5781
  O  O356  1  0.156800  0.750000  0.524000  1.0  -0.5048
  O  O357  1  0.962600  0.402800  0.037300  1.0  -0.5945
  O  O358  1  0.807300  0.348700  0.988100  1.0  -0.6171
  O  O359  1  0.962600  0.097200  0.037300  1.0  -0.594
  O  O360  1  0.807300  0.151300  0.988100  1.0  -0.6171
  O  O361  1  0.848200  0.250000  0.800900  1.0  -0.5548
  O  O362  1  0.883200  0.250000  0.896200  1.0  -0.5691
  O  O363  1  0.584200  0.250000  0.026200  1.0  -0.5766
  O  O364  1  0.343200  0.250000  0.024000  1.0  -0.5003
