# generated using pymatgen
data_Ga2P2CO10
_symmetry_space_group_name_H-M   'P 1'
_cell_length_a   10.80700000
_cell_length_b   14.06600000
_cell_length_c   13.08400000
_cell_angle_alpha   90.00000000
_cell_angle_beta   96.34200000
_cell_angle_gamma   90.00000000
_symmetry_Int_Tables_number   1
_chemical_formula_structural   Ga2P2CO10
_chemical_formula_sum   'Ga16 P16 C8 O80'
_cell_volume   1976.74368522
_cell_formula_units_Z   8
loop_
 _symmetry_equiv_pos_site_id
 _symmetry_equiv_pos_as_xyz
  1  'x, y, z'
loop_
 _atom_site_type_symbol
 _atom_site_label
 _atom_site_symmetry_multiplicity
 _atom_site_fract_x
 _atom_site_fract_y
 _atom_site_fract_z
 _atom_site_occupancy
 _atom_site_charge
  Ga  Ga1  1  0.131200  0.383050  0.939000  1.0  1.6641
  Ga  Ga2  1  0.150870  0.233570  0.366370  1.0  1.736
  Ga  Ga3  1  0.631200  0.883050  0.939000  1.0  1.6634
  Ga  Ga4  1  0.650870  0.733570  0.366370  1.0  1.736
  Ga  Ga5  1  0.868800  0.383050  0.561000  1.0  1.667
  Ga  Ga6  1  0.849130  0.233570  0.133630  1.0  1.7359
  Ga  Ga7  1  0.368800  0.883050  0.561000  1.0  1.6662
  Ga  Ga8  1  0.349130  0.733570  0.133630  1.0  1.7359
  Ga  Ga9  1  0.868800  0.616950  0.061000  1.0  1.6671
  Ga  Ga10  1  0.849130  0.766430  0.633630  1.0  1.7354
  Ga  Ga11  1  0.368800  0.116950  0.061000  1.0  1.6664
  Ga  Ga12  1  0.349130  0.266430  0.633630  1.0  1.7354
  Ga  Ga13  1  0.131200  0.616950  0.439000  1.0  1.664
  Ga  Ga14  1  0.150870  0.766430  0.866370  1.0  1.7358
  Ga  Ga15  1  0.631200  0.116950  0.439000  1.0  1.6633
  Ga  Ga16  1  0.650870  0.266430  0.866370  1.0  1.7358
  P  P17  1  0.133560  0.226130  0.122940  1.0  1.8235
  P  P18  1  0.832580  0.402750  0.983330  1.0  1.8514
  P  P19  1  0.633560  0.726130  0.122940  1.0  1.8235
  P  P20  1  0.332580  0.902750  0.983330  1.0  1.8514
  P  P21  1  0.866440  0.226130  0.377060  1.0  1.8236
  P  P22  1  0.167420  0.402750  0.516670  1.0  1.8505
  P  P23  1  0.366440  0.726130  0.377060  1.0  1.8236
  P  P24  1  0.667420  0.902750  0.516670  1.0  1.8505
  P  P25  1  0.866440  0.773870  0.877060  1.0  1.8234
  P  P26  1  0.167420  0.597250  0.016670  1.0  1.8507
  P  P27  1  0.366440  0.273870  0.877060  1.0  1.8234
  P  P28  1  0.667420  0.097250  0.016670  1.0  1.8507
  P  P29  1  0.133560  0.773870  0.622940  1.0  1.8232
  P  P30  1  0.832580  0.597250  0.483330  1.0  1.8505
  P  P31  1  0.633560  0.273870  0.622940  1.0  1.8232
  P  P32  1  0.332580  0.097250  0.483330  1.0  1.8505
  C  C33  1  0.000000  0.322400  0.750000  1.0  0.6448
  C  C34  1  0.000000  0.432100  0.750000  1.0  0.6346
  C  C35  1  0.500000  0.822400  0.750000  1.0  0.6448
  C  C36  1  0.500000  0.932100  0.750000  1.0  0.6346
  C  C37  1  0.000000  0.677600  0.250000  1.0  0.6445
  C  C38  1  0.000000  0.567900  0.250000  1.0  0.6335
  C  C39  1  0.500000  0.177600  0.250000  1.0  0.6445
  C  C40  1  0.500000  0.067900  0.250000  1.0  0.6335
  O  O41  1  0.970000  0.391400  0.986100  1.0  -0.8572
  O  O42  1  0.052400  0.283300  0.829500  1.0  -0.5321
  O  O43  1  0.065700  0.472200  0.821900  1.0  -0.5312
  O  O44  1  0.175000  0.304000  0.054600  1.0  -0.8832
  O  O45  1  0.215300  0.137900  0.121500  1.0  -0.7453
  O  O46  1  0.142200  0.269200  0.232400  1.0  -0.9013
  O  O47  1  0.996800  0.194500  0.093500  1.0  -0.8474
  O  O48  1  0.784200  0.341600  0.070000  1.0  -0.8176
  O  O49  1  0.793600  0.505700  0.992900  1.0  -0.7789
  O  O50  1  0.763100  0.365300  0.880500  1.0  -0.8214
  O  O51  1  0.470000  0.891400  0.986100  1.0  -0.8572
  O  O52  1  0.552400  0.783300  0.829500  1.0  -0.5321
  O  O53  1  0.565700  0.972200  0.821900  1.0  -0.5312
  O  O54  1  0.675000  0.804000  0.054600  1.0  -0.8832
  O  O55  1  0.715300  0.637900  0.121500  1.0  -0.7453
  O  O56  1  0.642200  0.769200  0.232400  1.0  -0.9013
  O  O57  1  0.496800  0.694500  0.093500  1.0  -0.8474
  O  O58  1  0.284200  0.841600  0.070000  1.0  -0.8176
  O  O59  1  0.293600  0.005700  0.992900  1.0  -0.7802
  O  O60  1  0.263100  0.865300  0.880500  1.0  -0.8214
  O  O61  1  0.030000  0.391400  0.513900  1.0  -0.8568
  O  O62  1  0.947600  0.283300  0.670500  1.0  -0.5326
  O  O63  1  0.934300  0.472200  0.678100  1.0  -0.5313
  O  O64  1  0.825000  0.304000  0.445400  1.0  -0.8841
  O  O65  1  0.784700  0.137900  0.378500  1.0  -0.7443
  O  O66  1  0.857800  0.269200  0.267600  1.0  -0.9005
  O  O67  1  0.003200  0.194500  0.406500  1.0  -0.8475
  O  O68  1  0.215800  0.341600  0.430000  1.0  -0.8189
  O  O69  1  0.206400  0.505700  0.507100  1.0  -0.7797
  O  O70  1  0.236900  0.365300  0.619500  1.0  -0.8206
  O  O71  1  0.530000  0.891400  0.513900  1.0  -0.8568
  O  O72  1  0.447600  0.783300  0.670500  1.0  -0.5326
  O  O73  1  0.434300  0.972200  0.678100  1.0  -0.5315
  O  O74  1  0.325000  0.804000  0.445400  1.0  -0.8841
  O  O75  1  0.284700  0.637900  0.378500  1.0  -0.7443
  O  O76  1  0.357800  0.769200  0.267600  1.0  -0.9005
  O  O77  1  0.503200  0.694500  0.406500  1.0  -0.8475
  O  O78  1  0.715800  0.841600  0.430000  1.0  -0.8189
  O  O79  1  0.706400  0.005700  0.507100  1.0  -0.781
  O  O80  1  0.736900  0.865300  0.619500  1.0  -0.8206
  O  O81  1  0.030000  0.608600  0.013900  1.0  -0.8567
  O  O82  1  0.947600  0.716700  0.170500  1.0  -0.5325
  O  O83  1  0.934300  0.527800  0.178100  1.0  -0.5316
  O  O84  1  0.825000  0.696000  0.945400  1.0  -0.8846
  O  O85  1  0.784700  0.862100  0.878500  1.0  -0.7446
  O  O86  1  0.857800  0.730800  0.767600  1.0  -0.8992
  O  O87  1  0.003200  0.805500  0.906500  1.0  -0.8455
  O  O88  1  0.215800  0.658400  0.930000  1.0  -0.8194
  O  O89  1  0.206400  0.494300  0.007100  1.0  -0.7782
  O  O90  1  0.236900  0.634700  0.119500  1.0  -0.8204
  O  O91  1  0.530000  0.108600  0.013900  1.0  -0.8567
  O  O92  1  0.447600  0.216700  0.170500  1.0  -0.5325
  O  O93  1  0.434300  0.027800  0.178100  1.0  -0.5317
  O  O94  1  0.325000  0.196000  0.945400  1.0  -0.8846
  O  O95  1  0.284700  0.362100  0.878500  1.0  -0.7446
  O  O96  1  0.357800  0.230800  0.767600  1.0  -0.8992
  O  O97  1  0.503200  0.305500  0.906500  1.0  -0.8455
  O  O98  1  0.715800  0.158400  0.930000  1.0  -0.8194
  O  O99  1  0.706400  0.994300  0.007100  1.0  -0.7782
  O  O100  1  0.736900  0.134700  0.119500  1.0  -0.8204
  O  O101  1  0.970000  0.608600  0.486100  1.0  -0.8569
  O  O102  1  0.052400  0.716700  0.329500  1.0  -0.5323
  O  O103  1  0.065700  0.527800  0.321900  1.0  -0.5305
  O  O104  1  0.175000  0.696000  0.554600  1.0  -0.8836
  O  O105  1  0.215300  0.862100  0.621500  1.0  -0.7455
  O  O106  1  0.142200  0.730800  0.732400  1.0  -0.8999
  O  O107  1  0.996800  0.805500  0.593500  1.0  -0.8457
  O  O108  1  0.784200  0.658400  0.570000  1.0  -0.8176
  O  O109  1  0.793600  0.494300  0.492900  1.0  -0.7781
  O  O110  1  0.763100  0.634700  0.380500  1.0  -0.8218
  O  O111  1  0.470000  0.108600  0.486100  1.0  -0.8569
  O  O112  1  0.552400  0.216700  0.329500  1.0  -0.5323
  O  O113  1  0.565700  0.027800  0.321900  1.0  -0.5306
  O  O114  1  0.675000  0.196000  0.554600  1.0  -0.8836
  O  O115  1  0.715300  0.362100  0.621500  1.0  -0.7455
  O  O116  1  0.642200  0.230800  0.732400  1.0  -0.8999
  O  O117  1  0.496800  0.305500  0.593500  1.0  -0.8457
  O  O118  1  0.284200  0.158400  0.570000  1.0  -0.8176
  O  O119  1  0.293600  0.994300  0.492900  1.0  -0.7781
  O  O120  1  0.263100  0.134700  0.380500  1.0  -0.8218
