# generated using pymatgen
data_Ga5P5(CO12)2
_symmetry_space_group_name_H-M   'P 1'
_cell_length_a   9.03900000
_cell_length_b   15.64100000
_cell_length_c   19.37000000
_cell_angle_alpha   90.00000000
_cell_angle_beta   90.00000000
_cell_angle_gamma   90.00000000
_symmetry_Int_Tables_number   1
_chemical_formula_structural   Ga5P5(CO12)2
_chemical_formula_sum   'Ga20 P20 C8 O96'
_cell_volume   2738.51121063
_cell_formula_units_Z   4
loop_
 _symmetry_equiv_pos_site_id
 _symmetry_equiv_pos_as_xyz
  1  'x, y, z'
loop_
 _atom_site_type_symbol
 _atom_site_label
 _atom_site_symmetry_multiplicity
 _atom_site_fract_x
 _atom_site_fract_y
 _atom_site_fract_z
 _atom_site_occupancy
 _atom_site_charge
  Ga  Ga1  1  0.387500  0.887150  0.588710  1.0  1.6753
  Ga  Ga2  1  0.934200  0.867030  0.502530  1.0  1.7152
  Ga  Ga3  1  0.112500  0.387150  0.411290  1.0  1.6714
  Ga  Ga4  1  0.565800  0.367030  0.497470  1.0  1.7155
  Ga  Ga5  1  0.612500  0.112850  0.088710  1.0  1.6747
  Ga  Ga6  1  0.065800  0.132970  0.002530  1.0  1.7146
  Ga  Ga7  1  0.887500  0.612850  0.911290  1.0  1.6707
  Ga  Ga8  1  0.434200  0.632970  0.997470  1.0  1.7152
  Ga  Ga9  1  0.612500  0.112850  0.411290  1.0  1.6739
  Ga  Ga10  1  0.065800  0.132970  0.497470  1.0  1.7173
  Ga  Ga11  1  0.887500  0.612850  0.588710  1.0  1.6716
  Ga  Ga12  1  0.434200  0.632970  0.502530  1.0  1.7171
  Ga  Ga13  1  0.387500  0.887150  0.911290  1.0  1.674
  Ga  Ga14  1  0.934200  0.867030  0.997470  1.0  1.7179
  Ga  Ga15  1  0.112500  0.387150  0.088710  1.0  1.6727
  Ga  Ga16  1  0.565800  0.367030  0.002530  1.0  1.7172
  Ga  Ga17  1  0.147600  0.071100  0.750000  1.0  1.2744
  Ga  Ga18  1  0.352400  0.571100  0.250000  1.0  1.2756
  Ga  Ga19  1  0.852400  0.928900  0.250000  1.0  1.276
  Ga  Ga20  1  0.647600  0.428900  0.750000  1.0  1.2749
  P  P21  1  0.158900  0.729200  0.541400  1.0  1.8024
  P  P22  1  0.073100  0.985400  0.604800  1.0  1.8251
  P  P23  1  0.341100  0.229200  0.458600  1.0  1.8029
  P  P24  1  0.426900  0.485400  0.395200  1.0  1.8259
  P  P25  1  0.841100  0.270800  0.041400  1.0  1.8028
  P  P26  1  0.926900  0.014600  0.104800  1.0  1.8255
  P  P27  1  0.658900  0.770800  0.958600  1.0  1.8025
  P  P28  1  0.573100  0.514600  0.895200  1.0  1.8253
  P  P29  1  0.841100  0.270800  0.458600  1.0  1.7956
  P  P30  1  0.926900  0.014600  0.395200  1.0  1.825
  P  P31  1  0.658900  0.770800  0.541400  1.0  1.7952
  P  P32  1  0.573100  0.514600  0.604800  1.0  1.8243
  P  P33  1  0.158900  0.729200  0.958600  1.0  1.7953
  P  P34  1  0.073100  0.985400  0.895200  1.0  1.8245
  P  P35  1  0.341100  0.229200  0.041400  1.0  1.7955
  P  P36  1  0.426900  0.485400  0.104800  1.0  1.8243
  P  P37  1  0.411300  0.941600  0.750000  1.0  1.6722
  P  P38  1  0.088700  0.441600  0.250000  1.0  1.6719
  P  P39  1  0.588700  0.058400  0.250000  1.0  1.6716
  P  P40  1  0.911300  0.558400  0.750000  1.0  1.6723
  C  C41  1  0.466800  0.973100  0.469300  1.0  0.5472
  C  C42  1  0.033200  0.473100  0.530700  1.0  0.545
  C  C43  1  0.533200  0.026900  0.969300  1.0  0.5487
  C  C44  1  0.966800  0.526900  0.030700  1.0  0.5444
  C  C45  1  0.533200  0.026900  0.530700  1.0  0.5457
  C  C46  1  0.966800  0.526900  0.469300  1.0  0.5492
  C  C47  1  0.466800  0.973100  0.030700  1.0  0.5441
  C  C48  1  0.033200  0.473100  0.969300  1.0  0.5473
  O  O49  1  0.409900  0.904200  0.484300  1.0  -0.4671
  O  O50  1  0.486900  0.005200  0.410100  1.0  -0.4991
  O  O51  1  0.375200  0.888200  0.687000  1.0  -0.7056
  O  O52  1  0.222200  0.965800  0.576400  1.0  -0.9392
  O  O53  1  0.265000  0.786800  0.581500  1.0  -0.8304
  O  O54  1  0.242500  0.665600  0.494700  1.0  -0.8591
  O  O55  1  0.061100  0.682300  0.593100  1.0  -0.7925
  O  O56  1  0.062900  0.779300  0.489500  1.0  -0.8488
  O  O57  1  0.964000  0.910600  0.587700  1.0  -0.8473
  O  O58  1  0.012800  0.067800  0.569000  1.0  -0.9197
  O  O59  1  0.067700  0.995600  0.682300  1.0  -0.7164
  O  O60  1  0.090100  0.404200  0.515700  1.0  -0.468
  O  O61  1  0.013100  0.505200  0.589900  1.0  -0.5008
  O  O62  1  0.124800  0.388200  0.313000  1.0  -0.7068
  O  O63  1  0.277800  0.465800  0.423600  1.0  -0.939
  O  O64  1  0.235000  0.286800  0.418500  1.0  -0.8302
  O  O65  1  0.257500  0.165600  0.505300  1.0  -0.8589
  O  O66  1  0.438900  0.182300  0.406900  1.0  -0.7926
  O  O67  1  0.437100  0.279300  0.510500  1.0  -0.8494
  O  O68  1  0.536000  0.410600  0.412300  1.0  -0.8475
  O  O69  1  0.487200  0.567800  0.431000  1.0  -0.9186
  O  O70  1  0.432300  0.495600  0.317700  1.0  -0.7174
  O  O71  1  0.590100  0.095800  0.984300  1.0  -0.4663
  O  O72  1  0.513100  0.994800  0.910100  1.0  -0.5002
  O  O73  1  0.624800  0.111800  0.187000  1.0  -0.7052
  O  O74  1  0.777800  0.034200  0.076400  1.0  -0.939
  O  O75  1  0.735000  0.213200  0.081500  1.0  -0.8308
  O  O76  1  0.757500  0.334400  0.994700  1.0  -0.8586
  O  O77  1  0.938900  0.317700  0.093100  1.0  -0.7929
  O  O78  1  0.937100  0.220700  0.989500  1.0  -0.8487
  O  O79  1  0.036000  0.089400  0.087700  1.0  -0.8465
  O  O80  1  0.987200  0.932200  0.069000  1.0  -0.9184
  O  O81  1  0.932300  0.004400  0.182300  1.0  -0.7163
  O  O82  1  0.909900  0.595800  0.015700  1.0  -0.4676
  O  O83  1  0.986900  0.494800  0.089900  1.0  -0.4996
  O  O84  1  0.875200  0.611800  0.813000  1.0  -0.7056
  O  O85  1  0.722200  0.534200  0.923600  1.0  -0.9386
  O  O86  1  0.765000  0.713200  0.918500  1.0  -0.8302
  O  O87  1  0.742500  0.834400  0.005300  1.0  -0.8587
  O  O88  1  0.561100  0.817700  0.906900  1.0  -0.7934
  O  O89  1  0.562900  0.720700  0.010500  1.0  -0.85
  O  O90  1  0.464000  0.589400  0.912300  1.0  -0.8471
  O  O91  1  0.512800  0.432200  0.931000  1.0  -0.9175
  O  O92  1  0.567700  0.504400  0.817700  1.0  -0.7171
  O  O93  1  0.590100  0.095800  0.515700  1.0  -0.4677
  O  O94  1  0.513100  0.994800  0.589900  1.0  -0.5017
  O  O95  1  0.624800  0.111800  0.313000  1.0  -0.7062
  O  O96  1  0.777800  0.034200  0.423600  1.0  -0.9386
  O  O97  1  0.735000  0.213200  0.418500  1.0  -0.8302
  O  O98  1  0.757500  0.334400  0.505300  1.0  -0.8587
  O  O99  1  0.938900  0.317700  0.406900  1.0  -0.7925
  O  O100  1  0.937100  0.220700  0.510500  1.0  -0.8495
  O  O101  1  0.036000  0.089400  0.412300  1.0  -0.8472
  O  O102  1  0.987200  0.932200  0.431000  1.0  -0.9189
  O  O103  1  0.932300  0.004400  0.317700  1.0  -0.7164
  O  O104  1  0.909900  0.595800  0.484300  1.0  -0.4662
  O  O105  1  0.986900  0.494800  0.410100  1.0  -0.4983
  O  O106  1  0.875200  0.611800  0.687000  1.0  -0.7046
  O  O107  1  0.722200  0.534200  0.576400  1.0  -0.9392
  O  O108  1  0.765000  0.713200  0.581500  1.0  -0.831
  O  O109  1  0.742500  0.834400  0.494700  1.0  -0.8587
  O  O110  1  0.561100  0.817700  0.593100  1.0  -0.7925
  O  O111  1  0.562900  0.720700  0.489500  1.0  -0.8496
  O  O112  1  0.464000  0.589400  0.587700  1.0  -0.8473
  O  O113  1  0.512800  0.432200  0.569000  1.0  -0.9193
  O  O114  1  0.567700  0.504400  0.682300  1.0  -0.7152
  O  O115  1  0.409900  0.904200  0.015700  1.0  -0.4673
  O  O116  1  0.486900  0.005200  0.089900  1.0  -0.4995
  O  O117  1  0.375200  0.888200  0.813000  1.0  -0.7065
  O  O118  1  0.222200  0.965800  0.923600  1.0  -0.9389
  O  O119  1  0.265000  0.786800  0.918500  1.0  -0.8298
  O  O120  1  0.242500  0.665600  0.005300  1.0  -0.8589
  O  O121  1  0.061100  0.682300  0.906900  1.0  -0.7935
  O  O122  1  0.062900  0.779300  0.010500  1.0  -0.8499
  O  O123  1  0.964000  0.910600  0.912300  1.0  -0.8471
  O  O124  1  0.012800  0.067800  0.931000  1.0  -0.9204
  O  O125  1  0.067700  0.995600  0.817700  1.0  -0.7165
  O  O126  1  0.090100  0.404200  0.984300  1.0  -0.4663
  O  O127  1  0.013100  0.505200  0.910100  1.0  -0.5013
  O  O128  1  0.124800  0.388200  0.187000  1.0  -0.7059
  O  O129  1  0.277800  0.465800  0.076400  1.0  -0.9392
  O  O130  1  0.235000  0.286800  0.081500  1.0  -0.8305
  O  O131  1  0.257500  0.165600  0.994700  1.0  -0.8591
  O  O132  1  0.438900  0.182300  0.093100  1.0  -0.7922
  O  O133  1  0.437100  0.279300  0.989500  1.0  -0.8492
  O  O134  1  0.536000  0.410600  0.087700  1.0  -0.8467
  O  O135  1  0.487200  0.567800  0.069000  1.0  -0.9198
  O  O136  1  0.432300  0.495600  0.182300  1.0  -0.7157
  O  O137  1  0.337000  0.026200  0.750000  1.0  -0.8061
  O  O138  1  0.583000  0.960700  0.750000  1.0  -0.4171
  O  O139  1  0.163000  0.526200  0.250000  1.0  -0.8059
  O  O140  1  0.917000  0.460700  0.250000  1.0  -0.3977
  O  O141  1  0.663000  0.973800  0.250000  1.0  -0.8061
  O  O142  1  0.417000  0.039300  0.250000  1.0  -0.4004
  O  O143  1  0.837000  0.473800  0.750000  1.0  -0.8066
  O  O144  1  0.083000  0.539300  0.750000  1.0  -0.4198
