# generated using pymatgen
data_Ga2P2CO10
_symmetry_space_group_name_H-M   'P 1'
_cell_length_a   7.97300000
_cell_length_b   8.42300000
_cell_length_c   8.83400000
_cell_angle_alpha   116.83400000
_cell_angle_beta   100.99200000
_cell_angle_gamma   103.42800000
_symmetry_Int_Tables_number   1
_chemical_formula_structural   Ga2P2CO10
_chemical_formula_sum   'Ga4 P4 C2 O20'
_cell_volume   484.14366501
_cell_formula_units_Z   2
loop_
 _symmetry_equiv_pos_site_id
 _symmetry_equiv_pos_as_xyz
  1  'x, y, z'
loop_
 _atom_site_type_symbol
 _atom_site_label
 _atom_site_symmetry_multiplicity
 _atom_site_fract_x
 _atom_site_fract_y
 _atom_site_fract_z
 _atom_site_occupancy
 _atom_site_charge
  Ga  Ga1  1  0.677610  0.279790  0.313530  1.0  1.6594
  Ga  Ga2  1  0.230790  0.462360  0.006530  1.0  1.7591
  Ga  Ga3  1  0.322390  0.720210  0.686470  1.0  1.6594
  Ga  Ga4  1  0.769210  0.537640  0.993470  1.0  1.7581
  P  P5  1  0.459550  0.190270  0.912240  1.0  1.9369
  P  P6  1  0.961100  0.507670  0.734680  1.0  1.8508
  P  P7  1  0.540450  0.809730  0.087760  1.0  1.9374
  P  P8  1  0.038900  0.492330  0.265320  1.0  1.8505
  C  C9  1  0.558500  0.582700  0.496100  1.0  0.6374
  C  C10  1  0.441500  0.417300  0.503900  1.0  0.6367
  O  O11  1  0.673500  0.554400  0.419500  1.0  -0.5276
  O  O12  1  0.527100  0.735200  0.571600  1.0  -0.5315
  O  O13  1  0.494800  0.212000  0.095900  1.0  -0.8535
  O  O14  1  0.368600  0.983300  0.757400  1.0  -0.8372
  O  O15  1  0.329700  0.293500  0.885000  1.0  -0.9253
  O  O16  1  0.636300  0.283000  0.887700  1.0  -0.8518
  O  O17  1  0.025200  0.399200  0.824500  1.0  -0.8463
  O  O18  1  0.830600  0.591700  0.828100  1.0  -0.8376
  O  O19  1  0.855100  0.356300  0.539300  1.0  -0.8311
  O  O20  1  0.122100  0.671400  0.769900  1.0  -0.7981
  O  O21  1  0.326500  0.445600  0.580500  1.0  -0.5276
  O  O22  1  0.472900  0.264800  0.428400  1.0  -0.5332
  O  O23  1  0.505200  0.788000  0.904100  1.0  -0.8547
  O  O24  1  0.631400  0.016700  0.242600  1.0  -0.8361
  O  O25  1  0.670300  0.706500  0.115000  1.0  -0.9281
  O  O26  1  0.363700  0.717000  0.112300  1.0  -0.8503
  O  O27  1  0.974800  0.600800  0.175500  1.0  -0.8467
  O  O28  1  0.169400  0.408300  0.171900  1.0  -0.8368
  O  O29  1  0.144900  0.643700  0.460700  1.0  -0.834
  O  O30  1  0.877900  0.328600  0.230100  1.0  -0.7983
