# generated using pymatgen
data_Ga4P5(CO12)2
_symmetry_space_group_name_H-M   'P 1'
_cell_length_a   20.13100000
_cell_length_b   15.67000000
_cell_length_c   9.09700000
_cell_angle_alpha   90.00000000
_cell_angle_beta   105.98800000
_cell_angle_gamma   90.00000000
_symmetry_Int_Tables_number   1
_chemical_formula_structural   Ga4P5(CO12)2
_chemical_formula_sum   'Ga16 P20 C8 O96'
_cell_volume   2758.67315449
_cell_formula_units_Z   4
loop_
 _symmetry_equiv_pos_site_id
 _symmetry_equiv_pos_as_xyz
  1  'x, y, z'
loop_
 _atom_site_type_symbol
 _atom_site_label
 _atom_site_symmetry_multiplicity
 _atom_site_fract_x
 _atom_site_fract_y
 _atom_site_fract_z
 _atom_site_occupancy
 _atom_site_charge
  Ga  Ga1  1  0.161960  0.135690  0.332380  1.0  1.6638
  Ga  Ga2  1  0.251960  0.883720  0.435630  1.0  1.75
  Ga  Ga3  1  0.661960  0.635690  0.332380  1.0  1.6638
  Ga  Ga4  1  0.751960  0.383720  0.435630  1.0  1.75
  Ga  Ga5  1  0.838040  0.135690  0.167620  1.0  1.6617
  Ga  Ga6  1  0.748040  0.883720  0.064370  1.0  1.7504
  Ga  Ga7  1  0.338040  0.635690  0.167620  1.0  1.6617
  Ga  Ga8  1  0.248040  0.383720  0.064370  1.0  1.7504
  Ga  Ga9  1  0.838040  0.864310  0.667620  1.0  1.662
  Ga  Ga10  1  0.748040  0.116280  0.564370  1.0  1.7487
  Ga  Ga11  1  0.338040  0.364310  0.667620  1.0  1.662
  Ga  Ga12  1  0.248040  0.616280  0.564370  1.0  1.7487
  Ga  Ga13  1  0.161960  0.864310  0.832380  1.0  1.664
  Ga  Ga14  1  0.251960  0.116280  0.935630  1.0  1.7483
  Ga  Ga15  1  0.661960  0.364310  0.832380  1.0  1.664
  Ga  Ga16  1  0.751960  0.616280  0.935630  1.0  1.7483
  P  P17  1  0.210730  0.979650  0.135950  1.0  1.8875
  P  P18  1  0.144130  0.233090  0.004490  1.0  1.9689
  P  P19  1  0.710730  0.479650  0.135950  1.0  1.8875
  P  P20  1  0.644130  0.733090  0.004490  1.0  1.9689
  P  P21  1  0.789270  0.979650  0.364050  1.0  1.8877
  P  P22  1  0.855870  0.233090  0.495510  1.0  1.9754
  P  P23  1  0.289270  0.479650  0.364050  1.0  1.8877
  P  P24  1  0.355870  0.733090  0.495510  1.0  1.9754
  P  P25  1  0.789270  0.020350  0.864050  1.0  1.8876
  P  P26  1  0.855870  0.766910  0.995510  1.0  1.9777
  P  P27  1  0.289270  0.520350  0.864050  1.0  1.8876
  P  P28  1  0.355870  0.266910  0.995510  1.0  1.9777
  P  P29  1  0.210730  0.020350  0.635950  1.0  1.8874
  P  P30  1  0.144130  0.766910  0.504490  1.0  1.9683
  P  P31  1  0.710730  0.520350  0.635950  1.0  1.8874
  P  P32  1  0.644130  0.266910  0.504490  1.0  1.9683
  P  P33  1  0.000000  0.188960  0.250000  1.0  1.8653
  P  P34  1  0.500000  0.688960  0.250000  1.0  1.8653
  P  P35  1  0.000000  0.811040  0.750000  1.0  1.8656
  P  P36  1  0.500000  0.311040  0.750000  1.0  1.8656
  C  C37  1  0.219800  0.275700  0.511300  1.0  0.6741
  C  C38  1  0.719800  0.775700  0.511300  1.0  0.6741
  C  C39  1  0.780200  0.275700  0.988700  1.0  0.6756
  C  C40  1  0.280200  0.775700  0.988700  1.0  0.6756
  C  C41  1  0.780200  0.724300  0.488700  1.0  0.6744
  C  C42  1  0.280200  0.224300  0.488700  1.0  0.6744
  C  C43  1  0.219800  0.724300  0.011300  1.0  0.6738
  C  C44  1  0.719800  0.224300  0.011300  1.0  0.6738
  O  O45  1  0.160800  0.245900  0.458500  1.0  -0.5265
  O  O46  1  0.233900  0.345800  0.582600  1.0  -0.5279
  O  O47  1  0.063000  0.133400  0.269600  1.0  -0.8016
  O  O48  1  0.169700  0.213600  0.172600  1.0  -0.8847
  O  O49  1  0.170700  0.035100  0.217800  1.0  -0.8415
  O  O50  1  0.256600  0.916000  0.247700  1.0  -0.8448
  O  O51  1  0.159600  0.932800  0.008200  1.0  -0.7723
  O  O52  1  0.262500  0.030800  0.074500  1.0  -0.8029
  O  O53  1  0.167800  0.164600  0.909500  1.0  -0.8452
  O  O54  1  0.174000  0.319000  0.972500  1.0  -0.8719
  O  O55  1  0.066300  0.238100  0.943800  1.0  -0.5913
  O  O56  1  0.007300  0.248900  0.386700  1.0  -0.5661
  O  O57  1  0.660800  0.745900  0.458500  1.0  -0.5265
  O  O58  1  0.733900  0.845800  0.582600  1.0  -0.5279
  O  O59  1  0.563000  0.633400  0.269600  1.0  -0.8016
  O  O60  1  0.669700  0.713600  0.172600  1.0  -0.8847
  O  O61  1  0.670700  0.535100  0.217800  1.0  -0.8415
  O  O62  1  0.756600  0.416000  0.247700  1.0  -0.8448
  O  O63  1  0.659600  0.432800  0.008200  1.0  -0.7723
  O  O64  1  0.762500  0.530800  0.074500  1.0  -0.8029
  O  O65  1  0.667800  0.664600  0.909500  1.0  -0.8452
  O  O66  1  0.674000  0.819000  0.972500  1.0  -0.8719
  O  O67  1  0.566300  0.738100  0.943800  1.0  -0.5913
  O  O68  1  0.507300  0.748900  0.386700  1.0  -0.5661
  O  O69  1  0.839200  0.245900  0.041500  1.0  -0.528
  O  O70  1  0.766100  0.345800  0.917400  1.0  -0.5285
  O  O71  1  0.937000  0.133400  0.230400  1.0  -0.8019
  O  O72  1  0.830300  0.213600  0.327400  1.0  -0.886
  O  O73  1  0.829300  0.035100  0.282200  1.0  -0.841
  O  O74  1  0.743400  0.916000  0.252300  1.0  -0.8448
  O  O75  1  0.840400  0.932800  0.491800  1.0  -0.7744
  O  O76  1  0.737500  0.030800  0.425500  1.0  -0.8036
  O  O77  1  0.832200  0.164600  0.590500  1.0  -0.8455
  O  O78  1  0.826000  0.319000  0.527500  1.0  -0.8715
  O  O79  1  0.933700  0.238100  0.556200  1.0  -0.5922
  O  O80  1  0.992700  0.248900  0.113300  1.0  -0.5669
  O  O81  1  0.339200  0.745900  0.041500  1.0  -0.528
  O  O82  1  0.266100  0.845800  0.917400  1.0  -0.5285
  O  O83  1  0.437000  0.633400  0.230400  1.0  -0.8019
  O  O84  1  0.330300  0.713600  0.327400  1.0  -0.886
  O  O85  1  0.329300  0.535100  0.282200  1.0  -0.841
  O  O86  1  0.243400  0.416000  0.252300  1.0  -0.8448
  O  O87  1  0.340400  0.432800  0.491800  1.0  -0.7744
  O  O88  1  0.237500  0.530800  0.425500  1.0  -0.8036
  O  O89  1  0.332200  0.664600  0.590500  1.0  -0.8455
  O  O90  1  0.326000  0.819000  0.527500  1.0  -0.8715
  O  O91  1  0.433700  0.738100  0.556200  1.0  -0.5922
  O  O92  1  0.492700  0.748900  0.113300  1.0  -0.5669
  O  O93  1  0.839200  0.754100  0.541500  1.0  -0.5279
  O  O94  1  0.766100  0.654200  0.417400  1.0  -0.5282
  O  O95  1  0.937000  0.866600  0.730400  1.0  -0.8019
  O  O96  1  0.830300  0.786400  0.827400  1.0  -0.8868
  O  O97  1  0.829300  0.964900  0.782200  1.0  -0.8415
  O  O98  1  0.743400  0.084000  0.752300  1.0  -0.8445
  O  O99  1  0.840400  0.067200  0.991800  1.0  -0.7743
  O  O100  1  0.737500  0.969200  0.925500  1.0  -0.8029
  O  O101  1  0.832200  0.835400  0.090500  1.0  -0.8451
  O  O102  1  0.826000  0.681000  0.027500  1.0  -0.8703
  O  O103  1  0.933700  0.761900  0.056200  1.0  -0.5928
  O  O104  1  0.992700  0.751100  0.613300  1.0  -0.5659
  O  O105  1  0.339200  0.254100  0.541500  1.0  -0.5279
  O  O106  1  0.266100  0.154200  0.417400  1.0  -0.5282
  O  O107  1  0.437000  0.366600  0.730400  1.0  -0.8019
  O  O108  1  0.330300  0.286400  0.827400  1.0  -0.8868
  O  O109  1  0.329300  0.464900  0.782200  1.0  -0.8415
  O  O110  1  0.243400  0.584000  0.752300  1.0  -0.8445
  O  O111  1  0.340400  0.567200  0.991800  1.0  -0.7743
  O  O112  1  0.237500  0.469200  0.925500  1.0  -0.8029
  O  O113  1  0.332200  0.335400  0.090500  1.0  -0.8451
  O  O114  1  0.326000  0.181000  0.027500  1.0  -0.8703
  O  O115  1  0.433700  0.261900  0.056200  1.0  -0.5928
  O  O116  1  0.492700  0.251100  0.613300  1.0  -0.5659
  O  O117  1  0.160800  0.754100  0.958500  1.0  -0.5256
  O  O118  1  0.233900  0.654200  0.082600  1.0  -0.5275
  O  O119  1  0.063000  0.866600  0.769600  1.0  -0.8016
  O  O120  1  0.169700  0.786400  0.672600  1.0  -0.8848
  O  O121  1  0.170700  0.964900  0.717800  1.0  -0.8422
  O  O122  1  0.256600  0.084000  0.747700  1.0  -0.844
  O  O123  1  0.159600  0.067200  0.508200  1.0  -0.7724
  O  O124  1  0.262500  0.969200  0.574500  1.0  -0.8028
  O  O125  1  0.167800  0.835400  0.409500  1.0  -0.8446
  O  O126  1  0.174000  0.681000  0.472500  1.0  -0.8714
  O  O127  1  0.066300  0.761900  0.443800  1.0  -0.5914
  O  O128  1  0.007300  0.751100  0.886700  1.0  -0.5669
  O  O129  1  0.660800  0.254100  0.958500  1.0  -0.5256
  O  O130  1  0.733900  0.154200  0.082600  1.0  -0.5275
  O  O131  1  0.563000  0.366600  0.769600  1.0  -0.8016
  O  O132  1  0.669700  0.286400  0.672600  1.0  -0.8848
  O  O133  1  0.670700  0.464900  0.717800  1.0  -0.8422
  O  O134  1  0.756600  0.584000  0.747700  1.0  -0.844
  O  O135  1  0.659600  0.567200  0.508200  1.0  -0.7724
  O  O136  1  0.762500  0.469200  0.574500  1.0  -0.8028
  O  O137  1  0.667800  0.335400  0.409500  1.0  -0.8446
  O  O138  1  0.674000  0.181000  0.472500  1.0  -0.8714
  O  O139  1  0.566300  0.261900  0.443800  1.0  -0.5914
  O  O140  1  0.507300  0.251100  0.886700  1.0  -0.5669
