# generated using pymatgen
data_KCd4C16(N3O4)4
_symmetry_space_group_name_H-M   'P 1'
_cell_length_a   16.05500000
_cell_length_b   17.93690000
_cell_length_c   17.93690000
_cell_angle_alpha   72.88270000
_cell_angle_beta   63.41390000
_cell_angle_gamma   63.41380000
_symmetry_Int_Tables_number   1
_chemical_formula_structural   KCd4C16(N3O4)4
_chemical_formula_sum   'K4 Cd16 C64 N48 O64'
_cell_volume   4102.15189021
_cell_formula_units_Z   4
loop_
 _symmetry_equiv_pos_site_id
 _symmetry_equiv_pos_as_xyz
  1  'x, y, z'
loop_
 _atom_site_type_symbol
 _atom_site_label
 _atom_site_symmetry_multiplicity
 _atom_site_fract_x
 _atom_site_fract_y
 _atom_site_fract_z
 _atom_site_occupancy
 _atom_site_charge
  K  K1  1  0.258900  0.588380  0.911620  1.0  0.934
  K  K2  1  0.258900  0.911620  0.588380  1.0  0.9343
  K  K3  1  0.741100  0.411620  0.088380  1.0  0.9402
  K  K4  1  0.741100  0.088380  0.411620  1.0  0.9369
  Cd  Cd5  1  0.123410  0.267380  0.955020  1.0  0.946
  Cd  Cd6  1  0.387610  0.370670  0.820050  1.0  1.0397
  Cd  Cd7  1  0.845810  0.232620  0.544980  1.0  0.9446
  Cd  Cd8  1  0.078330  0.129330  0.679950  1.0  1.0384
  Cd  Cd9  1  0.154190  0.455020  0.767380  1.0  0.9455
  Cd  Cd10  1  0.921670  0.320050  0.870670  1.0  1.04
  Cd  Cd11  1  0.876590  0.044980  0.732620  1.0  0.9443
  Cd  Cd12  1  0.612390  0.179950  0.629330  1.0  1.0389
  Cd  Cd13  1  0.876590  0.732620  0.044980  1.0  0.9461
  Cd  Cd14  1  0.612390  0.629330  0.179950  1.0  1.0386
  Cd  Cd15  1  0.154190  0.767380  0.455020  1.0  0.9445
  Cd  Cd16  1  0.921670  0.870670  0.320050  1.0  1.0391
  Cd  Cd17  1  0.845810  0.544980  0.232620  1.0  0.9455
  Cd  Cd18  1  0.078330  0.679950  0.129330  1.0  1.0405
  Cd  Cd19  1  0.123410  0.955020  0.267380  1.0  0.9451
  Cd  Cd20  1  0.387610  0.820050  0.370670  1.0  1.0381
  C  C21  1  0.102400  0.415700  0.026700  1.0  0.0081
  C  C22  1  0.200200  0.399000  0.955200  1.0  0.6352
  C  C23  1  0.001300  0.157800  0.092600  1.0  0.0012
  C  C24  1  0.926400  0.217000  0.053200  1.0  0.5598
  C  C25  1  0.240300  0.810800  0.151000  1.0  -0.0007
  C  C26  1  0.227000  0.755000  0.121200  1.0  0.0215
  C  C27  1  0.322500  0.840100  0.132100  1.0  0.6051
  C  C28  1  0.289000  0.697400  0.054000  1.0  0.6197
  C  C29  1  0.044800  0.084300  0.473300  1.0  0.0065
  C  C30  1  0.054400  0.101000  0.544800  1.0  0.6364
  C  C31  1  0.751700  0.342200  0.407400  1.0  0.0008
  C  C32  1  0.696600  0.283000  0.446800  1.0  0.5591
  C  C33  1  0.702100  0.689200  0.349000  1.0  0.0008
  C  C34  1  0.603200  0.745000  0.378800  1.0  0.0217
  C  C35  1  0.794700  0.659900  0.367900  1.0  0.6091
  C  C36  1  0.540400  0.802600  0.446000  1.0  0.6194
  C  C37  1  0.955200  0.526700  0.915700  1.0  0.0128
  C  C38  1  0.945600  0.455200  0.899000  1.0  0.6398
  C  C39  1  0.248300  0.592600  0.657800  1.0  0.002
  C  C40  1  0.303400  0.553200  0.717000  1.0  0.5555
  C  C41  1  0.297900  0.651000  0.310800  1.0  0.0007
  C  C42  1  0.396800  0.621200  0.255000  1.0  0.022
  C  C43  1  0.205300  0.632100  0.340100  1.0  0.5984
  C  C44  1  0.459600  0.554000  0.197400  1.0  0.6165
  C  C45  1  0.897600  0.973300  0.584300  1.0  0.0055
  C  C46  1  0.799800  0.044800  0.601000  1.0  0.6346
  C  C47  1  0.998700  0.907400  0.842200  1.0  0.003
  C  C48  1  0.073600  0.946800  0.783000  1.0  0.5568
  C  C49  1  0.759700  0.849000  0.189200  1.0  -0.0008
  C  C50  1  0.773000  0.878800  0.245000  1.0  0.0217
  C  C51  1  0.677500  0.867900  0.159900  1.0  0.5959
  C  C52  1  0.711000  0.946000  0.302600  1.0  0.6164
  C  C53  1  0.897600  0.584300  0.973300  1.0  0.0064
  C  C54  1  0.799800  0.601000  0.044800  1.0  0.6368
  C  C55  1  0.998700  0.842200  0.907400  1.0  0.0015
  C  C56  1  0.073600  0.783000  0.946800  1.0  0.5603
  C  C57  1  0.759700  0.189200  0.849000  1.0  0.0019
  C  C58  1  0.773000  0.245000  0.878800  1.0  0.021
  C  C59  1  0.677500  0.159900  0.867900  1.0  0.595
  C  C60  1  0.711000  0.302600  0.946000  1.0  0.6216
  C  C61  1  0.955200  0.915700  0.526700  1.0  0.0067
  C  C62  1  0.945600  0.899000  0.455200  1.0  0.6349
  C  C63  1  0.248300  0.657800  0.592600  1.0  0.0022
  C  C64  1  0.303400  0.717000  0.553200  1.0  0.559
  C  C65  1  0.297900  0.310800  0.651000  1.0  0.0006
  C  C66  1  0.396800  0.255000  0.621200  1.0  0.0228
  C  C67  1  0.205300  0.340100  0.632100  1.0  0.6111
  C  C68  1  0.459600  0.197400  0.554000  1.0  0.6205
  C  C69  1  0.044800  0.473300  0.084300  1.0  0.0126
  C  C70  1  0.054400  0.544800  0.101000  1.0  0.6396
  C  C71  1  0.751700  0.407400  0.342200  1.0  0.0041
  C  C72  1  0.696600  0.446800  0.283000  1.0  0.5551
  C  C73  1  0.702100  0.349000  0.689200  1.0  0.0012
  C  C74  1  0.603200  0.378800  0.745000  1.0  0.0221
  C  C75  1  0.794700  0.367900  0.659900  1.0  0.6026
  C  C76  1  0.540400  0.446000  0.802600  1.0  0.6143
  C  C77  1  0.102400  0.026700  0.415700  1.0  0.0081
  C  C78  1  0.200200  0.955200  0.399000  1.0  0.6343
  C  C79  1  0.001300  0.092600  0.157800  1.0  0.0009
  C  C80  1  0.926400  0.053200  0.217000  1.0  0.5571
  C  C81  1  0.240300  0.151000  0.810800  1.0  -0.0019
  C  C82  1  0.227000  0.121200  0.755000  1.0  0.0204
  C  C83  1  0.322500  0.132100  0.840100  1.0  0.5978
  C  C84  1  0.289000  0.054000  0.697400  1.0  0.6176
  N  N85  1  0.049000  0.368900  0.040900  1.0  -0.182
  N  N86  1  0.091500  0.164500  0.062900  1.0  -0.1839
  N  N87  1  0.152400  0.844400  0.213000  1.0  -0.182
  N  N88  1  0.086300  0.814000  0.221800  1.0  -0.0602
  N  N89  1  0.131300  0.759400  0.165600  1.0  -0.2365
  N  N90  1  0.958800  0.131100  0.459100  1.0  -0.1797
  N  N91  1  0.818900  0.335500  0.437100  1.0  -0.1761
  N  N92  1  0.709800  0.655600  0.287000  1.0  -0.1808
  N  N93  1  0.622100  0.686000  0.278200  1.0  -0.0588
  N  N94  1  0.556300  0.740600  0.334400  1.0  -0.2361
  N  N95  1  0.041200  0.540900  0.868900  1.0  -0.1888
  N  N96  1  0.181100  0.562900  0.664500  1.0  -0.1772
  N  N97  1  0.290200  0.713000  0.344400  1.0  -0.1818
  N  N98  1  0.377900  0.721800  0.314000  1.0  -0.0593
  N  N99  1  0.443700  0.665600  0.259400  1.0  -0.2368
  N  N100  1  0.951000  0.959100  0.631100  1.0  -0.189
  N  N101  1  0.908500  0.937100  0.835500  1.0  -0.1792
  N  N102  1  0.847600  0.787000  0.155600  1.0  -0.1818
  N  N103  1  0.913700  0.778200  0.186000  1.0  -0.0596
  N  N104  1  0.868700  0.834400  0.240600  1.0  -0.2336
  N  N105  1  0.951000  0.631100  0.959100  1.0  -0.1814
  N  N106  1  0.908500  0.835500  0.937100  1.0  -0.185
  N  N107  1  0.847600  0.155600  0.787000  1.0  -0.1825
  N  N108  1  0.913700  0.186000  0.778200  1.0  -0.0603
  N  N109  1  0.868700  0.240600  0.834400  1.0  -0.2371
  N  N110  1  0.041200  0.868900  0.540900  1.0  -0.18
  N  N111  1  0.181100  0.664500  0.562900  1.0  -0.1752
  N  N112  1  0.290200  0.344400  0.713000  1.0  -0.1812
  N  N113  1  0.377900  0.314000  0.721800  1.0  -0.0599
  N  N114  1  0.443700  0.259400  0.665600  1.0  -0.2355
  N  N115  1  0.958800  0.459100  0.131100  1.0  -0.1885
  N  N116  1  0.818900  0.437100  0.335500  1.0  -0.1778
  N  N117  1  0.709800  0.287000  0.655600  1.0  -0.1811
  N  N118  1  0.622100  0.278200  0.686000  1.0  -0.0595
  N  N119  1  0.556300  0.334400  0.740600  1.0  -0.2355
  N  N120  1  0.049000  0.040900  0.368900  1.0  -0.189
  N  N121  1  0.091500  0.062900  0.164500  1.0  -0.18
  N  N122  1  0.152400  0.213000  0.844400  1.0  -0.1815
  N  N123  1  0.086300  0.221800  0.814000  1.0  -0.0598
  N  N124  1  0.131300  0.165600  0.759400  1.0  -0.2342
  N  N125  1  0.960900  0.395000  0.105000  1.0  -0.16
  N  N126  1  0.960900  0.105000  0.395000  1.0  -0.1625
  N  N127  1  0.039100  0.605000  0.895000  1.0  -0.1672
  N  N128  1  0.039100  0.895000  0.605000  1.0  -0.1601
  N  N129  1  0.145200  0.106700  0.106700  1.0  -0.0618
  N  N130  1  0.858600  0.393300  0.393300  1.0  -0.0589
  N  N131  1  0.141400  0.606700  0.606700  1.0  -0.0584
  N  N132  1  0.854800  0.893300  0.893300  1.0  -0.0637
  O  O133  1  0.215770  0.357430  0.900430  1.0  -0.6208
  O  O134  1  0.263450  0.425450  0.949050  1.0  -0.5662
  O  O135  1  0.956000  0.267800  0.991200  1.0  -0.6142
  O  O136  1  0.859500  0.194000  0.058800  1.0  -0.3906
  O  O137  1  0.297700  0.900600  0.169400  1.0  -0.525
  O  O138  1  0.407700  0.803300  0.083300  1.0  -0.3462
  O  O139  1  0.254000  0.647300  0.055300  1.0  -0.5884
  O  O140  1  0.368500  0.704200  0.001200  1.0  -0.3319
  O  O141  1  0.973630  0.142570  0.599570  1.0  -0.6228
  O  O142  1  0.137950  0.074550  0.550950  1.0  -0.5475
  O  O143  1  0.715000  0.232200  0.508800  1.0  -0.6143
  O  O144  1  0.612300  0.306000  0.441200  1.0  -0.3901
  O  O145  1  0.867700  0.599400  0.330600  1.0  -0.5049
  O  O146  1  0.794300  0.696700  0.416700  1.0  -0.3394
  O  O147  1  0.456600  0.852700  0.444700  1.0  -0.5818
  O  O148  1  0.573900  0.795800  0.498800  1.0  -0.3324
  O  O149  1  0.026370  0.400430  0.857430  1.0  -0.6234
  O  O150  1  0.862050  0.449050  0.925450  1.0  -0.5502
  O  O151  1  0.285000  0.491200  0.767800  1.0  -0.612
  O  O152  1  0.387700  0.558800  0.694000  1.0  -0.3831
  O  O153  1  0.132300  0.669400  0.400600  1.0  -0.5038
  O  O154  1  0.205700  0.583300  0.303300  1.0  -0.351
  O  O155  1  0.543400  0.555300  0.147300  1.0  -0.5824
  O  O156  1  0.426100  0.501200  0.204200  1.0  -0.3204
  O  O157  1  0.784230  0.099570  0.642570  1.0  -0.6205
  O  O158  1  0.736550  0.050950  0.574550  1.0  -0.5588
  O  O159  1  0.044000  0.008800  0.732200  1.0  -0.6107
  O  O160  1  0.140500  0.941200  0.806000  1.0  -0.3806
  O  O161  1  0.702300  0.830600  0.099400  1.0  -0.5101
  O  O162  1  0.592300  0.916700  0.196700  1.0  -0.3447
  O  O163  1  0.746000  0.944700  0.352700  1.0  -0.5892
  O  O164  1  0.631500  0.998800  0.295800  1.0  -0.327
  O  O165  1  0.784230  0.642570  0.099570  1.0  -0.6221
  O  O166  1  0.736550  0.574550  0.050950  1.0  -0.5635
  O  O167  1  0.044000  0.732200  0.008800  1.0  -0.6122
  O  O168  1  0.140500  0.806000  0.941200  1.0  -0.3904
  O  O169  1  0.702300  0.099400  0.830600  1.0  -0.5258
  O  O170  1  0.592300  0.196700  0.916700  1.0  -0.3444
  O  O171  1  0.746000  0.352700  0.944700  1.0  -0.5875
  O  O172  1  0.631500  0.295800  0.998800  1.0  -0.3334
  O  O173  1  0.026370  0.857430  0.400430  1.0  -0.624
  O  O174  1  0.862050  0.925450  0.449050  1.0  -0.5501
  O  O175  1  0.285000  0.767800  0.491200  1.0  -0.6122
  O  O176  1  0.387700  0.694000  0.558800  1.0  -0.3884
  O  O177  1  0.132300  0.400600  0.669400  1.0  -0.5059
  O  O178  1  0.205700  0.303300  0.583300  1.0  -0.3417
  O  O179  1  0.543400  0.147300  0.555300  1.0  -0.5766
  O  O180  1  0.426100  0.204200  0.501200  1.0  -0.3383
  O  O181  1  0.973630  0.599570  0.142570  1.0  -0.6212
  O  O182  1  0.137950  0.550950  0.074550  1.0  -0.5539
  O  O183  1  0.715000  0.508800  0.232200  1.0  -0.6135
  O  O184  1  0.612300  0.441200  0.306000  1.0  -0.3824
  O  O185  1  0.867700  0.330600  0.599400  1.0  -0.5071
  O  O186  1  0.794300  0.416700  0.696700  1.0  -0.354
  O  O187  1  0.456600  0.444700  0.852700  1.0  -0.5822
  O  O188  1  0.573900  0.498800  0.795800  1.0  -0.3163
  O  O189  1  0.215770  0.900430  0.357430  1.0  -0.6204
  O  O190  1  0.263450  0.949050  0.425450  1.0  -0.5608
  O  O191  1  0.956000  0.991200  0.267800  1.0  -0.6121
  O  O192  1  0.859500  0.058800  0.194000  1.0  -0.3804
  O  O193  1  0.297700  0.169400  0.900600  1.0  -0.5099
  O  O194  1  0.407700  0.083300  0.803300  1.0  -0.3408
  O  O195  1  0.254000  0.055300  0.647300  1.0  -0.5914
  O  O196  1  0.368500  0.001200  0.704200  1.0  -0.3252
