# generated using pymatgen
data_CdH36C48N12(ClO)6
_symmetry_space_group_name_H-M   'P 1'
_cell_length_a   21.46380000
_cell_length_b   21.46380000
_cell_length_c   21.46380000
_cell_angle_alpha   109.47100000
_cell_angle_beta   109.47100000
_cell_angle_gamma   109.47100000
_symmetry_Int_Tables_number   1
_chemical_formula_structural   CdH36C48N12(ClO)6
_chemical_formula_sum   'Cd4 H144 C192 N48 Cl24 O24'
_cell_volume   7612.04760421
_cell_formula_units_Z   4
loop_
 _symmetry_equiv_pos_site_id
 _symmetry_equiv_pos_as_xyz
  1  'x, y, z'
loop_
 _atom_site_type_symbol
 _atom_site_label
 _atom_site_symmetry_multiplicity
 _atom_site_fract_x
 _atom_site_fract_y
 _atom_site_fract_z
 _atom_site_occupancy
 _atom_site_charge
  Cd  Cd1  1  0.500000  0.500000  0.500000  1.0  0.7275
  Cd  Cd2  1  0.500000  0.000000  0.000000  1.0  0.7275
  Cd  Cd3  1  0.000000  0.000000  0.500000  1.0  0.7275
  Cd  Cd4  1  0.000000  0.500000  0.000000  1.0  0.7275
  H  H5  1  0.185000  0.548400  0.386600  1.0  0.304
  H  H6  1  0.124500  0.599500  0.334400  1.0  0.122
  H  H7  1  0.342100  0.422800  0.338300  1.0  0.0747
  H  H8  1  0.230300  0.423500  0.284400  1.0  0.1392
  H  H9  1  0.299900  0.592300  0.488400  1.0  0.1289
  H  H10  1  0.411900  0.591200  0.534300  1.0  0.0832
  H  H11  1  0.661800  0.798400  0.113400  1.0  0.3035
  H  H12  1  0.765100  0.790100  0.165600  1.0  0.1204
  H  H13  1  0.584500  0.003800  0.161700  1.0  0.0775
  H  H14  1  0.639100  0.945900  0.215600  1.0  0.1373
  H  H15  1  0.603900  0.811500  0.011600  1.0  0.1287
  H  H16  1  0.556900  0.877600  0.965700  1.0  0.0824
  H  H17  1  0.838200  0.951600  0.136600  1.0  0.3054
  H  H18  1  0.734900  0.900500  0.025000  1.0  0.1221
  H  H19  1  0.915500  0.077200  0.419300  1.0  0.074
  H  H20  1  0.860900  0.076500  0.306800  1.0  0.1373
  H  H21  1  0.896100  0.907700  0.207600  1.0  0.1287
  H  H22  1  0.943100  0.908800  0.320700  1.0  0.0795
  H  H23  1  0.315000  0.701600  0.363400  1.0  0.3029
  H  H24  1  0.375500  0.709900  0.475000  1.0  0.1217
  H  H25  1  0.157900  0.496200  0.080700  1.0  0.075
  H  H26  1  0.269700  0.554100  0.193200  1.0  0.1381
  H  H27  1  0.200100  0.688500  0.292400  1.0  0.1278
  H  H28  1  0.088100  0.622400  0.179300  1.0  0.0843
  H  H29  1  0.636600  0.838200  0.451600  1.0  0.3051
  H  H30  1  0.525000  0.734900  0.400500  1.0  0.1222
  H  H31  1  0.919300  0.915500  0.577200  1.0  0.0775
  H  H32  1  0.806800  0.860900  0.576500  1.0  0.1373
  H  H33  1  0.707600  0.896100  0.407700  1.0  0.1285
  H  H34  1  0.820700  0.943100  0.408800  1.0  0.0825
  H  H35  1  0.863400  0.315000  0.201600  1.0  0.3062
  H  H36  1  0.975000  0.375500  0.209900  1.0  0.1222
  H  H37  1  0.580700  0.157900  0.996200  1.0  0.0752
  H  H38  1  0.693200  0.269700  0.054100  1.0  0.1369
  H  H39  1  0.792400  0.200100  0.188500  1.0  0.1284
  H  H40  1  0.679300  0.088100  0.122400  1.0  0.0818
  H  H41  1  0.886600  0.185000  0.048400  1.0  0.3054
  H  H42  1  0.834400  0.124500  0.099500  1.0  0.1223
  H  H43  1  0.838300  0.342100  0.922800  1.0  0.0758
  H  H44  1  0.784400  0.230300  0.923500  1.0  0.1374
  H  H45  1  0.988400  0.299900  0.092300  1.0  0.1282
  H  H46  1  0.034300  0.411900  0.091200  1.0  0.0833
  H  H47  1  0.613400  0.661800  0.298400  1.0  0.3041
  H  H48  1  0.665600  0.765100  0.290100  1.0  0.1226
  H  H49  1  0.661700  0.584500  0.503800  1.0  0.0763
  H  H50  1  0.715600  0.639100  0.445900  1.0  0.1385
  H  H51  1  0.511600  0.603900  0.311500  1.0  0.1283
  H  H52  1  0.465700  0.556900  0.377600  1.0  0.0806
  H  H53  1  0.798400  0.613400  0.161800  1.0  0.3043
  H  H54  1  0.790100  0.665600  0.265100  1.0  0.1212
  H  H55  1  0.003800  0.661700  0.084500  1.0  0.0736
  H  H56  1  0.945900  0.715600  0.139100  1.0  0.1377
  H  H57  1  0.811500  0.511600  0.103900  1.0  0.1282
  H  H58  1  0.877600  0.465700  0.056900  1.0  0.08
  H  H59  1  0.548400  0.886600  0.685000  1.0  0.3034
  H  H60  1  0.599500  0.834400  0.624500  1.0  0.1211
  H  H61  1  0.422800  0.838300  0.842100  1.0  0.0757
  H  H62  1  0.423500  0.784400  0.730300  1.0  0.1363
  H  H63  1  0.592300  0.988400  0.799900  1.0  0.1293
  H  H64  1  0.591200  0.034300  0.911900  1.0  0.0842
  H  H65  1  0.701600  0.863400  0.815000  1.0  0.3049
  H  H66  1  0.709900  0.975000  0.875500  1.0  0.1224
  H  H67  1  0.496200  0.580700  0.657900  1.0  0.0772
  H  H68  1  0.554100  0.693200  0.769700  1.0  0.1382
  H  H69  1  0.688500  0.792400  0.700100  1.0  0.1283
  H  H70  1  0.622400  0.679300  0.588100  1.0  0.0849
  H  H71  1  0.951600  0.636600  0.338200  1.0  0.3054
  H  H72  1  0.900500  0.525000  0.234900  1.0  0.1259
  H  H73  1  0.077200  0.919300  0.415500  1.0  0.0754
  H  H74  1  0.076500  0.806800  0.360900  1.0  0.1382
  H  H75  1  0.907700  0.707600  0.396100  1.0  0.1283
  H  H76  1  0.908800  0.820700  0.443100  1.0  0.0786
  H  H77  1  0.815000  0.451600  0.613400  1.0  0.306
  H  H78  1  0.875500  0.400500  0.665600  1.0  0.1222
  H  H79  1  0.657900  0.577200  0.661700  1.0  0.0728
  H  H80  1  0.769700  0.576500  0.715600  1.0  0.1393
  H  H81  1  0.700100  0.407700  0.511600  1.0  0.129
  H  H82  1  0.588100  0.408800  0.465700  1.0  0.083
  H  H83  1  0.338200  0.201600  0.886600  1.0  0.3025
  H  H84  1  0.234900  0.209900  0.834400  1.0  0.1215
  H  H85  1  0.415500  0.996200  0.838300  1.0  0.0749
  H  H86  1  0.360900  0.054100  0.784400  1.0  0.1375
  H  H87  1  0.396100  0.188500  0.988400  1.0  0.1277
  H  H88  1  0.443100  0.122400  0.034300  1.0  0.0811
  H  H89  1  0.161800  0.048400  0.863400  1.0  0.3049
  H  H90  1  0.265100  0.099500  0.975000  1.0  0.1222
  H  H91  1  0.084500  0.922800  0.580700  1.0  0.0736
  H  H92  1  0.139100  0.923500  0.693200  1.0  0.1372
  H  H93  1  0.103900  0.092300  0.792400  1.0  0.1289
  H  H94  1  0.056900  0.091200  0.679300  1.0  0.0798
  H  H95  1  0.685000  0.298400  0.636600  1.0  0.3041
  H  H96  1  0.624500  0.290100  0.525000  1.0  0.1214
  H  H97  1  0.842100  0.503800  0.919300  1.0  0.0735
  H  H98  1  0.730300  0.445900  0.806800  1.0  0.1378
  H  H99  1  0.799900  0.311500  0.707600  1.0  0.128
  H  H100  1  0.911900  0.377600  0.820700  1.0  0.0833
  H  H101  1  0.363400  0.161800  0.548400  1.0  0.3052
  H  H102  1  0.475000  0.265100  0.599500  1.0  0.1221
  H  H103  1  0.080700  0.084500  0.422800  1.0  0.0753
  H  H104  1  0.193200  0.139100  0.423500  1.0  0.1375
  H  H105  1  0.292400  0.103900  0.592300  1.0  0.1287
  H  H106  1  0.179300  0.056900  0.591200  1.0  0.0812
  H  H107  1  0.136600  0.685000  0.798400  1.0  0.3062
  H  H108  1  0.025000  0.624500  0.790100  1.0  0.1227
  H  H109  1  0.419300  0.842100  0.003800  1.0  0.0748
  H  H110  1  0.306800  0.730300  0.945900  1.0  0.1371
  H  H111  1  0.207600  0.799900  0.811500  1.0  0.128
  H  H112  1  0.320700  0.911900  0.877600  1.0  0.0814
  H  H113  1  0.113400  0.815000  0.951600  1.0  0.3054
  H  H114  1  0.165600  0.875500  0.900500  1.0  0.1227
  H  H115  1  0.161700  0.657900  0.077200  1.0  0.0741
  H  H116  1  0.215600  0.769700  0.076500  1.0  0.1374
  H  H117  1  0.011600  0.700100  0.907700  1.0  0.1273
  H  H118  1  0.965700  0.588100  0.908800  1.0  0.0826
  H  H119  1  0.386600  0.338200  0.701600  1.0  0.3052
  H  H120  1  0.334400  0.234900  0.709900  1.0  0.1223
  H  H121  1  0.338300  0.415500  0.496200  1.0  0.0742
  H  H122  1  0.284400  0.360900  0.554100  1.0  0.1365
  H  H123  1  0.488400  0.396100  0.688500  1.0  0.1289
  H  H124  1  0.534300  0.443100  0.622400  1.0  0.0802
  H  H125  1  0.201600  0.386600  0.838200  1.0  0.3036
  H  H126  1  0.209900  0.334400  0.734900  1.0  0.1204
  H  H127  1  0.996200  0.338300  0.915500  1.0  0.0744
  H  H128  1  0.054100  0.284400  0.860900  1.0  0.1382
  H  H129  1  0.188500  0.488400  0.896100  1.0  0.1282
  H  H130  1  0.122400  0.534300  0.943100  1.0  0.0804
  H  H131  1  0.451600  0.113400  0.315000  1.0  0.3043
  H  H132  1  0.400500  0.165600  0.375500  1.0  0.1215
  H  H133  1  0.577200  0.161700  0.157900  1.0  0.0721
  H  H134  1  0.576500  0.215600  0.269700  1.0  0.1358
  H  H135  1  0.407700  0.011600  0.200100  1.0  0.129
  H  H136  1  0.408800  0.965700  0.088100  1.0  0.0844
  H  H137  1  0.298400  0.136600  0.185000  1.0  0.3044
  H  H138  1  0.290100  0.025000  0.124500  1.0  0.1232
  H  H139  1  0.503800  0.419300  0.342100  1.0  0.0748
  H  H140  1  0.445900  0.306800  0.230300  1.0  0.1384
  H  H141  1  0.311500  0.207600  0.299900  1.0  0.1277
  H  H142  1  0.377600  0.320700  0.411900  1.0  0.0843
  H  H143  1  0.048400  0.363400  0.661800  1.0  0.305
  H  H144  1  0.099500  0.475000  0.765100  1.0  0.1241
  H  H145  1  0.922800  0.080700  0.584500  1.0  0.0738
  H  H146  1  0.923500  0.193200  0.639100  1.0  0.1375
  H  H147  1  0.092300  0.292400  0.603900  1.0  0.1283
  H  H148  1  0.091200  0.179300  0.556900  1.0  0.0779
  C  C149  1  0.074300  0.559500  0.304600  1.0  -0.0892
  C  C150  1  0.059000  0.484400  0.274600  1.0  -0.0166
  C  C151  1  0.121800  0.465000  0.285600  1.0  0.573
  C  C152  1  0.333800  0.457900  0.368900  1.0  0.1732
  C  C153  1  0.265800  0.457200  0.336000  1.0  -0.2516
  C  C154  1  0.251200  0.506900  0.380500  1.0  0.2918
  C  C155  1  0.307400  0.557600  0.456400  1.0  -0.2759
  C  C156  1  0.374200  0.555800  0.483800  1.0  0.1793
  C  C157  1  0.754900  0.769700  0.195400  1.0  -0.096
  C  C158  1  0.709800  0.784400  0.225400  1.0  -0.0277
  C  C159  1  0.679400  0.836200  0.214400  1.0  0.5796
  C  C160  1  0.589000  0.964900  0.131100  1.0  0.1743
  C  C161  1  0.621200  0.929800  0.164000  1.0  -0.2458
  C  C162  1  0.626400  0.870700  0.119500  1.0  0.2915
  C  C163  1  0.601200  0.851000  0.043600  1.0  -0.2768
  C  C164  1  0.572000  0.890400  0.016200  1.0  0.1782
  C  C165  1  0.745100  0.940500  0.014800  1.0  -0.0946
  C  C166  1  0.790200  0.015600  0.074600  1.0  -0.0248
  C  C167  1  0.820600  0.035000  0.156800  1.0  0.5745
  C  C168  1  0.911000  0.042100  0.375900  1.0  0.1729
  C  C169  1  0.878800  0.042800  0.308600  1.0  -0.2521
  C  C170  1  0.873600  0.993100  0.244300  1.0  0.2917
  C  C171  1  0.898800  0.942400  0.249800  1.0  -0.2764
  C  C172  1  0.928000  0.944200  0.318400  1.0  0.1797
  C  C173  1  0.425700  0.730300  0.485200  1.0  -0.0977
  C  C174  1  0.441000  0.715600  0.425400  1.0  -0.0248
  C  C175  1  0.378200  0.663800  0.343200  1.0  0.5821
  C  C176  1  0.166200  0.535100  0.124100  1.0  0.1753
  C  C177  1  0.234200  0.570200  0.191400  1.0  -0.2526
  C  C178  1  0.248800  0.629300  0.255700  1.0  0.2905
  C  C179  1  0.192600  0.649000  0.250200  1.0  -0.2761
  C  C180  1  0.125800  0.609600  0.181600  1.0  0.1753
  C  C181  1  0.514800  0.745100  0.440500  1.0  -0.0976
  C  C182  1  0.574600  0.790200  0.515600  1.0  -0.0233
  C  C183  1  0.656800  0.820600  0.535000  1.0  0.5727
  C  C184  1  0.875900  0.911000  0.542100  1.0  0.175
  C  C185  1  0.808600  0.878800  0.542800  1.0  -0.2457
  C  C186  1  0.744300  0.873600  0.493100  1.0  0.292
  C  C187  1  0.749800  0.898800  0.442400  1.0  -0.2787
  C  C188  1  0.818400  0.928000  0.444200  1.0  0.1779
  C  C189  1  0.985200  0.425700  0.230300  1.0  -0.0978
  C  C190  1  0.925400  0.441000  0.215600  1.0  -0.025
  C  C191  1  0.843200  0.378200  0.163800  1.0  0.5799
  C  C192  1  0.624100  0.166200  0.035100  1.0  0.173
  C  C193  1  0.691400  0.234200  0.070200  1.0  -0.2508
  C  C194  1  0.755700  0.248800  0.129300  1.0  0.2916
  C  C195  1  0.750200  0.192600  0.149000  1.0  -0.2699
  C  C196  1  0.681600  0.125800  0.109600  1.0  0.1809
  C  C197  1  0.804600  0.074300  0.059500  1.0  -0.0878
  C  C198  1  0.774600  0.059000  0.984400  1.0  -0.0162
  C  C199  1  0.785600  0.121800  0.965000  1.0  0.5798
  C  C200  1  0.868900  0.333800  0.957900  1.0  0.1742
  C  C201  1  0.836000  0.265800  0.957200  1.0  -0.2537
  C  C202  1  0.880500  0.251200  0.006900  1.0  0.291
  C  C203  1  0.956400  0.307400  0.057600  1.0  -0.2777
  C  C204  1  0.983800  0.374200  0.055800  1.0  0.1765
  C  C205  1  0.695400  0.754900  0.269700  1.0  -0.095
  C  C206  1  0.725400  0.709800  0.284400  1.0  -0.0253
  C  C207  1  0.714400  0.679400  0.336200  1.0  0.5764
  C  C208  1  0.631100  0.589000  0.464900  1.0  0.1784
  C  C209  1  0.664000  0.621200  0.429800  1.0  -0.2492
  C  C210  1  0.619500  0.626400  0.370700  1.0  0.2915
  C  C211  1  0.543600  0.601200  0.351000  1.0  -0.2759
  C  C212  1  0.516200  0.572000  0.390400  1.0  0.1812
  C  C213  1  0.769700  0.695400  0.254900  1.0  -0.0958
  C  C214  1  0.784400  0.725400  0.209800  1.0  -0.0269
  C  C215  1  0.836200  0.714400  0.179400  1.0  0.5802
  C  C216  1  0.964900  0.631100  0.089000  1.0  0.1737
  C  C217  1  0.929800  0.664000  0.121200  1.0  -0.256
  C  C218  1  0.870700  0.619500  0.126400  1.0  0.2907
  C  C219  1  0.851000  0.543600  0.101200  1.0  -0.2786
  C  C220  1  0.890400  0.516200  0.072000  1.0  0.1768
  C  C221  1  0.559500  0.804600  0.574300  1.0  -0.09
  C  C222  1  0.484400  0.774600  0.559000  1.0  -0.0149
  C  C223  1  0.465000  0.785600  0.621800  1.0  0.5776
  C  C224  1  0.457900  0.868900  0.833800  1.0  0.175
  C  C225  1  0.457200  0.836000  0.765800  1.0  -0.2513
  C  C226  1  0.506900  0.880500  0.751200  1.0  0.2925
  C  C227  1  0.557600  0.956400  0.807400  1.0  -0.2753
  C  C228  1  0.555800  0.983800  0.874200  1.0  0.1797
  C  C229  1  0.730300  0.985200  0.925700  1.0  -0.0961
  C  C230  1  0.715600  0.925400  0.941000  1.0  -0.0275
  C  C231  1  0.663800  0.843200  0.878200  1.0  0.5779
  C  C232  1  0.535100  0.624100  0.666200  1.0  0.1756
  C  C233  1  0.570200  0.691400  0.734200  1.0  -0.2453
  C  C234  1  0.629300  0.755700  0.748800  1.0  0.2917
  C  C235  1  0.649000  0.750200  0.692600  1.0  -0.2765
  C  C236  1  0.609600  0.681600  0.625800  1.0  0.179
  C  C237  1  0.940500  0.514800  0.245100  1.0  -0.1001
  C  C238  1  0.015600  0.574600  0.290200  1.0  -0.0218
  C  C239  1  0.035000  0.656800  0.320600  1.0  0.5755
  C  C240  1  0.042100  0.875900  0.411000  1.0  0.1767
  C  C241  1  0.042800  0.808600  0.378800  1.0  -0.2489
  C  C242  1  0.993100  0.744300  0.373600  1.0  0.2915
  C  C243  1  0.942400  0.749800  0.398800  1.0  -0.2726
  C  C244  1  0.944200  0.818400  0.428000  1.0  0.1799
  C  C245  1  0.925700  0.440500  0.695400  1.0  -0.0897
  C  C246  1  0.941000  0.515600  0.725400  1.0  -0.0174
  C  C247  1  0.878200  0.535000  0.714400  1.0  0.5743
  C  C248  1  0.666200  0.542100  0.631100  1.0  0.172
  C  C249  1  0.734200  0.542800  0.664000  1.0  -0.2516
  C  C250  1  0.748800  0.493100  0.619500  1.0  0.2916
  C  C251  1  0.692600  0.442400  0.543600  1.0  -0.2739
  C  C252  1  0.625800  0.444200  0.516200  1.0  0.1789
  C  C253  1  0.245100  0.230300  0.804600  1.0  -0.0952
  C  C254  1  0.290200  0.215600  0.774600  1.0  -0.0274
  C  C255  1  0.320600  0.163800  0.785600  1.0  0.5793
  C  C256  1  0.411000  0.035100  0.868900  1.0  0.1725
  C  C257  1  0.378800  0.070200  0.836000  1.0  -0.2471
  C  C258  1  0.373600  0.129300  0.880500  1.0  0.2914
  C  C259  1  0.398800  0.149000  0.956400  1.0  -0.2752
  C  C260  1  0.428000  0.109600  0.983800  1.0  0.1788
  C  C261  1  0.254900  0.059500  0.985200  1.0  -0.0958
  C  C262  1  0.209800  0.984400  0.925400  1.0  -0.0237
  C  C263  1  0.179400  0.965000  0.843200  1.0  0.5732
  C  C264  1  0.089000  0.957900  0.624100  1.0  0.1749
  C  C265  1  0.121200  0.957200  0.691400  1.0  -0.251
  C  C266  1  0.126400  0.006900  0.755700  1.0  0.2911
  C  C267  1  0.101200  0.057600  0.750200  1.0  -0.2779
  C  C268  1  0.072000  0.055800  0.681600  1.0  0.1799
  C  C269  1  0.574300  0.269700  0.514800  1.0  -0.0985
  C  C270  1  0.559000  0.284400  0.574600  1.0  -0.0247
  C  C271  1  0.621800  0.336200  0.656800  1.0  0.5822
  C  C272  1  0.833800  0.464900  0.875900  1.0  0.1746
  C  C273  1  0.765800  0.429800  0.808600  1.0  -0.2523
  C  C274  1  0.751200  0.370700  0.744300  1.0  0.29
  C  C275  1  0.807400  0.351000  0.749800  1.0  -0.2765
  C  C276  1  0.874200  0.390400  0.818400  1.0  0.1749
  C  C277  1  0.485200  0.254900  0.559500  1.0  -0.0968
  C  C278  1  0.425400  0.209800  0.484400  1.0  -0.0212
  C  C279  1  0.343200  0.179400  0.465000  1.0  0.5745
  C  C280  1  0.124100  0.089000  0.457900  1.0  0.1729
  C  C281  1  0.191400  0.121200  0.457200  1.0  -0.2446
  C  C282  1  0.255700  0.126400  0.506900  1.0  0.2912
  C  C283  1  0.250200  0.101200  0.557600  1.0  -0.2784
  C  C284  1  0.181600  0.072000  0.555800  1.0  0.1787
  C  C285  1  0.014800  0.574300  0.769700  1.0  -0.0978
  C  C286  1  0.074600  0.559000  0.784400  1.0  -0.0271
  C  C287  1  0.156800  0.621800  0.836200  1.0  0.5804
  C  C288  1  0.375900  0.833800  0.964900  1.0  0.1746
  C  C289  1  0.308600  0.765800  0.929800  1.0  -0.2517
  C  C290  1  0.244300  0.751200  0.870700  1.0  0.2915
  C  C291  1  0.249800  0.807400  0.851000  1.0  -0.2718
  C  C292  1  0.318400  0.874200  0.890400  1.0  0.1799
  C  C293  1  0.195400  0.925700  0.940500  1.0  -0.0869
  C  C294  1  0.225400  0.941000  0.015600  1.0  -0.0158
  C  C295  1  0.214400  0.878200  0.035000  1.0  0.5831
  C  C296  1  0.131100  0.666200  0.042100  1.0  0.1746
  C  C297  1  0.164000  0.734200  0.042800  1.0  -0.2532
  C  C298  1  0.119500  0.748800  0.993100  1.0  0.2905
  C  C299  1  0.043600  0.692600  0.942400  1.0  -0.2786
  C  C300  1  0.016200  0.625800  0.944200  1.0  0.1778
  C  C301  1  0.304600  0.245100  0.730300  1.0  -0.0947
  C  C302  1  0.274600  0.290200  0.715600  1.0  -0.0266
  C  C303  1  0.285600  0.320600  0.663800  1.0  0.5743
  C  C304  1  0.368900  0.411000  0.535100  1.0  0.1769
  C  C305  1  0.336000  0.378800  0.570200  1.0  -0.2499
  C  C306  1  0.380500  0.373600  0.629300  1.0  0.2918
  C  C307  1  0.456400  0.398800  0.649000  1.0  -0.2735
  C  C308  1  0.483800  0.428000  0.609600  1.0  0.1798
  C  C309  1  0.230300  0.304600  0.745100  1.0  -0.0954
  C  C310  1  0.215600  0.274600  0.790200  1.0  -0.0248
  C  C311  1  0.163800  0.285600  0.820600  1.0  0.582
  C  C312  1  0.035100  0.368900  0.911000  1.0  0.1738
  C  C313  1  0.070200  0.336000  0.878800  1.0  -0.2551
  C  C314  1  0.129300  0.380500  0.873600  1.0  0.2891
  C  C315  1  0.149000  0.456400  0.898800  1.0  -0.2794
  C  C316  1  0.109600  0.483800  0.928000  1.0  0.178
  C  C317  1  0.440500  0.195400  0.425700  1.0  -0.0879
  C  C318  1  0.515600  0.225400  0.441000  1.0  -0.017
  C  C319  1  0.535000  0.214400  0.378200  1.0  0.5777
  C  C320  1  0.542100  0.131100  0.166200  1.0  0.1747
  C  C321  1  0.542800  0.164000  0.234200  1.0  -0.2507
  C  C322  1  0.493100  0.119500  0.248800  1.0  0.2923
  C  C323  1  0.442400  0.043600  0.192600  1.0  -0.2741
  C  C324  1  0.444200  0.016200  0.125800  1.0  0.1801
  C  C325  1  0.269700  0.014800  0.074300  1.0  -0.0963
  C  C326  1  0.284400  0.074600  0.059000  1.0  -0.0251
  C  C327  1  0.336200  0.156800  0.121800  1.0  0.5759
  C  C328  1  0.464900  0.375900  0.333800  1.0  0.1738
  C  C329  1  0.429800  0.308600  0.265800  1.0  -0.2453
  C  C330  1  0.370700  0.244300  0.251200  1.0  0.2924
  C  C331  1  0.351000  0.249800  0.307400  1.0  -0.2786
  C  C332  1  0.390400  0.318400  0.374200  1.0  0.1806
  C  C333  1  0.059500  0.485200  0.754900  1.0  -0.1007
  C  C334  1  0.984400  0.425400  0.709800  1.0  -0.0241
  C  C335  1  0.965000  0.343200  0.679400  1.0  0.5761
  C  C336  1  0.957900  0.124100  0.589000  1.0  0.1762
  C  C337  1  0.957200  0.191400  0.621200  1.0  -0.2507
  C  C338  1  0.006900  0.255700  0.626400  1.0  0.2915
  C  C339  1  0.057600  0.250200  0.601200  1.0  -0.2718
  C  C340  1  0.055800  0.181600  0.572000  1.0  0.1788
  N  N341  1  0.387930  0.505840  0.441610  1.0  -0.3475
  N  N342  1  0.185300  0.511500  0.354600  1.0  -0.3833
  N  N343  1  0.564230  0.946320  0.058390  1.0  -0.3352
  N  N344  1  0.656900  0.830700  0.145400  1.0  -0.3846
  N  N345  1  0.935770  0.994160  0.382090  1.0  -0.3461
  N  N346  1  0.843100  0.988500  0.173800  1.0  -0.3844
  N  N347  1  0.112070  0.553680  0.117910  1.0  -0.35
  N  N348  1  0.314700  0.669300  0.326200  1.0  -0.3862
  N  N349  1  0.882090  0.935770  0.494160  1.0  -0.3489
  N  N350  1  0.673800  0.843100  0.488500  1.0  -0.3845
  N  N351  1  0.617910  0.112070  0.053680  1.0  -0.346
  N  N352  1  0.826200  0.314700  0.169300  1.0  -0.3843
  N  N353  1  0.941610  0.387930  0.005840  1.0  -0.3486
  N  N354  1  0.854600  0.185300  0.011500  1.0  -0.3861
  N  N355  1  0.558390  0.564230  0.446320  1.0  -0.3344
  N  N356  1  0.645400  0.656900  0.330700  1.0  -0.384
  N  N357  1  0.946320  0.558390  0.064230  1.0  -0.3351
  N  N358  1  0.830700  0.645400  0.156900  1.0  -0.3861
  N  N359  1  0.505840  0.941610  0.887930  1.0  -0.3462
  N  N360  1  0.511500  0.854600  0.685300  1.0  -0.3818
  N  N361  1  0.553680  0.617910  0.612070  1.0  -0.3497
  N  N362  1  0.669300  0.826200  0.814700  1.0  -0.3848
  N  N363  1  0.994160  0.882090  0.435770  1.0  -0.3497
  N  N364  1  0.988500  0.673800  0.343100  1.0  -0.3848
  N  N365  1  0.612070  0.494160  0.558390  1.0  -0.3454
  N  N366  1  0.814700  0.488500  0.645400  1.0  -0.3834
  N  N367  1  0.435770  0.053680  0.941610  1.0  -0.3338
  N  N368  1  0.343100  0.169300  0.854600  1.0  -0.3835
  N  N369  1  0.064230  0.005840  0.617910  1.0  -0.3491
  N  N370  1  0.156900  0.011500  0.826200  1.0  -0.3852
  N  N371  1  0.887930  0.446320  0.882090  1.0  -0.3466
  N  N372  1  0.685300  0.330700  0.673800  1.0  -0.3849
  N  N373  1  0.117910  0.064230  0.505840  1.0  -0.349
  N  N374  1  0.326200  0.156900  0.511500  1.0  -0.3857
  N  N375  1  0.382090  0.887930  0.946320  1.0  -0.3455
  N  N376  1  0.173800  0.685300  0.830700  1.0  -0.3845
  N  N377  1  0.058390  0.612070  0.994160  1.0  -0.3475
  N  N378  1  0.145400  0.814700  0.988500  1.0  -0.3855
  N  N379  1  0.441610  0.435770  0.553680  1.0  -0.3348
  N  N380  1  0.354600  0.343100  0.669300  1.0  -0.3838
  N  N381  1  0.053680  0.441610  0.935770  1.0  -0.3346
  N  N382  1  0.169300  0.354600  0.843100  1.0  -0.3853
  N  N383  1  0.494160  0.058390  0.112070  1.0  -0.3495
  N  N384  1  0.488500  0.145400  0.314700  1.0  -0.3831
  N  N385  1  0.446320  0.382090  0.387930  1.0  -0.3494
  N  N386  1  0.330700  0.173800  0.185300  1.0  -0.3839
  N  N387  1  0.005840  0.117910  0.564230  1.0  -0.3462
  N  N388  1  0.011500  0.326200  0.656900  1.0  -0.3843
  Cl  Cl389  1  0.188000  0.619100  0.483900  1.0  -0.3213
  Cl  Cl390  1  0.635200  0.704100  0.016100  1.0  -0.3245
  Cl  Cl391  1  0.864800  0.880900  0.068900  1.0  -0.3098
  Cl  Cl392  1  0.312000  0.795900  0.431100  1.0  -0.3208
  Cl  Cl393  1  0.568900  0.864800  0.380900  1.0  -0.3076
  Cl  Cl394  1  0.931100  0.312000  0.295900  1.0  -0.3212
  Cl  Cl395  1  0.983900  0.188000  0.119100  1.0  -0.3221
  Cl  Cl396  1  0.516100  0.635200  0.204100  1.0  -0.322
  Cl  Cl397  1  0.704100  0.516100  0.135200  1.0  -0.3224
  Cl  Cl398  1  0.619100  0.983900  0.688000  1.0  -0.3251
  Cl  Cl399  1  0.795900  0.931100  0.812000  1.0  -0.3214
  Cl  Cl400  1  0.880900  0.568900  0.364800  1.0  -0.3094
  Cl  Cl401  1  0.812000  0.380900  0.516100  1.0  -0.3223
  Cl  Cl402  1  0.364800  0.295900  0.983900  1.0  -0.3202
  Cl  Cl403  1  0.135200  0.119100  0.931100  1.0  -0.3084
  Cl  Cl404  1  0.688000  0.204100  0.568900  1.0  -0.3234
  Cl  Cl405  1  0.431100  0.135200  0.619100  1.0  -0.311
  Cl  Cl406  1  0.068900  0.688000  0.704100  1.0  -0.3211
  Cl  Cl407  1  0.016100  0.812000  0.880900  1.0  -0.3191
  Cl  Cl408  1  0.483900  0.364800  0.795900  1.0  -0.3225
  Cl  Cl409  1  0.295900  0.483900  0.864800  1.0  -0.3222
  Cl  Cl410  1  0.380900  0.016100  0.312000  1.0  -0.3269
  Cl  Cl411  1  0.204100  0.068900  0.188000  1.0  -0.3211
  Cl  Cl412  1  0.119100  0.431100  0.635200  1.0  -0.3109
  O  O413  1  0.113500  0.410400  0.234300  1.0  -0.4997
  O  O414  1  0.676100  0.879200  0.265700  1.0  -0.5022
  O  O415  1  0.823900  0.089600  0.203100  1.0  -0.5013
  O  O416  1  0.386500  0.620800  0.296900  1.0  -0.5026
  O  O417  1  0.703100  0.823900  0.589600  1.0  -0.5019
  O  O418  1  0.796900  0.386500  0.120800  1.0  -0.4997
  O  O419  1  0.734300  0.113500  0.910400  1.0  -0.5015
  O  O420  1  0.765700  0.676100  0.379200  1.0  -0.502
  O  O421  1  0.879200  0.765700  0.176100  1.0  -0.5013
  O  O422  1  0.410400  0.734300  0.613500  1.0  -0.5024
  O  O423  1  0.620800  0.796900  0.886500  1.0  -0.5019
  O  O424  1  0.089600  0.703100  0.323900  1.0  -0.5004
  O  O425  1  0.886500  0.589600  0.765700  1.0  -0.5003
  O  O426  1  0.323900  0.120800  0.734300  1.0  -0.5034
  O  O427  1  0.176100  0.910400  0.796900  1.0  -0.5002
  O  O428  1  0.613500  0.379200  0.703100  1.0  -0.4992
  O  O429  1  0.296900  0.176100  0.410400  1.0  -0.5017
  O  O430  1  0.203100  0.613500  0.879200  1.0  -0.5004
  O  O431  1  0.265700  0.886500  0.089600  1.0  -0.5017
  O  O432  1  0.234300  0.323900  0.620800  1.0  -0.5006
  O  O433  1  0.120800  0.234300  0.823900  1.0  -0.5005
  O  O434  1  0.589600  0.265700  0.386500  1.0  -0.5016
  O  O435  1  0.379200  0.203100  0.113500  1.0  -0.5027
  O  O436  1  0.910400  0.296900  0.676100  1.0  -0.5008
