# generated using pymatgen
data_ZnH3(C3O2)3
_symmetry_space_group_name_H-M   'P 1'
_cell_length_a   16.96500000
_cell_length_b   15.51710000
_cell_length_c   14.07260000
_cell_angle_alpha   90.00000000
_cell_angle_beta   108.11900000
_cell_angle_gamma   90.00000000
_symmetry_Int_Tables_number   1
_chemical_formula_structural   ZnH3(C3O2)3
_chemical_formula_sum   'Zn6 H18 C54 O36'
_cell_volume   3520.87800034
_cell_formula_units_Z   6
loop_
 _symmetry_equiv_pos_site_id
 _symmetry_equiv_pos_as_xyz
  1  'x, y, z'
loop_
 _atom_site_type_symbol
 _atom_site_label
 _atom_site_symmetry_multiplicity
 _atom_site_fract_x
 _atom_site_fract_y
 _atom_site_fract_z
 _atom_site_occupancy
 _atom_site_charge
  Zn  Zn1  1  0.512250  0.704370  0.636360  1.0  1.0908
  Zn  Zn2  1  0.487750  0.704370  0.863640  1.0  1.093
  Zn  Zn3  1  0.487750  0.295630  0.363640  1.0  1.0903
  Zn  Zn4  1  0.512250  0.295630  0.136360  1.0  1.0879
  Zn  Zn5  1  0.000000  0.956500  0.250000  1.0  1.118
  Zn  Zn6  1  0.000000  0.043500  0.750000  1.0  1.1177
  H  H7  1  0.496300  0.437000  0.606500  1.0  0.1231
  H  H8  1  0.083300  0.919600  0.536000  1.0  0.1118
  H  H9  1  0.270900  0.791400  0.496500  1.0  0.124
  H  H10  1  0.267000  0.846900  0.774600  1.0  0.1264
  H  H11  1  0.503700  0.437000  0.893500  1.0  0.1233
  H  H12  1  0.916700  0.919600  0.964000  1.0  0.1117
  H  H13  1  0.729100  0.791400  0.003500  1.0  0.1242
  H  H14  1  0.733000  0.846900  0.725400  1.0  0.1264
  H  H15  1  0.503700  0.563000  0.393500  1.0  0.1232
  H  H16  1  0.916700  0.080400  0.464000  1.0  0.1118
  H  H17  1  0.729100  0.208600  0.503500  1.0  0.124
  H  H18  1  0.733000  0.153100  0.225400  1.0  0.1263
  H  H19  1  0.496300  0.563000  0.106500  1.0  0.1231
  H  H20  1  0.083300  0.080400  0.036000  1.0  0.1122
  H  H21  1  0.270900  0.208600  0.996500  1.0  0.1238
  H  H22  1  0.267000  0.153100  0.274600  1.0  0.1264
  H  H23  1  0.500000  0.214000  0.750000  1.0  0.1275
  H  H24  1  0.500000  0.786000  0.250000  1.0  0.1274
  C  C25  1  0.497300  0.406900  0.664100  1.0  0.0157
  C  C26  1  0.495900  0.318300  0.662000  1.0  -0.1085
  C  C27  1  0.491200  0.272300  0.568500  1.0  0.7051
  C  C28  1  0.133900  0.891800  0.563100  1.0  0.0359
  C  C29  1  0.170000  0.854600  0.499900  1.0  -0.123
  C  C30  1  0.245600  0.816400  0.539600  1.0  -0.0393
  C  C31  1  0.286800  0.813600  0.643000  1.0  -0.1444
  C  C32  1  0.243800  0.850200  0.705500  1.0  0.0292
  C  C33  1  0.168400  0.890600  0.665200  1.0  -0.1747
  C  C34  1  0.367900  0.774600  0.685000  1.0  0.7626
  C  C35  1  0.131300  0.859800  0.391100  1.0  0.7141
  C  C36  1  0.129600  0.934300  0.733500  1.0  0.7241
  C  C37  1  0.502700  0.406900  0.835900  1.0  0.0159
  C  C38  1  0.504100  0.318300  0.838000  1.0  -0.1084
  C  C39  1  0.508800  0.272300  0.931500  1.0  0.707
  C  C40  1  0.866100  0.891800  0.936900  1.0  0.0349
  C  C41  1  0.830000  0.854600  0.000100  1.0  -0.1239
  C  C42  1  0.754400  0.816400  0.960400  1.0  -0.0387
  C  C43  1  0.713200  0.813600  0.857000  1.0  -0.1448
  C  C44  1  0.756200  0.850200  0.794500  1.0  0.0254
  C  C45  1  0.831600  0.890600  0.834800  1.0  -0.1748
  C  C46  1  0.632100  0.774600  0.815000  1.0  0.7639
  C  C47  1  0.868700  0.859800  0.108900  1.0  0.715
  C  C48  1  0.870400  0.934300  0.766500  1.0  0.7222
  C  C49  1  0.502700  0.593100  0.335900  1.0  0.0173
  C  C50  1  0.504100  0.681700  0.338000  1.0  -0.108
  C  C51  1  0.508800  0.727700  0.431500  1.0  0.7059
  C  C52  1  0.866100  0.108200  0.436900  1.0  0.035
  C  C53  1  0.830000  0.145400  0.500100  1.0  -0.1243
  C  C54  1  0.754400  0.183600  0.460400  1.0  -0.0391
  C  C55  1  0.713200  0.186400  0.357000  1.0  -0.1444
  C  C56  1  0.756200  0.149800  0.294500  1.0  0.0254
  C  C57  1  0.831600  0.109400  0.334800  1.0  -0.1751
  C  C58  1  0.632100  0.225400  0.315000  1.0  0.7642
  C  C59  1  0.868700  0.140200  0.608900  1.0  0.715
  C  C60  1  0.870400  0.065700  0.266500  1.0  0.7212
  C  C61  1  0.497300  0.593100  0.164100  1.0  0.0155
  C  C62  1  0.495900  0.681700  0.162000  1.0  -0.1075
  C  C63  1  0.491200  0.727700  0.068500  1.0  0.7059
  C  C64  1  0.133900  0.108200  0.063100  1.0  0.0362
  C  C65  1  0.170000  0.145400  0.999900  1.0  -0.1225
  C  C66  1  0.245600  0.183600  0.039600  1.0  -0.0404
  C  C67  1  0.286800  0.186400  0.143000  1.0  -0.1444
  C  C68  1  0.243800  0.149800  0.205500  1.0  0.029
  C  C69  1  0.168400  0.109400  0.165200  1.0  -0.1746
  C  C70  1  0.367900  0.225400  0.185000  1.0  0.7629
  C  C71  1  0.131300  0.140200  0.891100  1.0  0.7143
  C  C72  1  0.129600  0.065700  0.233500  1.0  0.7238
  C  C73  1  0.500000  0.274000  0.750000  1.0  0.0284
  C  C74  1  0.500000  0.452600  0.750000  1.0  -0.1699
  C  C75  1  0.500000  0.548400  0.750000  1.0  0.7645
  C  C76  1  0.500000  0.726000  0.250000  1.0  0.0279
  C  C77  1  0.500000  0.547400  0.250000  1.0  -0.1696
  C  C78  1  0.500000  0.451600  0.250000  1.0  0.7636
  O  O79  1  0.480600  0.319300  0.493300  1.0  -0.5916
  O  O80  1  0.498800  0.194700  0.567700  1.0  -0.4077
  O  O81  1  0.510100  0.584800  0.676200  1.0  -0.6077
  O  O82  1  0.405400  0.754000  0.624900  1.0  -0.6063
  O  O83  1  0.395400  0.766300  0.777900  1.0  -0.6058
  O  O84  1  0.055600  0.883600  0.362800  1.0  -0.6085
  O  O85  1  0.170900  0.840700  0.331600  1.0  -0.4755
  O  O86  1  0.065800  0.978500  0.687500  1.0  -0.5732
  O  O87  1  0.153800  0.922700  0.825100  1.0  -0.4275
  O  O88  1  0.519400  0.319300  0.006700  1.0  -0.5911
  O  O89  1  0.501200  0.194700  0.932300  1.0  -0.4075
  O  O90  1  0.489900  0.584800  0.823800  1.0  -0.6089
  O  O91  1  0.594600  0.754000  0.875100  1.0  -0.6083
  O  O92  1  0.604600  0.766300  0.722100  1.0  -0.6038
  O  O93  1  0.944400  0.883600  0.137200  1.0  -0.6074
  O  O94  1  0.829100  0.840700  0.168400  1.0  -0.4779
  O  O95  1  0.934200  0.978500  0.812500  1.0  -0.5734
  O  O96  1  0.846200  0.922700  0.674900  1.0  -0.4276
  O  O97  1  0.519400  0.680700  0.506700  1.0  -0.5897
  O  O98  1  0.501200  0.805300  0.432300  1.0  -0.4093
  O  O99  1  0.489900  0.415200  0.323800  1.0  -0.609
  O  O100  1  0.594600  0.246000  0.375100  1.0  -0.608
  O  O101  1  0.604600  0.233700  0.222100  1.0  -0.6035
  O  O102  1  0.944400  0.116400  0.637200  1.0  -0.6074
  O  O103  1  0.829100  0.159300  0.668400  1.0  -0.4783
  O  O104  1  0.934200  0.021500  0.312500  1.0  -0.5735
  O  O105  1  0.846200  0.077300  0.174900  1.0  -0.4277
  O  O106  1  0.480600  0.680700  0.993300  1.0  -0.5905
  O  O107  1  0.498800  0.805300  0.067700  1.0  -0.4095
  O  O108  1  0.510100  0.415200  0.176200  1.0  -0.608
  O  O109  1  0.405400  0.246000  0.124900  1.0  -0.6056
  O  O110  1  0.395400  0.233700  0.277900  1.0  -0.6054
  O  O111  1  0.055600  0.116400  0.862800  1.0  -0.609
  O  O112  1  0.170900  0.159300  0.831600  1.0  -0.4762
  O  O113  1  0.065800  0.021500  0.187500  1.0  -0.5733
  O  O114  1  0.153800  0.077300  0.325100  1.0  -0.4273
