# generated using pymatgen
data_Zn3H37C39(NO9)2
_symmetry_space_group_name_H-M   'P 1'
_cell_length_a   14.22470000
_cell_length_b   15.59540000
_cell_length_c   17.72960000
_cell_angle_alpha   90.00000000
_cell_angle_beta   113.65000000
_cell_angle_gamma   90.00000000
_symmetry_Int_Tables_number   1
_chemical_formula_structural   Zn3H37C39(NO9)2
_chemical_formula_sum   'Zn6 H74 C78 N4 O36'
_cell_volume   3602.80049481
_cell_formula_units_Z   2
loop_
 _symmetry_equiv_pos_site_id
 _symmetry_equiv_pos_as_xyz
  1  'x, y, z'
loop_
 _atom_site_type_symbol
 _atom_site_label
 _atom_site_symmetry_multiplicity
 _atom_site_fract_x
 _atom_site_fract_y
 _atom_site_fract_z
 _atom_site_occupancy
 _atom_site_charge
  Zn  Zn1  1  0.630130  0.797260  0.500000  1.0  1.1112
  Zn  Zn2  1  0.869870  0.797260  0.500000  1.0  1.1098
  Zn  Zn3  1  0.369870  0.202740  0.500000  1.0  1.1101
  Zn  Zn4  1  0.130130  0.202740  0.500000  1.0  1.1116
  Zn  Zn5  1  0.750000  0.500000  0.000000  1.0  1.05
  Zn  Zn6  1  0.250000  0.500000  0.000000  1.0  1.05
  H  H7  1  0.723600  0.683700  0.727200  1.0  0.1201
  H  H8  1  0.776400  0.683700  0.272800  1.0  0.1204
  H  H9  1  0.503600  0.316300  0.727200  1.0  0.1198
  H  H10  1  0.996400  0.316300  0.272800  1.0  0.12
  H  H11  1  0.276400  0.316300  0.272800  1.0  0.12
  H  H12  1  0.223600  0.316300  0.727200  1.0  0.1202
  H  H13  1  0.496400  0.683700  0.272800  1.0  0.1201
  H  H14  1  0.003600  0.683700  0.727200  1.0  0.1197
  H  H15  1  0.390700  0.936400  0.500000  1.0  0.1158
  H  H16  1  0.109300  0.936400  0.500000  1.0  0.1149
  H  H17  1  0.609300  0.063600  0.500000  1.0  0.1146
  H  H18  1  0.890700  0.063600  0.500000  1.0  0.1155
  H  H19  1  0.958300  0.581500  0.916600  1.0  0.1134
  H  H20  1  0.541700  0.581500  0.083400  1.0  0.1136
  H  H21  1  0.458300  0.418500  0.916600  1.0  0.1135
  H  H22  1  0.041700  0.418500  0.083400  1.0  0.1135
  H  H23  1  0.250000  0.716500  0.500000  1.0  0.1337
  H  H24  1  0.750000  0.283500  0.500000  1.0  0.1336
  H  H25  1  0.053800  0.262600  0.967400  1.0  0.1164
  H  H26  1  0.080700  0.274600  0.890400  1.0  0.1158
  H  H27  1  0.034300  0.351100  0.921600  1.0  0.0896
  H  H28  1  0.962800  0.410700  0.819600  1.0  0.1426
  H  H29  1  0.957600  0.208700  0.732200  1.0  0.127
  H  H30  1  0.934300  0.294900  0.682400  1.0  0.1362
  H  H31  1  0.026900  0.289400  0.768400  1.0  0.1288
  H  H32  1  0.913600  0.262600  0.967400  1.0  0.1162
  H  H33  1  0.809700  0.274600  0.890400  1.0  0.1235
  H  H34  1  0.887300  0.351100  0.921600  1.0  0.0898
  H  H35  1  0.856800  0.410700  0.819600  1.0  0.14
  H  H36  1  0.774600  0.208700  0.732200  1.0  0.1286
  H  H37  1  0.748100  0.294900  0.682400  1.0  0.1322
  H  H38  1  0.741500  0.289400  0.768400  1.0  0.1225
  H  H39  1  0.446200  0.262600  0.032600  1.0  0.1166
  H  H40  1  0.419300  0.274600  0.109600  1.0  0.1169
  H  H41  1  0.465700  0.351100  0.078400  1.0  0.0898
  H  H42  1  0.537200  0.410700  0.180400  1.0  0.1431
  H  H43  1  0.542400  0.208700  0.267800  1.0  0.1271
  H  H44  1  0.565700  0.294900  0.317600  1.0  0.1351
  H  H45  1  0.473100  0.289400  0.231600  1.0  0.1251
  H  H46  1  0.586400  0.262600  0.032600  1.0  0.117
  H  H47  1  0.690300  0.274600  0.109600  1.0  0.122
  H  H48  1  0.612700  0.351100  0.078400  1.0  0.0896
  H  H49  1  0.643200  0.410700  0.180400  1.0  0.1395
  H  H50  1  0.725400  0.208700  0.267800  1.0  0.1291
  H  H51  1  0.751900  0.294900  0.317600  1.0  0.133
  H  H52  1  0.758500  0.289400  0.231600  1.0  0.1245
  H  H53  1  0.413600  0.737400  0.967400  1.0  0.1153
  H  H54  1  0.309700  0.725400  0.890400  1.0  0.1228
  H  H55  1  0.387300  0.648900  0.921600  1.0  0.0872
  H  H56  1  0.356800  0.589300  0.819600  1.0  0.1416
  H  H57  1  0.274600  0.791300  0.732200  1.0  0.1272
  H  H58  1  0.248100  0.705100  0.682400  1.0  0.1323
  H  H59  1  0.241500  0.710600  0.768400  1.0  0.1226
  H  H60  1  0.553800  0.737400  0.967400  1.0  0.1165
  H  H61  1  0.580700  0.725400  0.890400  1.0  0.1171
  H  H62  1  0.534300  0.648900  0.921600  1.0  0.0885
  H  H63  1  0.462800  0.589300  0.819600  1.0  0.1427
  H  H64  1  0.457600  0.791300  0.732200  1.0  0.1274
  H  H65  1  0.434300  0.705100  0.682400  1.0  0.1358
  H  H66  1  0.526900  0.710600  0.768400  1.0  0.1293
  H  H67  1  0.086400  0.737400  0.032600  1.0  0.1176
  H  H68  1  0.190300  0.725400  0.109600  1.0  0.1235
  H  H69  1  0.112700  0.648900  0.078400  1.0  0.0882
  H  H70  1  0.143200  0.589300  0.180400  1.0  0.14
  H  H71  1  0.225400  0.791300  0.267800  1.0  0.1279
  H  H72  1  0.251900  0.705100  0.317600  1.0  0.1328
  H  H73  1  0.258500  0.710600  0.231600  1.0  0.1246
  H  H74  1  0.946200  0.737400  0.032600  1.0  0.1164
  H  H75  1  0.919300  0.725400  0.109600  1.0  0.1162
  H  H76  1  0.965700  0.648900  0.078400  1.0  0.0887
  H  H77  1  0.037200  0.589300  0.180400  1.0  0.1455
  H  H78  1  0.042400  0.791300  0.267800  1.0  0.1267
  H  H79  1  0.065700  0.705100  0.317600  1.0  0.1356
  H  H80  1  0.973100  0.710600  0.231600  1.0  0.1265
  C  C81  1  0.827100  0.628300  0.827000  1.0  -0.1455
  C  C82  1  0.792700  0.669300  0.753200  1.0  0.0269
  C  C83  1  0.758800  0.602300  0.869200  1.0  0.6984
  C  C84  1  0.672900  0.628300  0.173000  1.0  -0.1465
  C  C85  1  0.707300  0.669300  0.246800  1.0  0.0277
  C  C86  1  0.741200  0.602300  0.130800  1.0  0.698
  C  C87  1  0.499900  0.371700  0.827000  1.0  -0.1413
  C  C88  1  0.460500  0.330700  0.753200  1.0  0.0251
  C  C89  1  0.610400  0.397700  0.869200  1.0  0.6999
  C  C90  1  0.000100  0.371700  0.173000  1.0  -0.1428
  C  C91  1  0.039500  0.330700  0.246800  1.0  0.0251
  C  C92  1  0.889600  0.397700  0.130800  1.0  0.6993
  C  C93  1  0.172900  0.371700  0.173000  1.0  -0.1469
  C  C94  1  0.207300  0.330700  0.246800  1.0  0.0281
  C  C95  1  0.241200  0.397700  0.130800  1.0  0.698
  C  C96  1  0.327100  0.371700  0.827000  1.0  -0.1466
  C  C97  1  0.292700  0.330700  0.753200  1.0  0.0275
  C  C98  1  0.258800  0.397700  0.869200  1.0  0.6984
  C  C99  1  0.500100  0.628300  0.173000  1.0  -0.1414
  C  C100  1  0.539500  0.669300  0.246800  1.0  0.0244
  C  C101  1  0.389600  0.602300  0.130800  1.0  0.6991
  C  C102  1  0.999900  0.628300  0.827000  1.0  -0.1418
  C  C103  1  0.960500  0.669300  0.753200  1.0  0.0246
  C  C104  1  0.110400  0.602300  0.869200  1.0  0.7001
  C  C105  1  0.333900  0.906800  0.500000  1.0  -0.0331
  C  C106  1  0.334300  0.821300  0.500000  1.0  -0.1027
  C  C107  1  0.428000  0.774800  0.500000  1.0  0.7206
  C  C108  1  0.166100  0.906800  0.500000  1.0  -0.0326
  C  C109  1  0.165700  0.821300  0.500000  1.0  -0.1035
  C  C110  1  0.072000  0.774800  0.500000  1.0  0.7186
  C  C111  1  0.666100  0.093200  0.500000  1.0  -0.0312
  C  C112  1  0.665700  0.178700  0.500000  1.0  -0.1041
  C  C113  1  0.572000  0.225200  0.500000  1.0  0.7179
  C  C114  1  0.833900  0.093200  0.500000  1.0  -0.0328
  C  C115  1  0.834300  0.178700  0.500000  1.0  -0.1033
  C  C116  1  0.928000  0.225200  0.500000  1.0  0.7203
  C  C117  1  0.932700  0.608300  0.865400  1.0  -0.0095
  C  C118  1  0.858000  0.690000  0.716000  1.0  -0.127
  C  C119  1  0.816800  0.729700  0.633600  1.0  0.7669
  C  C120  1  0.567300  0.608300  0.134600  1.0  -0.0097
  C  C121  1  0.642000  0.690000  0.284000  1.0  -0.1266
  C  C122  1  0.683200  0.729700  0.366400  1.0  0.7674
  C  C123  1  0.432700  0.391700  0.865400  1.0  -0.0089
  C  C124  1  0.358000  0.310000  0.716000  1.0  -0.1291
  C  C125  1  0.316800  0.270300  0.633600  1.0  0.7665
  C  C126  1  0.067300  0.391700  0.134600  1.0  -0.009
  C  C127  1  0.142000  0.310000  0.284000  1.0  -0.1269
  C  C128  1  0.183200  0.270300  0.366400  1.0  0.7673
  C  C129  1  0.250000  0.776100  0.500000  1.0  0.0066
  C  C130  1  0.250000  0.952100  0.500000  1.0  -0.1515
  C  C131  1  0.250000  0.047900  0.500000  1.0  0.7651
  C  C132  1  0.750000  0.223900  0.500000  1.0  0.0052
  C  C133  1  0.750000  0.047900  0.500000  1.0  -0.1522
  C  C134  1  0.750000  0.952100  0.500000  1.0  0.7652
  C  C135  1  0.033600  0.290000  0.914600  1.0  -0.2168
  C  C136  1  0.958200  0.270100  0.736400  1.0  -0.3552
  C  C137  1  0.881000  0.290000  0.914600  1.0  -0.2117
  C  C138  1  0.778200  0.270100  0.736400  1.0  -0.354
  C  C139  1  0.893500  0.393500  0.787000  1.0  -0.1464
  C  C140  1  0.888900  0.297500  0.777800  1.0  0.2581
  C  C141  1  0.466400  0.290000  0.085400  1.0  -0.2188
  C  C142  1  0.541800  0.270100  0.263600  1.0  -0.3536
  C  C143  1  0.619000  0.290000  0.085400  1.0  -0.2142
  C  C144  1  0.721800  0.270100  0.263600  1.0  -0.3515
  C  C145  1  0.606500  0.393500  0.213000  1.0  -0.1534
  C  C146  1  0.611100  0.297500  0.222200  1.0  0.2597
  C  C147  1  0.381000  0.710000  0.914600  1.0  -0.2124
  C  C148  1  0.278200  0.729900  0.736400  1.0  -0.3533
  C  C149  1  0.533600  0.710000  0.914600  1.0  -0.2171
  C  C150  1  0.458200  0.729900  0.736400  1.0  -0.3554
  C  C151  1  0.393500  0.606500  0.787000  1.0  -0.1504
  C  C152  1  0.388900  0.702500  0.777800  1.0  0.258
  C  C153  1  0.119000  0.710000  0.085400  1.0  -0.2128
  C  C154  1  0.221800  0.729900  0.263600  1.0  -0.3505
  C  C155  1  0.966400  0.710000  0.085400  1.0  -0.2173
  C  C156  1  0.041800  0.729900  0.263600  1.0  -0.3538
  C  C157  1  0.106500  0.606500  0.213000  1.0  -0.1531
  C  C158  1  0.111100  0.702500  0.222200  1.0  0.2588
  N  N159  1  0.930500  0.262400  0.861000  1.0  -0.3137
  N  N160  1  0.569500  0.262400  0.139000  1.0  -0.3128
  N  N161  1  0.430500  0.737600  0.861000  1.0  -0.3175
  N  N162  1  0.069500  0.737600  0.139000  1.0  -0.3159
  O  O163  1  0.722640  0.745200  0.600480  1.0  -0.6237
  O  O164  1  0.805500  0.567600  0.938400  1.0  -0.5864
  O  O165  1  0.666900  0.615800  0.835600  1.0  -0.5565
  O  O166  1  0.777360  0.745200  0.399520  1.0  -0.6238
  O  O167  1  0.694500  0.567600  0.061600  1.0  -0.5865
  O  O168  1  0.833100  0.615800  0.164400  1.0  -0.5583
  O  O169  1  0.377840  0.254800  0.600480  1.0  -0.6255
  O  O170  1  0.632900  0.432400  0.938400  1.0  -0.5866
  O  O171  1  0.668700  0.384200  0.835600  1.0  -0.5582
  O  O172  1  0.122160  0.254800  0.399520  1.0  -0.6257
  O  O173  1  0.867100  0.432400  0.061600  1.0  -0.5861
  O  O174  1  0.831300  0.384200  0.164400  1.0  -0.5563
  O  O175  1  0.277360  0.254800  0.399520  1.0  -0.6251
  O  O176  1  0.194500  0.432400  0.061600  1.0  -0.5864
  O  O177  1  0.333100  0.384200  0.164400  1.0  -0.5579
  O  O178  1  0.222640  0.254800  0.600480  1.0  -0.6249
  O  O179  1  0.305500  0.432400  0.938400  1.0  -0.5859
  O  O180  1  0.166900  0.384200  0.835600  1.0  -0.5561
  O  O181  1  0.622160  0.745200  0.399520  1.0  -0.625
  O  O182  1  0.367100  0.567600  0.061600  1.0  -0.586
  O  O183  1  0.331300  0.615800  0.164400  1.0  -0.5569
  O  O184  1  0.877840  0.745200  0.600480  1.0  -0.6246
  O  O185  1  0.132900  0.567600  0.938400  1.0  -0.5874
  O  O186  1  0.168700  0.615800  0.835600  1.0  -0.5585
  O  O187  1  0.498200  0.820700  0.500000  1.0  -0.5944
  O  O188  1  0.429600  0.696400  0.500000  1.0  -0.4778
  O  O189  1  0.172300  0.083800  0.500000  1.0  -0.6116
  O  O190  1  0.001800  0.820700  0.500000  1.0  -0.5944
  O  O191  1  0.070400  0.696400  0.500000  1.0  -0.478
  O  O192  1  0.327700  0.083800  0.500000  1.0  -0.6109
  O  O193  1  0.501800  0.179300  0.500000  1.0  -0.5939
  O  O194  1  0.570400  0.303600  0.500000  1.0  -0.4791
  O  O195  1  0.827700  0.916200  0.500000  1.0  -0.6109
  O  O196  1  0.998200  0.179300  0.500000  1.0  -0.5939
  O  O197  1  0.929600  0.303600  0.500000  1.0  -0.479
  O  O198  1  0.672300  0.916200  0.500000  1.0  -0.6116
