# generated using pymatgen
data_Zn4H31C37(NO11)2
_symmetry_space_group_name_H-M   'P 1'
_cell_length_a   14.41890000
_cell_length_b   14.59320000
_cell_length_c   18.05710000
_cell_angle_alpha   66.23010000
_cell_angle_beta   66.46820000
_cell_angle_gamma   60.39440000
_symmetry_Int_Tables_number   1
_chemical_formula_structural   Zn4H31C37(NO11)2
_chemical_formula_sum   'Zn8 H62 C74 N4 O44'
_cell_volume   2926.07207780
_cell_formula_units_Z   2
loop_
 _symmetry_equiv_pos_site_id
 _symmetry_equiv_pos_as_xyz
  1  'x, y, z'
loop_
 _atom_site_type_symbol
 _atom_site_label
 _atom_site_symmetry_multiplicity
 _atom_site_fract_x
 _atom_site_fract_y
 _atom_site_fract_z
 _atom_site_occupancy
 _atom_site_charge
  Zn  Zn1  1  0.555450  0.738080  0.855860  1.0  1.102
  Zn  Zn2  1  0.302980  0.751170  0.479170  1.0  0.9314
  Zn  Zn3  1  0.649390  0.761920  0.644140  1.0  1.1005
  Zn  Zn4  1  0.033320  0.748830  0.020830  1.0  0.9279
  Zn  Zn5  1  0.444550  0.261920  0.144140  1.0  1.1006
  Zn  Zn6  1  0.697020  0.248830  0.520830  1.0  0.9295
  Zn  Zn7  1  0.350610  0.238080  0.355860  1.0  1.1003
  Zn  Zn8  1  0.966680  0.251170  0.979170  1.0  0.9299
  H  H9  1  0.943000  0.758400  0.628000  1.0  0.1399
  H  H10  1  0.519900  0.481300  0.901100  1.0  0.1422
  H  H11  1  0.558900  0.220200  0.850200  1.0  0.1526
  H  H12  1  0.649200  0.449700  0.666300  1.0  0.1518
  H  H13  1  0.545400  0.563000  0.513400  1.0  0.1069
  H  H14  1  0.497600  0.543300  0.610700  1.0  0.1113
  H  H15  1  0.416700  0.726100  0.600500  1.0  0.1125
  H  H16  1  0.539600  0.700400  0.547600  1.0  0.108
  H  H17  1  0.450500  0.912000  0.456600  1.0  0.1178
  H  H18  1  0.342600  0.905800  0.524200  1.0  0.1251
  H  H19  1  0.280900  0.035700  0.414700  1.0  0.1306
  H  H20  1  0.375000  0.969600  0.350400  1.0  0.1213
  H  H21  1  0.551500  0.661100  0.421900  1.0  0.1239
  H  H22  1  0.587500  0.751400  0.412400  1.0  0.1524
  H  H23  1  0.511800  0.775300  0.358500  1.0  0.1802
  H  H24  1  0.829400  0.741600  0.872000  1.0  0.14
  H  H25  1  0.402300  0.018700  0.598900  1.0  0.1424
  H  H26  1  0.129300  0.279800  0.649800  1.0  0.1539
  H  H27  1  0.265200  0.050300  0.833700  1.0  0.1512
  H  H28  1  0.121800  0.937000  0.986600  1.0  0.1113
  H  H29  1  0.151600  0.956700  0.889300  1.0  0.111
  H  H30  1  0.243300  0.773900  0.899500  1.0  0.1126
  H  H31  1  0.287600  0.799600  0.952400  1.0  0.1166
  H  H32  1  0.319100  0.588000  0.043400  1.0  0.1166
  H  H33  1  0.272600  0.594200  0.975800  1.0  0.1234
  H  H34  1  0.231300  0.464300  0.085300  1.0  0.1301
  H  H35  1  0.195000  0.530400  0.149600  1.0  0.1192
  H  H36  1  0.134500  0.838900  0.078100  1.0  0.1248
  H  H37  1  0.251300  0.748600  0.087600  1.0  0.1481
  H  H38  1  0.145600  0.724700  0.141500  1.0  0.1781
  H  H39  1  0.057000  0.241600  0.372000  1.0  0.1402
  H  H40  1  0.480100  0.518700  0.098900  1.0  0.1419
  H  H41  1  0.441100  0.779800  0.149800  1.0  0.1525
  H  H42  1  0.350800  0.550300  0.333700  1.0  0.1514
  H  H43  1  0.454600  0.437000  0.486600  1.0  0.1082
  H  H44  1  0.502400  0.456700  0.389300  1.0  0.1115
  H  H45  1  0.583300  0.273900  0.399500  1.0  0.1137
  H  H46  1  0.460400  0.299600  0.452400  1.0  0.1056
  H  H47  1  0.549500  0.088000  0.543400  1.0  0.1176
  H  H48  1  0.657400  0.094200  0.475800  1.0  0.1245
  H  H49  1  0.719100  0.964300  0.585300  1.0  0.1318
  H  H50  1  0.625000  0.030400  0.649600  1.0  0.122
  H  H51  1  0.448500  0.338900  0.578100  1.0  0.1233
  H  H52  1  0.412500  0.248600  0.587600  1.0  0.1507
  H  H53  1  0.488200  0.224700  0.641500  1.0  0.1791
  H  H54  1  0.170600  0.258400  0.128000  1.0  0.1397
  H  H55  1  0.597700  0.981300  0.401100  1.0  0.1426
  H  H56  1  0.870700  0.720200  0.350200  1.0  0.1539
  H  H57  1  0.734800  0.949700  0.166300  1.0  0.1522
  H  H58  1  0.878200  0.063000  0.013400  1.0  0.1088
  H  H59  1  0.848400  0.043300  0.110700  1.0  0.1107
  H  H60  1  0.756700  0.226100  0.100500  1.0  0.1121
  H  H61  1  0.712400  0.200400  0.047600  1.0  0.1139
  H  H62  1  0.680900  0.412000  0.956600  1.0  0.118
  H  H63  1  0.727400  0.405800  0.024200  1.0  0.1242
  H  H64  1  0.768700  0.535700  0.914700  1.0  0.1298
  H  H65  1  0.805000  0.469600  0.850400  1.0  0.1202
  H  H66  1  0.865500  0.161100  0.921900  1.0  0.1258
  H  H67  1  0.748700  0.251400  0.912400  1.0  0.1459
  H  H68  1  0.854400  0.275300  0.858500  1.0  0.1788
  H  H69  1  0.124800  0.750000  0.750000  1.0  0.1586
  H  H70  1  0.875200  0.250000  0.250000  1.0  0.1583
  C  C71  1  0.951200  0.755800  0.677400  1.0  0.0416
  C  C72  1  0.045200  0.757800  0.677000  1.0  -0.0905
  C  C73  1  0.135500  0.766600  0.601800  1.0  0.6901
  C  C74  1  0.596900  0.588200  0.751600  1.0  0.7327
  C  C75  1  0.585800  0.481800  0.778000  1.0  -0.1009
  C  C76  1  0.541600  0.442000  0.863200  1.0  -0.0209
  C  C77  1  0.530700  0.345400  0.890000  1.0  -0.1332
  C  C78  1  0.564800  0.286900  0.832300  1.0  -0.0365
  C  C79  1  0.606600  0.327300  0.749900  1.0  -0.0136
  C  C80  1  0.618700  0.423900  0.722500  1.0  -0.0666
  C  C81  1  0.491500  0.297300  0.981700  1.0  0.6947
  C  C82  1  0.644600  0.260000  0.689400  1.0  0.3895
  C  C83  1  0.482900  0.591900  0.557300  1.0  0.1015
  C  C84  1  0.469700  0.702500  0.551100  1.0  0.0166
  C  C85  1  0.389400  0.892100  0.470500  1.0  0.0255
  C  C86  1  0.324600  0.963200  0.405600  1.0  0.0863
  C  C87  1  0.528900  0.738000  0.412000  1.0  -0.148
  C  C88  1  0.884400  0.744200  0.822600  1.0  0.0403
  C  C89  1  0.980000  0.742200  0.823000  1.0  -0.0899
  C  C90  1  0.003900  0.733400  0.898200  1.0  0.6916
  C  C91  1  0.436700  0.911800  0.748400  1.0  0.7316
  C  C92  1  0.345600  0.018200  0.722000  1.0  -0.1025
  C  C93  1  0.346800  0.058000  0.636800  1.0  -0.0171
  C  C94  1  0.266100  0.154600  0.610000  1.0  -0.1326
  C  C95  1  0.184000  0.213100  0.667700  1.0  -0.0368
  C  C96  1  0.183800  0.172700  0.750100  1.0  -0.0128
  C  C97  1  0.265100  0.076100  0.777500  1.0  -0.0661
  C  C98  1  0.270500  0.202700  0.518300  1.0  0.6977
  C  C99  1  0.094000  0.240000  0.810600  1.0  0.3907
  C  C100  1  0.132100  0.908100  0.942700  1.0  0.1
  C  C101  1  0.223300  0.797500  0.948900  1.0  0.0134
  C  C102  1  0.252000  0.607900  0.029500  1.0  0.0281
  C  C103  1  0.193400  0.536800  0.094400  1.0  0.0879
  C  C104  1  0.178900  0.762000  0.088000  1.0  -0.1426
  C  C105  1  0.048800  0.244200  0.322600  1.0  0.0414
  C  C106  1  0.954800  0.242200  0.323000  1.0  -0.09
  C  C107  1  0.864500  0.233400  0.398200  1.0  0.6911
  C  C108  1  0.403100  0.411800  0.248400  1.0  0.7306
  C  C109  1  0.414200  0.518200  0.222000  1.0  -0.1012
  C  C110  1  0.458400  0.558000  0.136800  1.0  -0.0211
  C  C111  1  0.469300  0.654600  0.110000  1.0  -0.1333
  C  C112  1  0.435200  0.713100  0.167700  1.0  -0.0374
  C  C113  1  0.393400  0.672700  0.250100  1.0  -0.012
  C  C114  1  0.381300  0.576100  0.277500  1.0  -0.0664
  C  C115  1  0.508500  0.702700  0.018300  1.0  0.6946
  C  C116  1  0.355400  0.740000  0.310600  1.0  0.3901
  C  C117  1  0.517100  0.408100  0.442700  1.0  0.1007
  C  C118  1  0.530300  0.297500  0.448900  1.0  0.017
  C  C119  1  0.610600  0.107900  0.529500  1.0  0.0271
  C  C120  1  0.675400  0.036800  0.594400  1.0  0.0876
  C  C121  1  0.471100  0.262000  0.588000  1.0  -0.1484
  C  C122  1  0.115600  0.255800  0.177400  1.0  0.0417
  C  C123  1  0.020000  0.257800  0.177000  1.0  -0.0885
  C  C124  1  0.996100  0.266600  0.101800  1.0  0.6914
  C  C125  1  0.563300  0.088200  0.251600  1.0  0.7322
  C  C126  1  0.654400  0.981800  0.278000  1.0  -0.1024
  C  C127  1  0.653200  0.942000  0.363200  1.0  -0.0176
  C  C128  1  0.733900  0.845400  0.390000  1.0  -0.135
  C  C129  1  0.816000  0.786900  0.332300  1.0  -0.0366
  C  C130  1  0.816200  0.827300  0.249900  1.0  -0.0134
  C  C131  1  0.734900  0.923900  0.222500  1.0  -0.0653
  C  C132  1  0.729500  0.797300  0.481700  1.0  0.6969
  C  C133  1  0.906000  0.760000  0.189400  1.0  0.3894
  C  C134  1  0.867900  0.091900  0.057300  1.0  0.1015
  C  C135  1  0.776700  0.202500  0.051100  1.0  0.0153
  C  C136  1  0.748000  0.392100  0.970500  1.0  0.0279
  C  C137  1  0.806600  0.463200  0.905600  1.0  0.0877
  C  C138  1  0.821100  0.238000  0.912000  1.0  -0.1421
  C  C139  1  0.766300  0.750000  0.750000  1.0  0.7185
  C  C140  1  0.867500  0.750000  0.750000  1.0  -0.142
  C  C141  1  0.060300  0.750000  0.750000  1.0  0.037
  C  C142  1  0.233700  0.250000  0.250000  1.0  0.7191
  C  C143  1  0.132500  0.250000  0.250000  1.0  -0.1421
  C  C144  1  0.939700  0.250000  0.250000  1.0  0.0346
  N  N145  1  0.431800  0.777900  0.477100  1.0  -0.1057
  N  N146  1  0.186800  0.722100  0.022900  1.0  -0.1049
  N  N147  1  0.568200  0.222100  0.522900  1.0  -0.1037
  N  N148  1  0.813200  0.277900  0.977100  1.0  -0.1029
  O  O149  1  0.694500  0.751700  0.817500  1.0  -0.5719
  O  O150  1  0.140700  0.746200  0.539200  1.0  -0.579
  O  O151  1  0.206700  0.790400  0.599000  1.0  -0.5554
  O  O152  1  0.574540  0.629960  0.808360  1.0  -0.595
  O  O153  1  0.632170  0.626500  0.675160  1.0  -0.5408
  O  O154  1  0.474800  0.348450  0.030550  1.0  -0.5468
  O  O155  1  0.482600  0.210800  0.005200  1.0  -0.5209
  O  O156  1  0.665840  0.306560  0.613360  1.0  -0.5815
  O  O157  1  0.554500  0.226300  0.702700  1.0  -0.8131
  O  O158  1  0.389900  0.595500  0.550100  1.0  -0.5701
  O  O159  1  0.255700  0.920200  0.409000  1.0  -0.5866
  O  O160  1  0.763700  0.748300  0.682500  1.0  -0.5732
  O  O161  1  0.926100  0.753800  0.960800  1.0  -0.5801
  O  O162  1  0.096100  0.709600  0.901000  1.0  -0.5551
  O  O163  1  0.512860  0.870040  0.691640  1.0  -0.5956
  O  O164  1  0.433830  0.873500  0.824840  1.0  -0.543
  O  O165  1  0.353800  0.151550  0.469450  1.0  -0.5463
  O  O166  1  0.198600  0.289200  0.494800  1.0  -0.5182
  O  O167  1  0.085760  0.193440  0.886640  1.0  -0.5847
  O  O168  1  0.983500  0.273700  0.797300  1.0  -0.8161
  O  O169  1  0.035500  0.904500  0.949900  1.0  -0.5742
  O  O170  1  0.084900  0.579800  0.091000  1.0  -0.5859
  O  O171  1  0.305500  0.248300  0.182500  1.0  -0.5745
  O  O172  1  0.859300  0.253800  0.460800  1.0  -0.5762
  O  O173  1  0.793300  0.209600  0.401000  1.0  -0.5545
  O  O174  1  0.425460  0.370040  0.191640  1.0  -0.5947
  O  O175  1  0.367830  0.373500  0.324840  1.0  -0.541
  O  O176  1  0.525200  0.651550  0.969450  1.0  -0.546
  O  O177  1  0.517400  0.789200  0.994800  1.0  -0.5184
  O  O178  1  0.334160  0.693440  0.386640  1.0  -0.5816
  O  O179  1  0.445500  0.773700  0.297300  1.0  -0.8141
  O  O180  1  0.610100  0.404500  0.449900  1.0  -0.5639
  O  O181  1  0.744300  0.079800  0.591000  1.0  -0.5865
  O  O182  1  0.236300  0.251700  0.317500  1.0  -0.5744
  O  O183  1  0.073900  0.246200  0.039200  1.0  -0.5801
  O  O184  1  0.903900  0.290400  0.099000  1.0  -0.5543
  O  O185  1  0.487140  0.129960  0.308360  1.0  -0.596
  O  O186  1  0.566170  0.126500  0.175160  1.0  -0.5424
  O  O187  1  0.646200  0.848450  0.530550  1.0  -0.546
  O  O188  1  0.801400  0.710800  0.505200  1.0  -0.5172
  O  O189  1  0.914240  0.806560  0.113360  1.0  -0.5849
  O  O190  1  0.016500  0.726300  0.202700  1.0  -0.8174
  O  O191  1  0.964500  0.095500  0.050100  1.0  -0.5732
  O  O192  1  0.915100  0.420200  0.909000  1.0  -0.5847
