# generated using pymatgen
data_Co2H37C51(NO2)6
_symmetry_space_group_name_H-M   'P 1'
_cell_length_a   9.03840000
_cell_length_b   16.34070000
_cell_length_c   18.50500000
_cell_angle_alpha   73.39400000
_cell_angle_beta   76.39400000
_cell_angle_gamma   86.29800000
_symmetry_Int_Tables_number   1
_chemical_formula_structural   Co2H37C51(NO2)6
_chemical_formula_sum   'Co4 H74 C102 N12 O24'
_cell_volume   2545.57279572
_cell_formula_units_Z   2
loop_
 _symmetry_equiv_pos_site_id
 _symmetry_equiv_pos_as_xyz
  1  'x, y, z'
loop_
 _atom_site_type_symbol
 _atom_site_label
 _atom_site_symmetry_multiplicity
 _atom_site_fract_x
 _atom_site_fract_y
 _atom_site_fract_z
 _atom_site_occupancy
 _atom_site_charge
  Co  Co1  1  0.745330  0.032660  0.177120  1.0  0.839
  Co  Co2  1  0.847880  0.279390  0.608760  1.0  0.7699
  Co  Co3  1  0.254670  0.967340  0.822880  1.0  0.8415
  Co  Co4  1  0.152120  0.720610  0.391240  1.0  0.7734
  H  H5  1  0.869600  0.461000  0.025500  1.0  0.0738
  H  H6  1  0.692600  0.475800  0.044200  1.0  0.0734
  H  H7  1  0.843000  0.282500  0.152900  1.0  0.0638
  H  H8  1  0.878000  0.320800  0.216100  1.0  0.0637
  H  H9  1  0.918900  0.503800  0.130600  1.0  0.058
  H  H10  1  0.819900  0.469200  0.215300  1.0  0.0745
  H  H11  1  0.583200  0.327100  0.174300  1.0  0.0616
  H  H12  1  0.536600  0.421500  0.174600  1.0  0.0672
  H  H13  1  0.919100  0.601000  0.202000  1.0  0.1163
  H  H14  1  0.747700  0.242400  0.972800  1.0  0.1105
  H  H15  1  0.760500  0.245600  0.848300  1.0  0.1139
  H  H16  1  0.771100  0.501400  0.788300  1.0  0.0883
  H  H17  1  0.759100  0.499400  0.912400  1.0  0.1185
  H  H18  1  0.017900  0.213100  0.225100  1.0  0.1134
  H  H19  1  0.217300  0.118700  0.245900  1.0  0.1043
  H  H20  1  0.497600  0.271700  0.064500  1.0  0.0915
  H  H21  1  0.298200  0.363700  0.042100  1.0  0.1116
  H  H22  1  0.937100  0.186400  0.047500  1.0  0.1119
  H  H23  1  0.088100  0.953900  0.120000  1.0  0.1081
  H  H24  1  0.205800  0.185600  0.983800  1.0  0.1252
  H  H25  1  0.295900  0.909800  0.025700  1.0  0.1115
  H  H26  1  0.458400  0.136900  0.011800  1.0  0.1025
  H  H27  1  0.916400  0.728900  0.233800  1.0  0.0969
  H  H28  1  0.548700  0.802200  0.149000  1.0  0.0949
  H  H29  1  0.539800  0.672400  0.125500  1.0  0.108
  H  H30  1  0.125700  0.293400  0.359100  1.0  0.101
  H  H31  1  0.664400  0.175100  0.274100  1.0  0.0988
  H  H32  1  0.770900  0.175900  0.381900  1.0  0.1331
  H  H33  1  0.912100  0.968800  0.317000  1.0  0.1097
  H  H34  1  0.620100  0.965900  0.602600  1.0  0.1236
  H  H35  1  0.341500  0.318500  0.253500  1.0  0.121
  H  H36  1  0.580500  0.365800  0.397500  1.0  0.1223
  H  H37  1  0.364100  0.348700  0.498600  1.0  0.11
  H  H38  1  0.756400  0.126700  0.561500  1.0  0.0665
  H  H39  1  0.467200  0.271700  0.647400  1.0  0.0958
  H  H40  1  0.322800  0.172700  0.613300  1.0  0.145
  H  H41  1  0.404300  0.137100  0.460600  1.0  0.1185
  H  H42  1  0.130400  0.539000  0.974500  1.0  0.0744
  H  H43  1  0.307400  0.524200  0.955800  1.0  0.0752
  H  H44  1  0.157000  0.717500  0.847100  1.0  0.0633
  H  H45  1  0.122000  0.679200  0.783900  1.0  0.0635
  H  H46  1  0.081100  0.496200  0.869400  1.0  0.0567
  H  H47  1  0.180100  0.530800  0.784700  1.0  0.0752
  H  H48  1  0.416800  0.672900  0.825700  1.0  0.0612
  H  H49  1  0.463400  0.578500  0.825400  1.0  0.0674
  H  H50  1  0.080900  0.399000  0.798000  1.0  0.1157
  H  H51  1  0.252300  0.757600  0.027200  1.0  0.11
  H  H52  1  0.239500  0.754400  0.151700  1.0  0.114
  H  H53  1  0.228900  0.498600  0.211700  1.0  0.089
  H  H54  1  0.240900  0.500600  0.087600  1.0  0.1189
  H  H55  1  0.982100  0.786900  0.774900  1.0  0.1134
  H  H56  1  0.782700  0.881300  0.754100  1.0  0.1044
  H  H57  1  0.502400  0.728300  0.935500  1.0  0.0914
  H  H58  1  0.701800  0.636300  0.957900  1.0  0.1122
  H  H59  1  0.062900  0.813600  0.952500  1.0  0.112
  H  H60  1  0.911900  0.046100  0.880000  1.0  0.1071
  H  H61  1  0.794200  0.814400  0.016200  1.0  0.1249
  H  H62  1  0.704100  0.090200  0.974300  1.0  0.1113
  H  H63  1  0.541600  0.863100  0.988200  1.0  0.1022
  H  H64  1  0.083600  0.271100  0.766200  1.0  0.0967
  H  H65  1  0.451300  0.197800  0.851000  1.0  0.0943
  H  H66  1  0.460200  0.327600  0.874500  1.0  0.1079
  H  H67  1  0.874300  0.706600  0.640900  1.0  0.1014
  H  H68  1  0.335600  0.824900  0.725900  1.0  0.0992
  H  H69  1  0.229100  0.824100  0.618100  1.0  0.1328
  H  H70  1  0.087900  0.031200  0.683000  1.0  0.1102
  H  H71  1  0.379900  0.034100  0.397400  1.0  0.1239
  H  H72  1  0.658500  0.681500  0.746500  1.0  0.1207
  H  H73  1  0.419500  0.634200  0.602500  1.0  0.1213
  H  H74  1  0.635900  0.651300  0.501400  1.0  0.1094
  H  H75  1  0.243600  0.873300  0.438500  1.0  0.0675
  H  H76  1  0.532800  0.728300  0.352600  1.0  0.0964
  H  H77  1  0.677200  0.827300  0.386700  1.0  0.1446
  H  H78  1  0.595700  0.862900  0.539400  1.0  0.1185
  C  C79  1  0.769300  0.407700  0.139700  1.0  -0.047
  C  C80  1  0.772500  0.434500  0.054600  1.0  0.0741
  C  C81  1  0.877300  0.333200  0.161600  1.0  0.065
  C  C82  1  0.818000  0.484700  0.160900  1.0  0.0781
  C  C83  1  0.610600  0.377000  0.186900  1.0  0.071
  C  C84  1  0.481200  0.344600  0.318100  1.0  0.2924
  C  C85  1  0.723800  0.623500  0.163700  1.0  0.297
  C  C86  1  0.842200  0.640700  0.193200  1.0  -0.2424
  C  C87  1  0.755200  0.368700  0.955400  1.0  0.2917
  C  C88  1  0.753900  0.294600  0.935100  1.0  -0.2336
  C  C89  1  0.761300  0.296400  0.861300  1.0  -0.0461
  C  C90  1  0.770100  0.373700  0.804300  1.0  -0.1821
  C  C91  1  0.783500  0.376800  0.722000  1.0  0.6737
  C  C92  1  0.767700  0.449300  0.825900  1.0  0.0185
  C  C93  1  0.760500  0.448700  0.899000  1.0  -0.2755
  C  C94  1  0.137700  0.297900  0.131700  1.0  0.3042
  C  C95  1  0.113900  0.224900  0.192300  1.0  -0.2402
  C  C96  1  0.234100  0.168100  0.204700  1.0  0.0027
  C  C97  1  0.378000  0.184700  0.156300  1.0  -0.1961
  C  C98  1  0.401100  0.258800  0.096500  1.0  -0.0211
  C  C99  1  0.281600  0.314600  0.083500  1.0  -0.1929
  C  C100  1  0.504300  0.123800  0.173400  1.0  0.646
  C  C101  1  0.000600  0.139100  0.054100  1.0  0.0382
  C  C102  1  0.082300  0.011400  0.094100  1.0  0.1584
  C  C103  1  0.149400  0.139300  0.018600  1.0  -0.1287
  C  C104  1  0.353800  0.029000  0.020600  1.0  0.1159
  C  C105  1  0.378000  0.946200  0.015000  1.0  -0.1335
  C  C106  1  0.475000  0.081800  0.006700  1.0  -0.1202
  C  C107  1  0.756900  0.868500  0.197500  1.0  0.6523
  C  C108  1  0.740200  0.780200  0.190400  1.0  -0.1943
  C  C109  1  0.843300  0.718800  0.209400  1.0  -0.0085
  C  C110  1  0.623200  0.761600  0.160100  1.0  -0.0455
  C  C111  1  0.617300  0.683900  0.146600  1.0  -0.2189
  C  C112  1  0.089500  0.298800  0.506200  1.0  0.6424
  C  C113  1  0.232400  0.317800  0.439600  1.0  -0.1712
  C  C114  1  0.218700  0.308700  0.364900  1.0  0.0033
  C  C115  1  0.515100  0.060200  0.537200  1.0  0.1447
  C  C116  1  0.947100  0.942400  0.469600  1.0  -0.1832
  C  C117  1  0.007800  0.912300  0.533900  1.0  -0.096
  C  C118  1  0.938100  0.029000  0.437100  1.0  0.1245
  C  C119  1  0.728800  0.133700  0.296100  1.0  0.0233
  C  C120  1  0.785200  0.134100  0.355800  1.0  -0.1236
  C  C121  1  0.863300  0.020200  0.319200  1.0  0.1661
  C  C122  1  0.572000  0.979700  0.561500  1.0  -0.1173
  C  C123  1  0.346100  0.323000  0.301900  1.0  -0.1946
  C  C124  1  0.487900  0.352400  0.389900  1.0  -0.2436
  C  C125  1  0.359600  0.340600  0.451400  1.0  -0.0096
  C  C126  1  0.663500  0.151400  0.577700  1.0  0.1938
  C  C127  1  0.510100  0.229700  0.624000  1.0  0.0606
  C  C128  1  0.428000  0.174900  0.606100  1.0  -0.1559
  C  C129  1  0.442700  0.082300  0.476400  1.0  -0.1344
  C  C130  1  0.230700  0.592300  0.860300  1.0  -0.0478
  C  C131  1  0.227500  0.565500  0.945400  1.0  0.0743
  C  C132  1  0.122700  0.666800  0.838400  1.0  0.0651
  C  C133  1  0.182000  0.515300  0.839100  1.0  0.0787
  C  C134  1  0.389400  0.623000  0.813100  1.0  0.0705
  C  C135  1  0.518800  0.655400  0.681900  1.0  0.2912
  C  C136  1  0.276200  0.376500  0.836300  1.0  0.2972
  C  C137  1  0.157800  0.359300  0.806800  1.0  -0.2483
  C  C138  1  0.244800  0.631300  0.044600  1.0  0.2925
  C  C139  1  0.246100  0.705400  0.064900  1.0  -0.2303
  C  C140  1  0.238700  0.703600  0.138700  1.0  -0.0346
  C  C141  1  0.229900  0.626300  0.195700  1.0  -0.1825
  C  C142  1  0.216500  0.623200  0.278000  1.0  0.6708
  C  C143  1  0.232300  0.550700  0.174100  1.0  0.0177
  C  C144  1  0.239500  0.551300  0.101000  1.0  -0.2735
  C  C145  1  0.862300  0.702100  0.868300  1.0  0.3043
  C  C146  1  0.886100  0.775100  0.807700  1.0  -0.2406
  C  C147  1  0.765900  0.831900  0.795300  1.0  0.0014
  C  C148  1  0.622000  0.815300  0.843700  1.0  -0.1972
  C  C149  1  0.598900  0.741200  0.903500  1.0  -0.0183
  C  C150  1  0.718400  0.685400  0.916500  1.0  -0.1999
  C  C151  1  0.495700  0.876200  0.826600  1.0  0.6438
  C  C152  1  0.999400  0.860900  0.945900  1.0  0.0387
  C  C153  1  0.917700  0.988600  0.905900  1.0  0.1585
  C  C154  1  0.850600  0.860700  0.981400  1.0  -0.1287
  C  C155  1  0.646200  0.971000  0.979400  1.0  0.1144
  C  C156  1  0.622000  0.053800  0.985000  1.0  -0.1344
  C  C157  1  0.525000  0.918200  0.993300  1.0  -0.1214
  C  C158  1  0.243100  0.131500  0.802500  1.0  0.6541
  C  C159  1  0.259800  0.219800  0.809600  1.0  -0.196
  C  C160  1  0.156700  0.281200  0.790600  1.0  -0.0082
  C  C161  1  0.376800  0.238400  0.839900  1.0  -0.0604
  C  C162  1  0.382700  0.316100  0.853400  1.0  -0.2187
  C  C163  1  0.910500  0.701200  0.493800  1.0  0.6415
  C  C164  1  0.767600  0.682200  0.560400  1.0  -0.1688
  C  C165  1  0.781300  0.691300  0.635100  1.0  0.0021
  C  C166  1  0.484900  0.939800  0.462800  1.0  0.1439
  C  C167  1  0.052900  0.057600  0.530400  1.0  -0.1399
  C  C168  1  0.992200  0.087700  0.466100  1.0  -0.0921
  C  C169  1  0.061900  0.971000  0.562900  1.0  0.1239
  C  C170  1  0.271200  0.866300  0.703900  1.0  0.0242
  C  C171  1  0.214800  0.865900  0.644200  1.0  -0.1239
  C  C172  1  0.136700  0.979800  0.680800  1.0  0.1641
  C  C173  1  0.428000  0.020300  0.438500  1.0  -0.1188
  C  C174  1  0.653900  0.677000  0.698100  1.0  -0.2201
  C  C175  1  0.512100  0.647600  0.610100  1.0  -0.2395
  C  C176  1  0.640400  0.659400  0.548600  1.0  0.0002
  C  C177  1  0.336500  0.848600  0.422300  1.0  0.1948
  C  C178  1  0.489900  0.770300  0.376000  1.0  0.061
  C  C179  1  0.572000  0.825100  0.393900  1.0  -0.155
  C  C180  1  0.557300  0.917700  0.523600  1.0  -0.1335
  N  N181  1  0.956000  0.058500  0.101700  1.0  -0.3877
  N  N182  1  0.200300  0.058300  0.043700  1.0  0.0496
  N  N183  1  0.867900  0.061800  0.371400  1.0  0.0536
  N  N184  1  0.779500  0.062800  0.271400  1.0  -0.3846
  N  N185  1  0.539200  0.121500  0.573500  1.0  0.0193
  N  N186  1  0.657700  0.216700  0.604700  1.0  -0.3627
  N  N187  1  0.044000  0.941500  0.898300  1.0  -0.3865
  N  N188  1  0.799700  0.941700  0.956300  1.0  0.0496
  N  N189  1  0.132100  0.938200  0.628600  1.0  0.0536
  N  N190  1  0.220500  0.937200  0.728600  1.0  -0.3849
  N  N191  1  0.460800  0.878500  0.426500  1.0  0.0195
  N  N192  1  0.342300  0.783300  0.395300  1.0  -0.3632
  O  O193  1  0.028000  0.355900  0.115100  1.0  -0.2645
  O  O194  1  0.750100  0.360800  0.031600  1.0  -0.2652
  O  O195  1  0.710400  0.549900  0.144600  1.0  -0.2647
  O  O196  1  0.610200  0.356600  0.265300  1.0  -0.2651
  O  O197  1  0.796700  0.448200  0.673100  1.0  -0.5708
  O  O198  1  0.637100  0.140900  0.127300  1.0  -0.5572
  O  O199  1  0.480200  0.058000  0.228100  1.0  -0.5373
  O  O200  1  0.668800  0.925900  0.167600  1.0  -0.5525
  O  O201  1  0.855300  0.884500  0.228500  1.0  -0.5712
  O  O202  1  0.085900  0.318900  0.564200  1.0  -0.5003
  O  O203  1  0.972500  0.269400  0.497200  1.0  -0.5413
  O  O204  1  0.784400  0.305600  0.707500  1.0  -0.6016
  O  O205  1  0.972000  0.644100  0.884900  1.0  -0.2653
  O  O206  1  0.249900  0.639200  0.968400  1.0  -0.265
  O  O207  1  0.289600  0.450100  0.855400  1.0  -0.2652
  O  O208  1  0.389800  0.643400  0.734700  1.0  -0.2648
  O  O209  1  0.203300  0.551800  0.326900  1.0  -0.5716
  O  O210  1  0.362900  0.859100  0.872700  1.0  -0.5543
  O  O211  1  0.519800  0.942000  0.771900  1.0  -0.5384
  O  O212  1  0.331200  0.074100  0.832400  1.0  -0.5522
  O  O213  1  0.144700  0.115500  0.771500  1.0  -0.5729
  O  O214  1  0.914100  0.681100  0.435800  1.0  -0.5018
  O  O215  1  0.027500  0.730600  0.502800  1.0  -0.542
  O  O216  1  0.215600  0.694400  0.292500  1.0  -0.6094
