# generated using pymatgen
data_Mn3H40C52O19
_symmetry_space_group_name_H-M   'P 1'
_cell_length_a   11.30310000
_cell_length_b   24.23340000
_cell_length_c   36.07900000
_cell_angle_alpha   98.21300000
_cell_angle_beta   90.00000000
_cell_angle_gamma   90.00000000
_symmetry_Int_Tables_number   1
_chemical_formula_structural   Mn3H40C52O19
_chemical_formula_sum   'Mn12 H160 C208 O76'
_cell_volume   9781.13429205
_cell_formula_units_Z   4
loop_
 _symmetry_equiv_pos_site_id
 _symmetry_equiv_pos_as_xyz
  1  'x, y, z'
loop_
 _atom_site_type_symbol
 _atom_site_label
 _atom_site_symmetry_multiplicity
 _atom_site_fract_x
 _atom_site_fract_y
 _atom_site_fract_z
 _atom_site_occupancy
 _atom_site_charge
  Mn  Mn1  1  0.120990  0.284150  0.621050  1.0  1.1858
  Mn  Mn2  1  0.844530  0.325640  0.658580  1.0  1.131
  Mn  Mn3  1  0.601150  0.696600  0.402890  1.0  1.1189
  Mn  Mn4  1  0.620990  0.715850  0.878950  1.0  1.1849
  Mn  Mn5  1  0.344530  0.674360  0.841420  1.0  1.13
  Mn  Mn6  1  0.101150  0.303400  0.097110  1.0  1.1178
  Mn  Mn7  1  0.879010  0.715850  0.378950  1.0  1.1846
  Mn  Mn8  1  0.155470  0.674360  0.341420  1.0  1.129
  Mn  Mn9  1  0.398850  0.303400  0.597110  1.0  1.1136
  Mn  Mn10  1  0.379010  0.284150  0.121050  1.0  1.1854
  Mn  Mn11  1  0.655470  0.325640  0.158580  1.0  1.13
  Mn  Mn12  1  0.898850  0.696600  0.902890  1.0  1.117
  H  H13  1  0.099900  0.277400  0.413200  1.0  0.0671
  H  H14  1  0.074400  0.341900  0.421900  1.0  0.0641
  H  H15  1  0.903500  0.353200  0.339100  1.0  0.0661
  H  H16  1  0.854300  0.349000  0.379300  1.0  0.0616
  H  H17  1  0.167600  0.350000  0.362300  1.0  0.0705
  H  H18  1  0.181000  0.285300  0.350200  1.0  0.063
  H  H19  1  0.886200  0.245400  0.365400  1.0  0.0615
  H  H20  1  0.934300  0.255100  0.326000  1.0  0.0678
  H  H21  1  0.755600  0.275300  0.463300  1.0  0.1223
  H  H22  1  0.724300  0.283900  0.526000  1.0  0.1073
  H  H23  1  0.058000  0.333333  0.544800  1.0  0.0902
  H  H24  1  0.088100  0.325900  0.480700  1.0  0.1223
  H  H25  1  0.048700  0.502600  0.396300  1.0  0.1228
  H  H26  1  0.950900  0.585000  0.397000  1.0  0.0947
  H  H27  1  0.658300  0.502500  0.360400  1.0  0.1025
  H  H28  1  0.758500  0.418300  0.358900  1.0  0.116
  H  H29  1  0.333500  0.313300  0.317600  1.0  0.1246
  H  H30  1  0.468700  0.322600  0.271300  1.0  0.1011
  H  H31  1  0.208800  0.354200  0.202500  1.0  0.0946
  H  H32  1  0.072900  0.345700  0.248100  1.0  0.1252
  H  H33  1  0.930800  0.151000  0.361400  1.0  0.0876
  H  H34  1  0.958500  0.151900  0.318900  1.0  0.0918
  H  H35  1  0.215800  0.160300  0.371700  1.0  0.0642
  H  H36  1  0.243300  0.095900  0.366200  1.0  0.0677
  H  H37  1  0.986100  0.052300  0.312300  1.0  0.0668
  H  H38  1  0.001200  0.051000  0.355500  1.0  0.0568
  H  H39  1  0.226700  0.097600  0.297100  1.0  0.0722
  H  H40  1  0.196500  0.161700  0.305100  1.0  0.0613
  H  H41  1  0.317800  0.163000  0.424200  1.0  0.1256
  H  H42  1  0.366500  0.205400  0.485500  1.0  0.0984
  H  H43  1  0.034800  0.185600  0.517600  1.0  0.1013
  H  H44  1  0.986200  0.140500  0.459000  1.0  0.1279
  H  H45  1  0.282500  0.940700  0.324500  1.0  0.1218
  H  H46  1  0.254400  0.848900  0.331400  1.0  0.0906
  H  H47  1  0.908100  0.874500  0.342200  1.0  0.098
  H  H48  1  0.933600  0.965200  0.333000  1.0  0.109
  H  H49  1  0.920200  0.149500  0.232600  1.0  0.1146
  H  H50  1  0.926900  0.204800  0.186100  1.0  0.1024
  H  H51  1  0.279800  0.211800  0.194500  1.0  0.0854
  H  H52  1  0.271500  0.161000  0.244700  1.0  0.1135
  H  H53  1  0.599900  0.722600  0.086800  1.0  0.0671
  H  H54  1  0.574400  0.658100  0.078100  1.0  0.0647
  H  H55  1  0.403500  0.646800  0.160900  1.0  0.0666
  H  H56  1  0.354300  0.651000  0.120700  1.0  0.0613
  H  H57  1  0.667600  0.650000  0.137700  1.0  0.0702
  H  H58  1  0.681000  0.714700  0.149800  1.0  0.0627
  H  H59  1  0.386200  0.754600  0.134600  1.0  0.062
  H  H60  1  0.434300  0.744900  0.174000  1.0  0.0677
  H  H61  1  0.255600  0.724700  0.036700  1.0  0.1221
  H  H62  1  0.224300  0.716100  0.974000  1.0  0.107
  H  H63  1  0.558000  0.666667  0.955200  1.0  0.09
  H  H64  1  0.588100  0.674100  0.019300  1.0  0.122
  H  H65  1  0.548700  0.497400  0.103700  1.0  0.1228
  H  H66  1  0.450900  0.415000  0.103000  1.0  0.0953
  H  H67  1  0.158300  0.497500  0.139600  1.0  0.1016
  H  H68  1  0.258500  0.581700  0.141100  1.0  0.1172
  H  H69  1  0.833500  0.686700  0.182400  1.0  0.1248
  H  H70  1  0.968700  0.677400  0.228700  1.0  0.1012
  H  H71  1  0.708800  0.645800  0.297500  1.0  0.0938
  H  H72  1  0.572900  0.654300  0.251900  1.0  0.1253
  H  H73  1  0.430800  0.849000  0.138600  1.0  0.0893
  H  H74  1  0.458500  0.848100  0.181100  1.0  0.0908
  H  H75  1  0.715800  0.839700  0.128300  1.0  0.065
  H  H76  1  0.743300  0.904100  0.133800  1.0  0.0693
  H  H77  1  0.486100  0.947700  0.187700  1.0  0.0678
  H  H78  1  0.501200  0.949000  0.144500  1.0  0.056
  H  H79  1  0.726700  0.902400  0.202900  1.0  0.0718
  H  H80  1  0.696500  0.838300  0.194900  1.0  0.0612
  H  H81  1  0.817800  0.837000  0.075800  1.0  0.1244
  H  H82  1  0.866500  0.794600  0.014500  1.0  0.0989
  H  H83  1  0.534800  0.814400  0.982400  1.0  0.1015
  H  H84  1  0.486200  0.859500  0.041000  1.0  0.1275
  H  H85  1  0.782500  0.059300  0.175500  1.0  0.1211
  H  H86  1  0.754400  0.151100  0.168600  1.0  0.0902
  H  H87  1  0.408100  0.125500  0.157800  1.0  0.098
  H  H88  1  0.433600  0.034800  0.167000  1.0  0.1091
  H  H89  1  0.420200  0.850500  0.267400  1.0  0.115
  H  H90  1  0.426900  0.795200  0.313900  1.0  0.1026
  H  H91  1  0.779800  0.788200  0.305500  1.0  0.0853
  H  H92  1  0.771500  0.839000  0.255300  1.0  0.1139
  H  H93  1  0.900100  0.722600  0.586800  1.0  0.0681
  H  H94  1  0.925600  0.658100  0.578100  1.0  0.0652
  H  H95  1  0.096500  0.646800  0.660900  1.0  0.0657
  H  H96  1  0.145700  0.651000  0.620700  1.0  0.0618
  H  H97  1  0.832400  0.650000  0.637700  1.0  0.0694
  H  H98  1  0.819000  0.714700  0.649800  1.0  0.0634
  H  H99  1  0.113800  0.754600  0.634600  1.0  0.0645
  H  H100  1  0.065700  0.744900  0.674000  1.0  0.0668
  H  H101  1  0.244400  0.724700  0.536700  1.0  0.1218
  H  H102  1  0.275700  0.716100  0.474000  1.0  0.1069
  H  H103  1  0.942000  0.666667  0.455200  1.0  0.0901
  H  H104  1  0.911900  0.674100  0.519300  1.0  0.1224
  H  H105  1  0.951300  0.497400  0.603700  1.0  0.1241
  H  H106  1  0.049100  0.415000  0.603000  1.0  0.0954
  H  H107  1  0.341700  0.497500  0.639600  1.0  0.1022
  H  H108  1  0.241500  0.581700  0.641100  1.0  0.1165
  H  H109  1  0.666500  0.686700  0.682400  1.0  0.1239
  H  H110  1  0.531300  0.677400  0.728700  1.0  0.1015
  H  H111  1  0.791200  0.645800  0.797500  1.0  0.0934
  H  H112  1  0.927100  0.654300  0.751900  1.0  0.1238
  H  H113  1  0.069200  0.849000  0.638600  1.0  0.0898
  H  H114  1  0.041500  0.848100  0.681100  1.0  0.0901
  H  H115  1  0.784200  0.839700  0.628300  1.0  0.0641
  H  H116  1  0.756700  0.904100  0.633800  1.0  0.0689
  H  H117  1  0.013900  0.947700  0.687700  1.0  0.0672
  H  H118  1  0.998800  0.949000  0.644500  1.0  0.0565
  H  H119  1  0.773300  0.902400  0.702900  1.0  0.0733
  H  H120  1  0.803500  0.838300  0.694900  1.0  0.0609
  H  H121  1  0.682200  0.837000  0.575800  1.0  0.1252
  H  H122  1  0.633500  0.794600  0.514500  1.0  0.0986
  H  H123  1  0.965200  0.814400  0.482400  1.0  0.1012
  H  H124  1  0.013800  0.859500  0.541000  1.0  0.1273
  H  H125  1  0.717500  0.059300  0.675500  1.0  0.1219
  H  H126  1  0.745600  0.151100  0.668600  1.0  0.0907
  H  H127  1  0.091900  0.125500  0.657800  1.0  0.0978
  H  H128  1  0.066400  0.034800  0.667000  1.0  0.1111
  H  H129  1  0.079800  0.850500  0.767400  1.0  0.1153
  H  H130  1  0.073100  0.795200  0.813900  1.0  0.1028
  H  H131  1  0.720200  0.788200  0.805500  1.0  0.085
  H  H132  1  0.728500  0.839000  0.755300  1.0  0.1131
  H  H133  1  0.400100  0.277400  0.913200  1.0  0.0678
  H  H134  1  0.425600  0.341900  0.921900  1.0  0.0648
  H  H135  1  0.596500  0.353200  0.839100  1.0  0.0674
  H  H136  1  0.645700  0.349000  0.879300  1.0  0.0619
  H  H137  1  0.332400  0.350000  0.862300  1.0  0.0703
  H  H138  1  0.319000  0.285300  0.850200  1.0  0.0634
  H  H139  1  0.613800  0.245400  0.865400  1.0  0.0632
  H  H140  1  0.565700  0.255100  0.826000  1.0  0.0682
  H  H141  1  0.744400  0.275300  0.963300  1.0  0.1222
  H  H142  1  0.775700  0.283900  0.026000  1.0  0.1068
  H  H143  1  0.442000  0.333333  0.044800  1.0  0.0901
  H  H144  1  0.411900  0.325900  0.980700  1.0  0.1225
  H  H145  1  0.451300  0.502600  0.896300  1.0  0.1241
  H  H146  1  0.549100  0.585000  0.897000  1.0  0.0951
  H  H147  1  0.841700  0.502500  0.860400  1.0  0.1028
  H  H148  1  0.741500  0.418300  0.858900  1.0  0.1162
  H  H149  1  0.166500  0.313300  0.817600  1.0  0.1243
  H  H150  1  0.031300  0.322600  0.771300  1.0  0.1008
  H  H151  1  0.291200  0.354200  0.702500  1.0  0.0945
  H  H152  1  0.427100  0.345700  0.748100  1.0  0.124
  H  H153  1  0.569200  0.151000  0.861400  1.0  0.0886
  H  H154  1  0.541500  0.151900  0.818900  1.0  0.0911
  H  H155  1  0.284200  0.160300  0.871700  1.0  0.0646
  H  H156  1  0.256700  0.095900  0.866200  1.0  0.0676
  H  H157  1  0.513900  0.052300  0.812300  1.0  0.0665
  H  H158  1  0.498800  0.051000  0.855500  1.0  0.0563
  H  H159  1  0.273300  0.097600  0.797100  1.0  0.0733
  H  H160  1  0.303500  0.161700  0.805100  1.0  0.0623
  H  H161  1  0.182200  0.163000  0.924200  1.0  0.1243
  H  H162  1  0.133500  0.205400  0.985500  1.0  0.099
  H  H163  1  0.465200  0.185600  0.017600  1.0  0.1009
  H  H164  1  0.513800  0.140500  0.959000  1.0  0.1273
  H  H165  1  0.217500  0.940700  0.824500  1.0  0.1216
  H  H166  1  0.245600  0.848900  0.831400  1.0  0.09
  H  H167  1  0.591900  0.874500  0.842200  1.0  0.0977
  H  H168  1  0.566400  0.965200  0.833000  1.0  0.1106
  H  H169  1  0.579800  0.149500  0.732600  1.0  0.115
  H  H170  1  0.573100  0.204800  0.686100  1.0  0.1023
  H  H171  1  0.220200  0.211800  0.694500  1.0  0.0853
  H  H172  1  0.228500  0.161000  0.744700  1.0  0.1128
  C  C173  1  0.013300  0.307500  0.368880  1.0  -0.0333
  C  C174  1  0.042400  0.306300  0.410640  1.0  0.0516
  C  C175  1  0.925400  0.354000  0.365120  1.0  0.0654
  C  C176  1  0.128600  0.316900  0.349810  1.0  0.1084
  C  C177  1  0.956700  0.252900  0.351660  1.0  0.0667
  C  C178  1  0.924700  0.300800  0.466130  1.0  0.2842
  C  C179  1  0.816400  0.287600  0.479810  1.0  -0.2047
  C  C180  1  0.798200  0.292600  0.517100  1.0  -0.032
  C  C181  1  0.887800  0.310300  0.542350  1.0  -0.1189
  C  C182  1  0.996200  0.322100  0.528430  1.0  -0.0396
  C  C183  1  0.014500  0.317500  0.490010  1.0  -0.2779
  C  C184  1  0.865400  0.315200  0.582800  1.0  0.6942
  C  C185  1  0.912500  0.452400  0.377560  1.0  0.306
  C  C186  1  0.969700  0.502600  0.389100  1.0  -0.1534
  C  C187  1  0.911100  0.551600  0.389840  1.0  -0.0638
  C  C188  1  0.793900  0.552300  0.380150  1.0  -0.1479
  C  C189  1  0.737000  0.502300  0.367920  1.0  -0.0461
  C  C190  1  0.796900  0.451900  0.366830  1.0  -0.2876
  C  C191  1  0.726300  0.605200  0.383670  1.0  0.6647
  C  C192  1  0.188500  0.328300  0.287570  1.0  0.3098
  C  C193  1  0.308200  0.321400  0.294460  1.0  -0.299
  C  C194  1  0.388500  0.326700  0.266630  1.0  -0.0332
  C  C195  1  0.352700  0.338200  0.231530  1.0  -0.1544
  C  C196  1  0.234100  0.345600  0.225560  1.0  -0.0396
  C  C197  1  0.152800  0.340500  0.252780  1.0  -0.1777
  C  C198  1  0.440300  0.340100  0.200960  1.0  0.697
  C  C199  1  0.991800  0.155800  0.343600  1.0  0.0256
  C  C200  1  0.094100  0.115000  0.337320  1.0  0.0481
  C  C201  1  0.180600  0.123400  0.369700  1.0  0.0637
  C  C202  1  0.042500  0.056800  0.332760  1.0  0.0616
  C  C203  1  0.162800  0.124500  0.301780  1.0  0.0625
  C  C204  1  0.148500  0.146000  0.436500  1.0  0.3049
  C  C205  1  0.261400  0.166500  0.443140  1.0  -0.227
  C  C206  1  0.289600  0.193300  0.480060  1.0  -0.0193
  C  C207  1  0.205900  0.201200  0.507210  1.0  -0.1212
  C  C208  1  0.092300  0.180800  0.499010  1.0  -0.0182
  C  C209  1  0.062800  0.153600  0.463990  1.0  -0.2412
  C  C210  1  0.233000  0.231600  0.544960  1.0  0.7519
  C  C211  1  0.108800  0.962900  0.328710  1.0  0.2953
  C  C212  1  0.206700  0.927400  0.327900  1.0  -0.1869
  C  C213  1  0.189300  0.872500  0.332300  1.0  -0.0151
  C  C214  1  0.079900  0.851600  0.337980  1.0  -0.1225
  C  C215  1  0.983800  0.887600  0.338410  1.0  -0.0475
  C  C216  1  0.999200  0.942100  0.333333  1.0  -0.2987
  C  C217  1  0.063900  0.793500  0.345700  1.0  0.7141
  C  C218  1  0.095100  0.150300  0.243550  1.0  0.2486
  C  C219  1  0.992500  0.163000  0.225510  1.0  -0.2355
  C  C220  1  0.996600  0.195200  0.197270  1.0  -0.054
  C  C221  1  0.105300  0.213600  0.185200  1.0  -0.1446
  C  C222  1  0.207000  0.200100  0.202610  1.0  -0.0056
  C  C223  1  0.202400  0.169000  0.232470  1.0  -0.2442
  C  C224  1  0.109700  0.247600  0.154560  1.0  0.6722
  C  C225  1  0.513300  0.692500  0.131120  1.0  -0.0327
  C  C226  1  0.542400  0.693700  0.089360  1.0  0.0523
  C  C227  1  0.425400  0.646000  0.134880  1.0  0.0652
  C  C228  1  0.628600  0.683100  0.150190  1.0  0.1073
  C  C229  1  0.456700  0.747100  0.148340  1.0  0.0665
  C  C230  1  0.424700  0.699200  0.033870  1.0  0.2836
  C  C231  1  0.316400  0.712400  0.020190  1.0  -0.2055
  C  C232  1  0.298200  0.707400  0.982900  1.0  -0.0324
  C  C233  1  0.387800  0.689700  0.957650  1.0  -0.1197
  C  C234  1  0.496200  0.677900  0.971570  1.0  -0.0413
  C  C235  1  0.514500  0.682500  0.009990  1.0  -0.2781
  C  C236  1  0.365400  0.684800  0.917200  1.0  0.6949
  C  C237  1  0.412500  0.547600  0.122440  1.0  0.3062
  C  C238  1  0.469700  0.497400  0.110900  1.0  -0.154
  C  C239  1  0.411100  0.448400  0.110160  1.0  -0.0635
  C  C240  1  0.293900  0.447700  0.119850  1.0  -0.1479
  C  C241  1  0.237000  0.497700  0.132080  1.0  -0.047
  C  C242  1  0.296900  0.548100  0.133170  1.0  -0.2883
  C  C243  1  0.226300  0.394800  0.116330  1.0  0.6642
  C  C244  1  0.688500  0.671700  0.212430  1.0  0.3103
  C  C245  1  0.808200  0.678600  0.205540  1.0  -0.2983
  C  C246  1  0.888500  0.673300  0.233370  1.0  -0.0338
  C  C247  1  0.852700  0.661800  0.268470  1.0  -0.1558
  C  C248  1  0.734100  0.654400  0.274440  1.0  -0.0401
  C  C249  1  0.652800  0.659500  0.247220  1.0  -0.1787
  C  C250  1  0.940300  0.659900  0.299040  1.0  0.6983
  C  C251  1  0.491800  0.844200  0.156400  1.0  0.0259
  C  C252  1  0.594100  0.885000  0.162680  1.0  0.0482
  C  C253  1  0.680600  0.876600  0.130300  1.0  0.0641
  C  C254  1  0.542500  0.943200  0.167240  1.0  0.0614
  C  C255  1  0.662800  0.875500  0.198220  1.0  0.0632
  C  C256  1  0.648500  0.854000  0.063500  1.0  0.3067
  C  C257  1  0.761400  0.833500  0.056860  1.0  -0.2256
  C  C258  1  0.789600  0.806700  0.019940  1.0  -0.0195
  C  C259  1  0.705900  0.798800  0.992790  1.0  -0.1202
  C  C260  1  0.592300  0.819200  0.000990  1.0  -0.0181
  C  C261  1  0.562800  0.846400  0.036010  1.0  -0.2378
  C  C262  1  0.733000  0.768400  0.955040  1.0  0.7502
  C  C263  1  0.608800  0.037100  0.171290  1.0  0.2957
  C  C264  1  0.706700  0.072600  0.172100  1.0  -0.1857
  C  C265  1  0.689300  0.127500  0.167700  1.0  -0.0177
  C  C266  1  0.579900  0.148400  0.162020  1.0  -0.122
  C  C267  1  0.483800  0.112400  0.161590  1.0  -0.0485
  C  C268  1  0.499200  0.057900  0.166700  1.0  -0.2988
  C  C269  1  0.563900  0.206500  0.154300  1.0  0.7144
  C  C270  1  0.595100  0.849700  0.256450  1.0  0.2483
  C  C271  1  0.492500  0.837000  0.274490  1.0  -0.2366
  C  C272  1  0.496600  0.804800  0.302730  1.0  -0.0534
  C  C273  1  0.605300  0.786400  0.314800  1.0  -0.1443
  C  C274  1  0.707000  0.799900  0.297390  1.0  -0.0042
  C  C275  1  0.702400  0.831000  0.267530  1.0  -0.2459
  C  C276  1  0.609700  0.752400  0.345440  1.0  0.6723
  C  C277  1  0.986700  0.692500  0.631120  1.0  -0.0319
  C  C278  1  0.957600  0.693700  0.589360  1.0  0.0543
  C  C279  1  0.074600  0.646000  0.634880  1.0  0.0647
  C  C280  1  0.871400  0.683100  0.650190  1.0  0.1077
  C  C281  1  0.043300  0.747100  0.648340  1.0  0.0673
  C  C282  1  0.075300  0.699200  0.533870  1.0  0.2811
  C  C283  1  0.183600  0.712400  0.520190  1.0  -0.2054
  C  C284  1  0.201800  0.707400  0.482900  1.0  -0.0328
  C  C285  1  0.112200  0.689700  0.457650  1.0  -0.1208
  C  C286  1  0.003800  0.677900  0.471570  1.0  -0.0397
  C  C287  1  0.985500  0.682500  0.509990  1.0  -0.2782
  C  C288  1  0.134600  0.684800  0.417200  1.0  0.6941
  C  C289  1  0.087500  0.547600  0.622440  1.0  0.3055
  C  C290  1  0.030300  0.497400  0.610900  1.0  -0.1558
  C  C291  1  0.088900  0.448400  0.610160  1.0  -0.0632
  C  C292  1  0.206100  0.447700  0.619850  1.0  -0.1479
  C  C293  1  0.263000  0.497700  0.632080  1.0  -0.0455
  C  C294  1  0.203100  0.548100  0.633170  1.0  -0.2873
  C  C295  1  0.273700  0.394800  0.616330  1.0  0.6663
  C  C296  1  0.811500  0.671700  0.712430  1.0  0.3099
  C  C297  1  0.691800  0.678600  0.705540  1.0  -0.3018
  C  C298  1  0.611500  0.673300  0.733370  1.0  -0.0331
  C  C299  1  0.647300  0.661800  0.768470  1.0  -0.1549
  C  C300  1  0.765900  0.654400  0.774440  1.0  -0.0401
  C  C301  1  0.847200  0.659500  0.747220  1.0  -0.1783
  C  C302  1  0.559700  0.659900  0.799040  1.0  0.6965
  C  C303  1  0.008200  0.844200  0.656400  1.0  0.0248
  C  C304  1  0.905900  0.885000  0.662680  1.0  0.0484
  C  C305  1  0.819400  0.876600  0.630300  1.0  0.0618
  C  C306  1  0.957500  0.943200  0.667240  1.0  0.0618
  C  C307  1  0.837200  0.875500  0.698220  1.0  0.0625
  C  C308  1  0.851500  0.854000  0.563500  1.0  0.3067
  C  C309  1  0.738600  0.833500  0.556860  1.0  -0.228
  C  C310  1  0.710400  0.806700  0.519940  1.0  -0.0174
  C  C311  1  0.794100  0.798800  0.492790  1.0  -0.1217
  C  C312  1  0.907700  0.819200  0.500990  1.0  -0.0194
  C  C313  1  0.937200  0.846400  0.536010  1.0  -0.2403
  C  C314  1  0.767000  0.768400  0.455040  1.0  0.7528
  C  C315  1  0.891200  0.037100  0.671290  1.0  0.2948
  C  C316  1  0.793300  0.072600  0.672100  1.0  -0.1875
  C  C317  1  0.810700  0.127500  0.667700  1.0  -0.0148
  C  C318  1  0.920100  0.148400  0.662020  1.0  -0.1238
  C  C319  1  0.016200  0.112400  0.661590  1.0  -0.0486
  C  C320  1  0.000800  0.057900  0.666667  1.0  -0.2976
  C  C321  1  0.936100  0.206500  0.654300  1.0  0.7151
  C  C322  1  0.904900  0.849700  0.756450  1.0  0.2483
  C  C323  1  0.007500  0.837000  0.774490  1.0  -0.2369
  C  C324  1  0.003400  0.804800  0.802730  1.0  -0.0534
  C  C325  1  0.894700  0.786400  0.814800  1.0  -0.1455
  C  C326  1  0.793000  0.799900  0.797390  1.0  -0.0035
  C  C327  1  0.797600  0.831000  0.767530  1.0  -0.2458
  C  C328  1  0.890300  0.752400  0.845440  1.0  0.672
  C  C329  1  0.486700  0.307500  0.868880  1.0  -0.0327
  C  C330  1  0.457600  0.306300  0.910640  1.0  0.0525
  C  C331  1  0.574600  0.354000  0.865120  1.0  0.0662
  C  C332  1  0.371400  0.316900  0.849810  1.0  0.1076
  C  C333  1  0.543300  0.252900  0.851660  1.0  0.067
  C  C334  1  0.575300  0.300800  0.966130  1.0  0.2823
  C  C335  1  0.683600  0.287600  0.979810  1.0  -0.2064
  C  C336  1  0.701800  0.292600  0.017100  1.0  -0.0325
  C  C337  1  0.612200  0.310300  0.042350  1.0  -0.1219
  C  C338  1  0.503800  0.322100  0.028430  1.0  -0.039
  C  C339  1  0.485500  0.317500  0.990010  1.0  -0.2784
  C  C340  1  0.634600  0.315200  0.082800  1.0  0.6946
  C  C341  1  0.587500  0.452400  0.877560  1.0  0.3054
  C  C342  1  0.530300  0.502600  0.889100  1.0  -0.1557
  C  C343  1  0.588900  0.551600  0.889840  1.0  -0.063
  C  C344  1  0.706100  0.552300  0.880150  1.0  -0.1484
  C  C345  1  0.763000  0.502300  0.867920  1.0  -0.0455
  C  C346  1  0.703100  0.451900  0.866830  1.0  -0.2862
  C  C347  1  0.773700  0.605200  0.883670  1.0  0.6656
  C  C348  1  0.311500  0.328300  0.787570  1.0  0.3092
  C  C349  1  0.191800  0.321400  0.794460  1.0  -0.303
  C  C350  1  0.111500  0.326700  0.766630  1.0  -0.0346
  C  C351  1  0.147300  0.338200  0.731530  1.0  -0.1535
  C  C352  1  0.265900  0.345600  0.725560  1.0  -0.0385
  C  C353  1  0.347200  0.340500  0.752780  1.0  -0.179
  C  C354  1  0.059700  0.340100  0.700960  1.0  0.697
  C  C355  1  0.508200  0.155800  0.843600  1.0  0.0249
  C  C356  1  0.405900  0.115000  0.837320  1.0  0.0482
  C  C357  1  0.319400  0.123400  0.869700  1.0  0.0623
  C  C358  1  0.457500  0.056800  0.832760  1.0  0.0607
  C  C359  1  0.337200  0.124500  0.801780  1.0  0.0634
  C  C360  1  0.351500  0.146000  0.936500  1.0  0.304
  C  C361  1  0.238600  0.166500  0.943140  1.0  -0.2269
  C  C362  1  0.210400  0.193300  0.980060  1.0  -0.0184
  C  C363  1  0.294100  0.201200  0.007210  1.0  -0.1204
  C  C364  1  0.407700  0.180800  0.999010  1.0  -0.0198
  C  C365  1  0.437200  0.153600  0.963990  1.0  -0.2421
  C  C366  1  0.267000  0.231600  0.044960  1.0  0.7529
  C  C367  1  0.391200  0.962900  0.828710  1.0  0.2938
  C  C368  1  0.293300  0.927400  0.827900  1.0  -0.1883
  C  C369  1  0.310700  0.872500  0.832300  1.0  -0.017
  C  C370  1  0.420100  0.851600  0.837980  1.0  -0.124
  C  C371  1  0.516200  0.887600  0.838410  1.0  -0.0483
  C  C372  1  0.500800  0.942100  0.833300  1.0  -0.297
  C  C373  1  0.436100  0.793500  0.845700  1.0  0.7142
  C  C374  1  0.404900  0.150300  0.743550  1.0  0.2486
  C  C375  1  0.507500  0.163000  0.725510  1.0  -0.2366
  C  C376  1  0.503400  0.195200  0.697270  1.0  -0.0543
  C  C377  1  0.394700  0.213600  0.685200  1.0  -0.145
  C  C378  1  0.293000  0.200100  0.702610  1.0  -0.0043
  C  C379  1  0.297600  0.169000  0.732470  1.0  -0.2446
  C  C380  1  0.390300  0.247600  0.654560  1.0  0.6711
  O  O381  1  0.040500  0.209960  0.352470  1.0  -0.3055
  O  O382  1  0.932200  0.295000  0.427890  1.0  -0.2804
  O  O383  1  0.978900  0.405430  0.378700  1.0  -0.2737
  O  O384  1  0.100100  0.323730  0.312090  1.0  -0.2744
  O  O385  1  0.953800  0.319510  0.605580  1.0  -0.6682
  O  O386  1  0.763700  0.316130  0.595830  1.0  -0.6257
  O  O387  1  0.623000  0.606610  0.371350  1.0  -0.5899
  O  O388  1  0.772800  0.649730  0.401850  1.0  -0.7057
  O  O389  1  0.549800  0.336660  0.208020  1.0  -0.6087
  O  O390  1  0.401100  0.345140  0.168850  1.0  -0.6374
  O  O391  1  0.112800  0.118260  0.402780  1.0  -0.2817
  O  O392  1  0.135000  0.017130  0.325280  1.0  -0.2704
  O  O393  1  0.081900  0.118190  0.271170  1.0  -0.2747
  O  O394  1  0.151500  0.235240  0.569080  1.0  -0.6218
  O  O395  1  0.334000  0.251200  0.550820  1.0  -0.6187
  O  O396  1  0.153400  0.762210  0.343240  1.0  -0.6142
  O  O397  1  0.961100  0.778570  0.353190  1.0  -0.6146
  O  O398  1  0.206200  0.257300  0.140180  1.0  -0.6642
  O  O399  1  0.015400  0.266120  0.141510  1.0  -0.6031
  O  O400  1  0.540500  0.790040  0.147530  1.0  -0.3054
  O  O401  1  0.432200  0.705000  0.072110  1.0  -0.2798
  O  O402  1  0.478900  0.594570  0.121300  1.0  -0.2729
  O  O403  1  0.600100  0.676270  0.187910  1.0  -0.2767
  O  O404  1  0.453800  0.680490  0.894420  1.0  -0.669
  O  O405  1  0.263700  0.683870  0.904170  1.0  -0.6249
  O  O406  1  0.123000  0.393390  0.128650  1.0  -0.5895
  O  O407  1  0.272800  0.350270  0.098150  1.0  -0.7069
  O  O408  1  0.049800  0.663340  0.291980  1.0  -0.609
  O  O409  1  0.901100  0.654860  0.331150  1.0  -0.6379
  O  O410  1  0.612800  0.881740  0.097220  1.0  -0.2799
  O  O411  1  0.635000  0.982870  0.174720  1.0  -0.2705
  O  O412  1  0.581900  0.881810  0.228830  1.0  -0.2782
  O  O413  1  0.651500  0.764760  0.930920  1.0  -0.6205
  O  O414  1  0.834000  0.748800  0.949180  1.0  -0.6176
  O  O415  1  0.653400  0.237790  0.156760  1.0  -0.6143
  O  O416  1  0.461100  0.221430  0.146810  1.0  -0.6139
  O  O417  1  0.706200  0.742700  0.359820  1.0  -0.6656
  O  O418  1  0.515400  0.733880  0.358490  1.0  -0.6025
  O  O419  1  0.959500  0.790040  0.647530  1.0  -0.305
  O  O420  1  0.067800  0.705000  0.572110  1.0  -0.2788
  O  O421  1  0.021100  0.594570  0.621300  1.0  -0.275
  O  O422  1  0.899900  0.676270  0.687910  1.0  -0.2766
  O  O423  1  0.046200  0.680490  0.394420  1.0  -0.6665
  O  O424  1  0.236300  0.683870  0.404170  1.0  -0.6237
  O  O425  1  0.377000  0.393390  0.628650  1.0  -0.5884
  O  O426  1  0.227200  0.350270  0.598150  1.0  -0.7067
  O  O427  1  0.450200  0.663340  0.791980  1.0  -0.6108
  O  O428  1  0.598900  0.654860  0.831150  1.0  -0.6384
  O  O429  1  0.887200  0.881740  0.597220  1.0  -0.2802
  O  O430  1  0.865000  0.982870  0.674720  1.0  -0.2709
  O  O431  1  0.918100  0.881810  0.728830  1.0  -0.2773
  O  O432  1  0.848500  0.764760  0.430920  1.0  -0.6216
  O  O433  1  0.666000  0.748800  0.449180  1.0  -0.6223
  O  O434  1  0.846600  0.237790  0.656760  1.0  -0.6142
  O  O435  1  0.038900  0.221430  0.646810  1.0  -0.6145
  O  O436  1  0.793800  0.742700  0.859820  1.0  -0.6648
  O  O437  1  0.984600  0.733880  0.858490  1.0  -0.604
  O  O438  1  0.459500  0.209960  0.852470  1.0  -0.3053
  O  O439  1  0.567800  0.295000  0.927890  1.0  -0.2793
  O  O440  1  0.521100  0.405430  0.878700  1.0  -0.2744
  O  O441  1  0.399900  0.323730  0.812090  1.0  -0.2751
  O  O442  1  0.546200  0.319510  0.105580  1.0  -0.6664
  O  O443  1  0.736300  0.316130  0.095830  1.0  -0.6238
  O  O444  1  0.877000  0.606610  0.871350  1.0  -0.5886
  O  O445  1  0.727200  0.649730  0.901850  1.0  -0.7057
  O  O446  1  0.950200  0.336660  0.708020  1.0  -0.6097
  O  O447  1  0.098900  0.345140  0.668850  1.0  -0.6384
  O  O448  1  0.387200  0.118260  0.902780  1.0  -0.2815
  O  O449  1  0.365000  0.017130  0.825280  1.0  -0.2712
  O  O450  1  0.418100  0.118190  0.771170  1.0  -0.2742
  O  O451  1  0.348500  0.235240  0.069080  1.0  -0.6224
  O  O452  1  0.166000  0.251200  0.050820  1.0  -0.6216
  O  O453  1  0.346600  0.762210  0.843240  1.0  -0.6135
  O  O454  1  0.538900  0.778570  0.853190  1.0  -0.6149
  O  O455  1  0.293800  0.257300  0.640180  1.0  -0.6635
  O  O456  1  0.484600  0.266120  0.641510  1.0  -0.6048
