# generated using pymatgen
data_Mn3H40C52O19
_symmetry_space_group_name_H-M   'P 1'
_cell_length_a   10.37330000
_cell_length_b   14.19080000
_cell_length_c   34.21520000
_cell_angle_alpha   78.30070000
_cell_angle_beta   81.28100000
_cell_angle_gamma   68.56200000
_symmetry_Int_Tables_number   1
_chemical_formula_structural   Mn3H40C52O19
_chemical_formula_sum   'Mn6 H80 C104 O38'
_cell_volume   4574.18438979
_cell_formula_units_Z   2
loop_
 _symmetry_equiv_pos_site_id
 _symmetry_equiv_pos_as_xyz
  1  'x, y, z'
loop_
 _atom_site_type_symbol
 _atom_site_label
 _atom_site_symmetry_multiplicity
 _atom_site_fract_x
 _atom_site_fract_y
 _atom_site_fract_z
 _atom_site_occupancy
 _atom_site_charge
  Mn  Mn1  1  0.399620  0.826830  0.837930  1.0  1.1325
  Mn  Mn2  1  0.025230  0.941140  0.855260  1.0  1.122
  Mn  Mn3  1  0.774820  0.713200  0.818380  1.0  1.1547
  Mn  Mn4  1  0.935620  0.326830  0.337930  1.0  1.1327
  Mn  Mn5  1  0.178370  0.441140  0.355260  1.0  1.1216
  Mn  Mn6  1  0.693600  0.213200  0.318380  1.0  1.1539
  H  H7  1  0.739100  0.801300  0.117300  1.0  0.0726
  H  H8  1  0.658500  0.817800  0.159600  1.0  0.0789
  H  H9  1  0.469900  0.808600  0.082600  1.0  0.0703
  H  H10  1  0.421800  0.925400  0.063600  1.0  0.0725
  H  H11  1  0.590400  0.005800  0.126800  1.0  0.0939
  H  H12  1  0.655500  0.976000  0.084600  1.0  0.0925
  H  H13  1  0.321900  0.969200  0.129200  1.0  0.0567
  H  H14  1  0.375000  0.854000  0.150200  1.0  0.0713
  H  H15  1  0.785400  0.677900  0.194700  1.0  0.1271
  H  H16  1  0.816600  0.544800  0.248800  1.0  0.1052
  H  H17  1  0.551000  0.449900  0.209100  1.0  0.0907
  H  H18  1  0.521200  0.579400  0.154200  1.0  0.1275
  H  H19  1  0.421500  0.823700  0.016100  1.0  0.1245
  H  H20  1  0.436400  0.789200  0.951200  1.0  0.0896
  H  H21  1  0.817600  0.808400  0.929600  1.0  0.1049
  H  H22  1  0.807200  0.834700  0.994300  1.0  0.1169
  H  H23  1  0.442700  0.040900  0.227100  1.0  0.1261
  H  H24  1  0.270000  0.125600  0.272400  1.0  0.1022
  H  H25  1  0.991100  0.050800  0.227800  1.0  0.107
  H  H26  1  0.162300  0.968300  0.181700  1.0  0.1272
  H  H27  1  0.182800  0.275800  0.031400  1.0  0.0668
  H  H28  1  0.244900  0.161100  0.052700  1.0  0.0683
  H  H29  1  0.439600  0.324900  0.014100  1.0  0.0648
  H  H30  1  0.446400  0.359500  0.054500  1.0  0.0737
  H  H31  1  0.244500  0.217800  0.116400  1.0  0.0721
  H  H32  1  0.176500  0.331700  0.095500  1.0  0.0786
  H  H33  1  0.532700  0.178800  0.091800  1.0  0.07
  H  H34  1  0.549200  0.151900  0.048500  1.0  0.0729
  H  H35  1  0.115100  0.170100  0.997700  1.0  0.1303
  H  H36  1  0.070400  0.094400  0.949600  1.0  0.1021
  H  H37  1  0.463000  0.030400  0.902000  1.0  0.1047
  H  H38  1  0.505200  0.112800  0.947000  1.0  0.1163
  H  H39  1  0.447900  0.475000  0.981000  1.0  0.123
  H  H40  1  0.407500  0.608900  0.926700  1.0  0.1035
  H  H41  1  0.000900  0.693800  0.960400  1.0  0.0833
  H  H42  1  0.040600  0.555800  0.012000  1.0  0.1357
  H  H43  1  0.095200  0.324100  0.165500  1.0  0.1218
  H  H44  1  0.031000  0.359600  0.229600  1.0  0.0914
  H  H45  1  0.416900  0.352700  0.238500  1.0  0.0937
  H  H46  1  0.477300  0.328100  0.172500  1.0  0.1256
  H  H47  1  0.342300  0.301300  0.617300  1.0  0.0785
  H  H48  1  0.364100  0.317800  0.659600  1.0  0.0777
  H  H49  1  0.638900  0.308600  0.582600  1.0  0.071
  H  H50  1  0.589200  0.425400  0.563600  1.0  0.0715
  H  H51  1  0.277000  0.505800  0.626800  1.0  0.0946
  H  H52  1  0.283900  0.476000  0.584600  1.0  0.0944
  H  H53  1  0.579700  0.469200  0.629200  1.0  0.0568
  H  H54  1  0.620800  0.354000  0.650200  1.0  0.0705
  H  H55  1  0.342000  0.177900  0.694700  1.0  0.1266
  H  H56  1  0.389800  0.044800  0.748800  1.0  0.1037
  H  H57  1  0.790000  0.949900  0.709100  1.0  0.0911
  H  H58  1  0.745200  0.079400  0.654200  1.0  0.1282
  H  H59  1  0.738700  0.323700  0.516100  1.0  0.1242
  H  H60  1  0.823200  0.289200  0.451200  1.0  0.0916
  H  H61  1  0.444400  0.308400  0.429600  1.0  0.105
  H  H62  1  0.363800  0.334700  0.494300  1.0  0.116
  H  H63  1  0.289300  0.540900  0.727100  1.0  0.1279
  H  H64  1  0.332000  0.625600  0.772400  1.0  0.1027
  H  H65  1  0.730300  0.550800  0.727800  1.0  0.1068
  H  H66  1  0.687700  0.468300  0.681700  1.0  0.1272
  H  H67  1  0.510000  0.775800  0.531400  1.0  0.0668
  H  H68  1  0.541300  0.661100  0.552700  1.0  0.0684
  H  H69  1  0.221400  0.824900  0.514100  1.0  0.0655
  H  H70  1  0.139600  0.859500  0.554500  1.0  0.0746
  H  H71  1  0.421300  0.717800  0.616400  1.0  0.0728
  H  H72  1  0.396300  0.831700  0.595500  1.0  0.0782
  H  H73  1  0.196700  0.678800  0.591800  1.0  0.0679
  H  H74  1  0.250400  0.651900  0.548500  1.0  0.0739
  H  H75  1  0.717100  0.670100  0.497700  1.0  0.1311
  H  H76  1  0.885600  0.594400  0.449600  1.0  0.1014
  H  H77  1  0.604600  0.530400  0.402000  1.0  0.1046
  H  H78  1  0.435000  0.612800  0.447000  1.0  0.1184
  H  H79  1  0.096100  0.975000  0.481000  1.0  0.1233
  H  H80  1  0.056900  0.108900  0.426700  1.0  0.104
  H  H81  1  0.344900  0.193800  0.460400  1.0  0.0824
  H  H82  1  0.391600  0.055800  0.512000  1.0  0.1358
  H  H83  1  0.415200  0.824100  0.665500  1.0  0.1225
  H  H84  1  0.379800  0.859600  0.729600  1.0  0.0897
  H  H85  1  0.991900  0.852700  0.738500  1.0  0.0925
  H  H86  1  0.022100  0.828100  0.672500  1.0  0.1256
  C  C87  1  0.531000  0.894610  0.112990  1.0  -0.0236
  C  C88  1  0.651800  0.806010  0.133190  1.0  0.0616
  C  C89  1  0.497500  0.868650  0.075750  1.0  0.0801
  C  C90  1  0.572800  0.989340  0.102660  1.0  0.0326
  C  C91  1  0.399100  0.915450  0.141950  1.0  0.0821
  C  C92  1  0.648700  0.642590  0.169610  1.0  0.2535
  C  C93  1  0.737800  0.632280  0.197520  1.0  -0.2224
  C  C94  1  0.755800  0.552510  0.230090  1.0  -0.0381
  C  C95  1  0.684800  0.485630  0.234770  1.0  -0.0962
  C  C96  1  0.598000  0.495950  0.206250  1.0  -0.0152
  C  C97  1  0.579300  0.573590  0.173410  1.0  -0.2389
  C  C98  1  0.700100  0.400460  0.270540  1.0  0.737
  C  C99  1  0.612700  0.831920  0.011280  1.0  0.285
  C  C100  1  0.501400  0.819290  0.998910  1.0  -0.224
  C  C101  1  0.510300  0.799690  0.959710  1.0  -0.0179
  C  C102  1  0.627000  0.795760  0.933840  1.0  -0.1699
  C  C103  1  0.738800  0.810090  0.946910  1.0  -0.0678
  C  C104  1  0.731900  0.826780  0.985420  1.0  -0.2325
  C  C105  1  0.638700  0.774740  0.892060  1.0  0.7162
  C  C106  1  0.318600  0.995050  0.200550  1.0  0.278
  C  C107  1  0.351900  0.042940  0.227260  1.0  -0.2046
  C  C108  1  0.248250  0.094050  0.254250  1.0  -0.0158
  C  C109  1  0.112910  0.098080  0.254300  1.0  -0.1263
  C  C110  1  0.081500  0.049550  0.227450  1.0  -0.03
  C  C111  1  0.184100  0.999120  0.200080  1.0  -0.2735
  C  C112  1  0.999950  0.155170  0.283330  1.0  0.7706
  C  C113  1  0.350300  0.251170  0.063030  1.0  -0.0176
  C  C114  1  0.268300  0.219560  0.038040  1.0  0.0872
  C  C115  1  0.388900  0.341530  0.039470  1.0  0.0442
  C  C116  1  0.264100  0.277320  0.101280  1.0  0.082
  C  C117  1  0.487000  0.162750  0.072650  1.0  0.0817
  C  C118  1  0.315700  0.149000  0.977000  1.0  0.299
  C  C119  1  0.184400  0.143370  0.978230  1.0  -0.2348
  C  C120  1  0.159000  0.096510  0.949490  1.0  -0.0111
  C  C121  1  0.260300  0.053750  0.921050  1.0  -0.1384
  C  C122  1  0.392200  0.059620  0.920780  1.0  -0.0261
  C  C123  1  0.417800  0.107810  0.947990  1.0  -0.2085
  C  C124  1  0.233100  0.999530  0.891270  1.0  0.7253
  C  C125  1  0.248800  0.502860  0.000740  1.0  0.298
  C  C126  1  0.357500  0.518280  0.976320  1.0  -0.2254
  C  C127  1  0.333400  0.599370  0.944030  1.0  -0.0474
  C  C128  1  0.198000  0.665950  0.937850  1.0  -0.1118
  C  C129  1  0.091400  0.648940  0.963860  1.0  -0.0263
  C  C130  1  0.114500  0.567060  0.995140  1.0  -0.2898
  C  C131  1  0.169500  0.750610  0.903190  1.0  0.7395
  C  C132  1  0.292200  0.324490  0.162510  1.0  0.2419
  C  C133  1  0.158500  0.332010  0.179990  1.0  -0.2563
  C  C134  1  0.121200  0.351430  0.218570  1.0  -0.036
  C  C135  1  0.215740  0.359080  0.241440  1.0  -0.169
  C  C136  1  0.351700  0.348810  0.223590  1.0  -0.0599
  C  C137  1  0.388700  0.332980  0.184220  1.0  -0.2613
  C  C138  1  0.178970  0.378150  0.283110  1.0  0.698
  C  C139  1  0.461400  0.394610  0.612990  1.0  -0.0246
  C  C140  1  0.409000  0.306010  0.633190  1.0  0.0599
  C  C141  1  0.558100  0.368650  0.575750  1.0  0.0769
  C  C142  1  0.335200  0.489340  0.602660  1.0  0.0299
  C  C143  1  0.543500  0.415450  0.641950  1.0  0.0845
  C  C144  1  0.539100  0.142590  0.669610  1.0  0.2533
  C  C145  1  0.432400  0.132280  0.697520  1.0  -0.2258
  C  C146  1  0.461600  0.052510  0.730090  1.0  -0.0371
  C  C147  1  0.594800  0.985630  0.734770  1.0  -0.0961
  C  C148  1  0.699800  0.995950  0.706250  1.0  -0.0155
  C  C149  1  0.673700  0.073590  0.673410  1.0  -0.2411
  C  C150  1  0.628900  0.900460  0.770540  1.0  0.7369
  C  C151  1  0.544100  0.331920  0.511280  1.0  0.2851
  C  C152  1  0.680400  0.319290  0.498910  1.0  -0.2236
  C  C153  1  0.730300  0.299690  0.459710  1.0  -0.0188
  C  C154  1  0.643400  0.295760  0.433840  1.0  -0.1698
  C  C155  1  0.504200  0.310090  0.446910  1.0  -0.0661
  C  C156  1  0.455900  0.326780  0.485420  1.0  -0.2342
  C  C157  1  0.694500  0.274740  0.392060  1.0  0.715
  C  C158  1  0.485800  0.495050  0.700550  1.0  0.2813
  C  C159  1  0.377900  0.542940  0.727260  1.0  -0.2028
  C  C160  1  0.403450  0.594050  0.754250  1.0  -0.0155
  C  C161  1  0.534710  0.598080  0.754300  1.0  -0.1263
  C  C162  1  0.641500  0.549550  0.727450  1.0  -0.029
  C  C163  1  0.616700  0.499120  0.700080  1.0  -0.2705
  C  C164  1  0.561550  0.655170  0.783330  1.0  0.7773
  C  C165  1  0.335500  0.751170  0.563030  1.0  -0.0176
  C  C166  1  0.474100  0.719560  0.538040  1.0  0.088
  C  C167  1  0.230100  0.841530  0.539470  1.0  0.0434
  C  C168  1  0.357300  0.777320  0.601280  1.0  0.0854
  C  C169  1  0.277600  0.662750  0.572650  1.0  0.0837
  C  C170  1  0.558300  0.649000  0.477000  1.0  0.3
  C  C171  1  0.694000  0.643370  0.478230  1.0  -0.2337
  C  C172  1  0.795000  0.596510  0.449490  1.0  -0.0099
  C  C173  1  0.764900  0.553750  0.421050  1.0  -0.139
  C  C174  1  0.627400  0.559620  0.420780  1.0  -0.0245
  C  C175  1  0.526400  0.607810  0.447990  1.0  -0.2123
  C  C176  1  0.876100  0.499530  0.391270  1.0  0.7215
  C  C177  1  0.247600  0.002860  0.500740  1.0  0.2978
  C  C178  1  0.147900  0.018280  0.476320  1.0  -0.2259
  C  C179  1  0.123200  0.099370  0.444030  1.0  -0.0473
  C  C180  1  0.198200  0.165950  0.437850  1.0  -0.1138
  C  C181  1  0.295800  0.148940  0.463860  1.0  -0.027
  C  C182  1  0.323300  0.067060  0.495140  1.0  -0.2883
  C  C183  1  0.176700  0.250610  0.403190  1.0  0.7402
  C  C184  1  0.220800  0.824490  0.662510  1.0  0.2419
  C  C185  1  0.329500  0.832010  0.679990  1.0  -0.256
  C  C186  1  0.308800  0.851430  0.718570  1.0  -0.0362
  C  C187  1  0.183740  0.859080  0.741440  1.0  -0.1703
  C  C188  1  0.075900  0.848810  0.723590  1.0  -0.0572
  C  C189  1  0.094100  0.832980  0.684220  1.0  -0.2613
  C  C190  1  0.159770  0.878150  0.783110  1.0  0.6979
  O  O191  1  0.454340  0.073720  0.088800  1.0  -0.3534
  O  O192  1  0.623590  0.715010  0.136010  1.0  -0.2861
  O  O193  1  0.620610  0.849070  0.048510  1.0  -0.2713
  O  O194  1  0.428760  0.946060  0.175620  1.0  -0.2781
  O  O195  1  0.775250  0.394890  0.296810  1.0  -0.69
  O  O196  1  0.634230  0.341370  0.271970  1.0  -0.5877
  O  O197  1  0.551850  0.744390  0.881510  1.0  -0.6463
  O  O198  1  0.741210  0.787480  0.868700  1.0  -0.6411
  O  O199  1  0.880130  0.150950  0.283390  1.0  -0.6805
  O  O200  1  0.032860  0.202240  0.304840  1.0  -0.6108
  O  O201  1  0.355810  0.193650  0.002330  1.0  -0.2759
  O  O202  1  0.258780  0.425590  0.033050  1.0  -0.2849
  O  O203  1  0.340680  0.309540  0.123700  1.0  -0.275
  O  O204  1  0.336130  0.953440  0.869500  1.0  -0.6141
  O  O205  1  0.109430  0.006180  0.890360  1.0  -0.6573
  O  O206  1  0.267390  0.755980  0.877440  1.0  -0.6811
  O  O207  1  0.046180  0.813360  0.901680  1.0  -0.5985
  O  O208  1  0.053630  0.411510  0.296830  1.0  -0.7067
  O  O209  1  0.276330  0.365590  0.304550  1.0  -0.6116
  O  O210  1  0.383140  0.573720  0.588800  1.0  -0.3531
  O  O211  1  0.525390  0.215010  0.636010  1.0  -0.2841
  O  O212  1  0.481810  0.349070  0.548510  1.0  -0.27
  O  O213  1  0.449560  0.446060  0.675620  1.0  -0.2786
  O  O214  1  0.533050  0.894890  0.796810  1.0  -0.689
  O  O215  1  0.752430  0.841370  0.771970  1.0  -0.5878
  O  O216  1  0.822250  0.244390  0.381510  1.0  -0.6491
  O  O217  1  0.602610  0.287480  0.368700  1.0  -0.6431
  O  O218  1  0.685530  0.650950  0.783390  1.0  -0.6796
  O  O219  1  0.460060  0.702240  0.804840  1.0  -0.6106
  O  O220  1  0.448210  0.693650  0.502330  1.0  -0.2703
  O  O221  1  0.282580  0.925590  0.533050  1.0  -0.284
  O  O222  1  0.226080  0.809540  0.623700  1.0  -0.2756
  O  O223  1  0.840930  0.453440  0.369500  1.0  -0.6141
  O  O224  1  0.994030  0.506180  0.390360  1.0  -0.6561
  O  O225  1  0.099190  0.255980  0.377440  1.0  -0.682
  O  O226  1  0.238780  0.313360  0.401680  1.0  -0.5978
  O  O227  1  0.238030  0.911510  0.796830  1.0  -0.7082
  O  O228  1  0.053530  0.865590  0.804550  1.0  -0.6151
