# generated using pymatgen
data_In(CO2)4
_symmetry_space_group_name_H-M   'P 1'
_cell_length_a   9.01480000
_cell_length_b   9.01480000
_cell_length_c   11.46450000
_cell_angle_alpha   90.00000000
_cell_angle_beta   90.00000000
_cell_angle_gamma   120.00000000
_symmetry_Int_Tables_number   1
_chemical_formula_structural   In(CO2)4
_chemical_formula_sum   'In3 C12 O24'
_cell_volume   806.85954758
_cell_formula_units_Z   3
loop_
 _symmetry_equiv_pos_site_id
 _symmetry_equiv_pos_as_xyz
  1  'x, y, z'
loop_
 _atom_site_type_symbol
 _atom_site_label
 _atom_site_symmetry_multiplicity
 _atom_site_fract_x
 _atom_site_fract_y
 _atom_site_fract_z
 _atom_site_occupancy
 _atom_site_charge
  In  In1  1  0.500000  0.000000  0.666667  1.0  1.4309
  In  In2  1  0.500000  0.500000  0.000000  1.0  1.4309
  In  In3  1  0.000000  0.500000  0.333333  1.0  1.431
  C  C4  1  0.791000  0.209000  0.500000  1.0  0.4836
  C  C5  1  0.691550  0.308450  0.500000  1.0  0.5257
  C  C6  1  0.418000  0.209000  0.833330  1.0  0.4826
  C  C7  1  0.616900  0.308450  0.833330  1.0  0.528
  C  C8  1  0.791000  0.582000  0.166670  1.0  0.4822
  C  C9  1  0.691550  0.383100  0.166670  1.0  0.5256
  C  C10  1  0.209000  0.791000  0.500000  1.0  0.4835
  C  C11  1  0.308450  0.691550  0.500000  1.0  0.5268
  C  C12  1  0.582000  0.791000  0.833330  1.0  0.4845
  C  C13  1  0.383100  0.691550  0.833330  1.0  0.5241
  C  C14  1  0.209000  0.418000  0.166670  1.0  0.4825
  C  C15  1  0.308450  0.616900  0.166670  1.0  0.5246
  O  O16  1  0.734500  0.075200  0.562900  1.0  -0.4123
  O  O17  1  0.556700  0.243500  0.556900  1.0  -0.4553
  O  O18  1  0.340700  0.265500  0.896230  1.0  -0.4107
  O  O19  1  0.686800  0.443300  0.890230  1.0  -0.4528
  O  O20  1  0.924800  0.659300  0.229570  1.0  -0.4094
  O  O21  1  0.756500  0.313200  0.223570  1.0  -0.45
  O  O22  1  0.265500  0.924800  0.562900  1.0  -0.4102
  O  O23  1  0.443300  0.756500  0.556900  1.0  -0.4549
  O  O24  1  0.659300  0.734500  0.896230  1.0  -0.411
  O  O25  1  0.313200  0.556700  0.890230  1.0  -0.452
  O  O26  1  0.075200  0.340700  0.229570  1.0  -0.4099
  O  O27  1  0.243500  0.686800  0.223570  1.0  -0.4497
  O  O28  1  0.659300  0.924800  0.770430  1.0  -0.4089
  O  O29  1  0.313200  0.756500  0.776430  1.0  -0.4548
  O  O30  1  0.075200  0.734500  0.437100  1.0  -0.4089
  O  O31  1  0.243500  0.556700  0.443100  1.0  -0.4541
  O  O32  1  0.265500  0.340700  0.103770  1.0  -0.4073
  O  O33  1  0.443300  0.686800  0.109770  1.0  -0.4489
  O  O34  1  0.340700  0.075200  0.770430  1.0  -0.4087
  O  O35  1  0.686800  0.243500  0.776430  1.0  -0.4538
  O  O36  1  0.924800  0.265500  0.437100  1.0  -0.4109
  O  O37  1  0.756500  0.443300  0.443100  1.0  -0.4534
  O  O38  1  0.734500  0.659300  0.103770  1.0  -0.4085
  O  O39  1  0.556700  0.313200  0.109770  1.0  -0.4499
