# generated using pymatgen
data_SrU2P2H4(C3O4)2
_symmetry_space_group_name_H-M   'P 1'
_cell_length_a   7.11900000
_cell_length_b   14.10510000
_cell_length_c   17.69800000
_cell_angle_alpha   90.00000000
_cell_angle_beta   90.00000000
_cell_angle_gamma   90.00000000
_symmetry_Int_Tables_number   1
_chemical_formula_structural   SrU2P2H4(C3O4)2
_chemical_formula_sum   'Sr4 U8 P8 H16 C24 O32'
_cell_volume   1777.13063372
_cell_formula_units_Z   4
loop_
 _symmetry_equiv_pos_site_id
 _symmetry_equiv_pos_as_xyz
  1  'x, y, z'
loop_
 _atom_site_type_symbol
 _atom_site_label
 _atom_site_symmetry_multiplicity
 _atom_site_fract_x
 _atom_site_fract_y
 _atom_site_fract_z
 _atom_site_occupancy
 _atom_site_charge
  Sr  Sr1  1  0.000000  0.275110  0.750000  1.0  1.5921
  Sr  Sr2  1  0.500000  0.775110  0.750000  1.0  1.5921
  Sr  Sr3  1  0.000000  0.724890  0.250000  1.0  1.5936
  Sr  Sr4  1  0.500000  0.224890  0.250000  1.0  1.5936
  U  U5  1  0.500000  0.230000  0.865010  1.0  1.8739
  U  U6  1  0.000000  0.730000  0.865010  1.0  1.8739
  U  U7  1  0.500000  0.770000  0.365010  1.0  1.8736
  U  U8  1  0.000000  0.270000  0.365010  1.0  1.8736
  U  U9  1  0.500000  0.230000  0.634990  1.0  1.8769
  U  U10  1  0.000000  0.730000  0.634990  1.0  1.8769
  U  U11  1  0.500000  0.770000  0.134990  1.0  1.8768
  U  U12  1  0.000000  0.270000  0.134990  1.0  1.8768
  P  P13  1  0.000000  0.212400  0.936220  1.0  1.5045
  P  P14  1  0.500000  0.712400  0.936220  1.0  1.5045
  P  P15  1  0.000000  0.787600  0.436220  1.0  1.5041
  P  P16  1  0.500000  0.287600  0.436220  1.0  1.5041
  P  P17  1  0.000000  0.212400  0.563780  1.0  1.5055
  P  P18  1  0.500000  0.712400  0.563780  1.0  1.5055
  P  P19  1  0.000000  0.787600  0.063780  1.0  1.5051
  P  P20  1  0.500000  0.287600  0.063780  1.0  1.5051
  H  H21  1  0.718800  0.074700  0.973500  1.0  0.067
  H  H22  1  0.218800  0.574700  0.973500  1.0  0.067
  H  H23  1  0.281200  0.925300  0.473500  1.0  0.0674
  H  H24  1  0.781200  0.425300  0.473500  1.0  0.0674
  H  H25  1  0.281200  0.074700  0.526500  1.0  0.0664
  H  H26  1  0.781200  0.574700  0.526500  1.0  0.0664
  H  H27  1  0.718800  0.925300  0.026500  1.0  0.0667
  H  H28  1  0.218800  0.425300  0.026500  1.0  0.0667
  H  H29  1  0.281200  0.925300  0.026500  1.0  0.0667
  H  H30  1  0.781200  0.425300  0.026500  1.0  0.0667
  H  H31  1  0.718800  0.074700  0.526500  1.0  0.0663
  H  H32  1  0.218800  0.574700  0.526500  1.0  0.0663
  H  H33  1  0.718800  0.925300  0.473500  1.0  0.0674
  H  H34  1  0.218800  0.425300  0.473500  1.0  0.0674
  H  H35  1  0.281200  0.074700  0.973500  1.0  0.0669
  H  H36  1  0.781200  0.574700  0.973500  1.0  0.0669
  C  C37  1  0.832500  0.045000  0.984100  1.0  -0.0796
  C  C38  1  0.332500  0.545000  0.984100  1.0  -0.0797
  C  C39  1  0.167500  0.955000  0.484100  1.0  -0.0792
  C  C40  1  0.667500  0.455000  0.484100  1.0  -0.0792
  C  C41  1  0.167500  0.045000  0.515900  1.0  -0.0793
  C  C42  1  0.667500  0.545000  0.515900  1.0  -0.0793
  C  C43  1  0.832500  0.955000  0.015900  1.0  -0.0796
  C  C44  1  0.332500  0.455000  0.015900  1.0  -0.0796
  C  C45  1  0.167500  0.955000  0.015900  1.0  -0.0788
  C  C46  1  0.667500  0.455000  0.015900  1.0  -0.0795
  C  C47  1  0.832500  0.045000  0.515900  1.0  -0.0798
  C  C48  1  0.332500  0.545000  0.515900  1.0  -0.0791
  C  C49  1  0.832500  0.955000  0.484100  1.0  -0.0805
  C  C50  1  0.332500  0.455000  0.484100  1.0  -0.0805
  C  C51  1  0.167500  0.045000  0.984100  1.0  -0.08
  C  C52  1  0.667500  0.545000  0.984100  1.0  -0.08
  C  C53  1  0.000000  0.091400  0.967800  1.0  -0.2954
  C  C54  1  0.500000  0.591400  0.967800  1.0  -0.2954
  C  C55  1  0.000000  0.908600  0.467800  1.0  -0.2963
  C  C56  1  0.500000  0.408600  0.467800  1.0  -0.2963
  C  C57  1  0.000000  0.091400  0.532200  1.0  -0.2933
  C  C58  1  0.500000  0.591400  0.532200  1.0  -0.2933
  C  C59  1  0.000000  0.908600  0.032200  1.0  -0.2933
  C  C60  1  0.500000  0.408600  0.032200  1.0  -0.2933
  O  O61  1  0.826100  0.230200  0.887800  1.0  -1.0407
  O  O62  1  0.326100  0.730200  0.887800  1.0  -1.0407
  O  O63  1  0.173900  0.769800  0.387800  1.0  -1.0408
  O  O64  1  0.673900  0.269800  0.387800  1.0  -1.0408
  O  O65  1  0.173900  0.230200  0.612200  1.0  -1.0401
  O  O66  1  0.673900  0.730200  0.612200  1.0  -1.0401
  O  O67  1  0.826100  0.769800  0.112200  1.0  -1.0416
  O  O68  1  0.326100  0.269800  0.112200  1.0  -1.0416
  O  O69  1  0.173900  0.769800  0.112200  1.0  -1.0408
  O  O70  1  0.673900  0.269800  0.112200  1.0  -1.0408
  O  O71  1  0.826100  0.230200  0.612200  1.0  -1.0417
  O  O72  1  0.326100  0.730200  0.612200  1.0  -1.0417
  O  O73  1  0.826100  0.769800  0.387800  1.0  -1.0406
  O  O74  1  0.326100  0.269800  0.387800  1.0  -1.0406
  O  O75  1  0.173900  0.230200  0.887800  1.0  -1.0402
  O  O76  1  0.673900  0.730200  0.887800  1.0  -1.0402
  O  O77  1  0.000000  0.274400  0.006700  1.0  -0.9334
  O  O78  1  0.500000  0.774400  0.006700  1.0  -0.9334
  O  O79  1  0.000000  0.725600  0.506700  1.0  -0.9329
  O  O80  1  0.500000  0.225600  0.506700  1.0  -0.9329
  O  O81  1  0.000000  0.274400  0.493300  1.0  -0.933
  O  O82  1  0.500000  0.774400  0.493300  1.0  -0.933
  O  O83  1  0.000000  0.725600  0.993300  1.0  -0.9329
  O  O84  1  0.500000  0.225600  0.993300  1.0  -0.9329
  O  O85  1  0.671600  0.233500  0.750000  1.0  -0.8417
  O  O86  1  0.171600  0.733500  0.750000  1.0  -0.8417
  O  O87  1  0.328400  0.766500  0.250000  1.0  -0.8419
  O  O88  1  0.828400  0.266500  0.250000  1.0  -0.8419
  O  O89  1  0.328400  0.233500  0.750000  1.0  -0.842
  O  O90  1  0.828400  0.733500  0.750000  1.0  -0.842
  O  O91  1  0.671600  0.766500  0.250000  1.0  -0.8416
  O  O92  1  0.171600  0.266500  0.250000  1.0  -0.8416
