# generated using pymatgen
data_Cu2H16C20N4Cl
_symmetry_space_group_name_H-M   'P 1'
_cell_length_a   5.58640000
_cell_length_b   12.76900000
_cell_length_c   15.62100000
_cell_angle_alpha   90.00000000
_cell_angle_beta   90.00000000
_cell_angle_gamma   90.00000000
_symmetry_Int_Tables_number   1
_chemical_formula_structural   Cu2H16C20N4Cl
_chemical_formula_sum   'Cu4 H32 C40 N8 Cl2'
_cell_volume   1114.28875653
_cell_formula_units_Z   2
loop_
 _symmetry_equiv_pos_site_id
 _symmetry_equiv_pos_as_xyz
  1  'x, y, z'
loop_
 _atom_site_type_symbol
 _atom_site_label
 _atom_site_symmetry_multiplicity
 _atom_site_fract_x
 _atom_site_fract_y
 _atom_site_fract_z
 _atom_site_occupancy
 _atom_site_charge
  Cu  Cu1  1  0.250000  0.750000  0.597700  1.0  0.3191
  Cu  Cu2  1  0.250000  0.750000  0.902300  1.0  0.3188
  Cu  Cu3  1  0.750000  0.250000  0.402300  1.0  0.3188
  Cu  Cu4  1  0.750000  0.250000  0.097700  1.0  0.3191
  H  H5  1  0.876100  0.624900  0.679000  1.0  0.0571
  H  H6  1  0.568200  0.517300  0.640800  1.0  0.1093
  H  H7  1  0.712600  0.577800  0.396400  1.0  0.111
  H  H8  1  0.025200  0.680200  0.441000  1.0  0.0508
  H  H9  1  0.623900  0.875100  0.679000  1.0  0.0567
  H  H10  1  0.931800  0.982700  0.640800  1.0  0.1097
  H  H11  1  0.787400  0.922200  0.396400  1.0  0.1105
  H  H12  1  0.474800  0.819800  0.441000  1.0  0.0509
  H  H13  1  0.623900  0.624900  0.821000  1.0  0.0568
  H  H14  1  0.931800  0.517300  0.859200  1.0  0.1096
  H  H15  1  0.787400  0.577800  0.103600  1.0  0.1114
  H  H16  1  0.474800  0.680200  0.059000  1.0  0.0511
  H  H17  1  0.876100  0.875100  0.821000  1.0  0.0569
  H  H18  1  0.568200  0.982700  0.859200  1.0  0.1099
  H  H19  1  0.712600  0.922200  0.103600  1.0  0.1109
  H  H20  1  0.025200  0.819800  0.059000  1.0  0.0516
  H  H21  1  0.123900  0.375100  0.321000  1.0  0.0569
  H  H22  1  0.431800  0.482700  0.359200  1.0  0.11
  H  H23  1  0.287400  0.422200  0.603600  1.0  0.1114
  H  H24  1  0.974800  0.319800  0.559000  1.0  0.0515
  H  H25  1  0.376100  0.124900  0.321000  1.0  0.0569
  H  H26  1  0.068200  0.017300  0.359200  1.0  0.1094
  H  H27  1  0.212600  0.077800  0.603600  1.0  0.111
  H  H28  1  0.525200  0.180200  0.559000  1.0  0.051
  H  H29  1  0.376100  0.375100  0.179000  1.0  0.0569
  H  H30  1  0.068200  0.482700  0.140800  1.0  0.1095
  H  H31  1  0.212600  0.422200  0.896400  1.0  0.1106
  H  H32  1  0.525200  0.319800  0.941000  1.0  0.0511
  H  H33  1  0.123900  0.124900  0.179000  1.0  0.0569
  H  H34  1  0.431800  0.017300  0.140800  1.0  0.1094
  H  H35  1  0.287400  0.077800  0.896400  1.0  0.1107
  H  H36  1  0.974800  0.180200  0.941000  1.0  0.0505
  C  C37  1  0.845300  0.614200  0.621100  1.0  0.1463
  C  C38  1  0.657900  0.550200  0.598500  1.0  -0.1919
  C  C39  1  0.601700  0.534200  0.513700  1.0  0.0659
  C  C40  1  0.743400  0.585100  0.454600  1.0  -0.2145
  C  C41  1  0.931400  0.647100  0.482100  1.0  0.1371
  C  C42  1  0.654700  0.885800  0.621100  1.0  0.1451
  C  C43  1  0.842100  0.949800  0.598500  1.0  -0.1926
  C  C44  1  0.898300  0.965800  0.513700  1.0  0.066
  C  C45  1  0.756600  0.914900  0.454600  1.0  -0.2128
  C  C46  1  0.568600  0.852900  0.482100  1.0  0.1373
  C  C47  1  0.654700  0.614200  0.878900  1.0  0.1459
  C  C48  1  0.842100  0.550200  0.901500  1.0  -0.1929
  C  C49  1  0.898300  0.534200  0.986300  1.0  0.0655
  C  C50  1  0.756600  0.585100  0.045400  1.0  -0.2122
  C  C51  1  0.568600  0.647100  0.017900  1.0  0.1374
  C  C52  1  0.845300  0.885800  0.878900  1.0  0.1463
  C  C53  1  0.657900  0.949800  0.901500  1.0  -0.1925
  C  C54  1  0.601700  0.965800  0.986300  1.0  0.066
  C  C55  1  0.743400  0.914900  0.045400  1.0  -0.2134
  C  C56  1  0.931400  0.852900  0.017900  1.0  0.1371
  C  C57  1  0.154700  0.385800  0.378900  1.0  0.1458
  C  C58  1  0.342100  0.449800  0.401500  1.0  -0.1937
  C  C59  1  0.398300  0.465800  0.486300  1.0  0.0659
  C  C60  1  0.256600  0.414900  0.545400  1.0  -0.2127
  C  C61  1  0.068600  0.352900  0.517900  1.0  0.1371
  C  C62  1  0.345300  0.114200  0.378900  1.0  0.1466
  C  C63  1  0.157900  0.050200  0.401500  1.0  -0.1919
  C  C64  1  0.101700  0.034200  0.486300  1.0  0.0658
  C  C65  1  0.243400  0.085100  0.545400  1.0  -0.213
  C  C66  1  0.431400  0.147100  0.517900  1.0  0.1374
  C  C67  1  0.345300  0.385800  0.121100  1.0  0.1459
  C  C68  1  0.157900  0.449800  0.098500  1.0  -0.1924
  C  C69  1  0.101700  0.465800  0.013700  1.0  0.066
  C  C70  1  0.243400  0.414900  0.954600  1.0  -0.213
  C  C71  1  0.431400  0.352900  0.982100  1.0  0.1367
  C  C72  1  0.154700  0.114200  0.121100  1.0  0.1451
  C  C73  1  0.342100  0.050200  0.098500  1.0  -0.1921
  C  C74  1  0.398300  0.034200  0.013700  1.0  0.0657
  C  C75  1  0.256600  0.085100  0.954600  1.0  -0.2144
  C  C76  1  0.068600  0.147100  0.982100  1.0  0.1377
  N  N77  1  0.985000  0.661700  0.563700  1.0  -0.3302
  N  N78  1  0.515000  0.838300  0.563700  1.0  -0.3294
  N  N79  1  0.515000  0.661700  0.936300  1.0  -0.3299
  N  N80  1  0.985000  0.838300  0.936300  1.0  -0.3289
  N  N81  1  0.015000  0.338300  0.436300  1.0  -0.3298
  N  N82  1  0.485000  0.161700  0.436300  1.0  -0.3297
  N  N83  1  0.485000  0.338300  0.063700  1.0  -0.3287
  N  N84  1  0.015000  0.161700  0.063700  1.0  -0.3304
  Cl  Cl85  1  0.250000  0.750000  0.750000  1.0  -0.4063
  Cl  Cl86  1  0.750000  0.250000  0.250000  1.0  -0.4063
