# generated using pymatgen
data_CoH12C17SN2O5
_symmetry_space_group_name_H-M   'P 1'
_cell_length_a   11.42840000
_cell_length_b   11.42840000
_cell_length_c   30.74300000
_cell_angle_alpha   90.00000000
_cell_angle_beta   90.00000000
_cell_angle_gamma   120.00000000
_symmetry_Int_Tables_number   1
_chemical_formula_structural   CoH12C17SN2O5
_chemical_formula_sum   'Co6 H72 C102 S6 N12 O30'
_cell_volume   3477.34468806
_cell_formula_units_Z   6
loop_
 _symmetry_equiv_pos_site_id
 _symmetry_equiv_pos_as_xyz
  1  'x, y, z'
loop_
 _atom_site_type_symbol
 _atom_site_label
 _atom_site_symmetry_multiplicity
 _atom_site_fract_x
 _atom_site_fract_y
 _atom_site_fract_z
 _atom_site_occupancy
 _atom_site_charge
  Co  Co1  1  0.000000  0.937880  0.166670  1.0  0.8943
  Co  Co2  1  0.937880  0.000000  0.500000  1.0  0.8791
  Co  Co3  1  0.062120  0.062120  0.833330  1.0  0.8945
  Co  Co4  1  0.914300  0.000000  0.000000  1.0  0.9368
  Co  Co5  1  0.085700  0.085700  0.333333  1.0  0.9998
  Co  Co6  1  0.000000  0.914300  0.666667  1.0  0.9763
  H  H7  1  0.441500  0.572200  0.002400  1.0  0.1062
  H  H8  1  0.429300  0.204600  0.999300  1.0  0.1334
  H  H9  1  0.221600  0.198200  0.997100  1.0  0.0853
  H  H10  1  0.593500  0.836100  0.128000  1.0  0.1185
  H  H11  1  0.367400  0.734400  0.108500  1.0  0.1081
  H  H12  1  0.023700  0.361600  0.101500  1.0  0.1255
  H  H13  1  0.023300  0.157800  0.103100  1.0  0.083
  H  H14  1  0.968700  0.511600  0.101800  1.0  0.1368
  H  H15  1  0.443400  0.878500  0.947200  1.0  0.1485
  H  H16  1  0.650200  0.887400  0.947900  1.0  0.0766
  H  H17  1  0.961000  0.710600  0.104400  1.0  0.0821
  H  H18  1  0.289300  0.601000  0.045600  1.0  0.1149
  H  H19  1  0.130700  0.558500  0.335730  1.0  0.106
  H  H20  1  0.775300  0.570700  0.332630  1.0  0.1325
  H  H21  1  0.976600  0.778400  0.330430  1.0  0.0851
  H  H22  1  0.242600  0.406500  0.461330  1.0  0.1179
  H  H23  1  0.367000  0.632600  0.441830  1.0  0.1091
  H  H24  1  0.337900  0.976300  0.434830  1.0  0.1256
  H  H25  1  0.134500  0.976700  0.436430  1.0  0.0825
  H  H26  1  0.542900  0.031300  0.435130  1.0  0.1375
  H  H27  1  0.435100  0.556600  0.280530  1.0  0.1496
  H  H28  1  0.237200  0.349800  0.281230  1.0  0.0757
  H  H29  1  0.749600  0.039000  0.437730  1.0  0.082
  H  H30  1  0.311700  0.710700  0.378930  1.0  0.1156
  H  H31  1  0.427800  0.869300  0.669070  1.0  0.1059
  H  H32  1  0.795400  0.224700  0.665970  1.0  0.1354
  H  H33  1  0.801800  0.023400  0.663770  1.0  0.0842
  H  H34  1  0.163900  0.757400  0.794670  1.0  0.1185
  H  H35  1  0.265600  0.633000  0.775170  1.0  0.1088
  H  H36  1  0.638400  0.662100  0.768170  1.0  0.1255
  H  H37  1  0.842200  0.865500  0.769770  1.0  0.0826
  H  H38  1  0.488400  0.457100  0.768470  1.0  0.1368
  H  H39  1  0.121500  0.564900  0.613870  1.0  0.1491
  H  H40  1  0.112600  0.762800  0.614570  1.0  0.0762
  H  H41  1  0.289400  0.250400  0.771070  1.0  0.0823
  H  H42  1  0.399000  0.688300  0.712270  1.0  0.1151
  H  H43  1  0.869300  0.427800  0.997600  1.0  0.1053
  H  H44  1  0.224700  0.795400  0.000700  1.0  0.1334
  H  H45  1  0.023400  0.801800  0.002900  1.0  0.0846
  H  H46  1  0.757400  0.163900  0.872000  1.0  0.1192
  H  H47  1  0.633000  0.265600  0.891500  1.0  0.1078
  H  H48  1  0.662100  0.638400  0.898500  1.0  0.1262
  H  H49  1  0.865500  0.842200  0.896900  1.0  0.083
  H  H50  1  0.457100  0.488400  0.898200  1.0  0.1375
  H  H51  1  0.564900  0.121500  0.052800  1.0  0.1489
  H  H52  1  0.762800  0.112600  0.052100  1.0  0.076
  H  H53  1  0.250400  0.289400  0.895600  1.0  0.0822
  H  H54  1  0.688300  0.399000  0.954400  1.0  0.1146
  H  H55  1  0.572200  0.441500  0.664270  1.0  0.1058
  H  H56  1  0.204600  0.429300  0.667370  1.0  0.1319
  H  H57  1  0.198200  0.221600  0.669570  1.0  0.0846
  H  H58  1  0.836100  0.593500  0.538670  1.0  0.1189
  H  H59  1  0.734400  0.367400  0.558170  1.0  0.109
  H  H60  1  0.361600  0.023700  0.565170  1.0  0.1269
  H  H61  1  0.157800  0.023300  0.563570  1.0  0.0829
  H  H62  1  0.511600  0.968700  0.564870  1.0  0.1384
  H  H63  1  0.878500  0.443400  0.719470  1.0  0.1495
  H  H64  1  0.887400  0.650200  0.718770  1.0  0.076
  H  H65  1  0.710600  0.961000  0.562270  1.0  0.0821
  H  H66  1  0.601000  0.289300  0.621070  1.0  0.1154
  H  H67  1  0.558500  0.130700  0.330930  1.0  0.1055
  H  H68  1  0.570700  0.775300  0.334030  1.0  0.1349
  H  H69  1  0.778400  0.976600  0.336230  1.0  0.0847
  H  H70  1  0.406500  0.242600  0.205330  1.0  0.119
  H  H71  1  0.632600  0.367000  0.224830  1.0  0.1083
  H  H72  1  0.976300  0.337900  0.231830  1.0  0.1262
  H  H73  1  0.976700  0.134500  0.230230  1.0  0.0833
  H  H74  1  0.031300  0.542900  0.231530  1.0  0.1376
  H  H75  1  0.556600  0.435100  0.386130  1.0  0.1485
  H  H76  1  0.349800  0.237200  0.385430  1.0  0.0768
  H  H77  1  0.039000  0.749600  0.228930  1.0  0.082
  H  H78  1  0.710700  0.311700  0.287730  1.0  0.1151
  C  C79  1  0.473100  0.628700  0.027360  1.0  -0.0372
  C  C80  1  0.804300  0.854900  0.089660  1.0  0.695
  C  C81  1  0.657200  0.775100  0.074970  1.0  -0.0583
  C  C82  1  0.347600  0.120200  0.999310  1.0  -0.1994
  C  C83  1  0.222600  0.115600  0.998620  1.0  0.1795
  C  C84  1  0.611300  0.695900  0.037600  1.0  -0.2091
  C  C85  1  0.563700  0.785500  0.101750  1.0  -0.0856
  C  C86  1  0.428900  0.723200  0.090570  1.0  -0.0923
  C  C87  1  0.013900  0.316800  0.128430  1.0  -0.1842
  C  C88  1  0.013500  0.194400  0.129670  1.0  0.178
  C  C89  1  0.980600  0.556800  0.128780  1.0  -0.1911
  C  C90  1  0.508300  0.929300  0.968880  1.0  -0.212
  C  C91  1  0.631700  0.934100  0.969950  1.0  0.1835
  C  C92  1  0.978500  0.677300  0.130420  1.0  0.1782
  C  C93  1  0.382200  0.644000  0.053250  1.0  -0.0776
  C  C94  1  0.155600  0.526900  0.360690  1.0  -0.0348
  C  C95  1  0.050600  0.195700  0.422990  1.0  0.6967
  C  C96  1  0.117900  0.342800  0.408300  1.0  -0.0598
  C  C97  1  0.772600  0.652400  0.332640  1.0  -0.1972
  C  C98  1  0.893000  0.777400  0.331950  1.0  0.1802
  C  C99  1  0.084600  0.388700  0.370930  1.0  -0.2104
  C  C100  1  0.221800  0.436300  0.435080  1.0  -0.0872
  C  C101  1  0.294300  0.571100  0.423900  1.0  -0.089
  C  C102  1  0.302900  0.986100  0.461760  1.0  -0.184
  C  C103  1  0.180900  0.986500  0.463000  1.0  0.179
  C  C104  1  0.576200  0.019400  0.462110  1.0  -0.1908
  C  C105  1  0.421000  0.491700  0.302210  1.0  -0.2139
  C  C106  1  0.302400  0.368300  0.303280  1.0  0.1863
  C  C107  1  0.698800  0.021500  0.463750  1.0  0.1789
  C  C108  1  0.261800  0.617800  0.386580  1.0  -0.0768
  C  C109  1  0.371300  0.844400  0.694030  1.0  -0.0335
  C  C110  1  0.145100  0.949400  0.756330  1.0  0.6945
  C  C111  1  0.224900  0.882100  0.741640  1.0  -0.0582
  C  C112  1  0.879800  0.227400  0.665980  1.0  -0.2006
  C  C113  1  0.884400  0.107000  0.665290  1.0  0.1812
  C  C114  1  0.304100  0.915400  0.704270  1.0  -0.2097
  C  C115  1  0.214500  0.778200  0.768420  1.0  -0.0884
  C  C116  1  0.276800  0.705700  0.757240  1.0  -0.0916
  C  C117  1  0.683200  0.697100  0.795100  1.0  -0.1848
  C  C118  1  0.805600  0.819100  0.796340  1.0  0.1779
  C  C119  1  0.443200  0.423800  0.795450  1.0  -0.1918
  C  C120  1  0.070700  0.579000  0.635550  1.0  -0.2119
  C  C121  1  0.065900  0.697600  0.636620  1.0  0.1847
  C  C122  1  0.322700  0.301200  0.797090  1.0  0.1779
  C  C123  1  0.356000  0.738200  0.719920  1.0  -0.0781
  C  C124  1  0.844400  0.371300  0.972640  1.0  -0.0369
  C  C125  1  0.949400  0.145100  0.910340  1.0  0.6941
  C  C126  1  0.882100  0.224900  0.925030  1.0  -0.0582
  C  C127  1  0.227400  0.879800  0.000690  1.0  -0.2
  C  C128  1  0.107000  0.884400  0.001380  1.0  0.1846
  C  C129  1  0.915400  0.304100  0.962400  1.0  -0.21
  C  C130  1  0.778200  0.214500  0.898250  1.0  -0.0847
  C  C131  1  0.705700  0.276800  0.909430  1.0  -0.0911
  C  C132  1  0.697100  0.683200  0.871570  1.0  -0.1852
  C  C133  1  0.819100  0.805600  0.870330  1.0  0.1822
  C  C134  1  0.423800  0.443200  0.871220  1.0  -0.1903
  C  C135  1  0.579000  0.070700  0.031120  1.0  -0.2125
  C  C136  1  0.697600  0.065900  0.030050  1.0  0.185
  C  C137  1  0.301200  0.322700  0.869580  1.0  0.1821
  C  C138  1  0.738200  0.356000  0.946750  1.0  -0.0769
  C  C139  1  0.628700  0.473100  0.639310  1.0  -0.0348
  C  C140  1  0.854900  0.804300  0.577010  1.0  0.6964
  C  C141  1  0.775100  0.657200  0.591700  1.0  -0.0588
  C  C142  1  0.120200  0.347600  0.667360  1.0  -0.1992
  C  C143  1  0.115600  0.222600  0.668050  1.0  0.1838
  C  C144  1  0.695900  0.611300  0.629070  1.0  -0.2103
  C  C145  1  0.785500  0.563700  0.564920  1.0  -0.0858
  C  C146  1  0.723200  0.428900  0.576100  1.0  -0.0895
  C  C147  1  0.316800  0.013900  0.538240  1.0  -0.1848
  C  C148  1  0.194400  0.013500  0.537000  1.0  0.1832
  C  C149  1  0.556800  0.980600  0.537890  1.0  -0.1897
  C  C150  1  0.929300  0.508300  0.697790  1.0  -0.2143
  C  C151  1  0.934100  0.631700  0.696720  1.0  0.1876
  C  C152  1  0.677300  0.978500  0.536250  1.0  0.183
  C  C153  1  0.644000  0.382200  0.613420  1.0  -0.0771
  C  C154  1  0.526900  0.155600  0.305970  1.0  -0.033
  C  C155  1  0.195700  0.050600  0.243670  1.0  0.6949
  C  C156  1  0.342800  0.117900  0.258360  1.0  -0.0595
  C  C157  1  0.652400  0.772600  0.334020  1.0  -0.2013
  C  C158  1  0.777400  0.893000  0.334710  1.0  0.1855
  C  C159  1  0.388700  0.084600  0.295730  1.0  -0.2098
  C  C160  1  0.436300  0.221800  0.231580  1.0  -0.0871
  C  C161  1  0.571100  0.294300  0.242760  1.0  -0.0917
  C  C162  1  0.986100  0.302900  0.204900  1.0  -0.1851
  C  C163  1  0.986500  0.180900  0.203660  1.0  0.1825
  C  C164  1  0.019400  0.576200  0.204550  1.0  -0.1912
  C  C165  1  0.491700  0.421000  0.364450  1.0  -0.2121
  C  C166  1  0.368300  0.302400  0.363380  1.0  0.1863
  C  C167  1  0.021500  0.698800  0.202910  1.0  0.1822
  C  C168  1  0.617800  0.261800  0.280080  1.0  -0.0773
  C  C169  1  0.000000  0.502600  0.166670  1.0  0.0916
  C  C170  1  0.000000  0.371900  0.166670  1.0  0.0851
  C  C171  1  0.502600  0.000000  0.500000  1.0  0.0918
  C  C172  1  0.371900  0.000000  0.500000  1.0  0.0847
  C  C173  1  0.497400  0.497400  0.833330  1.0  0.0914
  C  C174  1  0.628100  0.628100  0.833330  1.0  0.0852
  C  C175  1  0.481300  0.000000  0.000000  1.0  0.1151
  C  C176  1  0.350800  0.000000  0.000000  1.0  0.0894
  C  C177  1  0.518700  0.518700  0.333333  1.0  0.1175
  C  C178  1  0.649200  0.649200  0.333333  1.0  0.0915
  C  C179  1  0.000000  0.481300  0.666667  1.0  0.1174
  C  C180  1  0.000000  0.350800  0.666667  1.0  0.092
  S  S181  1  0.720940  0.667460  0.002960  1.0  1.323
  S  S182  1  0.946520  0.279060  0.336290  1.0  1.3204
  S  S183  1  0.332540  0.053480  0.669630  1.0  1.3247
  S  S184  1  0.053480  0.332540  0.997040  1.0  1.3227
  S  S185  1  0.667460  0.720940  0.663710  1.0  1.3203
  S  S186  1  0.279060  0.946520  0.330370  1.0  1.3248
  N  N187  1  0.000000  0.126200  0.166670  1.0  -0.3751
  N  N188  1  0.000000  0.747800  0.166670  1.0  -0.3762
  N  N189  1  0.126200  0.000000  0.500000  1.0  -0.3764
  N  N190  1  0.747800  0.000000  0.500000  1.0  -0.3696
  N  N191  1  0.873800  0.873800  0.833330  1.0  -0.3784
  N  N192  1  0.252200  0.252200  0.833330  1.0  -0.3758
  N  N193  1  0.105600  0.000000  0.000000  1.0  -0.3003
  N  N194  1  0.725900  0.000000  0.000000  1.0  -0.3438
  N  N195  1  0.894400  0.894400  0.333333  1.0  -0.3173
  N  N196  1  0.274100  0.274100  0.333333  1.0  -0.367
  N  N197  1  0.000000  0.105600  0.666667  1.0  -0.3183
  N  N198  1  0.000000  0.725900  0.666667  1.0  -0.3677
  O  O199  1  0.895600  0.932000  0.063280  1.0  -0.5982
  O  O200  1  0.805800  0.795200  0.979030  1.0  -0.6715
  O  O201  1  0.632300  0.561300  0.973140  1.0  -0.6266
  O  O202  1  0.825600  0.843800  0.128660  1.0  -0.6023
  O  O203  1  0.800200  0.633000  0.031480  1.0  -0.6226
  O  O204  1  0.036400  0.104400  0.396610  1.0  -0.6083
  O  O205  1  0.989400  0.194200  0.312360  1.0  -0.6781
  O  O206  1  0.929000  0.367700  0.306470  1.0  -0.6268
  O  O207  1  0.018200  0.174400  0.461990  1.0  -0.6024
  O  O208  1  0.832800  0.199800  0.364810  1.0  -0.6224
  O  O209  1  0.068000  0.963600  0.729950  1.0  -0.6082
  O  O210  1  0.204800  0.010600  0.645700  1.0  -0.676
  O  O211  1  0.438700  0.071000  0.639810  1.0  -0.6265
  O  O212  1  0.156200  0.981800  0.795330  1.0  -0.6031
  O  O213  1  0.367000  0.167200  0.698150  1.0  -0.6217
  O  O214  1  0.963600  0.068000  0.936720  1.0  -0.5978
  O  O215  1  0.010600  0.204800  0.020970  1.0  -0.6713
  O  O216  1  0.071000  0.438700  0.026860  1.0  -0.6264
  O  O217  1  0.981800  0.156200  0.871340  1.0  -0.6035
  O  O218  1  0.167200  0.367000  0.968520  1.0  -0.622
  O  O219  1  0.932000  0.895600  0.603390  1.0  -0.6085
  O  O220  1  0.795200  0.805800  0.687640  1.0  -0.6778
  O  O221  1  0.561300  0.632300  0.693530  1.0  -0.6261
  O  O222  1  0.843800  0.825600  0.538010  1.0  -0.6024
  O  O223  1  0.633000  0.800200  0.635190  1.0  -0.6226
  O  O224  1  0.104400  0.036400  0.270050  1.0  -0.609
  O  O225  1  0.194200  0.989400  0.354300  1.0  -0.6768
  O  O226  1  0.367700  0.929000  0.360190  1.0  -0.626
  O  O227  1  0.174400  0.018200  0.204670  1.0  -0.605
  O  O228  1  0.199800  0.832800  0.301850  1.0  -0.6219
