# generated using pymatgen
data_LaH12(C5O3)3
_symmetry_space_group_name_H-M   'P 1'
_cell_length_a   8.93170000
_cell_length_b   12.15790000
_cell_length_c   16.91480000
_cell_angle_alpha   90.00000000
_cell_angle_beta   90.00000000
_cell_angle_gamma   108.87700000
_symmetry_Int_Tables_number   1
_chemical_formula_structural   LaH12(C5O3)3
_chemical_formula_sum   'La4 H48 C60 O36'
_cell_volume   1737.99904260
_cell_formula_units_Z   4
loop_
 _symmetry_equiv_pos_site_id
 _symmetry_equiv_pos_as_xyz
  1  'x, y, z'
loop_
 _atom_site_type_symbol
 _atom_site_label
 _atom_site_symmetry_multiplicity
 _atom_site_fract_x
 _atom_site_fract_y
 _atom_site_fract_z
 _atom_site_occupancy
 _atom_site_charge
  La  La1  1  0.929960  0.951330  0.616350  1.0  2.1735
  La  La2  1  0.570040  0.048670  0.116350  1.0  2.1736
  La  La3  1  0.070040  0.048670  0.383650  1.0  2.1728
  La  La4  1  0.429960  0.951330  0.883650  1.0  2.1733
  H  H5  1  0.598600  0.648200  0.808200  1.0  0.1217
  H  H6  1  0.407600  0.473200  0.775600  1.0  0.1164
  H  H7  1  0.624000  0.469500  0.568800  1.0  0.102
  H  H8  1  0.816500  0.644500  0.601900  1.0  0.1117
  H  H9  1  0.378900  0.365000  0.536900  1.0  0.0856
  H  H10  1  0.470500  0.284500  0.570000  1.0  0.0934
  H  H11  1  0.824100  0.813100  0.833400  1.0  0.1034
  H  H12  1  0.911800  0.721200  0.821100  1.0  0.1016
  H  H13  1  0.377200  0.857000  0.491300  1.0  0.1248
  H  H14  1  0.244900  0.793700  0.430500  1.0  0.0969
  H  H15  1  0.199000  0.503000  0.579000  1.0  0.1043
  H  H16  1  0.009000  0.661000  0.427000  1.0  0.1241
  H  H17  1  0.901400  0.351800  0.308200  1.0  0.1218
  H  H18  1  0.092400  0.526800  0.275600  1.0  0.1168
  H  H19  1  0.876000  0.530500  0.068800  1.0  0.1026
  H  H20  1  0.683500  0.355500  0.101900  1.0  0.1113
  H  H21  1  0.121100  0.635000  0.036900  1.0  0.0857
  H  H22  1  0.029500  0.715500  0.070000  1.0  0.0925
  H  H23  1  0.675900  0.186900  0.333400  1.0  0.1041
  H  H24  1  0.588200  0.278800  0.321100  1.0  0.1013
  H  H25  1  0.122800  0.143000  0.991300  1.0  0.124
  H  H26  1  0.255100  0.206300  0.930500  1.0  0.0955
  H  H27  1  0.301000  0.497000  0.079000  1.0  0.1035
  H  H28  1  0.491000  0.339000  0.927000  1.0  0.124
  H  H29  1  0.401400  0.351800  0.191800  1.0  0.1213
  H  H30  1  0.592400  0.526800  0.224400  1.0  0.1167
  H  H31  1  0.376000  0.530500  0.431200  1.0  0.1024
  H  H32  1  0.183500  0.355500  0.398100  1.0  0.1115
  H  H33  1  0.621100  0.635000  0.463100  1.0  0.0857
  H  H34  1  0.529500  0.715500  0.430000  1.0  0.0921
  H  H35  1  0.175900  0.186900  0.166600  1.0  0.1033
  H  H36  1  0.088200  0.278800  0.178900  1.0  0.1021
  H  H37  1  0.622800  0.143000  0.508700  1.0  0.1246
  H  H38  1  0.755100  0.206300  0.569500  1.0  0.0964
  H  H39  1  0.801000  0.497000  0.421000  1.0  0.103
  H  H40  1  0.991000  0.339000  0.573000  1.0  0.1253
  H  H41  1  0.098600  0.648200  0.691800  1.0  0.1215
  H  H42  1  0.907600  0.473200  0.724400  1.0  0.1162
  H  H43  1  0.124000  0.469500  0.931200  1.0  0.1027
  H  H44  1  0.316500  0.644500  0.898100  1.0  0.1115
  H  H45  1  0.878900  0.365000  0.963100  1.0  0.0858
  H  H46  1  0.970500  0.284500  0.930000  1.0  0.0929
  H  H47  1  0.324100  0.813100  0.666667  1.0  0.1114
  H  H48  1  0.411800  0.721200  0.678900  1.0  0.1016
  H  H49  1  0.877200  0.857000  0.008700  1.0  0.1249
  H  H50  1  0.744900  0.793700  0.069500  1.0  0.0971
  H  H51  1  0.699000  0.503000  0.921000  1.0  0.1036
  H  H52  1  0.509000  0.661000  0.073000  1.0  0.1243
  C  C53  1  0.722800  0.663590  0.706830  1.0  0.2326
  C  C54  1  0.602900  0.612800  0.759950  1.0  -0.1789
  C  C55  1  0.488900  0.508100  0.740250  1.0  -0.1714
  C  C56  1  0.495400  0.455500  0.668560  1.0  0.2495
  C  C57  1  0.618100  0.505600  0.616620  1.0  -0.2171
  C  C58  1  0.733200  0.610600  0.636350  1.0  -0.1424
  C  C59  1  0.375500  0.305900  0.576020  1.0  -0.0708
  C  C60  1  0.232000  0.200100  0.560750  1.0  0.751
  C  C61  1  0.898100  0.791500  0.799910  1.0  -0.0849
  C  C62  1  0.054700  0.887800  0.798480  1.0  0.7467
  C  C63  1  0.157300  0.853700  0.526960  1.0  0.7137
  C  C64  1  0.270600  0.802800  0.486400  1.0  -0.0909
  C  C65  1  0.130800  0.600300  0.507300  1.0  0.2188
  C  C66  1  0.120600  0.501200  0.550300  1.0  -0.1197
  C  C67  1  0.007800  0.598200  0.456600  1.0  -0.1885
  C  C68  1  0.777200  0.336410  0.206830  1.0  0.2321
  C  C69  1  0.897100  0.387200  0.259950  1.0  -0.1786
  C  C70  1  0.011100  0.491900  0.240250  1.0  -0.1731
  C  C71  1  0.004600  0.544500  0.168560  1.0  0.2571
  C  C72  1  0.881900  0.494400  0.116620  1.0  -0.2206
  C  C73  1  0.766800  0.389400  0.136350  1.0  -0.1404
  C  C74  1  0.124500  0.694100  0.076020  1.0  -0.0717
  C  C75  1  0.268000  0.799900  0.060750  1.0  0.7512
  C  C76  1  0.601900  0.208500  0.299910  1.0  -0.0842
  C  C77  1  0.445300  0.112200  0.298480  1.0  0.7462
  C  C78  1  0.342700  0.146300  0.026960  1.0  0.7145
  C  C79  1  0.229400  0.197200  0.986400  1.0  -0.0917
  C  C80  1  0.369200  0.399700  0.007300  1.0  0.2156
  C  C81  1  0.379400  0.498800  0.050300  1.0  -0.1206
  C  C82  1  0.492200  0.401800  0.956600  1.0  -0.1905
  C  C83  1  0.277200  0.336410  0.293170  1.0  0.2322
  C  C84  1  0.397100  0.387200  0.240050  1.0  -0.18
  C  C85  1  0.511100  0.491900  0.259750  1.0  -0.1712
  C  C86  1  0.504600  0.544500  0.331440  1.0  0.2578
  C  C87  1  0.381900  0.494400  0.383380  1.0  -0.2198
  C  C88  1  0.266800  0.389400  0.363650  1.0  -0.1409
  C  C89  1  0.624500  0.694100  0.423980  1.0  -0.0686
  C  C90  1  0.768000  0.799900  0.439250  1.0  0.7523
  C  C91  1  0.101900  0.208500  0.200090  1.0  -0.0842
  C  C92  1  0.945300  0.112200  0.201520  1.0  0.7462
  C  C93  1  0.842700  0.146300  0.473040  1.0  0.7128
  C  C94  1  0.729400  0.197200  0.513600  1.0  -0.0922
  C  C95  1  0.869200  0.399700  0.492700  1.0  0.2154
  C  C96  1  0.879400  0.498800  0.449700  1.0  -0.1195
  C  C97  1  0.992200  0.401800  0.543400  1.0  -0.1899
  C  C98  1  0.222800  0.663590  0.793170  1.0  0.2327
  C  C99  1  0.102900  0.612800  0.740050  1.0  -0.1792
  C  C100  1  0.988900  0.508100  0.759750  1.0  -0.1716
  C  C101  1  0.995400  0.455500  0.831440  1.0  0.2491
  C  C102  1  0.118100  0.505600  0.883380  1.0  -0.2164
  C  C103  1  0.233200  0.610600  0.863650  1.0  -0.1423
  C  C104  1  0.875500  0.305900  0.923980  1.0  -0.0689
  C  C105  1  0.732000  0.200100  0.939250  1.0  0.7507
  C  C106  1  0.398100  0.791500  0.700090  1.0  -0.0784
  C  C107  1  0.554700  0.887800  0.701520  1.0  0.7473
  C  C108  1  0.657300  0.853700  0.973040  1.0  0.713
  C  C109  1  0.770600  0.802800  0.013600  1.0  -0.0924
  C  C110  1  0.630800  0.600300  0.992700  1.0  0.219
  C  C111  1  0.620600  0.501200  0.949700  1.0  -0.1189
  C  C112  1  0.507800  0.598200  0.043400  1.0  -0.1883
  O  O113  1  0.837900  0.771330  0.720730  1.0  -0.3581
  O  O114  1  0.133800  0.939780  0.494270  1.0  -0.7951
  O  O115  1  0.096700  0.814600  0.591430  1.0  -0.6217
  O  O116  1  0.266700  0.693340  0.517890  1.0  -0.2482
  O  O117  1  0.089800  0.951930  0.738370  1.0  -0.719
  O  O118  1  0.373900  0.352620  0.652500  1.0  -0.2621
  O  O119  1  0.160800  0.138950  0.616980  1.0  -0.6945
  O  O120  1  0.201700  0.182760  0.488990  1.0  -0.6963
  O  O121  1  0.139300  0.899330  0.858470  1.0  -0.719
  O  O122  1  0.662100  0.228670  0.220730  1.0  -0.3589
  O  O123  1  0.366200  0.060220  0.994270  1.0  -0.7961
  O  O124  1  0.403300  0.185400  0.091430  1.0  -0.6197
  O  O125  1  0.233300  0.306660  0.017890  1.0  -0.2486
  O  O126  1  0.410200  0.048070  0.238370  1.0  -0.718
  O  O127  1  0.126100  0.647380  0.152500  1.0  -0.2607
  O  O128  1  0.339200  0.861050  0.116980  1.0  -0.6942
  O  O129  1  0.298300  0.817240  0.988990  1.0  -0.6941
  O  O130  1  0.360700  0.100670  0.358470  1.0  -0.7176
  O  O131  1  0.162100  0.228670  0.279270  1.0  -0.36
  O  O132  1  0.866200  0.060220  0.505730  1.0  -0.7956
  O  O133  1  0.903300  0.185400  0.408570  1.0  -0.6203
  O  O134  1  0.733300  0.306660  0.482110  1.0  -0.2487
  O  O135  1  0.910200  0.048070  0.261630  1.0  -0.7172
  O  O136  1  0.626100  0.647380  0.347500  1.0  -0.2604
  O  O137  1  0.839200  0.861050  0.383020  1.0  -0.6947
  O  O138  1  0.798300  0.817240  0.511010  1.0  -0.6949
  O  O139  1  0.860700  0.100670  0.141530  1.0  -0.7131
  O  O140  1  0.337900  0.771330  0.779270  1.0  -0.358
  O  O141  1  0.633800  0.939780  0.005730  1.0  -0.7961
  O  O142  1  0.596700  0.814600  0.908570  1.0  -0.6213
  O  O143  1  0.766700  0.693340  0.982110  1.0  -0.2483
  O  O144  1  0.589800  0.951930  0.761630  1.0  -0.7175
  O  O145  1  0.873900  0.352620  0.847500  1.0  -0.261
  O  O146  1  0.660800  0.138950  0.883020  1.0  -0.6946
  O  O147  1  0.701700  0.182760  0.011010  1.0  -0.6959
  O  O148  1  0.639300  0.899330  0.641530  1.0  -0.719
