# generated using pymatgen
data_CuH28C28(N2O)4
_symmetry_space_group_name_H-M   'P 1'
_cell_length_a   13.58420000
_cell_length_b   13.58420000
_cell_length_c   14.85020000
_cell_angle_alpha   90.00000000
_cell_angle_beta   90.00000000
_cell_angle_gamma   120.00000000
_symmetry_Int_Tables_number   1
_chemical_formula_structural   CuH28C28(N2O)4
_chemical_formula_sum   'Cu3 H84 C84 N24 O12'
_cell_volume   2373.18212486
_cell_formula_units_Z   3
loop_
 _symmetry_equiv_pos_site_id
 _symmetry_equiv_pos_as_xyz
  1  'x, y, z'
loop_
 _atom_site_type_symbol
 _atom_site_label
 _atom_site_symmetry_multiplicity
 _atom_site_fract_x
 _atom_site_fract_y
 _atom_site_fract_z
 _atom_site_occupancy
 _atom_site_charge
  Cu  Cu1  1  0.262640  0.262640  0.500000  1.0  0.3443
  Cu  Cu2  1  0.737360  0.000000  0.166670  1.0  0.3432
  Cu  Cu3  1  0.000000  0.737360  0.833330  1.0  0.3431
  H  H4  1  0.048700  0.267500  0.467500  1.0  0.0581
  H  H5  1  0.946100  0.341700  0.530400  1.0  0.085
  H  H6  1  0.013200  0.452000  0.659000  1.0  0.0901
  H  H7  1  0.295100  0.428900  0.640500  1.0  0.0732
  H  H8  1  0.153300  0.533600  0.768400  1.0  0.2763
  H  H9  1  0.239500  0.611800  0.889600  1.0  0.0601
  H  H10  1  0.286800  0.442100  0.948500  1.0  0.0879
  H  H11  1  0.164500  0.419700  0.926000  1.0  0.0824
  H  H12  1  0.231100  0.496100  0.008500  1.0  0.0878
  H  H13  1  0.430700  0.647500  0.964400  1.0  0.2398
  H  H14  1  0.546100  0.825300  0.046400  1.0  0.0594
  H  H15  1  0.865700  0.032800  0.994300  1.0  0.0691
  H  H16  1  0.834300  0.004100  0.842400  1.0  0.0997
  H  H17  1  0.652100  0.890600  0.790500  1.0  0.0833
  H  H18  1  0.732500  0.781200  0.134170  1.0  0.0584
  H  H19  1  0.658300  0.604400  0.197070  1.0  0.0856
  H  H20  1  0.548000  0.561200  0.325670  1.0  0.0911
  H  H21  1  0.571100  0.866200  0.307170  1.0  0.0732
  H  H22  1  0.466400  0.619700  0.435070  1.0  0.2752
  H  H23  1  0.388200  0.627700  0.556270  1.0  0.0584
  H  H24  1  0.557900  0.844700  0.615170  1.0  0.0919
  H  H25  1  0.580300  0.744800  0.592670  1.0  0.0815
  H  H26  1  0.503900  0.735000  0.675170  1.0  0.0871
  H  H27  1  0.352500  0.783200  0.631070  1.0  0.2387
  H  H28  1  0.174700  0.720800  0.713070  1.0  0.059
  H  H29  1  0.967200  0.832900  0.660970  1.0  0.0689
  H  H30  1  0.995900  0.830200  0.509070  1.0  0.0986
  H  H31  1  0.109400  0.761500  0.457170  1.0  0.0835
  H  H32  1  0.218800  0.951300  0.800830  1.0  0.0585
  H  H33  1  0.395600  0.053900  0.863730  1.0  0.0854
  H  H34  1  0.438800  0.986800  0.992330  1.0  0.0902
  H  H35  1  0.133800  0.704900  0.973830  1.0  0.0735
  H  H36  1  0.380300  0.846700  0.101730  1.0  0.2738
  H  H37  1  0.372300  0.760500  0.222930  1.0  0.0615
  H  H38  1  0.155300  0.713200  0.281830  1.0  0.0934
  H  H39  1  0.255200  0.835500  0.259330  1.0  0.0846
  H  H40  1  0.265000  0.768900  0.341830  1.0  0.0882
  H  H41  1  0.216800  0.569300  0.297730  1.0  0.2408
  H  H42  1  0.279200  0.453900  0.379730  1.0  0.0588
  H  H43  1  0.167100  0.134300  0.327630  1.0  0.0686
  H  H44  1  0.169800  0.165700  0.175730  1.0  0.0993
  H  H45  1  0.238500  0.347900  0.123830  1.0  0.0829
  H  H46  1  0.267500  0.048700  0.532500  1.0  0.059
  H  H47  1  0.341700  0.946100  0.469600  1.0  0.0861
  H  H48  1  0.452000  0.013200  0.341000  1.0  0.09
  H  H49  1  0.428900  0.295100  0.359500  1.0  0.0735
  H  H50  1  0.533600  0.153300  0.231600  1.0  0.276
  H  H51  1  0.611800  0.239500  0.110400  1.0  0.0611
  H  H52  1  0.442100  0.286800  0.051500  1.0  0.0937
  H  H53  1  0.419700  0.164500  0.074000  1.0  0.0837
  H  H54  1  0.496100  0.231100  0.991500  1.0  0.0883
  H  H55  1  0.647500  0.430700  0.035600  1.0  0.2403
  H  H56  1  0.825300  0.546100  0.953600  1.0  0.0595
  H  H57  1  0.032800  0.865700  0.005700  1.0  0.0679
  H  H58  1  0.004100  0.834300  0.157600  1.0  0.0996
  H  H59  1  0.890600  0.652100  0.209500  1.0  0.0828
  H  H60  1  0.781200  0.732500  0.865830  1.0  0.0578
  H  H61  1  0.604400  0.658300  0.802930  1.0  0.0859
  H  H62  1  0.561200  0.548000  0.674330  1.0  0.09
  H  H63  1  0.866200  0.571100  0.692830  1.0  0.0732
  H  H64  1  0.619700  0.466400  0.564930  1.0  0.2774
  H  H65  1  0.627700  0.388200  0.443730  1.0  0.0596
  H  H66  1  0.844700  0.557900  0.384830  1.0  0.0894
  H  H67  1  0.744800  0.580300  0.407330  1.0  0.0826
  H  H68  1  0.735000  0.503900  0.324830  1.0  0.0875
  H  H69  1  0.783200  0.352500  0.368930  1.0  0.2399
  H  H70  1  0.720800  0.174700  0.286930  1.0  0.0595
  H  H71  1  0.832900  0.967200  0.339030  1.0  0.0691
  H  H72  1  0.830200  0.995900  0.490930  1.0  0.0989
  H  H73  1  0.761500  0.109400  0.542830  1.0  0.0832
  H  H74  1  0.951300  0.218800  0.199170  1.0  0.0589
  H  H75  1  0.053900  0.395600  0.136270  1.0  0.0858
  H  H76  1  0.986800  0.438800  0.007670  1.0  0.0908
  H  H77  1  0.704900  0.133800  0.026170  1.0  0.0731
  H  H78  1  0.846700  0.380300  0.898270  1.0  0.2764
  H  H79  1  0.760500  0.372300  0.777070  1.0  0.0605
  H  H80  1  0.713200  0.155300  0.718170  1.0  0.0919
  H  H81  1  0.835500  0.255200  0.740670  1.0  0.082
  H  H82  1  0.768900  0.265000  0.658170  1.0  0.0887
  H  H83  1  0.569300  0.216800  0.702270  1.0  0.2421
  H  H84  1  0.453900  0.279200  0.620270  1.0  0.0586
  H  H85  1  0.134300  0.167100  0.672370  1.0  0.069
  H  H86  1  0.165700  0.169800  0.824270  1.0  0.0988
  H  H87  1  0.347900  0.238500  0.876170  1.0  0.0835
  C  C88  1  0.078030  0.315000  0.517240  1.0  0.1294
  C  C89  1  0.015290  0.357600  0.555430  1.0  -0.1746
  C  C90  1  0.055690  0.424200  0.631170  1.0  -0.1638
  C  C91  1  0.160160  0.449300  0.665460  1.0  0.1747
  C  C92  1  0.222380  0.408150  0.620460  1.0  0.0844
  C  C93  1  0.294400  0.542200  0.792080  1.0  0.5033
  C  C94  1  0.288900  0.578400  0.888330  1.0  0.0602
  C  C95  1  0.238200  0.474600  0.948300  1.0  -0.3506
  C  C96  1  0.460300  0.761900  0.879500  1.0  0.5933
  C  C97  1  0.577400  0.842200  0.913010  1.0  -0.0228
  C  C98  1  0.603800  0.863800  0.004540  1.0  0.1564
  C  C99  1  0.791900  0.985600  0.973840  1.0  0.1415
  C  C100  1  0.773900  0.968800  0.882590  1.0  -0.1597
  C  C101  1  0.666300  0.899600  0.852100  1.0  -0.0291
  C  C102  1  0.685000  0.763030  0.183910  1.0  0.1308
  C  C103  1  0.642400  0.657690  0.222100  1.0  -0.1737
  C  C104  1  0.575800  0.631490  0.297840  1.0  -0.1625
  C  C105  1  0.550700  0.710860  0.332130  1.0  0.175
  C  C106  1  0.591850  0.814230  0.287130  1.0  0.0876
  C  C107  1  0.457800  0.752200  0.458750  1.0  0.5066
  C  C108  1  0.421600  0.710500  0.555000  1.0  0.0603
  C  C109  1  0.525400  0.763600  0.614970  1.0  -0.3514
  C  C110  1  0.238100  0.698400  0.546170  1.0  0.5932
  C  C111  1  0.157800  0.735200  0.579680  1.0  -0.0238
  C  C112  1  0.136200  0.740000  0.671210  1.0  0.1554
  C  C113  1  0.014400  0.806300  0.640510  1.0  0.1381
  C  C114  1  0.031200  0.805100  0.549260  1.0  -0.1613
  C  C115  1  0.100400  0.766700  0.518770  1.0  -0.03
  C  C116  1  0.236970  0.921970  0.850570  1.0  0.1313
  C  C117  1  0.342310  0.984710  0.888760  1.0  -0.1741
  C  C118  1  0.368510  0.944310  0.964500  1.0  -0.1642
  C  C119  1  0.289140  0.839840  0.998790  1.0  0.1738
  C  C120  1  0.185770  0.777620  0.953790  1.0  0.086
  C  C121  1  0.247800  0.705600  0.125410  1.0  0.5034
  C  C122  1  0.289500  0.711100  0.221660  1.0  0.0601
  C  C123  1  0.236400  0.761800  0.281630  1.0  -0.3533
  C  C124  1  0.301600  0.539700  0.212830  1.0  0.5945
  C  C125  1  0.264800  0.422600  0.246340  1.0  -0.0231
  C  C126  1  0.260000  0.396200  0.337870  1.0  0.1554
  C  C127  1  0.193700  0.208100  0.307170  1.0  0.1385
  C  C128  1  0.194900  0.226100  0.215920  1.0  -0.1575
  C  C129  1  0.233300  0.333700  0.185430  1.0  -0.029
  C  C130  1  0.315000  0.078030  0.482760  1.0  0.1317
  C  C131  1  0.357600  0.015290  0.444570  1.0  -0.1728
  C  C132  1  0.424200  0.055690  0.368830  1.0  -0.1643
  C  C133  1  0.449300  0.160160  0.334540  1.0  0.174
  C  C134  1  0.408150  0.222380  0.379540  1.0  0.0864
  C  C135  1  0.542200  0.294400  0.207920  1.0  0.5042
  C  C136  1  0.578400  0.288900  0.111670  1.0  0.0599
  C  C137  1  0.474600  0.238200  0.051700  1.0  -0.3529
  C  C138  1  0.761900  0.460300  0.120500  1.0  0.5943
  C  C139  1  0.842200  0.577400  0.086990  1.0  -0.0235
  C  C140  1  0.863800  0.603800  0.995460  1.0  0.1552
  C  C141  1  0.985600  0.791900  0.026160  1.0  0.14
  C  C142  1  0.968800  0.773900  0.117410  1.0  -0.1571
  C  C143  1  0.899600  0.666300  0.147900  1.0  -0.0281
  C  C144  1  0.763030  0.685000  0.816090  1.0  0.1293
  C  C145  1  0.657690  0.642400  0.777900  1.0  -0.1745
  C  C146  1  0.631490  0.575800  0.702160  1.0  -0.1639
  C  C147  1  0.710860  0.550700  0.667870  1.0  0.1741
  C  C148  1  0.814230  0.591850  0.712870  1.0  0.0845
  C  C149  1  0.752200  0.457800  0.541250  1.0  0.5035
  C  C150  1  0.710500  0.421600  0.445000  1.0  0.0594
  C  C151  1  0.763600  0.525400  0.385030  1.0  -0.3504
  C  C152  1  0.698400  0.238100  0.453830  1.0  0.5921
  C  C153  1  0.735200  0.157800  0.420320  1.0  -0.023
  C  C154  1  0.740000  0.136200  0.328790  1.0  0.1559
  C  C155  1  0.806300  0.014400  0.359490  1.0  0.1417
  C  C156  1  0.805100  0.031200  0.450740  1.0  -0.1606
  C  C157  1  0.766700  0.100400  0.481230  1.0  -0.0298
  C  C158  1  0.921970  0.236970  0.149430  1.0  0.1314
  C  C159  1  0.984710  0.342310  0.111240  1.0  -0.1729
  C  C160  1  0.944310  0.368510  0.035500  1.0  -0.1631
  C  C161  1  0.839840  0.289140  0.001210  1.0  0.1747
  C  C162  1  0.777620  0.185770  0.046210  1.0  0.0886
  C  C163  1  0.705600  0.247800  0.874590  1.0  0.5047
  C  C164  1  0.711100  0.289500  0.778340  1.0  0.0604
  C  C165  1  0.761800  0.236400  0.718370  1.0  -0.3505
  C  C166  1  0.539700  0.301600  0.787170  1.0  0.5927
  C  C167  1  0.422600  0.264800  0.753660  1.0  -0.0237
  C  C168  1  0.396200  0.260000  0.662130  1.0  0.1555
  C  C169  1  0.208100  0.193700  0.692830  1.0  0.1388
  C  C170  1  0.226100  0.194900  0.784080  1.0  -0.1619
  C  C171  1  0.333700  0.233300  0.814570  1.0  -0.0298
  N  N172  1  0.179470  0.339220  0.548810  1.0  -0.3261
  N  N173  1  0.197570  0.511840  0.745790  1.0  -0.4071
  N  N174  1  0.401600  0.662900  0.918950  1.0  -0.409
  N  N175  1  0.707900  0.937050  0.034490  1.0  -0.3302
  N  N176  1  0.660780  0.840250  0.215480  1.0  -0.3255
  N  N177  1  0.488160  0.685730  0.412460  1.0  -0.4084
  N  N178  1  0.337100  0.738700  0.585620  1.0  -0.4076
  N  N179  1  0.062950  0.770850  0.701160  1.0  -0.3301
  N  N180  1  0.159750  0.820530  0.882140  1.0  -0.3264
  N  N181  1  0.314270  0.802430  0.079120  1.0  -0.4059
  N  N182  1  0.261300  0.598400  0.252280  1.0  -0.4071
  N  N183  1  0.229150  0.292100  0.367820  1.0  -0.3307
  N  N184  1  0.339220  0.179470  0.451190  1.0  -0.3258
  N  N185  1  0.511840  0.197570  0.254210  1.0  -0.4064
  N  N186  1  0.662900  0.401600  0.081050  1.0  -0.407
  N  N187  1  0.937050  0.707900  0.965510  1.0  -0.3315
  N  N188  1  0.840250  0.660780  0.784520  1.0  -0.3261
  N  N189  1  0.685730  0.488160  0.587540  1.0  -0.407
  N  N190  1  0.738700  0.337100  0.414380  1.0  -0.4089
  N  N191  1  0.770850  0.062950  0.298840  1.0  -0.3317
  N  N192  1  0.820530  0.159750  0.117860  1.0  -0.3251
  N  N193  1  0.802430  0.314270  0.920880  1.0  -0.4074
  N  N194  1  0.598400  0.261300  0.747720  1.0  -0.4082
  N  N195  1  0.292100  0.229150  0.632180  1.0  -0.3315
  O  O196  1  0.374450  0.535820  0.763500  1.0  -0.5062
  O  O197  1  0.423100  0.789700  0.813510  1.0  -0.592
  O  O198  1  0.464180  0.838630  0.430170  1.0  -0.5038
  O  O199  1  0.210300  0.633400  0.480180  1.0  -0.5943
  O  O200  1  0.161370  0.625550  0.096830  1.0  -0.5059
  O  O201  1  0.366600  0.576900  0.146840  1.0  -0.5937
  O  O202  1  0.535820  0.374450  0.236500  1.0  -0.5075
  O  O203  1  0.789700  0.423100  0.186490  1.0  -0.5939
  O  O204  1  0.838630  0.464180  0.569830  1.0  -0.5078
  O  O205  1  0.633400  0.210300  0.519820  1.0  -0.5917
  O  O206  1  0.625550  0.161370  0.903170  1.0  -0.5058
  O  O207  1  0.576900  0.366600  0.853160  1.0  -0.5942
