# generated using pymatgen
data_CdH4C8(N2O)2
_symmetry_space_group_name_H-M   'P 1'
_cell_length_a   12.38000000
_cell_length_b   16.48800000
_cell_length_c   21.24600000
_cell_angle_alpha   90.00000000
_cell_angle_beta   90.00000000
_cell_angle_gamma   90.00000000
_symmetry_Int_Tables_number   1
_chemical_formula_structural   CdH4C8(N2O)2
_chemical_formula_sum   'Cd16 H64 C128 N64 O32'
_cell_volume   4336.76411424
_cell_formula_units_Z   16
loop_
 _symmetry_equiv_pos_site_id
 _symmetry_equiv_pos_as_xyz
  1  'x, y, z'
loop_
 _atom_site_type_symbol
 _atom_site_label
 _atom_site_symmetry_multiplicity
 _atom_site_fract_x
 _atom_site_fract_y
 _atom_site_fract_z
 _atom_site_occupancy
 _atom_site_charge
  Cd  Cd1  1  0.480810  0.939690  0.728700  1.0  0.9528
  Cd  Cd2  1  0.226440  0.820720  0.687250  1.0  0.9644
  Cd  Cd3  1  0.729150  0.799220  0.731600  1.0  0.9318
  Cd  Cd4  1  0.488180  0.829970  0.200230  1.0  1.0053
  Cd  Cd5  1  0.019190  0.439690  0.771300  1.0  0.9556
  Cd  Cd6  1  0.273560  0.320720  0.812750  1.0  0.9675
  Cd  Cd7  1  0.770850  0.299220  0.768400  1.0  0.9314
  Cd  Cd8  1  0.011820  0.329970  0.299770  1.0  1.009
  Cd  Cd9  1  0.519190  0.060310  0.271300  1.0  0.9556
  Cd  Cd10  1  0.773560  0.179280  0.312750  1.0  0.9679
  Cd  Cd11  1  0.270850  0.200780  0.268400  1.0  0.9311
  Cd  Cd12  1  0.511820  0.170030  0.799770  1.0  1.0098
  Cd  Cd13  1  0.980810  0.560310  0.228700  1.0  0.953
  Cd  Cd14  1  0.726440  0.679280  0.187250  1.0  0.9642
  Cd  Cd15  1  0.229150  0.700780  0.231600  1.0  0.9313
  Cd  Cd16  1  0.988180  0.670030  0.700230  1.0  1.0046
  H  H17  1  0.729300  0.415300  0.617000  1.0  0.1174
  H  H18  1  0.585900  0.459300  0.559400  1.0  0.1054
  H  H19  1  0.488200  0.572000  0.590500  1.0  0.1141
  H  H20  1  0.703000  0.610900  0.728700  1.0  0.1055
  H  H21  1  0.363900  0.873300  0.945800  1.0  0.1101
  H  H22  1  0.071000  0.796200  0.995800  1.0  0.1027
  H  H23  1  0.009000  0.822300  0.894900  1.0  0.1044
  H  H24  1  0.126600  0.872800  0.819600  1.0  0.0914
  H  H25  1  0.200300  0.005600  0.738900  1.0  0.0968
  H  H26  1  0.944700  0.082000  0.640500  1.0  0.1221
  H  H27  1  0.031000  0.204200  0.622400  1.0  0.1112
  H  H28  1  0.193800  0.231500  0.669800  1.0  0.0873
  H  H29  1  0.692700  0.234800  0.548000  1.0  0.1052
  H  H30  1  0.602100  0.180000  0.465600  1.0  0.1067
  H  H31  1  0.459800  0.089100  0.484100  1.0  0.1043
  H  H32  1  0.525400  0.098700  0.669600  1.0  0.0836
  H  H33  1  0.770700  0.915300  0.883000  1.0  0.1173
  H  H34  1  0.914100  0.959300  0.940600  1.0  0.1057
  H  H35  1  0.011800  0.072000  0.909500  1.0  0.114
  H  H36  1  0.797000  0.110900  0.771300  1.0  0.1051
  H  H37  1  0.136100  0.373300  0.554200  1.0  0.1105
  H  H38  1  0.429000  0.296200  0.504200  1.0  0.1023
  H  H39  1  0.491000  0.322300  0.605100  1.0  0.1047
  H  H40  1  0.373400  0.372800  0.680400  1.0  0.0915
  H  H41  1  0.299700  0.505600  0.761100  1.0  0.0967
  H  H42  1  0.555300  0.582000  0.859500  1.0  0.1219
  H  H43  1  0.469000  0.704200  0.877600  1.0  0.1111
  H  H44  1  0.306200  0.731500  0.830200  1.0  0.0872
  H  H45  1  0.807300  0.734800  0.952000  1.0  0.1049
  H  H46  1  0.897900  0.680000  0.034400  1.0  0.1089
  H  H47  1  0.040200  0.589100  0.015900  1.0  0.105
  H  H48  1  0.974600  0.598700  0.830400  1.0  0.0831
  H  H49  1  0.270700  0.584700  0.383000  1.0  0.1179
  H  H50  1  0.414100  0.540700  0.440600  1.0  0.1056
  H  H51  1  0.511800  0.428000  0.409500  1.0  0.1142
  H  H52  1  0.297000  0.389100  0.271300  1.0  0.1051
  H  H53  1  0.636100  0.126700  0.054200  1.0  0.1107
  H  H54  1  0.929000  0.203800  0.004200  1.0  0.1024
  H  H55  1  0.991000  0.177700  0.105100  1.0  0.1044
  H  H56  1  0.873400  0.127200  0.180400  1.0  0.0916
  H  H57  1  0.799700  0.994400  0.261100  1.0  0.0969
  H  H58  1  0.055300  0.918000  0.359500  1.0  0.122
  H  H59  1  0.969000  0.795800  0.377600  1.0  0.1115
  H  H60  1  0.806200  0.768500  0.330200  1.0  0.0873
  H  H61  1  0.307300  0.765200  0.452000  1.0  0.1048
  H  H62  1  0.397900  0.820000  0.534400  1.0  0.1071
  H  H63  1  0.540200  0.910900  0.515900  1.0  0.1049
  H  H64  1  0.474600  0.901300  0.330400  1.0  0.0833
  H  H65  1  0.229300  0.084700  0.117000  1.0  0.1179
  H  H66  1  0.085900  0.040700  0.059400  1.0  0.1055
  H  H67  1  0.988200  0.928000  0.090500  1.0  0.114
  H  H68  1  0.203000  0.889100  0.228700  1.0  0.1055
  H  H69  1  0.863900  0.626700  0.445800  1.0  0.1101
  H  H70  1  0.571000  0.703800  0.495800  1.0  0.1024
  H  H71  1  0.509000  0.677700  0.394900  1.0  0.1043
  H  H72  1  0.626600  0.627200  0.319600  1.0  0.0912
  H  H73  1  0.700300  0.494400  0.238900  1.0  0.0967
  H  H74  1  0.444700  0.418000  0.140500  1.0  0.1221
  H  H75  1  0.531000  0.295800  0.122400  1.0  0.1112
  H  H76  1  0.693800  0.268500  0.169800  1.0  0.0869
  H  H77  1  0.192700  0.265200  0.048000  1.0  0.1051
  H  H78  1  0.102100  0.320000  0.965600  1.0  0.1086
  H  H79  1  0.959800  0.410900  0.984100  1.0  0.1044
  H  H80  1  0.025400  0.401300  0.169600  1.0  0.0832
  C  C81  1  0.831300  0.483000  0.711600  1.0  0.6978
  C  C82  1  0.731900  0.510000  0.677400  1.0  -0.1264
  C  C83  1  0.694600  0.463500  0.627600  1.0  -0.0444
  C  C84  1  0.607800  0.488400  0.594700  1.0  -0.095
  C  C85  1  0.550100  0.557100  0.612500  1.0  -0.0518
  C  C86  1  0.585000  0.603300  0.663000  1.0  -0.0682
  C  C87  1  0.523400  0.676800  0.680400  1.0  0.3646
  C  C88  1  0.677600  0.579900  0.695300  1.0  -0.0308
  C  C89  1  0.334700  0.901700  0.825300  1.0  0.6637
  C  C90  1  0.258000  0.876000  0.874800  1.0  -0.1478
  C  C91  1  0.292600  0.861800  0.935300  1.0  -0.0251
  C  C92  1  0.225500  0.831300  0.980600  1.0  -0.076
  C  C93  1  0.264400  0.813100  0.043700  1.0  0.3629
  C  C94  1  0.118000  0.816500  0.965500  1.0  -0.0576
  C  C95  1  0.080900  0.832000  0.905200  1.0  -0.1018
  C  C96  1  0.151600  0.862100  0.860100  1.0  -0.0202
  C  C97  1  0.319300  0.139200  0.740000  1.0  0.684
  C  C98  1  0.213900  0.122100  0.709000  1.0  -0.1497
  C  C99  1  0.165000  0.045900  0.716100  1.0  -0.0264
  C  C100  1  0.065600  0.030000  0.689900  1.0  -0.0721
  C  C101  1  0.012400  0.952600  0.698600  1.0  0.3668
  C  C102  1  0.013600  0.090900  0.656600  1.0  -0.0534
  C  C103  1  0.064000  0.165000  0.647300  1.0  -0.086
  C  C104  1  0.162100  0.180800  0.674600  1.0  -0.0333
  C  C105  1  0.677400  0.210000  0.671500  1.0  0.6756
  C  C106  1  0.619600  0.171600  0.616400  1.0  -0.145
  C  C107  1  0.639800  0.195900  0.555400  1.0  -0.0295
  C  C108  1  0.584800  0.164800  0.506500  1.0  -0.0844
  C  C109  1  0.500300  0.108700  0.517700  1.0  -0.0397
  C  C110  1  0.477300  0.082400  0.579000  1.0  -0.0529
  C  C111  1  0.393700  0.022500  0.590500  1.0  0.3513
  C  C112  1  0.538800  0.115000  0.628400  1.0  -0.0339
  C  C113  1  0.668700  0.983000  0.788400  1.0  0.6973
  C  C114  1  0.768100  0.010000  0.822600  1.0  -0.1274
  C  C115  1  0.805400  0.963500  0.872400  1.0  -0.0457
  C  C116  1  0.892200  0.988400  0.905300  1.0  -0.0948
  C  C117  1  0.949900  0.057100  0.887500  1.0  -0.0526
  C  C118  1  0.915000  0.103300  0.837000  1.0  -0.0682
  C  C119  1  0.976600  0.176800  0.819600  1.0  0.3641
  C  C120  1  0.822400  0.079900  0.804700  1.0  -0.0306
  C  C121  1  0.165300  0.401700  0.674700  1.0  0.6642
  C  C122  1  0.242000  0.376000  0.625200  1.0  -0.1483
  C  C123  1  0.207400  0.361800  0.564700  1.0  -0.0249
  C  C124  1  0.274500  0.331300  0.519400  1.0  -0.0744
  C  C125  1  0.235600  0.313100  0.456300  1.0  0.3632
  C  C126  1  0.382000  0.316500  0.534500  1.0  -0.0589
  C  C127  1  0.419100  0.332000  0.594800  1.0  -0.1006
  C  C128  1  0.348400  0.362100  0.639900  1.0  -0.0197
  C  C129  1  0.180700  0.639200  0.760000  1.0  0.6838
  C  C130  1  0.286100  0.622100  0.791000  1.0  -0.1492
  C  C131  1  0.335000  0.545900  0.783900  1.0  -0.0273
  C  C132  1  0.434400  0.530000  0.810100  1.0  -0.0693
  C  C133  1  0.487600  0.452600  0.801400  1.0  0.3685
  C  C134  1  0.486400  0.590900  0.843400  1.0  -0.0841
  C  C135  1  0.436000  0.665000  0.852700  1.0  -0.0848
  C  C136  1  0.337900  0.680800  0.825400  1.0  -0.0313
  C  C137  1  0.822600  0.710000  0.828500  1.0  0.6754
  C  C138  1  0.880400  0.671600  0.883600  1.0  -0.146
  C  C139  1  0.860200  0.695900  0.944600  1.0  -0.0269
  C  C140  1  0.915200  0.664800  0.993500  1.0  -0.083
  C  C141  1  0.999700  0.608700  0.982300  1.0  -0.0392
  C  C142  1  0.022700  0.582400  0.921000  1.0  -0.0525
  C  C143  1  0.106300  0.522500  0.909500  1.0  0.3512
  C  C144  1  0.961200  0.615000  0.871600  1.0  -0.0322
  C  C145  1  0.168700  0.517000  0.288400  1.0  0.6973
  C  C146  1  0.268100  0.490000  0.322600  1.0  -0.1275
  C  C147  1  0.305400  0.536500  0.372400  1.0  -0.048
  C  C148  1  0.392200  0.511600  0.405300  1.0  -0.0941
  C  C149  1  0.449900  0.442900  0.387500  1.0  -0.0525
  C  C150  1  0.415000  0.396700  0.337000  1.0  -0.0681
  C  C151  1  0.476600  0.323200  0.319600  1.0  0.3652
  C  C152  1  0.322400  0.420100  0.304700  1.0  -0.0305
  C  C153  1  0.665300  0.098300  0.174700  1.0  0.6643
  C  C154  1  0.742000  0.124000  0.125200  1.0  -0.1497
  C  C155  1  0.707400  0.138200  0.064700  1.0  -0.024
  C  C156  1  0.774500  0.168700  0.019400  1.0  -0.0741
  C  C157  1  0.735600  0.186900  0.956300  1.0  0.3626
  C  C158  1  0.882000  0.183500  0.034500  1.0  -0.0592
  C  C159  1  0.919100  0.168000  0.094800  1.0  -0.1006
  C  C160  1  0.848400  0.137900  0.139900  1.0  -0.0196
  C  C161  1  0.680700  0.860800  0.260000  1.0  0.6837
  C  C162  1  0.786100  0.877900  0.291000  1.0  -0.1491
  C  C163  1  0.835000  0.954100  0.283900  1.0  -0.0274
  C  C164  1  0.934400  0.970000  0.310100  1.0  -0.0691
  C  C165  1  0.987600  0.047400  0.301400  1.0  0.3693
  C  C166  1  0.986400  0.909100  0.343400  1.0  -0.0833
  C  C167  1  0.936000  0.835000  0.352700  1.0  -0.0847
  C  C168  1  0.837900  0.819200  0.325400  1.0  -0.0278
  C  C169  1  0.322600  0.790000  0.328500  1.0  0.6753
  C  C170  1  0.380400  0.828400  0.383600  1.0  -0.1458
  C  C171  1  0.360200  0.804100  0.444600  1.0  -0.0269
  C  C172  1  0.415200  0.835200  0.493500  1.0  -0.0829
  C  C173  1  0.499700  0.891300  0.482300  1.0  -0.0392
  C  C174  1  0.522700  0.917600  0.421000  1.0  -0.0519
  C  C175  1  0.606300  0.977500  0.409500  1.0  0.3516
  C  C176  1  0.461200  0.885000  0.371600  1.0  -0.0331
  C  C177  1  0.331300  0.017000  0.211600  1.0  0.6979
  C  C178  1  0.231900  0.990000  0.177400  1.0  -0.1266
  C  C179  1  0.194600  0.036500  0.127600  1.0  -0.0455
  C  C180  1  0.107800  0.011600  0.094700  1.0  -0.0948
  C  C181  1  0.050100  0.942900  0.112500  1.0  -0.0519
  C  C182  1  0.085000  0.896700  0.163000  1.0  -0.0684
  C  C183  1  0.023400  0.823200  0.180400  1.0  0.3658
  C  C184  1  0.177600  0.920100  0.195300  1.0  -0.0307
  C  C185  1  0.834700  0.598300  0.325300  1.0  0.6643
  C  C186  1  0.758000  0.624000  0.374800  1.0  -0.148
  C  C187  1  0.792600  0.638200  0.435300  1.0  -0.024
  C  C188  1  0.725500  0.668700  0.480600  1.0  -0.0757
  C  C189  1  0.764400  0.686900  0.543700  1.0  0.3623
  C  C190  1  0.618000  0.683500  0.465500  1.0  -0.058
  C  C191  1  0.580900  0.668000  0.405200  1.0  -0.1018
  C  C192  1  0.651600  0.637900  0.360100  1.0  -0.0201
  C  C193  1  0.819300  0.360800  0.240000  1.0  0.684
  C  C194  1  0.713900  0.377900  0.209000  1.0  -0.1495
  C  C195  1  0.665000  0.454100  0.216100  1.0  -0.0265
  C  C196  1  0.565600  0.470000  0.189900  1.0  -0.0703
  C  C197  1  0.512400  0.547400  0.198600  1.0  0.3674
  C  C198  1  0.513600  0.409100  0.156600  1.0  -0.0538
  C  C199  1  0.564000  0.335000  0.147300  1.0  -0.0856
  C  C200  1  0.662100  0.319200  0.174600  1.0  -0.0292
  C  C201  1  0.177400  0.290000  0.171500  1.0  0.6752
  C  C202  1  0.119600  0.328400  0.116400  1.0  -0.1451
  C  C203  1  0.139800  0.304100  0.055400  1.0  -0.0289
  C  C204  1  0.084800  0.335200  0.006500  1.0  -0.084
  C  C205  1  0.000300  0.391300  0.017700  1.0  -0.0398
  C  C206  1  0.977300  0.417600  0.079000  1.0  -0.0522
  C  C207  1  0.893700  0.477500  0.090500  1.0  0.3512
  C  C208  1  0.038800  0.385000  0.128400  1.0  -0.0346
  N  N209  1  0.562600  0.742300  0.708800  1.0  -0.2957
  N  N210  1  0.478900  0.795100  0.711500  1.0  -0.0796
  N  N211  1  0.394700  0.761100  0.685600  1.0  -0.0347
  N  N212  1  0.419800  0.686000  0.665600  1.0  -0.3435
  N  N213  1  0.354500  0.843400  0.069400  1.0  -0.3493
  N  N214  1  0.359900  0.810400  0.127000  1.0  -0.0632
  N  N215  1  0.276400  0.762000  0.135300  1.0  -0.0635
  N  N216  1  0.214400  0.762400  0.083500  1.0  -0.3291
  N  N217  1  0.060900  0.878300  0.699400  1.0  -0.3109
  N  N218  1  0.980300  0.824300  0.709300  1.0  -0.104
  N  N219  1  0.889200  0.864300  0.713200  1.0  -0.0218
  N  N220  1  0.906000  0.944800  0.706000  1.0  -0.3154
  N  N221  1  0.391600  0.967500  0.637200  1.0  -0.34
  N  N222  1  0.298000  0.926700  0.627800  1.0  -0.0833
  N  N223  1  0.249800  0.954000  0.578200  1.0  -0.1086
  N  N224  1  0.307900  0.014700  0.553900  1.0  -0.2999
  N  N225  1  0.937400  0.242300  0.791200  1.0  -0.2948
  N  N226  1  0.021100  0.295100  0.788500  1.0  -0.0794
  N  N227  1  0.105300  0.261100  0.814400  1.0  -0.0357
  N  N228  1  0.080200  0.186000  0.834400  1.0  -0.3428
  N  N229  1  0.145500  0.343400  0.430600  1.0  -0.348
  N  N230  1  0.140100  0.310400  0.373000  1.0  -0.0633
  N  N231  1  0.223600  0.262000  0.364700  1.0  -0.0629
  N  N232  1  0.285600  0.262400  0.416500  1.0  -0.3292
  N  N233  1  0.439100  0.378300  0.800600  1.0  -0.3092
  N  N234  1  0.519700  0.324300  0.790700  1.0  -0.1033
  N  N235  1  0.610800  0.364300  0.786800  1.0  -0.0199
  N  N236  1  0.594000  0.444800  0.794000  1.0  -0.3154
  N  N237  1  0.108400  0.467500  0.862800  1.0  -0.3403
  N  N238  1  0.202000  0.426700  0.872200  1.0  -0.083
  N  N239  1  0.250200  0.454000  0.921800  1.0  -0.1076
  N  N240  1  0.192100  0.514700  0.946100  1.0  -0.3018
  N  N241  1  0.437400  0.257700  0.291200  1.0  -0.2958
  N  N242  1  0.521100  0.204900  0.288500  1.0  -0.0798
  N  N243  1  0.605300  0.238900  0.314400  1.0  -0.0353
  N  N244  1  0.580200  0.314000  0.334400  1.0  -0.3428
  N  N245  1  0.645500  0.156600  0.930600  1.0  -0.3481
  N  N246  1  0.640100  0.189600  0.873000  1.0  -0.0634
  N  N247  1  0.723600  0.238000  0.864700  1.0  -0.0623
  N  N248  1  0.785600  0.237600  0.916500  1.0  -0.331
  N  N249  1  0.939100  0.121700  0.300600  1.0  -0.3097
  N  N250  1  0.019700  0.175700  0.290700  1.0  -0.1035
  N  N251  1  0.110800  0.135700  0.286800  1.0  -0.0203
  N  N252  1  0.094000  0.055200  0.294000  1.0  -0.3148
  N  N253  1  0.608400  0.032500  0.362800  1.0  -0.3393
  N  N254  1  0.702000  0.073300  0.372200  1.0  -0.0826
  N  N255  1  0.750200  0.046000  0.421800  1.0  -0.1088
  N  N256  1  0.692100  0.985300  0.446100  1.0  -0.3008
  N  N257  1  0.062600  0.757700  0.208800  1.0  -0.295
  N  N258  1  0.978900  0.704900  0.211500  1.0  -0.0797
  N  N259  1  0.894700  0.738900  0.185600  1.0  -0.0352
  N  N260  1  0.919800  0.814000  0.165600  1.0  -0.3426
  N  N261  1  0.854500  0.656600  0.569400  1.0  -0.3487
  N  N262  1  0.859900  0.689600  0.627000  1.0  -0.064
  N  N263  1  0.776400  0.738000  0.635300  1.0  -0.0625
  N  N264  1  0.714400  0.737600  0.583500  1.0  -0.3302
  N  N265  1  0.560900  0.621700  0.199400  1.0  -0.3106
  N  N266  1  0.480300  0.675700  0.209300  1.0  -0.1034
  N  N267  1  0.389200  0.635700  0.213200  1.0  -0.0211
  N  N268  1  0.406000  0.555200  0.206000  1.0  -0.3158
  N  N269  1  0.891600  0.532500  0.137200  1.0  -0.3397
  N  N270  1  0.798000  0.573300  0.127800  1.0  -0.0819
  N  N271  1  0.749800  0.546000  0.078200  1.0  -0.1079
  N  N272  1  0.807900  0.485300  0.053900  1.0  -0.3017
  O  O273  1  0.895600  0.533400  0.733800  1.0  -0.5818
  O  O274  1  0.849400  0.407300  0.717900  1.0  -0.6061
  O  O275  1  0.428600  0.925800  0.839100  1.0  -0.5811
  O  O276  1  0.307300  0.895700  0.767400  1.0  -0.6632
  O  O277  1  0.384000  0.083700  0.753700  1.0  -0.5675
  O  O278  1  0.344600  0.212600  0.753800  1.0  -0.6562
  O  O279  1  0.642400  0.200000  0.726700  1.0  -0.6625
  O  O280  1  0.759400  0.252600  0.662700  1.0  -0.5803
  O  O281  1  0.604400  0.033400  0.766200  1.0  -0.5822
  O  O282  1  0.650600  0.907300  0.782100  1.0  -0.6056
  O  O283  1  0.071400  0.425800  0.660900  1.0  -0.5787
  O  O284  1  0.192700  0.395700  0.732600  1.0  -0.6643
  O  O285  1  0.116000  0.583700  0.746300  1.0  -0.5677
  O  O286  1  0.155400  0.712600  0.746200  1.0  -0.6583
  O  O287  1  0.857600  0.700000  0.773300  1.0  -0.6577
  O  O288  1  0.740600  0.752600  0.837300  1.0  -0.5802
  O  O289  1  0.104400  0.466600  0.266200  1.0  -0.5827
  O  O290  1  0.150600  0.592700  0.282100  1.0  -0.6047
  O  O291  1  0.571400  0.074200  0.160900  1.0  -0.5794
  O  O292  1  0.692700  0.104300  0.232600  1.0  -0.6644
  O  O293  1  0.616000  0.916300  0.246300  1.0  -0.5682
  O  O294  1  0.655400  0.787400  0.246200  1.0  -0.6596
  O  O295  1  0.357600  0.800000  0.273300  1.0  -0.6576
  O  O296  1  0.240600  0.747400  0.337300  1.0  -0.5791
  O  O297  1  0.395600  0.966600  0.233800  1.0  -0.5823
  O  O298  1  0.349400  0.092700  0.217900  1.0  -0.6051
  O  O299  1  0.928600  0.574200  0.339100  1.0  -0.5813
  O  O300  1  0.807300  0.604300  0.267400  1.0  -0.6633
  O  O301  1  0.884000  0.416300  0.253700  1.0  -0.568
  O  O302  1  0.844600  0.287400  0.253800  1.0  -0.6572
  O  O303  1  0.142400  0.300000  0.226700  1.0  -0.663
  O  O304  1  0.259400  0.247400  0.162700  1.0  -0.58
