# generated using pymatgen
data_AgSbH34C32S2N2(OF3)2
_symmetry_space_group_name_H-M   'P 1'
_cell_length_a   13.98420000
_cell_length_b   18.47310000
_cell_length_c   18.47310000
_cell_angle_alpha   81.76330000
_cell_angle_beta   67.75900000
_cell_angle_gamma   67.75910000
_symmetry_Int_Tables_number   1
_chemical_formula_structural   AgSbH34C32S2N2(OF3)2
_chemical_formula_sum   'Ag4 Sb4 H136 C128 S8 N8 O8 F24'
_cell_volume   4088.50151663
_cell_formula_units_Z   4
loop_
 _symmetry_equiv_pos_site_id
 _symmetry_equiv_pos_as_xyz
  1  'x, y, z'
loop_
 _atom_site_type_symbol
 _atom_site_label
 _atom_site_symmetry_multiplicity
 _atom_site_fract_x
 _atom_site_fract_y
 _atom_site_fract_z
 _atom_site_occupancy
 _atom_site_charge
  Ag  Ag1  1  0.625000  0.199560  0.300440  1.0  0.257
  Ag  Ag2  1  0.125000  0.800440  0.699560  1.0  0.2564
  Ag  Ag3  1  0.074560  0.300440  0.800440  1.0  0.2627
  Ag  Ag4  1  0.175440  0.699560  0.199560  1.0  0.2545
  Sb  Sb5  1  0.510000  0.365000  0.865000  1.0  1.9568
  Sb  Sb6  1  0.740000  0.635000  0.135000  1.0  1.9593
  Sb  Sb7  1  0.625000  0.865000  0.635000  1.0  1.9561
  Sb  Sb8  1  0.125000  0.135000  0.365000  1.0  1.9599
  H  H9  1  0.694400  0.046500  0.196700  1.0  0.123
  H  H10  1  0.072400  0.092600  0.166000  1.0  0.125
  H  H11  1  0.730100  0.230100  0.161700  1.0  0.1039
  H  H12  1  0.737700  0.261900  0.075300  1.0  0.1223
  H  H13  1  0.412100  0.192300  0.287700  1.0  0.118
  H  H14  1  0.310900  0.232100  0.204100  1.0  0.1221
  H  H15  1  0.391600  0.269000  0.075400  1.0  0.1196
  H  H16  1  0.573500  0.266000  0.030400  1.0  0.1185
  H  H17  1  0.487500  0.929900  0.247700  1.0  0.1104
  H  H18  1  0.533500  0.987600  0.269800  1.0  0.1157
  H  H19  1  0.600200  0.895400  0.265200  1.0  0.1397
  H  H20  1  0.682300  0.834900  0.111900  1.0  0.1067
  H  H21  1  0.654400  0.901200  0.049400  1.0  0.121
  H  H22  1  0.556800  0.880500  0.117900  1.0  0.121
  H  H23  1  0.509100  0.062400  0.170000  1.0  0.107
  H  H24  1  0.550200  0.029700  0.083500  1.0  0.1157
  H  H25  1  0.630300  0.054400  0.109800  1.0  0.1037
  H  H26  1  0.937600  0.953500  0.803300  1.0  0.1217
  H  H27  1  0.331000  0.907400  0.834000  1.0  0.1239
  H  H28  1  0.121900  0.769900  0.838300  1.0  0.1075
  H  H29  1  0.074900  0.738100  0.924700  1.0  0.1243
  H  H30  1  0.892100  0.807700  0.712300  1.0  0.1186
  H  H31  1  0.747100  0.767900  0.795900  1.0  0.118
  H  H32  1  0.736000  0.731000  0.924600  1.0  0.1192
  H  H33  1  0.869900  0.734000  0.969600  1.0  0.1203
  H  H34  1  0.665100  0.070100  0.752300  1.0  0.1108
  H  H35  1  0.790900  0.012400  0.730200  1.0  0.1161
  H  H36  1  0.760800  0.104600  0.734800  1.0  0.1394
  H  H37  1  0.629100  0.165100  0.888100  1.0  0.1063
  H  H38  1  0.605000  0.098800  0.950600  1.0  0.1208
  H  H39  1  0.555200  0.119500  0.882100  1.0  0.1167
  H  H40  1  0.741500  0.937600  0.830000  1.0  0.108
  H  H41  1  0.663400  0.970300  0.916500  1.0  0.1149
  H  H42  1  0.794500  0.945600  0.890200  1.0  0.104
  H  H43  1  0.108900  0.196700  0.953500  1.0  0.1221
  H  H44  1  0.761600  0.166000  0.907400  1.0  0.1229
  H  H45  1  0.108200  0.161700  0.769900  1.0  0.1071
  H  H46  1  0.187000  0.075300  0.738100  1.0  0.1238
  H  H47  1  0.300200  0.287700  0.807700  1.0  0.1199
  H  H48  1  0.485000  0.204100  0.767900  1.0  0.118
  H  H49  1  0.533000  0.075400  0.731000  1.0  0.1207
  H  H50  1  0.396100  0.030400  0.734000  1.0  0.1188
  H  H51  1  0.264800  0.247700  0.070100  1.0  0.108
  H  H52  1  0.196700  0.269800  0.012400  1.0  0.1155
  H  H53  1  0.134600  0.265200  0.104600  1.0  0.1392
  H  H54  1  0.205800  0.111900  0.165100  1.0  0.1065
  H  H55  1  0.296200  0.049400  0.098800  1.0  0.1251
  H  H56  1  0.325300  0.117900  0.119500  1.0  0.1191
  H  H57  1  0.320900  0.170000  0.937600  1.0  0.1064
  H  H58  1  0.366300  0.083500  0.970300  1.0  0.1169
  H  H59  1  0.259900  0.109800  0.945600  1.0  0.1036
  H  H60  1  0.259100  0.803300  0.046500  1.0  0.1237
  H  H61  1  0.835000  0.834000  0.092600  1.0  0.1227
  H  H62  1  0.039800  0.838300  0.230100  1.0  0.1068
  H  H63  1  0.000400  0.924700  0.261900  1.0  0.124
  H  H64  1  0.395600  0.712300  0.192300  1.0  0.1201
  H  H65  1  0.457000  0.795900  0.232100  1.0  0.1186
  H  H66  1  0.339400  0.924600  0.269000  1.0  0.1194
  H  H67  1  0.160500  0.969600  0.266000  1.0  0.1193
  H  H68  1  0.582600  0.752300  0.929900  1.0  0.1126
  H  H69  1  0.478900  0.730200  0.987600  1.0  0.115
  H  H70  1  0.504400  0.734800  0.895400  1.0  0.1389
  H  H71  1  0.482800  0.888100  0.834900  1.0  0.1077
  H  H72  1  0.444400  0.950600  0.901200  1.0  0.1258
  H  H73  1  0.562700  0.882100  0.880500  1.0  0.1171
  H  H74  1  0.428500  0.830000  0.062400  1.0  0.1081
  H  H75  1  0.420100  0.916500  0.029700  1.0  0.1158
  H  H76  1  0.315300  0.890200  0.054400  1.0  0.1035
  H  H77  1  0.312400  0.696700  0.546500  1.0  0.1232
  H  H78  1  0.919000  0.666000  0.592600  1.0  0.1233
  H  H79  1  0.128100  0.661700  0.730100  1.0  0.1075
  H  H80  1  0.175100  0.575300  0.761900  1.0  0.1247
  H  H81  1  0.357900  0.787700  0.692300  1.0  0.1198
  H  H82  1  0.502900  0.704100  0.732100  1.0  0.1185
  H  H83  1  0.514000  0.575400  0.769000  1.0  0.1196
  H  H84  1  0.380100  0.530400  0.766000  1.0  0.1192
  H  H85  1  0.584900  0.747700  0.429900  1.0  0.1117
  H  H86  1  0.459100  0.769800  0.487600  1.0  0.1149
  H  H87  1  0.489200  0.765200  0.395400  1.0  0.1389
  H  H88  1  0.620900  0.611900  0.334900  1.0  0.1077
  H  H89  1  0.645000  0.549400  0.401200  1.0  0.124
  H  H90  1  0.694800  0.617900  0.380500  1.0  0.1174
  H  H91  1  0.508500  0.670000  0.562400  1.0  0.107
  H  H92  1  0.586600  0.583500  0.529700  1.0  0.1163
  H  H93  1  0.455500  0.609800  0.554400  1.0  0.1033
  H  H94  1  0.555600  0.303300  0.453500  1.0  0.1213
  H  H95  1  0.177600  0.334000  0.407400  1.0  0.1223
  H  H96  1  0.519900  0.338300  0.269900  1.0  0.106
  H  H97  1  0.512300  0.424700  0.238100  1.0  0.1241
  H  H98  1  0.837900  0.212300  0.307700  1.0  0.1201
  H  H99  1  0.939100  0.295900  0.267900  1.0  0.118
  H  H100  1  0.858400  0.424600  0.231000  1.0  0.1195
  H  H101  1  0.676500  0.469600  0.234000  1.0  0.1194
  H  H102  1  0.762500  0.252300  0.570100  1.0  0.1091
  H  H103  1  0.716500  0.230200  0.512400  1.0  0.1152
  H  H104  1  0.649800  0.234800  0.604600  1.0  0.1395
  H  H105  1  0.567700  0.388100  0.665100  1.0  0.1065
  H  H106  1  0.595600  0.450600  0.598800  1.0  0.1236
  H  H107  1  0.693200  0.382100  0.619500  1.0  0.119
  H  H108  1  0.740900  0.330000  0.437600  1.0  0.1065
  H  H109  1  0.699800  0.416500  0.470300  1.0  0.1171
  H  H110  1  0.619700  0.390200  0.445600  1.0  0.1038
  H  H111  1  0.990900  0.453500  0.696700  1.0  0.1233
  H  H112  1  0.415000  0.407400  0.666000  1.0  0.1251
  H  H113  1  0.210200  0.269900  0.661700  1.0  0.1042
  H  H114  1  0.249600  0.238100  0.575300  1.0  0.1232
  H  H115  1  0.854400  0.307700  0.787700  1.0  0.1182
  H  H116  1  0.793000  0.267900  0.704100  1.0  0.1218
  H  H117  1  0.910600  0.231000  0.575400  1.0  0.1205
  H  H118  1  0.089500  0.234000  0.530400  1.0  0.1182
  H  H119  1  0.667400  0.570100  0.747700  1.0  0.1104
  H  H120  1  0.771100  0.512400  0.769800  1.0  0.1165
  H  H121  1  0.745600  0.604600  0.765200  1.0  0.1392
  H  H122  1  0.767200  0.665100  0.611900  1.0  0.1067
  H  H123  1  0.805600  0.598800  0.549400  1.0  0.1222
  H  H124  1  0.687300  0.619500  0.617900  1.0  0.1214
  H  H125  1  0.821500  0.437600  0.670000  1.0  0.1077
  H  H126  1  0.829900  0.470300  0.583500  1.0  0.1161
  H  H127  1  0.934700  0.445600  0.609800  1.0  0.104
  H  H128  1  0.141100  0.546500  0.303300  1.0  0.1221
  H  H129  1  0.488400  0.592600  0.334000  1.0  0.1241
  H  H130  1  0.141800  0.730100  0.338300  1.0  0.1079
  H  H131  1  0.063000  0.761900  0.424700  1.0  0.1227
  H  H132  1  0.949800  0.692300  0.212300  1.0  0.118
  H  H133  1  0.765000  0.732100  0.295900  1.0  0.1185
  H  H134  1  0.717000  0.769000  0.424600  1.0  0.1186
  H  H135  1  0.853900  0.766000  0.469600  1.0  0.12
  H  H136  1  0.985200  0.429900  0.252300  1.0  0.1108
  H  H137  1  0.053300  0.487600  0.230200  1.0  0.1166
  H  H138  1  0.115400  0.395400  0.234800  1.0  0.139
  H  H139  1  0.044200  0.334900  0.388100  1.0  0.1067
  H  H140  1  0.953800  0.401200  0.450600  1.0  0.1232
  H  H141  1  0.924700  0.380500  0.382100  1.0  0.1161
  H  H142  1  0.929100  0.562400  0.330000  1.0  0.1085
  H  H143  1  0.883700  0.529700  0.416500  1.0  0.1145
  H  H144  1  0.990100  0.554400  0.390200  1.0  0.1036
  C  C145  1  0.941500  0.115900  0.131300  1.0  -0.0961
  C  C146  1  0.900900  0.147700  0.071300  1.0  0.2257
  C  C147  1  0.858900  0.995000  0.177800  1.0  -0.0582
  C  C148  1  0.757500  0.001300  0.176100  1.0  -0.0649
  C  C149  1  0.748700  0.941300  0.144300  1.0  -0.0113
  C  C150  1  0.044600  0.114300  0.124900  1.0  -0.0215
  C  C151  1  0.721700  0.220800  0.113400  1.0  -0.0378
  C  C152  1  0.601000  0.227300  0.132300  1.0  0.1303
  C  C153  1  0.444900  0.207300  0.235500  1.0  0.1608
  C  C154  1  0.384700  0.230900  0.185900  1.0  -0.0816
  C  C155  1  0.432700  0.252800  0.109400  1.0  -0.0987
  C  C156  1  0.540800  0.251000  0.082600  1.0  -0.0565
  C  C157  1  0.618900  0.946900  0.156300  1.0  0.125
  C  C158  1  0.554300  0.939200  0.242400  1.0  -0.3488
  C  C159  1  0.629000  0.885400  0.104200  1.0  -0.3577
  C  C160  1  0.573000  0.031000  0.127200  1.0  -0.3252
  C  C161  1  0.188700  0.884100  0.868700  1.0  -0.1003
  C  C162  1  0.119900  0.852300  0.928700  1.0  0.2274
  C  C163  1  0.031700  0.005000  0.822200  1.0  -0.0528
  C  C164  1  0.934900  0.998700  0.823900  1.0  -0.0677
  C  C165  1  0.834300  0.058700  0.855700  1.0  -0.008
  C  C166  1  0.283800  0.885700  0.875100  1.0  -0.0211
  C  C167  1  0.055900  0.779200  0.886600  1.0  -0.036
  C  C168  1  0.960600  0.772700  0.867700  1.0  0.1314
  C  C169  1  0.887700  0.792700  0.764500  1.0  0.158
  C  C170  1  0.801500  0.769100  0.814100  1.0  -0.0829
  C  C171  1  0.794900  0.747200  0.890600  1.0  -0.0987
  C  C172  1  0.874400  0.749000  0.917400  1.0  -0.0556
  C  C173  1  0.722100  0.053100  0.843700  1.0  0.1228
  C  C174  1  0.735900  0.060800  0.757600  1.0  -0.3502
  C  C175  1  0.618600  0.114600  0.895800  1.0  -0.359
  C  C176  1  0.731200  0.969000  0.872800  1.0  -0.3249
  C  C177  1  0.927200  0.131300  0.884100  1.0  -0.0987
  C  C178  1  0.027800  0.071300  0.852300  1.0  0.2291
  C  C179  1  0.963300  0.177800  0.005000  1.0  -0.0581
  C  C180  1  0.066400  0.176100  0.998700  1.0  -0.0719
  C  C181  1  0.107000  0.144300  0.058700  1.0  -0.0134
  C  C182  1  0.830500  0.124900  0.885700  1.0  -0.0189
  C  C183  1  0.164900  0.113400  0.779200  1.0  -0.0399
  C  C184  1  0.266700  0.132300  0.772700  1.0  0.1314
  C  C185  1  0.319600  0.235500  0.792700  1.0  0.1567
  C  C186  1  0.429400  0.185900  0.769100  1.0  -0.0823
  C  C187  1  0.457900  0.109400  0.747200  1.0  -0.1052
  C  C188  1  0.376600  0.082600  0.749000  1.0  -0.0496
  C  C189  1  0.224800  0.156300  0.053100  1.0  0.1231
  C  C190  1  0.203300  0.242400  0.060800  1.0  -0.349
  C  C191  1  0.266800  0.104200  0.114600  1.0  -0.3594
  C  C192  1  0.299800  0.127200  0.969000  1.0  -0.3309
  C  C193  1  0.942600  0.868700  0.115900  1.0  -0.0986
  C  C194  1  0.951400  0.928700  0.147700  1.0  0.2285
  C  C195  1  0.146100  0.822200  0.995000  1.0  -0.0569
  C  C196  1  0.241200  0.823900  0.001300  1.0  -0.0742
  C  C197  1  0.310000  0.855700  0.941300  1.0  -0.0109
  C  C198  1  0.841100  0.875100  0.114300  1.0  -0.0181
  C  C199  1  0.057500  0.886600  0.220800  1.0  -0.0382
  C  C200  1  0.171700  0.867700  0.227300  1.0  0.1312
  C  C201  1  0.347800  0.764500  0.207300  1.0  0.1567
  C  C202  1  0.384400  0.814100  0.230900  1.0  -0.082
  C  C203  1  0.314500  0.890600  0.252800  1.0  -0.1035
  C  C204  1  0.208200  0.917400  0.251000  1.0  -0.0557
  C  C205  1  0.434200  0.843700  0.946900  1.0  0.1228
  C  C206  1  0.506500  0.757600  0.939200  1.0  -0.3498
  C  C207  1  0.485600  0.895800  0.885400  1.0  -0.3572
  C  C208  1  0.396000  0.872800  0.031000  1.0  -0.3302
  C  C209  1  0.061300  0.631300  0.615900  1.0  -0.0992
  C  C210  1  0.130100  0.571300  0.647700  1.0  0.2279
  C  C211  1  0.218300  0.677800  0.495000  1.0  -0.0538
  C  C212  1  0.315100  0.676100  0.501300  1.0  -0.0735
  C  C213  1  0.415700  0.644300  0.441300  1.0  -0.0121
  C  C214  1  0.966200  0.624900  0.614300  1.0  -0.0187
  C  C215  1  0.194100  0.613400  0.720800  1.0  -0.0383
  C  C216  1  0.289400  0.632300  0.727300  1.0  0.1313
  C  C217  1  0.362300  0.735500  0.707300  1.0  0.157
  C  C218  1  0.448500  0.685900  0.730900  1.0  -0.082
  C  C219  1  0.455100  0.609400  0.752800  1.0  -0.1033
  C  C220  1  0.375600  0.582600  0.751000  1.0  -0.0557
  C  C221  1  0.527900  0.656300  0.446900  1.0  0.1228
  C  C222  1  0.514100  0.742400  0.439200  1.0  -0.3497
  C  C223  1  0.631400  0.604200  0.385400  1.0  -0.357
  C  C224  1  0.518800  0.627200  0.531000  1.0  -0.3316
  C  C225  1  0.308500  0.368700  0.384100  1.0  -0.0984
  C  C226  1  0.349100  0.428700  0.352300  1.0  0.2287
  C  C227  1  0.391100  0.322200  0.505000  1.0  -0.059
  C  C228  1  0.492500  0.323900  0.498700  1.0  -0.0736
  C  C229  1  0.501300  0.355700  0.558700  1.0  -0.0136
  C  C230  1  0.205400  0.375100  0.385700  1.0  -0.0188
  C  C231  1  0.528300  0.386600  0.279200  1.0  -0.0398
  C  C232  1  0.649000  0.367700  0.272700  1.0  0.1312
  C  C233  1  0.805100  0.264500  0.292700  1.0  0.1569
  C  C234  1  0.865300  0.314100  0.269100  1.0  -0.0821
  C  C235  1  0.817300  0.390600  0.247200  1.0  -0.1054
  C  C236  1  0.709200  0.417400  0.249000  1.0  -0.0494
  C  C237  1  0.631100  0.343700  0.553100  1.0  0.1232
  C  C238  1  0.695700  0.257600  0.560800  1.0  -0.3489
  C  C239  1  0.621000  0.395800  0.614600  1.0  -0.3595
  C  C240  1  0.677000  0.372800  0.469000  1.0  -0.33
  C  C241  1  0.307400  0.384100  0.631300  1.0  -0.0965
  C  C242  1  0.298600  0.352300  0.571300  1.0  0.2264
  C  C243  1  0.103900  0.505000  0.677800  1.0  -0.0576
  C  C244  1  0.008800  0.498700  0.676100  1.0  -0.065
  C  C245  1  0.940000  0.558700  0.644300  1.0  -0.0106
  C  C246  1  0.408900  0.385700  0.624900  1.0  -0.0217
  C  C247  1  0.192500  0.279200  0.613400  1.0  -0.0377
  C  C248  1  0.078300  0.272700  0.632300  1.0  0.1302
  C  C249  1  0.902200  0.292700  0.735500  1.0  0.1606
  C  C250  1  0.865600  0.269100  0.685900  1.0  -0.0817
  C  C251  1  0.935500  0.247200  0.609400  1.0  -0.0986
  C  C252  1  0.041800  0.249000  0.582600  1.0  -0.0589
  C  C253  1  0.815800  0.553100  0.656300  1.0  0.1253
  C  C254  1  0.743500  0.560800  0.742400  1.0  -0.3487
  C  C255  1  0.764400  0.614600  0.604200  1.0  -0.3583
  C  C256  1  0.854000  0.469000  0.627200  1.0  -0.3256
  C  C257  1  0.322800  0.615900  0.368700  1.0  -0.1004
  C  C258  1  0.222200  0.647700  0.428700  1.0  0.2264
  C  C259  1  0.286700  0.495000  0.322200  1.0  -0.0529
  C  C260  1  0.183600  0.501300  0.323900  1.0  -0.068
  C  C261  1  0.143000  0.441300  0.355700  1.0  -0.0071
  C  C262  1  0.419500  0.614300  0.375100  1.0  -0.0208
  C  C263  1  0.085100  0.720800  0.386600  1.0  -0.036
  C  C264  1  0.983300  0.727300  0.367700  1.0  0.1317
  C  C265  1  0.930400  0.707300  0.264500  1.0  0.1583
  C  C266  1  0.820600  0.730900  0.314100  1.0  -0.0824
  C  C267  1  0.792100  0.752800  0.390600  1.0  -0.0987
  C  C268  1  0.873400  0.751000  0.417400  1.0  -0.055
  C  C269  1  0.025200  0.446900  0.343700  1.0  0.1226
  C  C270  1  0.046700  0.439200  0.257600  1.0  -0.3505
  C  C271  1  0.983200  0.385400  0.395800  1.0  -0.3578
  C  C272  1  0.950200  0.531000  0.372800  1.0  -0.3253
  S  S273  1  0.871550  0.073060  0.217040  1.0  -0.0225
  S  S274  1  0.161650  0.926940  0.782960  1.0  -0.0209
  S  S275  1  0.911410  0.217040  0.926940  1.0  -0.0157
  S  S276  1  0.055390  0.782960  0.073060  1.0  -0.0132
  S  S277  1  0.088350  0.717040  0.573060  1.0  -0.0162
  S  S278  1  0.378450  0.282960  0.426940  1.0  -0.0126
  S  S279  1  0.194610  0.426940  0.717040  1.0  -0.0223
  S  S280  1  0.338590  0.573060  0.282960  1.0  -0.02
  N  N281  1  0.553000  0.205500  0.208700  1.0  -0.3921
  N  N282  1  0.967200  0.794500  0.791300  1.0  -0.3946
  N  N283  1  0.238300  0.208700  0.794500  1.0  -0.3963
  N  N284  1  0.241500  0.791300  0.205500  1.0  -0.3932
  N  N285  1  0.282800  0.708700  0.705500  1.0  -0.3942
  N  N286  1  0.697000  0.291300  0.294500  1.0  -0.3955
  N  N287  1  0.008500  0.294500  0.708700  1.0  -0.3912
  N  N288  1  0.011700  0.705500  0.291300  1.0  -0.3954
  O  O289  1  0.795700  0.150400  0.083800  1.0  -0.3527
  O  O290  1  0.029900  0.849600  0.916200  1.0  -0.3539
  O  O291  1  0.120500  0.083800  0.849600  1.0  -0.3515
  O  O292  1  0.053900  0.916200  0.150400  1.0  -0.3519
  O  O293  1  0.220100  0.583800  0.650400  1.0  -0.3521
  O  O294  1  0.454300  0.416200  0.349600  1.0  -0.3517
  O  O295  1  0.196100  0.349600  0.583800  1.0  -0.3528
  O  O296  1  0.129500  0.650400  0.416200  1.0  -0.3539
  F  F297  1  0.407100  0.400700  0.814300  1.0  -0.4606
  F  F298  1  0.433600  0.302200  0.934000  1.0  -0.5008
  F  F299  1  0.627900  0.314300  0.900700  1.0  -0.4591
  F  F300  1  0.580200  0.434000  0.802200  1.0  -0.5046
  F  F301  1  0.430600  0.444400  0.944400  1.0  -0.4377
  F  F302  1  0.590600  0.284400  0.784400  1.0  -0.4569
  F  F303  1  0.622100  0.599300  0.185700  1.0  -0.4584
  F  F304  1  0.669800  0.697800  0.066000  1.0  -0.5056
  F  F305  1  0.842900  0.685700  0.099300  1.0  -0.4593
  F  F306  1  0.816400  0.566000  0.197800  1.0  -0.5041
  F  F307  1  0.819400  0.555600  0.055600  1.0  -0.4386
  F  F308  1  0.659400  0.715600  0.215600  1.0  -0.4572
  F  F309  1  0.778600  0.814300  0.599300  1.0  -0.46
  F  F310  1  0.632400  0.934000  0.697800  1.0  -0.5045
  F  F311  1  0.471400  0.900700  0.685700  1.0  -0.4579
  F  F312  1  0.617600  0.802200  0.566000  1.0  -0.5026
  F  F313  1  0.625000  0.944400  0.555600  1.0  -0.4403
  F  F314  1  0.625000  0.784400  0.715600  1.0  -0.4573
  F  F315  1  0.192200  0.185700  0.400700  1.0  -0.4585
  F  F316  1  0.264200  0.066000  0.302200  1.0  -0.5038
  F  F317  1  0.057800  0.099300  0.314300  1.0  -0.46
  F  F318  1  0.985800  0.197800  0.434000  1.0  -0.5035
  F  F319  1  0.125000  0.055600  0.444400  1.0  -0.4372
  F  F320  1  0.125000  0.215600  0.284400  1.0  -0.4564
