# generated using pymatgen
data_Zn2H17C28N5O8
_symmetry_space_group_name_H-M   'P 1'
_cell_length_a   13.76330000
_cell_length_b   16.60270000
_cell_length_c   19.23030000
_cell_angle_alpha   115.57400000
_cell_angle_beta   103.77200000
_cell_angle_gamma   90.00000000
_symmetry_Int_Tables_number   1
_chemical_formula_structural   Zn2H17C28N5O8
_chemical_formula_sum   'Zn8 H68 C112 N20 O32'
_cell_volume   3823.23099971
_cell_formula_units_Z   4
loop_
 _symmetry_equiv_pos_site_id
 _symmetry_equiv_pos_as_xyz
  1  'x, y, z'
loop_
 _atom_site_type_symbol
 _atom_site_label
 _atom_site_symmetry_multiplicity
 _atom_site_fract_x
 _atom_site_fract_y
 _atom_site_fract_z
 _atom_site_occupancy
 _atom_site_charge
  Zn  Zn1  1  0.755880  0.080050  0.651120  1.0  0.9249
  Zn  Zn2  1  0.816300  0.158550  0.827540  1.0  0.9251
  Zn  Zn3  1  0.255880  0.571070  0.651120  1.0  0.9255
  Zn  Zn4  1  0.316300  0.668990  0.827540  1.0  0.9248
  Zn  Zn5  1  0.744120  0.428930  0.348880  1.0  0.9253
  Zn  Zn6  1  0.683700  0.331010  0.172460  1.0  0.9244
  Zn  Zn7  1  0.244120  0.919950  0.348880  1.0  0.9249
  Zn  Zn8  1  0.183700  0.841450  0.172460  1.0  0.9243
  H  H9  1  0.058000  0.003000  0.843400  1.0  0.1017
  H  H10  1  0.155900  0.889600  0.842000  1.0  0.1056
  H  H11  1  0.068800  0.767800  0.601800  1.0  0.1057
  H  H12  1  0.974300  0.883900  0.603000  1.0  0.1128
  H  H13  1  0.509400  0.474500  0.878000  1.0  0.1084
  H  H14  1  0.416400  0.351100  0.637200  1.0  0.104
  H  H15  1  0.514000  0.237000  0.635400  1.0  0.1016
  H  H16  1  0.608500  0.361700  0.876000  1.0  0.103
  H  H17  1  0.879400  0.056300  0.918400  1.0  0.0801
  H  H18  1  0.977300  0.076600  0.041200  1.0  0.1272
  H  H19  1  0.964100  0.341900  0.120600  1.0  0.1325
  H  H20  1  0.868600  0.313200  0.995200  1.0  0.0848
  H  H21  1  0.205600  0.184800  0.283800  1.0  0.1081
  H  H22  1  0.029600  0.424200  0.374000  1.0  0.1267
  H  H23  1  0.084500  0.529000  0.506400  1.0  0.077
  H  H24  1  0.338400  0.425800  0.533400  1.0  0.0921
  H  H25  1  0.292000  0.319500  0.401000  1.0  0.1182
  H  H26  1  0.558000  0.840400  0.843400  1.0  0.1031
  H  H27  1  0.655900  0.952400  0.842000  1.0  0.1037
  H  H28  1  0.568800  0.834000  0.601800  1.0  0.1054
  H  H29  1  0.474300  0.719100  0.603000  1.0  0.1119
  H  H30  1  0.009400  0.403500  0.878000  1.0  0.1072
  H  H31  1  0.916400  0.286100  0.637200  1.0  0.1036
  H  H32  1  0.014000  0.398400  0.635400  1.0  0.1021
  H  H33  1  0.108500  0.514300  0.876000  1.0  0.1011
  H  H34  1  0.379400  0.862100  0.918400  1.0  0.0799
  H  H35  1  0.477300  0.964600  0.041200  1.0  0.1283
  H  H36  1  0.464100  0.778700  0.120600  1.0  0.1321
  H  H37  1  0.368600  0.682000  0.995200  1.0  0.0862
  H  H38  1  0.705600  0.099000  0.283800  1.0  0.1084
  H  H39  1  0.529600  0.949800  0.374000  1.0  0.1265
  H  H40  1  0.584500  0.977400  0.506400  1.0  0.0773
  H  H41  1  0.838400  0.107600  0.533400  1.0  0.0919
  H  H42  1  0.792000  0.081500  0.401000  1.0  0.1175
  H  H43  1  0.442000  0.159600  0.156600  1.0  0.1036
  H  H44  1  0.344100  0.047600  0.158000  1.0  0.1041
  H  H45  1  0.431200  0.166000  0.398200  1.0  0.1052
  H  H46  1  0.525700  0.280900  0.397000  1.0  0.1122
  H  H47  1  0.990600  0.596500  0.122000  1.0  0.107
  H  H48  1  0.083600  0.713900  0.362800  1.0  0.1034
  H  H49  1  0.986000  0.601600  0.364600  1.0  0.1013
  H  H50  1  0.891500  0.485700  0.124000  1.0  0.1011
  H  H51  1  0.620600  0.137900  0.081600  1.0  0.0791
  H  H52  1  0.522700  0.035400  0.958800  1.0  0.1278
  H  H53  1  0.535900  0.221300  0.879400  1.0  0.1326
  H  H54  1  0.631400  0.318000  0.004800  1.0  0.0863
  H  H55  1  0.294400  0.901000  0.716200  1.0  0.1086
  H  H56  1  0.470400  0.050200  0.626000  1.0  0.1267
  H  H57  1  0.415500  0.022600  0.493600  1.0  0.0771
  H  H58  1  0.161600  0.892400  0.466600  1.0  0.092
  H  H59  1  0.208000  0.918500  0.599000  1.0  0.1172
  H  H60  1  0.942000  0.997000  0.156600  1.0  0.102
  H  H61  1  0.844100  0.110400  0.158000  1.0  0.1057
  H  H62  1  0.931200  0.232200  0.398200  1.0  0.1058
  H  H63  1  0.025700  0.116100  0.397000  1.0  0.1123
  H  H64  1  0.490600  0.525500  0.122000  1.0  0.1068
  H  H65  1  0.583600  0.648900  0.362800  1.0  0.1043
  H  H66  1  0.486000  0.763000  0.364600  1.0  0.1019
  H  H67  1  0.391500  0.638300  0.124000  1.0  0.1024
  H  H68  1  0.120600  0.943700  0.081600  1.0  0.0798
  H  H69  1  0.022700  0.923400  0.958800  1.0  0.1276
  H  H70  1  0.035900  0.658100  0.879400  1.0  0.1322
  H  H71  1  0.131400  0.686800  0.004800  1.0  0.0856
  H  H72  1  0.794400  0.815200  0.716200  1.0  0.1075
  H  H73  1  0.970400  0.575800  0.626000  1.0  0.1269
  H  H74  1  0.915500  0.471000  0.493600  1.0  0.0776
  H  H75  1  0.661600  0.574200  0.466600  1.0  0.0919
  H  H76  1  0.708000  0.680500  0.599000  1.0  0.1174
  C  C77  1  0.178600  0.739620  0.722280  1.0  0.6758
  C  C78  1  0.931300  0.021680  0.725000  1.0  0.6886
  C  C79  1  0.003100  0.953270  0.723200  1.0  -0.128
  C  C80  1  0.059500  0.955010  0.794320  1.0  -0.0487
  C  C81  1  0.117400  0.887340  0.793600  1.0  -0.0601
  C  C82  1  0.119350  0.815440  0.721560  1.0  -0.1398
  C  C83  1  0.066200  0.815180  0.650860  1.0  -0.0685
  C  C84  1  0.009200  0.884140  0.651580  1.0  -0.0613
  C  C85  1  0.393800  0.500690  0.757840  1.0  0.6926
  C  C86  1  0.454460  0.425550  0.757700  1.0  -0.1178
  C  C87  1  0.511300  0.427060  0.828920  1.0  -0.0612
  C  C88  1  0.455600  0.353520  0.685560  1.0  -0.0565
  C  C89  1  0.642330  0.218530  0.753180  1.0  0.673
  C  C90  1  0.572300  0.288040  0.755300  1.0  -0.1329
  C  C91  1  0.513900  0.285440  0.684460  1.0  -0.0603
  C  C92  1  0.569800  0.359610  0.827700  1.0  -0.0618
  C  C93  1  0.899000  0.115090  0.959560  1.0  0.1736
  C  C94  1  0.956800  0.126490  0.032920  1.0  -0.209
  C  C95  1  0.984000  0.212440  0.093980  1.0  0.1729
  C  C96  1  0.949300  0.282710  0.079760  1.0  -0.1957
  C  C97  1  0.892600  0.264820  0.004580  1.0  0.1776
  C  C98  1  0.123400  0.291580  0.290860  1.0  0.1372
  C  C99  1  0.156600  0.208280  0.256960  1.0  0.046
  C  C100  1  0.154500  0.359040  0.373660  1.0  0.0902
  C  C101  1  0.092800  0.422960  0.405620  1.0  -0.1682
  C  C102  1  0.126000  0.484840  0.484860  1.0  0.1702
  C  C103  1  0.275000  0.424820  0.500840  1.0  0.1628
  C  C104  1  0.247700  0.360970  0.421740  1.0  -0.1995
  C  C105  1  0.678600  0.982660  0.722280  1.0  0.678
  C  C106  1  0.431300  0.703320  0.725000  1.0  0.6915
  C  C107  1  0.503100  0.769930  0.723200  1.0  -0.1283
  C  C108  1  0.559500  0.839310  0.794320  1.0  -0.0524
  C  C109  1  0.617400  0.906260  0.793600  1.0  -0.0595
  C  C110  1  0.619350  0.906120  0.721560  1.0  -0.1401
  C  C111  1  0.566200  0.835680  0.650860  1.0  -0.0686
  C  C112  1  0.509200  0.767440  0.651580  1.0  -0.0637
  C  C113  1  0.893800  0.257150  0.757840  1.0  0.6917
  C  C114  1  0.954460  0.332150  0.757700  1.0  -0.1179
  C  C115  1  0.011300  0.401860  0.828920  1.0  -0.0624
  C  C116  1  0.955600  0.332040  0.685560  1.0  -0.0548
  C  C117  1  0.142330  0.534650  0.753180  1.0  0.674
  C  C118  1  0.072300  0.467260  0.755300  1.0  -0.1334
  C  C119  1  0.013900  0.399020  0.684460  1.0  -0.0625
  C  C120  1  0.069800  0.468090  0.827700  1.0  -0.0622
  C  C121  1  0.399000  0.844470  0.959560  1.0  0.174
  C  C122  1  0.456800  0.906430  0.032920  1.0  -0.2075
  C  C123  1  0.484000  0.881540  0.093980  1.0  0.1728
  C  C124  1  0.449300  0.797050  0.079760  1.0  -0.194
  C  C125  1  0.392600  0.739760  0.004580  1.0  0.1758
  C  C126  1  0.623400  0.999280  0.290860  1.0  0.1314
  C  C127  1  0.656600  0.048680  0.256960  1.0  0.0464
  C  C128  1  0.654500  0.014620  0.373660  1.0  0.0907
  C  C129  1  0.592800  0.982660  0.405620  1.0  -0.1668
  C  C130  1  0.626000  0.000020  0.484860  1.0  0.1735
  C  C131  1  0.775000  0.076020  0.500840  1.0  0.1634
  C  C132  1  0.747700  0.060770  0.421740  1.0  -0.1985
  C  C133  1  0.321400  0.017340  0.277720  1.0  0.6777
  C  C134  1  0.568700  0.296680  0.275000  1.0  0.6917
  C  C135  1  0.496900  0.230070  0.276800  1.0  -0.1288
  C  C136  1  0.440500  0.160690  0.205680  1.0  -0.0509
  C  C137  1  0.382600  0.093740  0.206400  1.0  -0.0579
  C  C138  1  0.380650  0.093880  0.278440  1.0  -0.1409
  C  C139  1  0.433800  0.164320  0.349140  1.0  -0.0721
  C  C140  1  0.490800  0.232560  0.348420  1.0  -0.0632
  C  C141  1  0.106200  0.742850  0.242160  1.0  0.6924
  C  C142  1  0.045540  0.667850  0.242300  1.0  -0.118
  C  C143  1  0.988700  0.598140  0.171080  1.0  -0.0621
  C  C144  1  0.044400  0.667960  0.314440  1.0  -0.0523
  C  C145  1  0.857670  0.465350  0.246820  1.0  0.6741
  C  C146  1  0.927700  0.532740  0.244700  1.0  -0.1329
  C  C147  1  0.986100  0.600980  0.315540  1.0  -0.0615
  C  C148  1  0.930200  0.531910  0.172300  1.0  -0.0612
  C  C149  1  0.601000  0.155530  0.040440  1.0  0.1752
  C  C150  1  0.543200  0.093570  0.967080  1.0  -0.2088
  C  C151  1  0.516000  0.118460  0.906020  1.0  0.1736
  C  C152  1  0.550700  0.202950  0.920240  1.0  -0.1952
  C  C153  1  0.607400  0.260240  0.995420  1.0  0.176
  C  C154  1  0.376600  0.000720  0.709140  1.0  0.1322
  C  C155  1  0.343400  0.951320  0.743040  1.0  0.0465
  C  C156  1  0.345500  0.985380  0.626340  1.0  0.0888
  C  C157  1  0.407200  0.017340  0.594380  1.0  -0.1674
  C  C158  1  0.374000  0.999980  0.515140  1.0  0.1739
  C  C159  1  0.225000  0.923980  0.499160  1.0  0.1625
  C  C160  1  0.252300  0.939230  0.578260  1.0  -0.1988
  C  C161  1  0.821400  0.260380  0.277720  1.0  0.6777
  C  C162  1  0.068700  0.978320  0.275000  1.0  0.6883
  C  C163  1  0.996900  0.046730  0.276800  1.0  -0.1285
  C  C164  1  0.940500  0.044990  0.205680  1.0  -0.0501
  C  C165  1  0.882600  0.112660  0.206400  1.0  -0.0592
  C  C166  1  0.880650  0.184560  0.278440  1.0  -0.1392
  C  C167  1  0.933800  0.184820  0.349140  1.0  -0.07
  C  C168  1  0.990800  0.115860  0.348420  1.0  -0.0618
  C  C169  1  0.606200  0.499310  0.242160  1.0  0.693
  C  C170  1  0.545540  0.574450  0.242300  1.0  -0.1168
  C  C171  1  0.488700  0.572940  0.171080  1.0  -0.0617
  C  C172  1  0.544400  0.646480  0.314440  1.0  -0.0523
  C  C173  1  0.357670  0.781470  0.246820  1.0  0.6729
  C  C174  1  0.427700  0.711960  0.244700  1.0  -0.1332
  C  C175  1  0.486100  0.714560  0.315540  1.0  -0.0589
  C  C176  1  0.430200  0.640390  0.172300  1.0  -0.0619
  C  C177  1  0.101000  0.884910  0.040440  1.0  0.1738
  C  C178  1  0.043200  0.873510  0.967080  1.0  -0.2067
  C  C179  1  0.016000  0.787560  0.906020  1.0  0.1733
  C  C180  1  0.050700  0.717290  0.920240  1.0  -0.1939
  C  C181  1  0.107400  0.735180  0.995420  1.0  0.1772
  C  C182  1  0.876600  0.708420  0.709140  1.0  0.1314
  C  C183  1  0.843400  0.791720  0.743040  1.0  0.0465
  C  C184  1  0.845500  0.640960  0.626340  1.0  0.0888
  C  C185  1  0.907200  0.577040  0.594380  1.0  -0.1686
  C  C186  1  0.874000  0.515160  0.515140  1.0  0.1701
  C  C187  1  0.725000  0.575180  0.499160  1.0  0.1627
  C  C188  1  0.752300  0.639030  0.578260  1.0  -0.1988
  N  N189  1  0.869720  0.183060  0.944400  1.0  -0.319
  N  N190  1  0.214260  0.484950  0.532380  1.0  -0.306
  N  N191  1  0.047600  0.227150  0.169060  1.0  0.3059
  N  N192  1  0.054690  0.303480  0.235580  1.0  -0.3025
  N  N193  1  0.107000  0.166430  0.179100  1.0  -0.3351
  N  N194  1  0.369720  0.761340  0.944400  1.0  -0.3175
  N  N195  1  0.714260  0.047430  0.532380  1.0  -0.3044
  N  N196  1  0.547600  0.941910  0.169060  1.0  0.3059
  N  N197  1  0.554690  0.932100  0.235580  1.0  -0.3018
  N  N198  1  0.607000  0.012670  0.179100  1.0  -0.3374
  N  N199  1  0.630280  0.238660  0.055600  1.0  -0.3162
  N  N200  1  0.285740  0.952570  0.467620  1.0  -0.3045
  N  N201  1  0.452400  0.058090  0.830940  1.0  0.3065
  N  N202  1  0.445310  0.067900  0.764420  1.0  -0.3047
  N  N203  1  0.393000  0.987330  0.820900  1.0  -0.3316
  N  N204  1  0.130280  0.816940  0.055600  1.0  -0.3162
  N  N205  1  0.785740  0.515050  0.467620  1.0  -0.3064
  N  N206  1  0.952400  0.772850  0.830940  1.0  0.3061
  N  N207  1  0.945310  0.696520  0.764420  1.0  -0.3026
  N  N208  1  0.893000  0.833570  0.820900  1.0  -0.3339
  O  O209  1  0.176030  0.675040  0.655760  1.0  -0.587
  O  O210  1  0.225810  0.746570  0.788800  1.0  -0.5945
  O  O211  1  0.925870  0.078570  0.792240  1.0  -0.6102
  O  O212  1  0.879670  0.015800  0.659580  1.0  -0.5964
  O  O213  1  0.396500  0.564810  0.824320  1.0  -0.592
  O  O214  1  0.345220  0.493750  0.691460  1.0  -0.6081
  O  O215  1  0.696080  0.226620  0.818760  1.0  -0.5841
  O  O216  1  0.643990  0.158930  0.685380  1.0  -0.6054
  O  O217  1  0.676030  0.980720  0.655760  1.0  -0.5878
  O  O218  1  0.725810  0.042230  0.788800  1.0  -0.5951
  O  O219  1  0.425870  0.713670  0.792240  1.0  -0.6093
  O  O220  1  0.379670  0.643780  0.659580  1.0  -0.5947
  O  O221  1  0.896500  0.259510  0.824320  1.0  -0.5919
  O  O222  1  0.845220  0.197710  0.691460  1.0  -0.6076
  O  O223  1  0.196080  0.592140  0.818760  1.0  -0.5835
  O  O224  1  0.143990  0.526450  0.685380  1.0  -0.6063
  O  O225  1  0.323970  0.019280  0.344240  1.0  -0.5865
  O  O226  1  0.274190  0.957770  0.211200  1.0  -0.5952
  O  O227  1  0.574130  0.286330  0.207760  1.0  -0.6079
  O  O228  1  0.620330  0.356220  0.340420  1.0  -0.5948
  O  O229  1  0.103500  0.740490  0.175680  1.0  -0.5917
  O  O230  1  0.154780  0.802290  0.308540  1.0  -0.6077
  O  O231  1  0.803920  0.407860  0.181240  1.0  -0.583
  O  O232  1  0.856010  0.473550  0.314620  1.0  -0.6058
  O  O233  1  0.823970  0.324960  0.344240  1.0  -0.5862
  O  O234  1  0.774190  0.253430  0.211200  1.0  -0.5948
  O  O235  1  0.074130  0.921430  0.207760  1.0  -0.6091
  O  O236  1  0.120330  0.984200  0.340420  1.0  -0.5959
  O  O237  1  0.603500  0.435190  0.175680  1.0  -0.5907
  O  O238  1  0.654780  0.506250  0.308540  1.0  -0.6091
  O  O239  1  0.303920  0.773380  0.181240  1.0  -0.5843
  O  O240  1  0.356010  0.841070  0.314620  1.0  -0.6046
