# generated using pymatgen
data_CdH20C20(NO2)2
_symmetry_space_group_name_H-M   'P 1'
_cell_length_a   17.83720000
_cell_length_b   21.16400000
_cell_length_c   21.72100000
_cell_angle_alpha   90.00000000
_cell_angle_beta   90.30000000
_cell_angle_gamma   90.00000000
_symmetry_Int_Tables_number   1
_chemical_formula_structural   CdH20C20(NO2)2
_chemical_formula_sum   'Cd8 H160 C160 N16 O32'
_cell_volume   8199.70630279
_cell_formula_units_Z   8
loop_
 _symmetry_equiv_pos_site_id
 _symmetry_equiv_pos_as_xyz
  1  'x, y, z'
loop_
 _atom_site_type_symbol
 _atom_site_label
 _atom_site_symmetry_multiplicity
 _atom_site_fract_x
 _atom_site_fract_y
 _atom_site_fract_z
 _atom_site_occupancy
 _atom_site_charge
  Cd  Cd1  1  0.601990  0.340680  0.514480  1.0  1.0387
  Cd  Cd2  1  0.200360  0.915850  0.482890  1.0  0.8217
  Cd  Cd3  1  0.398010  0.840680  0.985520  1.0  1.0423
  Cd  Cd4  1  0.799640  0.415850  0.017110  1.0  0.8241
  Cd  Cd5  1  0.398010  0.659320  0.485520  1.0  1.0411
  Cd  Cd6  1  0.799640  0.084150  0.517110  1.0  0.8241
  Cd  Cd7  1  0.601990  0.159320  0.014480  1.0  1.0376
  Cd  Cd8  1  0.200360  0.584150  0.982890  1.0  0.8229
  H  H9  1  0.381500  0.894500  0.508600  1.0  0.0782
  H  H10  1  0.413000  0.962100  0.529300  1.0  0.0816
  H  H11  1  0.318400  0.972100  0.603600  1.0  0.0776
  H  H12  1  0.362900  0.907500  0.615200  1.0  0.0823
  H  H13  1  0.312800  0.818600  0.556700  1.0  0.0805
  H  H14  1  0.278400  0.812500  0.624100  1.0  0.0719
  H  H15  1  0.215600  0.744000  0.558300  1.0  0.0621
  H  H16  1  0.158200  0.796700  0.581800  1.0  0.08
  H  H17  1  0.289900  0.784500  0.465700  1.0  0.0647
  H  H18  1  0.228900  0.734400  0.442500  1.0  0.0639
  H  H19  1  0.277300  0.791500  0.360500  1.0  0.0725
  H  H20  1  0.188900  0.801900  0.366400  1.0  0.0803
  H  H21  1  0.353900  0.861300  0.416800  1.0  0.0731
  H  H22  1  0.350100  0.888600  0.348300  1.0  0.0728
  H  H23  1  0.404500  0.962600  0.415700  1.0  0.0819
  H  H24  1  0.329100  0.990500  0.385800  1.0  0.0749
  H  H25  1  0.443400  0.186500  0.402300  1.0  0.1238
  H  H26  1  0.353700  0.107600  0.403000  1.0  0.0989
  H  H27  1  0.400400  0.067800  0.579100  1.0  0.1024
  H  H28  1  0.485700  0.149500  0.581700  1.0  0.1104
  H  H29  1  0.276000  0.039400  0.530800  1.0  0.0959
  H  H30  1  0.265400  0.051100  0.458900  1.0  0.0882
  H  H31  1  0.245400  0.809900  0.809600  1.0  0.0889
  H  H32  1  0.196700  0.820000  0.713200  1.0  0.0989
  H  H33  1  0.277800  0.999500  0.701400  1.0  0.1161
  H  H34  1  0.318800  0.991500  0.803200  1.0  0.1012
  H  H35  1  0.156900  0.889900  0.629300  1.0  0.0912
  H  H36  1  0.190500  0.959800  0.625000  1.0  0.0899
  H  H37  1  0.957900  0.944100  0.418400  1.0  0.1003
  H  H38  1  0.045800  0.865400  0.400800  1.0  0.1179
  H  H39  1  0.030300  0.813500  0.581000  1.0  0.1157
  H  H40  1  0.942100  0.894100  0.595900  1.0  0.1073
  H  H41  1  0.096900  0.745500  0.506200  1.0  0.073
  H  H42  1  0.102400  0.765900  0.435400  1.0  0.0816
  H  H43  1  0.234200  0.805800  0.157400  1.0  0.0851
  H  H44  1  0.185800  0.822100  0.255200  1.0  0.1131
  H  H45  1  0.301600  0.984300  0.268700  1.0  0.0976
  H  H46  1  0.356400  0.965800  0.172900  1.0  0.1082
  H  H47  1  0.213300  0.961300  0.344700  1.0  0.1078
  H  H48  1  0.157100  0.903300  0.335500  1.0  0.1005
  H  H49  1  0.618500  0.394500  0.991400  1.0  0.077
  H  H50  1  0.587000  0.462100  0.970700  1.0  0.08
  H  H51  1  0.681600  0.472100  0.896400  1.0  0.0801
  H  H52  1  0.637100  0.407500  0.884800  1.0  0.083
  H  H53  1  0.687200  0.318600  0.943300  1.0  0.0799
  H  H54  1  0.721600  0.312500  0.875900  1.0  0.071
  H  H55  1  0.784400  0.244000  0.941700  1.0  0.0632
  H  H56  1  0.841800  0.296700  0.918200  1.0  0.0813
  H  H57  1  0.710100  0.284500  0.034300  1.0  0.0646
  H  H58  1  0.771100  0.234400  0.057500  1.0  0.0647
  H  H59  1  0.722700  0.291500  0.139500  1.0  0.0739
  H  H60  1  0.811100  0.301900  0.133600  1.0  0.0792
  H  H61  1  0.646100  0.361300  0.083200  1.0  0.0762
  H  H62  1  0.649900  0.388600  0.151700  1.0  0.0737
  H  H63  1  0.595500  0.462600  0.084300  1.0  0.082
  H  H64  1  0.670900  0.490500  0.114200  1.0  0.0747
  H  H65  1  0.556600  0.686500  0.097700  1.0  0.1241
  H  H66  1  0.646300  0.607600  0.097000  1.0  0.0996
  H  H67  1  0.599600  0.567800  0.920900  1.0  0.1023
  H  H68  1  0.514300  0.649500  0.918300  1.0  0.1119
  H  H69  1  0.724000  0.539400  0.969200  1.0  0.0968
  H  H70  1  0.734600  0.551100  0.041100  1.0  0.0885
  H  H71  1  0.754600  0.309900  0.690400  1.0  0.0894
  H  H72  1  0.803300  0.320000  0.786800  1.0  0.0981
  H  H73  1  0.722200  0.499500  0.798600  1.0  0.1159
  H  H74  1  0.681200  0.491500  0.696800  1.0  0.1017
  H  H75  1  0.843100  0.389900  0.870700  1.0  0.0897
  H  H76  1  0.809500  0.459800  0.875000  1.0  0.0898
  H  H77  1  0.042100  0.444100  0.081600  1.0  0.0997
  H  H78  1  0.954200  0.365400  0.099200  1.0  0.1162
  H  H79  1  0.969700  0.313500  0.919000  1.0  0.1143
  H  H80  1  0.057900  0.394100  0.904100  1.0  0.1069
  H  H81  1  0.903100  0.245500  0.993800  1.0  0.0727
  H  H82  1  0.897600  0.265900  0.064600  1.0  0.0815
  H  H83  1  0.765800  0.305800  0.342600  1.0  0.0851
  H  H84  1  0.814200  0.322100  0.244800  1.0  0.1133
  H  H85  1  0.698400  0.484300  0.231300  1.0  0.0973
  H  H86  1  0.643600  0.465800  0.327100  1.0  0.1087
  H  H87  1  0.786700  0.461300  0.155300  1.0  0.1039
  H  H88  1  0.842900  0.403300  0.164500  1.0  0.0985
  H  H89  1  0.618500  0.105500  0.491400  1.0  0.077
  H  H90  1  0.587000  0.037900  0.470700  1.0  0.0802
  H  H91  1  0.681600  0.027900  0.396400  1.0  0.0793
  H  H92  1  0.637100  0.092500  0.384800  1.0  0.0834
  H  H93  1  0.687200  0.181400  0.443300  1.0  0.0801
  H  H94  1  0.721600  0.187500  0.375900  1.0  0.071
  H  H95  1  0.784400  0.256000  0.441700  1.0  0.0666
  H  H96  1  0.841800  0.203300  0.418200  1.0  0.0813
  H  H97  1  0.710100  0.215500  0.534300  1.0  0.0638
  H  H98  1  0.771100  0.265600  0.557500  1.0  0.0673
  H  H99  1  0.722700  0.208500  0.639500  1.0  0.0722
  H  H100  1  0.811100  0.198100  0.633600  1.0  0.0786
  H  H101  1  0.646100  0.138700  0.583200  1.0  0.0755
  H  H102  1  0.649900  0.111400  0.651700  1.0  0.0731
  H  H103  1  0.595500  0.037400  0.584300  1.0  0.0828
  H  H104  1  0.670900  0.009500  0.614200  1.0  0.0791
  H  H105  1  0.556600  0.813500  0.597700  1.0  0.1238
  H  H106  1  0.646300  0.892400  0.597000  1.0  0.1001
  H  H107  1  0.599600  0.932200  0.420900  1.0  0.1035
  H  H108  1  0.514300  0.850500  0.418300  1.0  0.1116
  H  H109  1  0.724000  0.960600  0.469200  1.0  0.0953
  H  H110  1  0.734600  0.948900  0.541100  1.0  0.0891
  H  H111  1  0.754600  0.190100  0.190400  1.0  0.0891
  H  H112  1  0.803300  0.180000  0.286800  1.0  0.0984
  H  H113  1  0.722200  0.000500  0.298600  1.0  0.1161
  H  H114  1  0.681200  0.008500  0.196800  1.0  0.1011
  H  H115  1  0.843100  0.110100  0.370700  1.0  0.0893
  H  H116  1  0.809500  0.040200  0.375000  1.0  0.0891
  H  H117  1  0.042100  0.055900  0.581600  1.0  0.099
  H  H118  1  0.954200  0.134600  0.599200  1.0  0.116
  H  H119  1  0.969700  0.186500  0.419000  1.0  0.1153
  H  H120  1  0.057900  0.105900  0.404100  1.0  0.1064
  H  H121  1  0.903100  0.254500  0.493800  1.0  0.0746
  H  H122  1  0.897600  0.234100  0.564600  1.0  0.0819
  H  H123  1  0.765800  0.194200  0.842600  1.0  0.0852
  H  H124  1  0.814200  0.177900  0.744800  1.0  0.113
  H  H125  1  0.698400  0.015700  0.731300  1.0  0.0974
  H  H126  1  0.643600  0.034200  0.827100  1.0  0.1081
  H  H127  1  0.786700  0.038700  0.655300  1.0  0.1044
  H  H128  1  0.842900  0.096700  0.664500  1.0  0.0973
  H  H129  1  0.381500  0.605500  0.008600  1.0  0.0787
  H  H130  1  0.413000  0.537900  0.029300  1.0  0.0815
  H  H131  1  0.318400  0.527900  0.103600  1.0  0.0792
  H  H132  1  0.362900  0.592500  0.115200  1.0  0.0824
  H  H133  1  0.312800  0.681400  0.056700  1.0  0.0802
  H  H134  1  0.278400  0.687500  0.124100  1.0  0.0703
  H  H135  1  0.215600  0.756000  0.058300  1.0  0.0656
  H  H136  1  0.158200  0.703300  0.081800  1.0  0.0783
  H  H137  1  0.289900  0.715500  0.965700  1.0  0.0639
  H  H138  1  0.228900  0.765600  0.942500  1.0  0.067
  H  H139  1  0.277300  0.708500  0.860500  1.0  0.0731
  H  H140  1  0.188900  0.698100  0.866400  1.0  0.0809
  H  H141  1  0.353900  0.638700  0.916800  1.0  0.073
  H  H142  1  0.350100  0.611400  0.848300  1.0  0.073
  H  H143  1  0.404500  0.537400  0.915700  1.0  0.081
  H  H144  1  0.329100  0.509500  0.885800  1.0  0.0748
  H  H145  1  0.443400  0.313500  0.902300  1.0  0.1237
  H  H146  1  0.353700  0.392400  0.903000  1.0  0.0995
  H  H147  1  0.400400  0.432200  0.079100  1.0  0.1028
  H  H148  1  0.485700  0.350500  0.081700  1.0  0.1115
  H  H149  1  0.276000  0.460600  0.030800  1.0  0.0962
  H  H150  1  0.265400  0.448900  0.958900  1.0  0.09
  H  H151  1  0.245400  0.690100  0.309600  1.0  0.0889
  H  H152  1  0.196700  0.680000  0.213200  1.0  0.0991
  H  H153  1  0.277800  0.500500  0.201400  1.0  0.1153
  H  H154  1  0.318800  0.508500  0.303200  1.0  0.1018
  H  H155  1  0.156900  0.610100  0.129300  1.0  0.0913
  H  H156  1  0.190500  0.540200  0.125000  1.0  0.0893
  H  H157  1  0.957900  0.555900  0.918400  1.0  0.1006
  H  H158  1  0.045800  0.634600  0.900800  1.0  0.1179
  H  H159  1  0.030300  0.686500  0.081000  1.0  0.1145
  H  H160  1  0.942100  0.605900  0.095900  1.0  0.1069
  H  H161  1  0.096900  0.754500  0.006200  1.0  0.0772
  H  H162  1  0.102400  0.734100  0.935400  1.0  0.0814
  H  H163  1  0.234200  0.694200  0.657400  1.0  0.0851
  H  H164  1  0.185800  0.677900  0.755200  1.0  0.1134
  H  H165  1  0.301600  0.515700  0.768700  1.0  0.0971
  H  H166  1  0.356400  0.534200  0.672900  1.0  0.1083
  H  H167  1  0.213300  0.538700  0.844700  1.0  0.1053
  H  H168  1  0.157100  0.596700  0.835500  1.0  0.1019
  C  C169  1  0.366900  0.936700  0.524100  1.0  -0.0326
  C  C170  1  0.328300  0.929500  0.586600  1.0  -0.0745
  C  C171  1  0.267800  0.827300  0.581800  1.0  -0.003
  C  C172  1  0.203100  0.789500  0.556100  1.0  -0.0379
  C  C173  1  0.239200  0.780100  0.447600  1.0  -0.0261
  C  C174  1  0.237800  0.810800  0.386400  1.0  -0.0418
  C  C175  1  0.329400  0.893300  0.390200  1.0  -0.0039
  C  C176  1  0.349300  0.958000  0.414100  1.0  -0.0719
  C  C177  1  0.526500  0.231200  0.496300  1.0  0.5407
  C  C178  1  0.474300  0.175500  0.492100  1.0  -0.155
  C  C179  1  0.434300  0.163100  0.438800  1.0  -0.1668
  C  C180  1  0.380900  0.116000  0.439800  1.0  -0.1043
  C  C181  1  0.364800  0.080400  0.491200  1.0  0.1369
  C  C182  1  0.407400  0.092900  0.543300  1.0  -0.1496
  C  C183  1  0.459500  0.140400  0.544500  1.0  -0.0347
  C  C184  1  0.301400  0.036300  0.490500  1.0  -0.1273
  C  C185  1  0.328500  0.889100  0.879900  1.0  0.714
  C  C186  1  0.293000  0.896800  0.816000  1.0  -0.1059
  C  C187  1  0.252900  0.848200  0.787800  1.0  -0.059
  C  C188  1  0.224200  0.854100  0.730500  1.0  -0.1449
  C  C189  1  0.234000  0.908900  0.695900  1.0  0.1438
  C  C190  1  0.271100  0.961200  0.723700  1.0  -0.2057
  C  C191  1  0.297400  0.955700  0.783400  1.0  -0.0647
  C  C192  1  0.203700  0.915000  0.632500  1.0  -0.105
  C  C193  1  0.892900  0.982100  0.518900  1.0  0.6454
  C  C194  1  0.945100  0.928700  0.508700  1.0  -0.1215
  C  C195  1  0.973800  0.918200  0.451700  1.0  -0.0287
  C  C196  1  0.025500  0.870800  0.440800  1.0  -0.1373
  C  C197  1  0.047600  0.831200  0.488400  1.0  0.1048
  C  C198  1  0.016100  0.840200  0.547700  1.0  -0.1041
  C  C199  1  0.964400  0.888600  0.556600  1.0  -0.0519
  C  C200  1  0.106200  0.781600  0.478200  1.0  -0.0921
  C  C201  1  0.332100  0.872100  0.091700  1.0  0.6919
  C  C202  1  0.298900  0.884900  0.154100  1.0  -0.106
  C  C203  1  0.249000  0.842200  0.180100  1.0  -0.0357
  C  C204  1  0.220400  0.851600  0.238600  1.0  -0.1396
  C  C205  1  0.242000  0.904200  0.273400  1.0  0.0997
  C  C206  1  0.289400  0.946800  0.246900  1.0  -0.1367
  C  C207  1  0.320500  0.936900  0.188700  1.0  -0.0784
  C  C208  1  0.210700  0.915500  0.335900  1.0  -0.1294
  C  C209  1  0.633100  0.436700  0.975900  1.0  -0.035
  C  C210  1  0.671700  0.429500  0.913400  1.0  -0.0732
  C  C211  1  0.732200  0.327300  0.918200  1.0  0.0004
  C  C212  1  0.796900  0.289500  0.943900  1.0  -0.0394
  C  C213  1  0.760800  0.280100  0.052400  1.0  -0.0249
  C  C214  1  0.762200  0.310800  0.113600  1.0  -0.0429
  C  C215  1  0.670600  0.393300  0.109800  1.0  -0.0063
  C  C216  1  0.650700  0.458000  0.085900  1.0  -0.0712
  C  C217  1  0.473500  0.731200  0.003700  1.0  0.5413
  C  C218  1  0.525700  0.675500  0.007900  1.0  -0.1562
  C  C219  1  0.565700  0.663100  0.061200  1.0  -0.1643
  C  C220  1  0.619100  0.616000  0.060200  1.0  -0.1029
  C  C221  1  0.635200  0.580400  0.008800  1.0  0.1371
  C  C222  1  0.592600  0.592900  0.956700  1.0  -0.1484
  C  C223  1  0.540500  0.640400  0.955500  1.0  -0.0329
  C  C224  1  0.698600  0.536300  0.009500  1.0  -0.1276
  C  C225  1  0.671500  0.389100  0.620100  1.0  0.7153
  C  C226  1  0.707000  0.396800  0.684000  1.0  -0.1039
  C  C227  1  0.747100  0.348200  0.712200  1.0  -0.0581
  C  C228  1  0.775800  0.354100  0.769500  1.0  -0.1441
  C  C229  1  0.766000  0.408900  0.804100  1.0  0.1463
  C  C230  1  0.728900  0.461200  0.776300  1.0  -0.2072
  C  C231  1  0.702600  0.455700  0.716600  1.0  -0.0646
  C  C232  1  0.796300  0.415000  0.867500  1.0  -0.1042
  C  C233  1  0.107100  0.482100  0.981100  1.0  0.6432
  C  C234  1  0.054900  0.428700  0.991300  1.0  -0.1194
  C  C235  1  0.026200  0.418200  0.048300  1.0  -0.0278
  C  C236  1  0.974500  0.370800  0.059200  1.0  -0.1356
  C  C237  1  0.952400  0.331200  0.011600  1.0  0.1042
  C  C238  1  0.983900  0.340200  0.952300  1.0  -0.1032
  C  C239  1  0.035600  0.388600  0.943400  1.0  -0.0519
  C  C240  1  0.893800  0.281600  0.021800  1.0  -0.0927
  C  C241  1  0.667900  0.372100  0.408300  1.0  0.6918
  C  C242  1  0.701100  0.384900  0.345900  1.0  -0.1091
  C  C243  1  0.751000  0.342200  0.319900  1.0  -0.0356
  C  C244  1  0.779600  0.351600  0.261400  1.0  -0.1359
  C  C245  1  0.758000  0.404200  0.226600  1.0  0.1053
  C  C246  1  0.710600  0.446800  0.253100  1.0  -0.1402
  C  C247  1  0.679500  0.436900  0.311300  1.0  -0.0811
  C  C248  1  0.789300  0.415500  0.164100  1.0  -0.1317
  C  C249  1  0.633100  0.063300  0.475900  1.0  -0.035
  C  C250  1  0.671700  0.070500  0.413400  1.0  -0.0745
  C  C251  1  0.732200  0.172700  0.418200  1.0  0.0005
  C  C252  1  0.796900  0.210500  0.443900  1.0  -0.0394
  C  C253  1  0.760800  0.219900  0.552400  1.0  -0.0256
  C  C254  1  0.762200  0.189200  0.613600  1.0  -0.0424
  C  C255  1  0.670600  0.106700  0.609800  1.0  -0.006
  C  C256  1  0.650700  0.042000  0.585900  1.0  -0.0701
  C  C257  1  0.473500  0.768800  0.503700  1.0  0.5412
  C  C258  1  0.525700  0.824500  0.507900  1.0  -0.1558
  C  C259  1  0.565700  0.836900  0.561200  1.0  -0.1678
  C  C260  1  0.619100  0.884000  0.560200  1.0  -0.106
  C  C261  1  0.635200  0.919600  0.508800  1.0  0.1374
  C  C262  1  0.592600  0.907100  0.456700  1.0  -0.1485
  C  C263  1  0.540500  0.859600  0.455500  1.0  -0.0314
  C  C264  1  0.698600  0.963700  0.509500  1.0  -0.1274
  C  C265  1  0.671500  0.110900  0.120100  1.0  0.7147
  C  C266  1  0.707000  0.103200  0.184000  1.0  -0.1055
  C  C267  1  0.747100  0.151800  0.212200  1.0  -0.0593
  C  C268  1  0.775800  0.145900  0.269500  1.0  -0.1451
  C  C269  1  0.766000  0.091100  0.304100  1.0  0.1459
  C  C270  1  0.728900  0.038800  0.276300  1.0  -0.2059
  C  C271  1  0.702600  0.044300  0.216600  1.0  -0.0664
  C  C272  1  0.796300  0.085000  0.367500  1.0  -0.1069
  C  C273  1  0.107100  0.017900  0.481100  1.0  0.6434
  C  C274  1  0.054900  0.071300  0.491300  1.0  -0.1202
  C  C275  1  0.026200  0.081800  0.548300  1.0  -0.029
  C  C276  1  0.974500  0.129200  0.559200  1.0  -0.1356
  C  C277  1  0.952400  0.168800  0.511600  1.0  0.1038
  C  C278  1  0.983900  0.159800  0.452300  1.0  -0.1046
  C  C279  1  0.035600  0.111400  0.443400  1.0  -0.0507
  C  C280  1  0.893800  0.218400  0.521800  1.0  -0.0967
  C  C281  1  0.667900  0.127900  0.908300  1.0  0.6925
  C  C282  1  0.701100  0.115100  0.845900  1.0  -0.109
  C  C283  1  0.751000  0.157800  0.819900  1.0  -0.0343
  C  C284  1  0.779600  0.148400  0.761400  1.0  -0.1377
  C  C285  1  0.758000  0.095800  0.726600  1.0  0.1037
  C  C286  1  0.710600  0.053200  0.753100  1.0  -0.1371
  C  C287  1  0.679500  0.063100  0.811300  1.0  -0.0778
  C  C288  1  0.789300  0.084500  0.664100  1.0  -0.1307
  C  C289  1  0.366900  0.563300  0.024100  1.0  -0.0325
  C  C290  1  0.328300  0.570500  0.086600  1.0  -0.0748
  C  C291  1  0.267800  0.672700  0.081800  1.0  -0.0022
  C  C292  1  0.203100  0.710500  0.056100  1.0  -0.0382
  C  C293  1  0.239200  0.719900  0.947600  1.0  -0.027
  C  C294  1  0.237800  0.689200  0.886400  1.0  -0.0422
  C  C295  1  0.329400  0.606700  0.890200  1.0  -0.0047
  C  C296  1  0.349300  0.542000  0.914100  1.0  -0.0729
  C  C297  1  0.526500  0.268800  0.996300  1.0  0.5381
  C  C298  1  0.474300  0.324500  0.992100  1.0  -0.1553
  C  C299  1  0.434300  0.336900  0.938800  1.0  -0.1652
  C  C300  1  0.380900  0.384000  0.939800  1.0  -0.1028
  C  C301  1  0.364800  0.419600  0.991200  1.0  0.138
  C  C302  1  0.407400  0.407100  0.043300  1.0  -0.1496
  C  C303  1  0.459500  0.359600  0.044500  1.0  -0.0344
  C  C304  1  0.301400  0.463700  0.990500  1.0  -0.1267
  C  C305  1  0.328500  0.610900  0.379900  1.0  0.7152
  C  C306  1  0.293000  0.603200  0.316000  1.0  -0.1059
  C  C307  1  0.252900  0.651800  0.287800  1.0  -0.0589
  C  C308  1  0.224200  0.645900  0.230500  1.0  -0.1452
  C  C309  1  0.234000  0.591100  0.195900  1.0  0.1452
  C  C310  1  0.271100  0.538800  0.223700  1.0  -0.2062
  C  C311  1  0.297400  0.544300  0.283400  1.0  -0.0637
  C  C312  1  0.203700  0.585000  0.132500  1.0  -0.1033
  C  C313  1  0.892900  0.517900  0.018900  1.0  0.6456
  C  C314  1  0.945100  0.571300  0.008700  1.0  -0.1214
  C  C315  1  0.973800  0.581800  0.951700  1.0  -0.029
  C  C316  1  0.025500  0.629200  0.940800  1.0  -0.1378
  C  C317  1  0.047600  0.668800  0.988400  1.0  0.1043
  C  C318  1  0.016100  0.659800  0.047700  1.0  -0.102
  C  C319  1  0.964400  0.611400  0.056600  1.0  -0.0521
  C  C320  1  0.106200  0.718400  0.978200  1.0  -0.0953
  C  C321  1  0.332100  0.627900  0.591700  1.0  0.6923
  C  C322  1  0.298900  0.615100  0.654100  1.0  -0.1065
  C  C323  1  0.249000  0.657800  0.680100  1.0  -0.0368
  C  C324  1  0.220400  0.648400  0.738600  1.0  -0.1375
  C  C325  1  0.242000  0.595800  0.773400  1.0  0.1013
  C  C326  1  0.289400  0.553200  0.746900  1.0  -0.1397
  C  C327  1  0.320500  0.563100  0.688700  1.0  -0.0803
  C  C328  1  0.210700  0.584500  0.835900  1.0  -0.1312
  N  N329  1  0.256100  0.893700  0.583370  1.0  -0.2036
  N  N330  1  0.316900  0.967800  0.478420  1.0  -0.1944
  N  N331  1  0.184700  0.806810  0.489600  1.0  -0.2243
  N  N332  1  0.249500  0.880400  0.387910  1.0  -0.1951
  N  N333  1  0.743900  0.393700  0.916630  1.0  -0.2005
  N  N334  1  0.683100  0.467800  0.021580  1.0  -0.1941
  N  N335  1  0.815300  0.306810  0.010400  1.0  -0.2251
  N  N336  1  0.750500  0.380400  0.112090  1.0  -0.1936
  N  N337  1  0.743900  0.106300  0.416630  1.0  -0.2004
  N  N338  1  0.683100  0.032200  0.521580  1.0  -0.194
  N  N339  1  0.815300  0.193190  0.510400  1.0  -0.2235
  N  N340  1  0.750500  0.119600  0.612090  1.0  -0.1933
  N  N341  1  0.256100  0.606300  0.083370  1.0  -0.2038
  N  N342  1  0.316900  0.532200  0.978420  1.0  -0.1945
  N  N343  1  0.184700  0.693190  0.989600  1.0  -0.2212
  N  N344  1  0.249500  0.619600  0.887910  1.0  -0.1952
  O  O345  1  0.517900  0.276900  0.458400  1.0  -0.6641
  O  O346  1  0.573600  0.233100  0.533600  1.0  -0.5943
  O  O347  1  0.350200  0.938300  0.906100  1.0  -0.5557
  O  O348  1  0.328400  0.836300  0.900620  1.0  -0.5602
  O  O349  1  0.864400  0.993270  0.570020  1.0  -0.6553
  O  O350  1  0.875300  0.014880  0.471260  1.0  -0.6019
  O  O351  1  0.310100  0.825200  0.063000  1.0  -0.6301
  O  O352  1  0.380800  0.907760  0.071230  1.0  -0.6071
  O  O353  1  0.482100  0.776900  0.041600  1.0  -0.662
  O  O354  1  0.426400  0.733100  0.966400  1.0  -0.5914
  O  O355  1  0.649800  0.438300  0.593900  1.0  -0.5657
  O  O356  1  0.671600  0.336300  0.599380  1.0  -0.5599
  O  O357  1  0.135600  0.493270  0.929980  1.0  -0.6553
  O  O358  1  0.124700  0.514880  0.028740  1.0  -0.601
  O  O359  1  0.689900  0.325200  0.437000  1.0  -0.6297
  O  O360  1  0.619200  0.407760  0.428770  1.0  -0.6037
  O  O361  1  0.482100  0.723100  0.541600  1.0  -0.6615
  O  O362  1  0.426400  0.766900  0.466400  1.0  -0.5928
  O  O363  1  0.649800  0.061700  0.093900  1.0  -0.559
  O  O364  1  0.671600  0.163700  0.099380  1.0  -0.5584
  O  O365  1  0.135600  0.006730  0.429980  1.0  -0.6547
  O  O366  1  0.124700  0.985120  0.528740  1.0  -0.6029
  O  O367  1  0.689900  0.174800  0.937000  1.0  -0.6304
  O  O368  1  0.619200  0.092240  0.928770  1.0  -0.6037
  O  O369  1  0.517900  0.223100  0.958400  1.0  -0.6585
  O  O370  1  0.573600  0.266900  0.033600  1.0  -0.5944
  O  O371  1  0.350200  0.561700  0.406100  1.0  -0.5659
  O  O372  1  0.328400  0.663700  0.400620  1.0  -0.5577
  O  O373  1  0.864400  0.506730  0.070020  1.0  -0.6555
  O  O374  1  0.875300  0.485120  0.971260  1.0  -0.6017
  O  O375  1  0.310100  0.674800  0.563000  1.0  -0.6306
  O  O376  1  0.380800  0.592240  0.571230  1.0  -0.606
