# generated using pymatgen
data_Zn3H20C31N2O15
_symmetry_space_group_name_H-M   'P 1'
_cell_length_a   11.72700000
_cell_length_b   13.45100000
_cell_length_c   15.56500000
_cell_angle_alpha   113.39000000
_cell_angle_beta   98.71000000
_cell_angle_gamma   102.97000000
_symmetry_Int_Tables_number   1
_chemical_formula_structural   Zn3H20C31N2O15
_chemical_formula_sum   'Zn6 H40 C62 N4 O30'
_cell_volume   2115.06939931
_cell_formula_units_Z   2
loop_
 _symmetry_equiv_pos_site_id
 _symmetry_equiv_pos_as_xyz
  1  'x, y, z'
loop_
 _atom_site_type_symbol
 _atom_site_label
 _atom_site_symmetry_multiplicity
 _atom_site_fract_x
 _atom_site_fract_y
 _atom_site_fract_z
 _atom_site_occupancy
 _atom_site_charge
  Zn  Zn1  1  0.348640  0.345720  0.652910  1.0  1.0683
  Zn  Zn2  1  0.480420  0.808350  0.309400  1.0  0.9267
  Zn  Zn3  1  0.076570  0.420300  0.688070  1.0  0.9924
  Zn  Zn4  1  0.651360  0.654280  0.347090  1.0  1.0595
  Zn  Zn5  1  0.519580  0.191650  0.690600  1.0  0.9269
  Zn  Zn6  1  0.923430  0.579700  0.311930  1.0  0.9889
  H  H7  1  0.103200  0.005700  0.372100  1.0  0.1181
  H  H8  1  0.900200  0.848900  0.298700  1.0  0.1387
  H  H9  1  0.551200  0.649300  0.953300  1.0  0.1417
  H  H10  1  0.662600  0.729900  0.131000  1.0  0.1398
  H  H11  1  0.189100  0.726600  0.637500  1.0  0.1257
  H  H12  1  0.267400  0.813200  0.532700  1.0  0.1292
  H  H13  1  0.010600  0.450200  0.412000  1.0  0.0836
  H  H14  1  0.162300  0.374500  0.429200  1.0  0.1215
  H  H15  1  0.127100  0.532200  0.219400  1.0  0.0886
  H  H16  1  0.285000  0.461200  0.235100  1.0  0.1139
  H  H17  1  0.346600  0.344300  0.403100  1.0  0.1058
  H  H18  1  0.426500  0.432000  0.376300  1.0  0.1202
  H  H19  1  0.349600  0.295300  0.211900  1.0  0.0865
  H  H20  1  0.435700  0.263500  0.276600  1.0  0.0762
  H  H21  1  0.198700  0.174900  0.266500  1.0  0.0975
  H  H22  1  0.222200  0.130900  0.163400  1.0  0.093
  H  H23  1  0.325900  0.993800  0.118400  1.0  0.1184
  H  H24  1  0.320300  0.132700  0.392600  1.0  0.1153
  H  H25  1  0.401000  0.001900  0.416900  1.0  0.085
  H  H26  1  0.403100  0.864300  0.145500  1.0  0.0903
  H  H27  1  0.896800  0.994300  0.627900  1.0  0.1177
  H  H28  1  0.099800  0.151100  0.701300  1.0  0.1388
  H  H29  1  0.448800  0.350700  0.046700  1.0  0.1426
  H  H30  1  0.337400  0.270100  0.869000  1.0  0.1404
  H  H31  1  0.810900  0.273400  0.362500  1.0  0.1228
  H  H32  1  0.732600  0.186800  0.467300  1.0  0.1289
  H  H33  1  0.989400  0.549800  0.588000  1.0  0.0833
  H  H34  1  0.837700  0.625500  0.570800  1.0  0.1216
  H  H35  1  0.872900  0.467800  0.780600  1.0  0.0883
  H  H36  1  0.715000  0.538800  0.764900  1.0  0.115
  H  H37  1  0.653400  0.655700  0.596900  1.0  0.1003
  H  H38  1  0.573500  0.568000  0.623700  1.0  0.122
  H  H39  1  0.650400  0.704700  0.788100  1.0  0.0932
  H  H40  1  0.564300  0.736500  0.723400  1.0  0.0759
  H  H41  1  0.801300  0.825100  0.733500  1.0  0.0973
  H  H42  1  0.777800  0.869100  0.836600  1.0  0.0939
  H  H43  1  0.674100  0.006200  0.881600  1.0  0.1168
  H  H44  1  0.679700  0.867300  0.607400  1.0  0.1138
  H  H45  1  0.599000  0.998100  0.583100  1.0  0.0858
  H  H46  1  0.596900  0.135700  0.854500  1.0  0.0903
  C  C47  1  0.093700  0.220800  0.518400  1.0  0.6707
  C  C48  1  0.013500  0.103800  0.449900  1.0  0.0565
  C  C49  1  0.030400  0.011800  0.386900  1.0  -0.1339
  C  C50  1  0.916300  0.923300  0.345700  1.0  -0.1462
  C  C51  1  0.837500  0.968900  0.388100  1.0  0.054
  C  C52  1  0.708200  0.922000  0.382800  1.0  0.6361
  C  C53  1  0.559600  0.419900  0.835500  1.0  0.6457
  C  C54  1  0.611100  0.512700  0.935600  1.0  0.0363
  C  C55  1  0.594800  0.615000  0.981500  1.0  -0.1474
  C  C56  1  0.657000  0.660100  0.081200  1.0  -0.1462
  C  C57  1  0.706800  0.581200  0.089700  1.0  0.0593
  C  C58  1  0.782200  0.578600  0.171800  1.0  0.6348
  C  C59  1  0.284200  0.547000  0.639900  1.0  0.6514
  C  C60  1  0.304400  0.632000  0.602200  1.0  0.031
  C  C61  1  0.246700  0.709000  0.604000  1.0  -0.1492
  C  C62  1  0.290700  0.757700  0.545400  1.0  -0.1269
  C  C63  1  0.374100  0.707500  0.511100  1.0  0.0469
  C  C64  1  0.446000  0.722900  0.445200  1.0  0.6415
  C  C65  1  0.067000  0.453600  0.376400  1.0  0.1739
  C  C66  1  0.158500  0.407900  0.387300  1.0  -0.2314
  C  C67  1  0.245800  0.411200  0.336000  1.0  0.1683
  C  C68  1  0.135200  0.502400  0.263800  1.0  0.1657
  C  C69  1  0.230600  0.458600  0.272500  1.0  -0.2203
  C  C70  1  0.351700  0.369200  0.352900  1.0  -0.1995
  C  C71  1  0.356700  0.273900  0.264600  1.0  -0.0634
  C  C72  1  0.260500  0.161900  0.232300  1.0  -0.1935
  C  C73  1  0.309900  0.076100  0.250400  1.0  0.169
  C  C74  1  0.338600  0.996700  0.179900  1.0  -0.218
  C  C75  1  0.336000  0.077900  0.340700  1.0  -0.1777
  C  C76  1  0.385400  0.998900  0.355400  1.0  0.1713
  C  C77  1  0.386600  0.919300  0.196900  1.0  0.159
  C  C78  1  0.906300  0.779200  0.481600  1.0  0.6712
  C  C79  1  0.986500  0.896200  0.550100  1.0  0.0651
  C  C80  1  0.969600  0.988200  0.613100  1.0  -0.1339
  C  C81  1  0.083700  0.076700  0.654300  1.0  -0.1446
  C  C82  1  0.162500  0.031100  0.611900  1.0  0.0544
  C  C83  1  0.291800  0.078000  0.617200  1.0  0.6361
  C  C84  1  0.440400  0.580100  0.164500  1.0  0.6473
  C  C85  1  0.388900  0.487300  0.064400  1.0  0.037
  C  C86  1  0.405200  0.385000  0.018500  1.0  -0.1481
  C  C87  1  0.343000  0.339900  0.918800  1.0  -0.1458
  C  C88  1  0.293200  0.418800  0.910300  1.0  0.0598
  C  C89  1  0.217800  0.421400  0.828200  1.0  0.6337
  C  C90  1  0.715800  0.453000  0.360100  1.0  0.6553
  C  C91  1  0.695600  0.368000  0.397800  1.0  0.031
  C  C92  1  0.753300  0.291000  0.396000  1.0  -0.1501
  C  C93  1  0.709300  0.242300  0.454600  1.0  -0.1278
  C  C94  1  0.625900  0.292500  0.488900  1.0  0.0527
  C  C95  1  0.554000  0.277100  0.554800  1.0  0.6403
  C  C96  1  0.933000  0.546400  0.623600  1.0  0.173
  C  C97  1  0.841500  0.592100  0.612700  1.0  -0.2318
  C  C98  1  0.754200  0.588800  0.664000  1.0  0.1679
  C  C99  1  0.864800  0.497600  0.736200  1.0  0.1648
  C  C100  1  0.769400  0.541400  0.727500  1.0  -0.218
  C  C101  1  0.648300  0.630800  0.647100  1.0  -0.2
  C  C102  1  0.643300  0.726100  0.735400  1.0  -0.0631
  C  C103  1  0.739500  0.838100  0.767700  1.0  -0.1926
  C  C104  1  0.690100  0.923900  0.749600  1.0  0.1699
  C  C105  1  0.661400  0.003300  0.820100  1.0  -0.213
  C  C106  1  0.664000  0.922100  0.659300  1.0  -0.1758
  C  C107  1  0.614600  0.001100  0.644600  1.0  0.1706
  C  C108  1  0.613400  0.080700  0.803100  1.0  0.1552
  N  N109  1  0.054000  0.503700  0.316400  1.0  -0.3506
  N  N110  1  0.410700  0.919900  0.284400  1.0  -0.3233
  N  N111  1  0.946000  0.496300  0.683600  1.0  -0.3538
  N  N112  1  0.589300  0.080100  0.715600  1.0  -0.3183
  O  O113  1  0.206900  0.233900  0.535400  1.0  -0.5996
  O  O114  1  0.045700  0.295900  0.553400  1.0  -0.601
  O  O115  1  0.893400  0.081900  0.452400  1.0  -0.1308
  O  O116  1  0.653300  0.818300  0.317900  1.0  -0.6518
  O  O117  1  0.657800  0.982000  0.435100  1.0  -0.5521
  O  O118  1  0.593000  0.332400  0.816600  1.0  -0.5785
  O  O119  1  0.486600  0.436800  0.779000  1.0  -0.6026
  O  O120  1  0.682800  0.490000  0.000000  1.0  -0.1158
  O  O121  1  0.779800  0.641800  0.256100  1.0  -0.6425
  O  O122  1  0.850500  0.517400  0.158300  1.0  -0.5697
  O  O123  1  0.198400  0.547300  0.680600  1.0  -0.6058
  O  O124  1  0.351000  0.484100  0.630200  1.0  -0.5822
  O  O125  1  0.385800  0.630700  0.546600  1.0  -0.1497
  O  O126  1  0.530800  0.682300  0.433500  1.0  -0.578
  O  O127  1  0.409600  0.780300  0.404400  1.0  -0.5782
  O  O128  1  0.793100  0.766100  0.464600  1.0  -0.5982
  O  O129  1  0.954300  0.704100  0.446600  1.0  -0.6005
  O  O130  1  0.106600  0.918100  0.547600  1.0  -0.1297
  O  O131  1  0.346700  0.181700  0.682100  1.0  -0.6479
  O  O132  1  0.342200  0.018000  0.564900  1.0  -0.5522
  O  O133  1  0.407000  0.667600  0.183400  1.0  -0.5783
  O  O134  1  0.513400  0.563200  0.221000  1.0  -0.602
  O  O135  1  0.317200  0.510000  0.000000  1.0  -0.1154
  O  O136  1  0.220200  0.358200  0.743900  1.0  -0.6421
  O  O137  1  0.149500  0.482600  0.841700  1.0  -0.5695
  O  O138  1  0.801600  0.452700  0.319400  1.0  -0.6048
  O  O139  1  0.649000  0.515900  0.369800  1.0  -0.5808
  O  O140  1  0.614200  0.369300  0.453400  1.0  -0.1364
  O  O141  1  0.469200  0.317700  0.566500  1.0  -0.5779
  O  O142  1  0.590400  0.219700  0.595600  1.0  -0.5792
