# generated using pymatgen
data_Cd3H14C30(NO3)4
_symmetry_space_group_name_H-M   'P 1'
_cell_length_a   18.61780000
_cell_length_b   19.75400000
_cell_length_c   23.14230000
_cell_angle_alpha   66.08570000
_cell_angle_beta   66.28130000
_cell_angle_gamma   61.88520000
_symmetry_Int_Tables_number   1
_chemical_formula_structural   Cd3H14C30(NO3)4
_chemical_formula_sum   'Cd12 H56 C120 N16 O48'
_cell_volume   6622.80268574
_cell_formula_units_Z   4
loop_
 _symmetry_equiv_pos_site_id
 _symmetry_equiv_pos_as_xyz
  1  'x, y, z'
loop_
 _atom_site_type_symbol
 _atom_site_label
 _atom_site_symmetry_multiplicity
 _atom_site_fract_x
 _atom_site_fract_y
 _atom_site_fract_z
 _atom_site_occupancy
 _atom_site_charge
  Cd  Cd1  1  0.332170  0.885320  0.695520  1.0  1.0732
  Cd  Cd2  1  0.461250  0.680770  0.677470  1.0  1.037
  Cd  Cd3  1  0.739790  0.690010  0.958870  1.0  1.0023
  Cd  Cd4  1  0.913010  0.614680  0.804480  1.0  1.071
  Cd  Cd5  1  0.819490  0.819230  0.822530  1.0  1.033
  Cd  Cd6  1  0.388670  0.809990  0.541130  1.0  0.9936
  Cd  Cd7  1  0.667830  0.114680  0.304480  1.0  1.0713
  Cd  Cd8  1  0.538750  0.319230  0.322530  1.0  1.0309
  Cd  Cd9  1  0.260210  0.309990  0.041130  1.0  0.9981
  Cd  Cd10  1  0.086990  0.385320  0.195520  1.0  1.0713
  Cd  Cd11  1  0.180510  0.180770  0.177470  1.0  1.0359
  Cd  Cd12  1  0.611330  0.190010  0.458870  1.0  0.9891
  H  H13  1  0.655900  0.688700  0.752100  1.0  0.1245
  H  H14  1  0.423700  0.840300  0.816900  1.0  0.1239
  H  H15  1  0.622500  0.826400  0.856600  1.0  0.1235
  H  H16  1  0.359500  0.924600  0.985800  1.0  0.1284
  H  H17  1  0.498400  0.059300  0.887900  1.0  0.1441
  H  H18  1  0.285100  0.997800  0.061600  1.0  0.1321
  H  H19  1  0.423200  0.131900  0.965900  1.0  0.1158
  H  H20  1  0.445500  0.036000  0.450800  1.0  0.1179
  H  H21  1  0.243800  0.092700  0.600300  1.0  0.1302
  H  H22  1  0.368200  0.242600  0.492400  1.0  0.1329
  H  H23  1  0.114500  0.276600  0.680800  1.0  0.1243
  H  H24  1  0.238100  0.419700  0.574100  1.0  0.1126
  H  H25  1  0.020300  0.367900  0.742100  1.0  0.1128
  H  H26  1  0.144700  0.512500  0.632300  1.0  0.1269
  H  H27  1  0.096700  0.811300  0.747900  1.0  0.1265
  H  H28  1  0.080900  0.659700  0.683100  1.0  0.1239
  H  H29  1  0.305500  0.673600  0.643400  1.0  0.1244
  H  H30  1  0.269900  0.575400  0.514200  1.0  0.1304
  H  H31  1  0.445600  0.440700  0.612100  1.0  0.1447
  H  H32  1  0.344500  0.502200  0.438400  1.0  0.1322
  H  H33  1  0.521000  0.368100  0.534100  1.0  0.1177
  H  H34  1  0.932300  0.464000  0.049200  1.0  0.1185
  H  H35  1  0.936800  0.407300  0.899700  1.0  0.1298
  H  H36  1  0.103200  0.257400  0.007600  1.0  0.1337
  H  H37  1  0.071900  0.223400  0.819200  1.0  0.1246
  H  H38  1  0.231900  0.080300  0.925900  1.0  0.1142
  H  H39  1  0.130300  0.132100  0.757900  1.0  0.1136
  H  H40  1  0.289500  0.987500  0.867700  1.0  0.1268
  H  H41  1  0.344100  0.311300  0.247900  1.0  0.1246
  H  H42  1  0.576300  0.159700  0.183100  1.0  0.1245
  H  H43  1  0.377500  0.173600  0.143400  1.0  0.1241
  H  H44  1  0.640500  0.075400  0.014200  1.0  0.1293
  H  H45  1  0.501600  0.940700  0.112100  1.0  0.1446
  H  H46  1  0.714900  0.002200  0.938400  1.0  0.1324
  H  H47  1  0.576800  0.868100  0.034100  1.0  0.1158
  H  H48  1  0.554500  0.964000  0.549200  1.0  0.1188
  H  H49  1  0.756200  0.907300  0.399700  1.0  0.1298
  H  H50  1  0.631800  0.757400  0.507600  1.0  0.1334
  H  H51  1  0.885500  0.723400  0.319200  1.0  0.1243
  H  H52  1  0.761900  0.580300  0.425900  1.0  0.1138
  H  H53  1  0.979700  0.632100  0.257900  1.0  0.1125
  H  H54  1  0.855300  0.487500  0.367700  1.0  0.1264
  H  H55  1  0.903300  0.188700  0.252100  1.0  0.1262
  H  H56  1  0.919100  0.340300  0.316900  1.0  0.1238
  H  H57  1  0.694500  0.326400  0.356600  1.0  0.1238
  H  H58  1  0.730100  0.424600  0.485800  1.0  0.1295
  H  H59  1  0.554400  0.559300  0.387900  1.0  0.1437
  H  H60  1  0.655500  0.497800  0.561600  1.0  0.1317
  H  H61  1  0.479000  0.631900  0.465900  1.0  0.1175
  H  H62  1  0.067700  0.536000  0.950800  1.0  0.1177
  H  H63  1  0.063200  0.592700  0.100300  1.0  0.1301
  H  H64  1  0.896800  0.742600  0.992400  1.0  0.1337
  H  H65  1  0.928100  0.776600  0.180800  1.0  0.1245
  H  H66  1  0.768100  0.919700  0.074100  1.0  0.1141
  H  H67  1  0.869700  0.867900  0.242100  1.0  0.1133
  H  H68  1  0.710500  0.012500  0.132300  1.0  0.1268
  C  C69  1  0.620200  0.727500  0.774700  1.0  0.0489
  C  C70  1  0.500600  0.732600  0.748000  1.0  0.6579
  C  C71  1  0.534690  0.760720  0.778900  1.0  -0.1375
  C  C72  1  0.653150  0.751900  0.804200  1.0  -0.129
  C  C73  1  0.743770  0.711260  0.803600  1.0  0.7211
  C  C74  1  0.481300  0.818500  0.813100  1.0  -0.0584
  C  C75  1  0.600700  0.809800  0.837200  1.0  -0.0487
  C  C76  1  0.514500  0.843300  0.841100  1.0  0.2085
  C  C77  1  0.434900  0.986000  0.928800  1.0  0.1736
  C  C78  1  0.372000  0.967300  0.980900  1.0  -0.0766
  C  C79  1  0.454900  0.047000  0.922600  1.0  -0.1039
  C  C80  1  0.327400  0.011000  0.026000  1.0  -0.0404
  C  C81  1  0.408900  0.090900  0.969500  1.0  -0.0036
  C  C82  1  0.346300  0.075500  0.018100  1.0  -0.0907
  C  C83  1  0.298200  0.119500  0.070300  1.0  0.7352
  C  C84  1  0.408590  0.070920  0.476700  1.0  0.0097
  C  C85  1  0.336400  0.974600  0.543200  1.0  0.5157
  C  C86  1  0.343820  0.052060  0.528300  1.0  -0.125
  C  C87  1  0.418840  0.141420  0.463300  1.0  -0.1419
  C  C88  1  0.493620  0.158160  0.411400  1.0  0.7308
  C  C89  1  0.287500  0.104800  0.565800  1.0  -0.0704
  C  C90  1  0.362060  0.194980  0.501100  1.0  0.01
  C  C91  1  0.296620  0.176460  0.551500  1.0  0.1345
  C  C92  1  0.179800  0.343300  0.617700  1.0  0.3944
  C  C93  1  0.119600  0.325300  0.669500  1.0  -0.0397
  C  C94  1  0.191700  0.410300  0.606700  1.0  -0.0856
  C  C95  1  0.063600  0.380200  0.707000  1.0  -0.0185
  C  C96  1  0.137100  0.465300  0.642500  1.0  -0.0697
  C  C97  1  0.071500  0.449200  0.693200  1.0  -0.1144
  C  C98  1  0.012400  0.507700  0.734500  1.0  0.5817
  C  C99  1  0.122400  0.772500  0.725300  1.0  0.0491
  C  C100  1  0.981200  0.767400  0.752000  1.0  0.657
  C  C101  1  0.074310  0.739280  0.721100  1.0  -0.1372
  C  C102  1  0.209250  0.748100  0.695800  1.0  -0.1303
  C  C103  1  0.258630  0.788740  0.696400  1.0  0.7246
  C  C104  1  0.112900  0.681500  0.686900  1.0  -0.0578
  C  C105  1  0.247700  0.690200  0.662800  1.0  -0.0505
  C  C106  1  0.198900  0.656700  0.658900  1.0  0.2083
  C  C107  1  0.349700  0.514000  0.571200  1.0  0.1748
  C  C108  1  0.320200  0.532700  0.519100  1.0  -0.0759
  C  C109  1  0.424500  0.453000  0.577400  1.0  -0.0967
  C  C110  1  0.364400  0.489000  0.474000  1.0  -0.0361
  C  C111  1  0.469300  0.409100  0.530500  1.0  -0.0071
  C  C112  1  0.439900  0.424500  0.481900  1.0  -0.0881
  C  C113  1  0.488000  0.380500  0.429700  1.0  0.7334
  C  C114  1  0.956210  0.429080  0.023300  1.0  0.0127
  C  C115  1  0.854200  0.525400  0.956800  1.0  0.5134
  C  C116  1  0.924180  0.447940  0.971700  1.0  -0.1227
  C  C117  1  0.023560  0.358580  0.036700  1.0  -0.1427
  C  C118  1  0.063180  0.341840  0.088600  1.0  0.7346
  C  C119  1  0.958100  0.395200  0.934200  1.0  -0.07
  C  C120  1  0.058140  0.305020  0.998900  1.0  0.0118
  C  C121  1  0.024580  0.323540  0.948500  1.0  0.1332
  C  C122  1  0.140800  0.156700  0.882300  1.0  0.3915
  C  C123  1  0.114400  0.174700  0.830500  1.0  -0.0384
  C  C124  1  0.208700  0.089700  0.893300  1.0  -0.0892
  C  C125  1  0.150800  0.119800  0.793000  1.0  -0.0254
  C  C126  1  0.244900  0.034700  0.857500  1.0  -0.0702
  C  C127  1  0.213900  0.050800  0.806800  1.0  -0.1161
  C  C128  1  0.254600  0.992300  0.765500  1.0  0.5815
  C  C129  1  0.379800  0.272500  0.225300  1.0  0.0483
  C  C130  1  0.499400  0.267400  0.252000  1.0  0.6598
  C  C131  1  0.465310  0.239280  0.221100  1.0  -0.138
  C  C132  1  0.346850  0.248100  0.195800  1.0  -0.129
  C  C133  1  0.256230  0.288740  0.196400  1.0  0.7211
  C  C134  1  0.518700  0.181500  0.186900  1.0  -0.0576
  C  C135  1  0.399300  0.190200  0.162800  1.0  -0.051
  C  C136  1  0.485500  0.156700  0.158900  1.0  0.2081
  C  C137  1  0.565100  0.014000  0.071200  1.0  0.1751
  C  C138  1  0.628000  0.032700  0.019100  1.0  -0.0784
  C  C139  1  0.545100  0.953000  0.077400  1.0  -0.1023
  C  C140  1  0.672600  0.989000  0.974000  1.0  -0.0386
  C  C141  1  0.591100  0.909100  0.030500  1.0  -0.0062
  C  C142  1  0.653700  0.924500  0.981900  1.0  -0.0921
  C  C143  1  0.701800  0.880500  0.929700  1.0  0.7337
  C  C144  1  0.591410  0.929080  0.523300  1.0  0.0091
  C  C145  1  0.663600  0.025400  0.456800  1.0  0.5199
  C  C146  1  0.656180  0.947940  0.471700  1.0  -0.1248
  C  C147  1  0.581160  0.858580  0.536700  1.0  -0.1433
  C  C148  1  0.506380  0.841840  0.588600  1.0  0.7312
  C  C149  1  0.712500  0.895200  0.434200  1.0  -0.0704
  C  C150  1  0.637940  0.805020  0.498900  1.0  0.0097
  C  C151  1  0.703380  0.823540  0.448500  1.0  0.1331
  C  C152  1  0.820200  0.656700  0.382300  1.0  0.3936
  C  C153  1  0.880400  0.674700  0.330500  1.0  -0.0416
  C  C154  1  0.808300  0.589700  0.393300  1.0  -0.0891
  C  C155  1  0.936400  0.619800  0.293000  1.0  -0.0172
  C  C156  1  0.862900  0.534700  0.357500  1.0  -0.0683
  C  C157  1  0.928500  0.550800  0.306800  1.0  -0.1154
  C  C158  1  0.987600  0.492300  0.265500  1.0  0.58
  C  C159  1  0.877600  0.227500  0.274700  1.0  0.0493
  C  C160  1  0.018800  0.232600  0.248000  1.0  0.6571
  C  C161  1  0.925690  0.260720  0.278900  1.0  -0.1379
  C  C162  1  0.790750  0.251900  0.304200  1.0  -0.1301
  C  C163  1  0.741370  0.211260  0.303600  1.0  0.7258
  C  C164  1  0.887100  0.318500  0.313100  1.0  -0.0567
  C  C165  1  0.752300  0.309800  0.337200  1.0  -0.0514
  C  C166  1  0.801100  0.343300  0.341100  1.0  0.208
  C  C167  1  0.650300  0.486000  0.428800  1.0  0.1746
  C  C168  1  0.679800  0.467300  0.480900  1.0  -0.0792
  C  C169  1  0.575500  0.547000  0.422600  1.0  -0.0957
  C  C170  1  0.635600  0.511000  0.526000  1.0  -0.0379
  C  C171  1  0.530700  0.590900  0.469500  1.0  -0.0044
  C  C172  1  0.560100  0.575500  0.518100  1.0  -0.0889
  C  C173  1  0.512000  0.619500  0.570300  1.0  0.7334
  C  C174  1  0.043790  0.570920  0.976700  1.0  0.0123
  C  C175  1  0.145800  0.474600  0.043200  1.0  0.5143
  C  C176  1  0.075820  0.552060  0.028300  1.0  -0.1243
  C  C177  1  0.976440  0.641420  0.963300  1.0  -0.1419
  C  C178  1  0.936820  0.658160  0.911400  1.0  0.7335
  C  C179  1  0.041900  0.604800  0.065800  1.0  -0.068
  C  C180  1  0.941860  0.694980  0.001100  1.0  0.009
  C  C181  1  0.975420  0.676460  0.051500  1.0  0.1334
  C  C182  1  0.859200  0.843300  0.117700  1.0  0.3922
  C  C183  1  0.885600  0.825300  0.169500  1.0  -0.0394
  C  C184  1  0.791300  0.910300  0.106700  1.0  -0.09
  C  C185  1  0.849200  0.880200  0.207000  1.0  -0.0245
  C  C186  1  0.755100  0.965300  0.142500  1.0  -0.0701
  C  C187  1  0.786100  0.949200  0.193200  1.0  -0.115
  C  C188  1  0.745400  0.007700  0.234500  1.0  0.5826
  N  N189  1  0.456430  0.898440  0.879300  1.0  -0.171
  N  N190  1  0.488210  0.938380  0.883600  1.0  -0.179
  N  N191  1  0.234430  0.227040  0.592900  1.0  -0.1537
  N  N192  1  0.241200  0.291800  0.576600  1.0  -0.1868
  N  N193  1  0.234170  0.601560  0.620700  1.0  -0.1715
  N  N194  1  0.310190  0.561620  0.616400  1.0  -0.1756
  N  N195  1  0.054370  0.272960  0.907100  1.0  -0.1565
  N  N196  1  0.109600  0.208200  0.923400  1.0  -0.1904
  N  N197  1  0.543570  0.101560  0.120700  1.0  -0.1689
  N  N198  1  0.511790  0.061620  0.116400  1.0  -0.1775
  N  N199  1  0.765570  0.772960  0.407100  1.0  -0.1521
  N  N200  1  0.758800  0.708200  0.423400  1.0  -0.1886
  N  N201  1  0.765830  0.398440  0.379300  1.0  -0.1693
  N  N202  1  0.689810  0.438380  0.383600  1.0  -0.1784
  N  N203  1  0.945630  0.727040  0.092900  1.0  -0.1546
  N  N204  1  0.890400  0.791800  0.076600  1.0  -0.1905
  O  O205  1  0.423120  0.763560  0.750600  1.0  -0.6807
  O  O206  1  0.551170  0.679360  0.720100  1.0  -0.5749
  O  O207  1  0.768080  0.723040  0.842000  1.0  -0.7907
  O  O208  1  0.794010  0.667880  0.766900  1.0  -0.6136
  O  O209  1  0.317370  0.174560  0.064700  1.0  -0.6698
  O  O210  1  0.242600  0.098600  0.116400  1.0  -0.5936
  O  O211  1  0.290580  0.949140  0.597500  1.0  -0.7204
  O  O212  1  0.380680  0.935440  0.501200  1.0  -0.5984
  O  O213  1  0.538740  0.114320  0.373600  1.0  -0.5751
  O  O214  1  0.508070  0.214860  0.411200  1.0  -0.6856
  O  O215  1  0.024600  0.561300  0.729100  1.0  -0.578
  O  O216  1  0.945600  0.494200  0.776200  1.0  -0.6447
  O  O217  1  0.937280  0.736440  0.749400  1.0  -0.6818
  O  O218  1  0.950630  0.820640  0.779900  1.0  -0.5727
  O  O219  1  0.333120  0.776960  0.658000  1.0  -0.7887
  O  O220  1  0.228790  0.832120  0.733100  1.0  -0.6183
  O  O221  1  0.556630  0.325440  0.435300  1.0  -0.6699
  O  O222  1  0.457600  0.401400  0.383600  1.0  -0.5954
  O  O223  1  0.837220  0.550860  0.902500  1.0  -0.7215
  O  O224  1  0.817320  0.564560  0.998800  1.0  -0.6003
  O  O225  1  0.026660  0.385680  0.126400  1.0  -0.574
  O  O226  1  0.134130  0.285140  0.088800  1.0  -0.6833
  O  O227  1  0.315000  0.938700  0.770900  1.0  -0.5773
  O  O228  1  0.216000  0.005800  0.723800  1.0  -0.6536
  O  O229  1  0.576880  0.236440  0.249400  1.0  -0.679
  O  O230  1  0.448830  0.320640  0.279900  1.0  -0.5763
  O  O231  1  0.231920  0.276960  0.158000  1.0  -0.7919
  O  O232  1  0.205990  0.332120  0.233100  1.0  -0.6155
  O  O233  1  0.682630  0.825440  0.935300  1.0  -0.6698
  O  O234  1  0.757400  0.901400  0.883600  1.0  -0.597
  O  O235  1  0.709420  0.050860  0.402500  1.0  -0.7201
  O  O236  1  0.619320  0.064560  0.498800  1.0  -0.6062
  O  O237  1  0.461260  0.885680  0.626400  1.0  -0.5736
  O  O238  1  0.491930  0.785140  0.588800  1.0  -0.6886
  O  O239  1  0.975400  0.438700  0.270900  1.0  -0.5755
  O  O240  1  0.054400  0.505800  0.223800  1.0  -0.6475
  O  O241  1  0.062720  0.263560  0.250600  1.0  -0.6829
  O  O242  1  0.049370  0.179360  0.220100  1.0  -0.5746
  O  O243  1  0.666880  0.223040  0.342000  1.0  -0.7873
  O  O244  1  0.771210  0.167880  0.266900  1.0  -0.6147
  O  O245  1  0.443370  0.674560  0.564700  1.0  -0.6695
  O  O246  1  0.542400  0.598600  0.616400  1.0  -0.593
  O  O247  1  0.162780  0.449140  0.097500  1.0  -0.7187
  O  O248  1  0.182680  0.435440  0.001200  1.0  -0.5984
  O  O249  1  0.973340  0.614320  0.873600  1.0  -0.5735
  O  O250  1  0.865870  0.714860  0.911200  1.0  -0.6854
  O  O251  1  0.685000  0.061300  0.229100  1.0  -0.5771
  O  O252  1  0.784000  0.994200  0.276200  1.0  -0.6548
