# generated using pymatgen
data_CoH3C9O5
_symmetry_space_group_name_H-M   'P 1'
_cell_length_a   14.44010000
_cell_length_b   19.69770000
_cell_length_c   19.69770000
_cell_angle_alpha   82.27870000
_cell_angle_beta   68.49750000
_cell_angle_gamma   68.49740000
_symmetry_Int_Tables_number   1
_chemical_formula_structural   CoH3C9O5
_chemical_formula_sum   'Co8 H24 C72 O40'
_cell_volume   4850.00084157
_cell_formula_units_Z   8
loop_
 _symmetry_equiv_pos_site_id
 _symmetry_equiv_pos_as_xyz
  1  'x, y, z'
loop_
 _atom_site_type_symbol
 _atom_site_label
 _atom_site_symmetry_multiplicity
 _atom_site_fract_x
 _atom_site_fract_y
 _atom_site_fract_z
 _atom_site_occupancy
 _atom_site_charge
  Co  Co1  1  0.169310  0.809500  0.177980  1.0  1.0139
  Co  Co2  1  0.156790  0.190500  0.822030  1.0  1.0106
  Co  Co3  1  0.652710  0.177970  0.190510  1.0  1.0121
  Co  Co4  1  0.021180  0.822030  0.809500  1.0  1.0109
  Co  Co5  1  0.093220  0.677970  0.309490  1.0  1.0127
  Co  Co6  1  0.080680  0.322030  0.690500  1.0  1.0118
  Co  Co7  1  0.228820  0.690500  0.677970  1.0  1.0121
  Co  Co8  1  0.597290  0.309500  0.322020  1.0  1.0137
  H  H9  1  0.767600  0.785200  0.333400  1.0  0.1389
  H  H10  1  0.865800  0.950300  0.229500  1.0  0.1427
  H  H11  1  0.552700  0.974800  0.298000  1.0  0.149
  H  H12  1  0.886200  0.214800  0.666667  1.0  0.1383
  H  H13  1  0.045600  0.049700  0.770500  1.0  0.1432
  H  H14  1  0.825500  0.025200  0.702000  1.0  0.1479
  H  H15  1  0.899000  0.333400  0.214800  1.0  0.1381
  H  H16  1  0.904700  0.229500  0.049700  1.0  0.143
  H  H17  1  0.149300  0.298000  0.025200  1.0  0.1502
  H  H18  1  0.447200  0.666667  0.785200  1.0  0.1383
  H  H19  1  0.183900  0.770500  0.950300  1.0  0.1426
  H  H20  1  0.472500  0.702000  0.974800  1.0  0.1485
  H  H21  1  0.363800  0.833400  0.285200  1.0  0.1385
  H  H22  1  0.204400  0.729500  0.450300  1.0  0.1428
  H  H23  1  0.424500  0.798000  0.474800  1.0  0.1502
  H  H24  1  0.482400  0.166600  0.714800  1.0  0.1381
  H  H25  1  0.384200  0.270500  0.549700  1.0  0.1429
  H  H26  1  0.697300  0.202000  0.525200  1.0  0.1489
  H  H27  1  0.802800  0.714800  0.833400  1.0  0.1386
  H  H28  1  0.066100  0.549700  0.729500  1.0  0.1419
  H  H29  1  0.777500  0.525200  0.798000  1.0  0.1478
  H  H30  1  0.351000  0.285200  0.166600  1.0  0.1388
  H  H31  1  0.345300  0.450300  0.270500  1.0  0.1431
  H  H32  1  0.100700  0.474800  0.202000  1.0  0.1487
  C  C33  1  0.942790  0.815300  0.274520  1.0  0.7292
  C  C34  1  0.647040  0.876590  0.323930  1.0  -0.0652
  C  C35  1  0.751820  0.833850  0.315510  1.0  0.0253
  C  C36  1  0.810330  0.931020  0.252920  1.0  0.0531
  C  C37  1  0.685200  0.050000  0.228400  1.0  0.6789
  C  C38  1  0.831620  0.861010  0.281950  1.0  -0.1142
  C  C39  1  0.623470  0.946050  0.294210  1.0  -0.0535
  C  C40  1  0.706300  0.972460  0.258740  1.0  -0.1025
  C  C41  1  0.563000  0.845850  0.360350  1.0  0.2385
  C  C42  1  0.032610  0.184700  0.725480  1.0  0.7297
  C  C43  1  0.847560  0.123410  0.676070  1.0  -0.065
  C  C44  1  0.901180  0.166150  0.684490  1.0  0.0306
  C  C45  1  0.994270  0.068980  0.747080  1.0  0.0524
  C  C46  1  0.963600  0.950000  0.771600  1.0  0.6745
  C  C47  1  0.974580  0.138990  0.718050  1.0  -0.1247
  C  C48  1  0.863730  0.053950  0.705790  1.0  -0.0532
  C  C49  1  0.937500  0.027540  0.741260  1.0  -0.1032
  C  C50  1  0.769200  0.154150  0.639650  1.0  0.2374
  C  C51  1  0.782690  0.274520  0.184700  1.0  0.7306
  C  C52  1  0.029030  0.323930  0.123410  1.0  -0.0641
  C  C53  1  0.932670  0.315510  0.166150  1.0  0.0253
  C  C54  1  0.936750  0.252920  0.068980  1.0  0.0513
  C  C55  1  0.086400  0.228400  0.950000  1.0  0.6741
  C  C56  1  0.886430  0.281950  0.138990  1.0  -0.1142
  C  C57  1  0.082320  0.294210  0.053950  1.0  -0.0509
  C  C58  1  0.034960  0.258740  0.027540  1.0  -0.1047
  C  C59  1  0.076650  0.360350  0.154150  1.0  0.2361
  C  C60  1  0.241910  0.725480  0.815300  1.0  0.7303
  C  C61  1  0.476370  0.676070  0.876590  1.0  -0.0664
  C  C62  1  0.414330  0.684490  0.833850  1.0  0.0297
  C  C63  1  0.258650  0.747080  0.931020  1.0  0.053
  C  C64  1  0.264800  0.771600  0.050000  1.0  0.6759
  C  C65  1  0.307370  0.718050  0.861010  1.0  -0.1163
  C  C66  1  0.430480  0.705790  0.946050  1.0  -0.0518
  C  C67  1  0.321240  0.741260  0.972460  1.0  -0.1046
  C  C68  1  0.591150  0.639650  0.845850  1.0  0.2364
  C  C69  1  0.217390  0.774520  0.315300  1.0  0.7285
  C  C70  1  0.402440  0.823930  0.376590  1.0  -0.0644
  C  C71  1  0.348820  0.815510  0.333850  1.0  0.0265
  C  C72  1  0.255730  0.752920  0.431020  1.0  0.0531
  C  C73  1  0.286400  0.728400  0.550000  1.0  0.6757
  C  C74  1  0.275420  0.781950  0.361010  1.0  -0.1155
  C  C75  1  0.386270  0.794210  0.446050  1.0  -0.0521
  C  C76  1  0.312500  0.758740  0.472460  1.0  -0.1046
  C  C77  1  0.480800  0.860350  0.345850  1.0  0.2362
  C  C78  1  0.307210  0.225480  0.684700  1.0  0.7306
  C  C79  1  0.602960  0.176070  0.623410  1.0  -0.065
  C  C80  1  0.498180  0.184490  0.666150  1.0  0.025
  C  C81  1  0.439670  0.247080  0.568980  1.0  0.0514
  C  C82  1  0.564800  0.271600  0.450000  1.0  0.6755
  C  C83  1  0.418380  0.218050  0.638990  1.0  -0.1143
  C  C84  1  0.626530  0.205790  0.553950  1.0  -0.0507
  C  C85  1  0.543700  0.241260  0.527540  1.0  -0.1041
  C  C86  1  0.687000  0.139650  0.654150  1.0  0.2363
  C  C87  1  0.008090  0.684700  0.774520  1.0  0.7297
  C  C88  1  0.773630  0.623410  0.823930  1.0  -0.0666
  C  C89  1  0.835670  0.666150  0.815510  1.0  0.0262
  C  C90  1  0.991350  0.568980  0.752920  1.0  0.0528
  C  C91  1  0.985200  0.450000  0.728400  1.0  0.6752
  C  C92  1  0.942630  0.638990  0.781950  1.0  -0.1147
  C  C93  1  0.819520  0.553950  0.794210  1.0  -0.0526
  C  C94  1  0.928760  0.527540  0.758740  1.0  -0.1021
  C  C95  1  0.658850  0.654150  0.860350  1.0  0.2385
  C  C96  1  0.467310  0.315300  0.225480  1.0  0.7298
  C  C97  1  0.220970  0.376590  0.176070  1.0  -0.0658
  C  C98  1  0.317330  0.333850  0.184490  1.0  0.0259
  C  C99  1  0.313250  0.431020  0.247080  1.0  0.0524
  C  C100  1  0.163600  0.550000  0.271600  1.0  0.6779
  C  C101  1  0.363570  0.361010  0.218050  1.0  -0.1142
  C  C102  1  0.167680  0.446050  0.205790  1.0  -0.054
  C  C103  1  0.215040  0.472460  0.241260  1.0  -0.1034
  C  C104  1  0.173350  0.345850  0.139650  1.0  0.2373
  O  O105  1  0.013580  0.843450  0.239090  1.0  -0.6072
  O  O106  1  0.759440  0.074510  0.203150  1.0  -0.5625
  O  O107  1  0.958490  0.753660  0.303860  1.0  -0.5859
  O  O108  1  0.594920  0.086880  0.228160  1.0  -0.5331
  O  O109  1  0.601000  0.777700  0.400100  1.0  -0.5389
  O  O110  1  0.096120  0.156550  0.760910  1.0  -0.6096
  O  O111  1  0.037100  0.925490  0.796850  1.0  -0.5602
  O  O112  1  0.016010  0.246340  0.696140  1.0  -0.5834
  O  O113  1  0.909960  0.913120  0.771840  1.0  -0.5359
  O  O114  1  0.778800  0.222300  0.599900  1.0  -0.538
  O  O115  1  0.747330  0.239090  0.156550  1.0  -0.6048
  O  O116  1  0.037410  0.203150  0.925490  1.0  -0.5637
  O  O117  1  0.737650  0.303860  0.246340  1.0  -0.5874
  O  O118  1  0.176920  0.228160  0.913120  1.0  -0.5325
  O  O119  1  0.998900  0.400100  0.222300  1.0  -0.5366
  O  O120  1  0.142970  0.760910  0.843450  1.0  -0.6073
  O  O121  1  0.166050  0.796850  0.074510  1.0  -0.5617
  O  O122  1  0.287850  0.696140  0.753660  1.0  -0.5862
  O  O123  1  0.318200  0.771840  0.086880  1.0  -0.5351
  O  O124  1  0.621300  0.599900  0.777700  1.0  -0.5387
  O  O125  1  0.153880  0.739090  0.343450  1.0  -0.6069
  O  O126  1  0.212900  0.703150  0.574510  1.0  -0.5621
  O  O127  1  0.233990  0.803860  0.253660  1.0  -0.5868
  O  O128  1  0.340040  0.728160  0.586880  1.0  -0.5336
  O  O129  1  0.471200  0.900100  0.277700  1.0  -0.5394
  O  O130  1  0.236420  0.260910  0.656550  1.0  -0.6054
  O  O131  1  0.490560  0.296850  0.425490  1.0  -0.5645
  O  O132  1  0.291510  0.196140  0.746340  1.0  -0.5837
  O  O133  1  0.655080  0.271840  0.413120  1.0  -0.5364
  O  O134  1  0.649000  0.099900  0.722300  1.0  -0.5373
  O  O135  1  0.107030  0.656550  0.739090  1.0  -0.6069
  O  O136  1  0.083950  0.425490  0.703150  1.0  -0.5641
  O  O137  1  0.962150  0.746340  0.803860  1.0  -0.5857
  O  O138  1  0.931800  0.413120  0.728160  1.0  -0.5334
  O  O139  1  0.628700  0.722300  0.900100  1.0  -0.5367
  O  O140  1  0.502670  0.343450  0.260910  1.0  -0.6099
  O  O141  1  0.212590  0.574510  0.296850  1.0  -0.5583
  O  O142  1  0.512350  0.253660  0.196140  1.0  -0.583
  O  O143  1  0.073080  0.586880  0.271840  1.0  -0.5337
  O  O144  1  0.251100  0.277700  0.099900  1.0  -0.54
