# generated using pymatgen
data_V2P2H6C3(O3F)2
_symmetry_space_group_name_H-M   'P 1'
_cell_length_a   7.56090000
_cell_length_b   14.18900000
_cell_length_c   11.17400000
_cell_angle_alpha   90.00000000
_cell_angle_beta   99.04000000
_cell_angle_gamma   90.00000000
_symmetry_Int_Tables_number   1
_chemical_formula_structural   V2P2H6C3(O3F)2
_chemical_formula_sum   'V8 P8 H24 C12 O24 F8'
_cell_volume   1183.87472058
_cell_formula_units_Z   4
loop_
 _symmetry_equiv_pos_site_id
 _symmetry_equiv_pos_as_xyz
  1  'x, y, z'
loop_
 _atom_site_type_symbol
 _atom_site_label
 _atom_site_symmetry_multiplicity
 _atom_site_fract_x
 _atom_site_fract_y
 _atom_site_fract_z
 _atom_site_occupancy
 _atom_site_charge
  V  V1  1  0.088050  0.202910  0.822500  1.0  1.3696
  V  V2  1  0.446660  0.268460  0.714240  1.0  1.6205
  V  V3  1  0.411950  0.702910  0.677500  1.0  1.3685
  V  V4  1  0.053340  0.768460  0.785760  1.0  1.62
  V  V5  1  0.911950  0.797090  0.177500  1.0  1.3699
  V  V6  1  0.553340  0.731540  0.285760  1.0  1.6188
  V  V7  1  0.588050  0.297090  0.322500  1.0  1.3713
  V  V8  1  0.946660  0.231540  0.214240  1.0  1.6191
  P  P9  1  0.780900  0.198730  0.580660  1.0  1.5723
  P  P10  1  0.727870  0.801820  0.557160  1.0  1.5792
  P  P11  1  0.719100  0.698730  0.919340  1.0  1.5715
  P  P12  1  0.772130  0.301820  0.942840  1.0  1.5787
  P  P13  1  0.219100  0.801270  0.419340  1.0  1.575
  P  P14  1  0.272130  0.198180  0.442840  1.0  1.5738
  P  P15  1  0.280900  0.301270  0.080660  1.0  1.576
  P  P16  1  0.227870  0.698180  0.057160  1.0  1.5747
  H  H17  1  0.661200  0.088700  0.443300  1.0  0.1286
  H  H18  1  0.870000  0.086700  0.457300  1.0  0.1124
  H  H19  1  0.612900  0.928000  0.444700  1.0  0.1108
  H  H20  1  0.816000  0.916500  0.436300  1.0  0.1301
  H  H21  1  0.891300  0.991600  0.626500  1.0  0.0766
  H  H22  1  0.686300  0.004300  0.633100  1.0  0.0911
  H  H23  1  0.838800  0.588700  0.056700  1.0  0.1284
  H  H24  1  0.630000  0.586700  0.042700  1.0  0.1135
  H  H25  1  0.887100  0.428000  0.055300  1.0  0.1144
  H  H26  1  0.684000  0.416500  0.063700  1.0  0.1293
  H  H27  1  0.608700  0.491600  0.873500  1.0  0.0746
  H  H28  1  0.813700  0.504300  0.866900  1.0  0.0901
  H  H29  1  0.338800  0.911300  0.556700  1.0  0.1285
  H  H30  1  0.130000  0.913300  0.542700  1.0  0.1132
  H  H31  1  0.387100  0.072000  0.555300  1.0  0.114
  H  H32  1  0.184000  0.083500  0.563700  1.0  0.1293
  H  H33  1  0.108700  0.008400  0.373500  1.0  0.0745
  H  H34  1  0.313700  0.995700  0.366900  1.0  0.0901
  H  H35  1  0.161200  0.411300  0.943300  1.0  0.1277
  H  H36  1  0.370000  0.413300  0.957300  1.0  0.1125
  H  H37  1  0.112900  0.572000  0.944700  1.0  0.1106
  H  H38  1  0.316000  0.583500  0.936300  1.0  0.1307
  H  H39  1  0.391300  0.508400  0.126500  1.0  0.0765
  H  H40  1  0.186300  0.495700  0.133100  1.0  0.0912
  C  C41  1  0.770200  0.089300  0.502100  1.0  -0.3811
  C  C42  1  0.729800  0.916800  0.492100  1.0  -0.379
  C  C43  1  0.773800  0.000000  0.578500  1.0  -0.109
  C  C44  1  0.729800  0.589300  0.997900  1.0  -0.3805
  C  C45  1  0.770200  0.416800  0.007900  1.0  -0.3792
  C  C46  1  0.726200  0.500000  0.921500  1.0  -0.1077
  C  C47  1  0.229800  0.910700  0.497900  1.0  -0.3821
  C  C48  1  0.270200  0.083200  0.507900  1.0  -0.3768
  C  C49  1  0.226200  0.000000  0.421500  1.0  -0.1078
  C  C50  1  0.270200  0.410700  0.002100  1.0  -0.3827
  C  C51  1  0.229800  0.583200  0.992100  1.0  -0.3776
  C  C52  1  0.273800  0.500000  0.078500  1.0  -0.109
  O  O53  1  0.636800  0.194140  0.662670  1.0  -0.8457
  O  O54  1  0.968900  0.211660  0.652130  1.0  -0.82
  O  O55  1  0.583000  0.797240  0.637480  1.0  -0.8286
  O  O56  1  0.743400  0.277780  0.486040  1.0  -0.8251
  O  O57  1  0.914400  0.781120  0.626170  1.0  -0.8368
  O  O58  1  0.688300  0.732240  0.451550  1.0  -0.8311
  O  O59  1  0.863200  0.694140  0.837330  1.0  -0.8465
  O  O60  1  0.531100  0.711660  0.847870  1.0  -0.8198
  O  O61  1  0.917000  0.297240  0.862520  1.0  -0.8296
  O  O62  1  0.756600  0.777780  0.013960  1.0  -0.8246
  O  O63  1  0.585600  0.281120  0.873830  1.0  -0.8359
  O  O64  1  0.811700  0.232240  0.048450  1.0  -0.8322
  O  O65  1  0.363200  0.805860  0.337330  1.0  -0.8472
  O  O66  1  0.031100  0.788340  0.347870  1.0  -0.8206
  O  O67  1  0.417000  0.202760  0.362520  1.0  -0.8296
  O  O68  1  0.256600  0.722220  0.513960  1.0  -0.8214
  O  O69  1  0.085600  0.218880  0.373830  1.0  -0.8353
  O  O70  1  0.311700  0.267760  0.548450  1.0  -0.8366
  O  O71  1  0.136800  0.305860  0.162670  1.0  -0.8457
  O  O72  1  0.468900  0.288340  0.152130  1.0  -0.8205
  O  O73  1  0.083000  0.702760  0.137480  1.0  -0.8282
  O  O74  1  0.243400  0.222220  0.986040  1.0  -0.8213
  O  O75  1  0.414400  0.718880  0.126170  1.0  -0.8359
  O  O76  1  0.188300  0.767760  0.951550  1.0  -0.8365
  F  F77  1  0.316400  0.158690  0.768490  1.0  -0.4169
  F  F78  1  0.241200  0.327940  0.761300  1.0  -0.5164
  F  F79  1  0.183600  0.658690  0.731510  1.0  -0.4169
  F  F80  1  0.258800  0.827940  0.738700  1.0  -0.5151
  F  F81  1  0.683600  0.841310  0.231510  1.0  -0.4158
  F  F82  1  0.758800  0.672060  0.238700  1.0  -0.5164
  F  F83  1  0.816400  0.341310  0.268490  1.0  -0.4148
  F  F84  1  0.741200  0.172060  0.261300  1.0  -0.518
