# generated using pymatgen
data_V7P8H18C8(O7F)4
_symmetry_space_group_name_H-M   'P 1'
_cell_length_a   9.09820000
_cell_length_b   11.85490000
_cell_length_c   12.01130000
_cell_angle_alpha   103.12800000
_cell_angle_beta   90.77500000
_cell_angle_gamma   91.88700000
_symmetry_Int_Tables_number   1
_chemical_formula_structural   V7P8H18C8(O7F)4
_chemical_formula_sum   'V7 P8 H18 C8 O28 F4'
_cell_volume   1260.68173089
_cell_formula_units_Z   1
loop_
 _symmetry_equiv_pos_site_id
 _symmetry_equiv_pos_as_xyz
  1  'x, y, z'
loop_
 _atom_site_type_symbol
 _atom_site_label
 _atom_site_symmetry_multiplicity
 _atom_site_fract_x
 _atom_site_fract_y
 _atom_site_fract_z
 _atom_site_occupancy
 _atom_site_charge
  V  V1  1  0.892970  0.393160  0.439110  1.0  1.3797
  V  V2  1  0.607970  0.766680  0.263820  1.0  1.883
  V  V3  1  0.101200  0.057890  0.110350  1.0  1.3644
  V  V4  1  0.107030  0.606840  0.560890  1.0  1.3789
  V  V5  1  0.392030  0.233320  0.736180  1.0  1.8834
  V  V6  1  0.898800  0.942110  0.889650  1.0  1.363
  V  V7  1  0.500000  0.000000  0.500000  1.0  1.7775
  P  P8  1  0.801970  0.653890  0.438830  1.0  1.5485
  P  P9  1  0.407150  0.725220  0.472260  1.0  1.585
  P  P10  1  0.771330  0.957650  0.140930  1.0  1.5697
  P  P11  1  0.375610  0.960210  0.237120  1.0  1.5796
  P  P12  1  0.198030  0.346110  0.561170  1.0  1.5472
  P  P13  1  0.592850  0.274780  0.527740  1.0  1.5886
  P  P14  1  0.228670  0.042350  0.859070  1.0  1.5667
  P  P15  1  0.624390  0.039790  0.762880  1.0  1.5809
  H  H16  1  0.637700  0.585200  0.153100  1.0  0.5336
  H  H17  1  0.745600  0.704100  0.629900  1.0  0.1416
  H  H18  1  0.695300  0.801600  0.567400  1.0  0.1621
  H  H19  1  0.498700  0.703500  0.646100  1.0  0.1439
  H  H20  1  0.526700  0.590400  0.548600  1.0  0.1599
  H  H21  1  0.656300  0.075200  0.290800  1.0  0.1573
  H  H22  1  0.687100  0.142600  0.192500  1.0  0.1482
  H  H23  1  0.476200  0.028200  0.089000  1.0  0.18
  H  H24  1  0.442800  0.133700  0.193200  1.0  0.1428
  H  H25  1  0.362300  0.414800  0.846900  1.0  0.5334
  H  H26  1  0.254400  0.295900  0.370100  1.0  0.1424
  H  H27  1  0.304700  0.198400  0.432600  1.0  0.1635
  H  H28  1  0.501300  0.296500  0.353900  1.0  0.1443
  H  H29  1  0.473300  0.409600  0.451400  1.0  0.1599
  H  H30  1  0.343700  0.924800  0.709200  1.0  0.1602
  H  H31  1  0.312900  0.857400  0.807500  1.0  0.1486
  H  H32  1  0.523800  0.971800  0.911000  1.0  0.1787
  H  H33  1  0.557200  0.866300  0.806800  1.0  0.1424
  C  C34  1  0.693900  0.716900  0.561100  1.0  -0.3767
  C  C35  1  0.532000  0.676200  0.566700  1.0  -0.4073
  C  C36  1  0.649000  0.068200  0.207100  1.0  -0.3783
  C  C37  1  0.484800  0.055900  0.173100  1.0  -0.4344
  C  C38  1  0.306100  0.283100  0.438900  1.0  -0.3742
  C  C39  1  0.468000  0.323800  0.433300  1.0  -0.4056
  C  C40  1  0.351000  0.931800  0.792900  1.0  -0.3809
  C  C41  1  0.515200  0.944100  0.826900  1.0  -0.437
  O  O42  1  0.772200  0.522000  0.407000  1.0  -0.7794
  O  O43  1  0.260900  0.658700  0.468300  1.0  -0.8139
  O  O44  1  0.962200  0.688900  0.481000  1.0  -0.7638
  O  O45  1  0.773200  0.706300  0.335400  1.0  -0.7953
  O  O46  1  0.470900  0.692300  0.352400  1.0  -0.8259
  O  O47  1  0.585000  0.638500  0.141500  1.0  -0.6636
  O  O48  1  0.747200  0.844100  0.180200  1.0  -0.8146
  O  O49  1  0.440600  0.839800  0.204400  1.0  -0.788
  O  O50  1  0.387600  0.856000  0.513200  1.0  -0.7951
  O  O51  1  0.628000  0.908200  0.398000  1.0  -0.6918
  O  O52  1  0.371900  0.007500  0.366300  1.0  -0.7963
  O  O53  1  0.219900  0.953600  0.184300  1.0  -0.8036
  O  O54  1  0.750900  0.936400  0.011000  1.0  -0.8009
  O  O55  1  0.925100  0.007600  0.186600  1.0  -0.7999
  O  O56  1  0.227800  0.478000  0.593000  1.0  -0.781
  O  O57  1  0.739100  0.341300  0.531700  1.0  -0.8123
  O  O58  1  0.037800  0.311100  0.519000  1.0  -0.7624
  O  O59  1  0.226800  0.293700  0.664600  1.0  -0.7968
  O  O60  1  0.529100  0.307700  0.647600  1.0  -0.8253
  O  O61  1  0.415000  0.361500  0.858500  1.0  -0.6603
  O  O62  1  0.252800  0.155900  0.819800  1.0  -0.8169
  O  O63  1  0.559400  0.160200  0.795600  1.0  -0.7853
  O  O64  1  0.612400  0.144000  0.486800  1.0  -0.7915
  O  O65  1  0.372000  0.091800  0.602000  1.0  -0.6931
  O  O66  1  0.628100  0.992500  0.633700  1.0  -0.7904
  O  O67  1  0.780100  0.046400  0.815700  1.0  -0.8047
  O  O68  1  0.249100  0.063600  0.989000  1.0  -0.8008
  O  O69  1  0.074900  0.992400  0.813400  1.0  -0.7992
  F  F70  1  0.934600  0.521650  0.599460  1.0  -0.528
  F  F71  1  0.041700  0.895420  0.992320  1.0  -0.5186
  F  F72  1  0.065400  0.478350  0.400540  1.0  -0.5309
  F  F73  1  0.958300  0.104580  0.007680  1.0  -0.5148
