# generated using pymatgen
data_Zn3P4(HO3)4
_symmetry_space_group_name_H-M   'P 1'
_cell_length_a   10.10340000
_cell_length_b   25.15500000
_cell_length_c   9.10400000
_cell_angle_alpha   90.00000000
_cell_angle_beta   90.00000000
_cell_angle_gamma   90.00000000
_symmetry_Int_Tables_number   1
_chemical_formula_structural   Zn3P4(HO3)4
_chemical_formula_sum   'Zn12 P16 H16 O48'
_cell_volume   2313.79094981
_cell_formula_units_Z   4
loop_
 _symmetry_equiv_pos_site_id
 _symmetry_equiv_pos_as_xyz
  1  'x, y, z'
loop_
 _atom_site_type_symbol
 _atom_site_label
 _atom_site_symmetry_multiplicity
 _atom_site_fract_x
 _atom_site_fract_y
 _atom_site_fract_z
 _atom_site_occupancy
 _atom_site_charge
  Zn  Zn1  1  0.157620  0.553010  0.120940  1.0  1.1423
  Zn  Zn2  1  0.342380  0.946990  0.120940  1.0  1.1424
  Zn  Zn3  1  0.842380  0.053010  0.379060  1.0  1.1426
  Zn  Zn4  1  0.657620  0.446990  0.379060  1.0  1.1424
  Zn  Zn5  1  0.842380  0.446990  0.879060  1.0  1.1429
  Zn  Zn6  1  0.657620  0.053010  0.879060  1.0  1.1427
  Zn  Zn7  1  0.157620  0.946990  0.620940  1.0  1.1425
  Zn  Zn8  1  0.342380  0.553010  0.620940  1.0  1.1427
  Zn  Zn9  1  0.250000  0.750000  0.344370  1.0  1.1184
  Zn  Zn10  1  0.750000  0.250000  0.155630  1.0  1.1182
  Zn  Zn11  1  0.750000  0.250000  0.655630  1.0  1.1182
  Zn  Zn12  1  0.250000  0.750000  0.844370  1.0  1.1184
  P  P13  1  0.109560  0.680700  0.097360  1.0  1.4668
  P  P14  1  0.431520  0.527630  0.284550  1.0  1.5241
  P  P15  1  0.390440  0.819300  0.097360  1.0  1.4745
  P  P16  1  0.068480  0.972370  0.284550  1.0  1.5268
  P  P17  1  0.890440  0.180700  0.402640  1.0  1.472
  P  P18  1  0.568480  0.027630  0.215450  1.0  1.5252
  P  P19  1  0.609560  0.319300  0.402640  1.0  1.4633
  P  P20  1  0.931520  0.472370  0.215450  1.0  1.5255
  P  P21  1  0.890440  0.319300  0.902640  1.0  1.4715
  P  P22  1  0.568480  0.472370  0.715450  1.0  1.5273
  P  P23  1  0.609560  0.180700  0.902640  1.0  1.4636
  P  P24  1  0.931520  0.027630  0.715450  1.0  1.5243
  P  P25  1  0.109560  0.819300  0.597360  1.0  1.4665
  P  P26  1  0.431520  0.972370  0.784550  1.0  1.525
  P  P27  1  0.390440  0.680700  0.597360  1.0  1.4749
  P  P28  1  0.068480  0.527630  0.784550  1.0  1.5251
  H  H29  1  0.000500  0.687900  0.036500  1.0  0.0478
  H  H30  1  0.501500  0.571000  0.290300  1.0  -0.048
  H  H31  1  0.499500  0.812100  0.036500  1.0  0.0475
  H  H32  1  0.998500  0.929000  0.290300  1.0  -0.0484
  H  H33  1  0.999500  0.187900  0.463500  1.0  0.0469
  H  H34  1  0.498500  0.071000  0.209700  1.0  -0.0489
  H  H35  1  0.500500  0.312100  0.463500  1.0  0.0458
  H  H36  1  0.001500  0.429000  0.209700  1.0  -0.047
  H  H37  1  0.999500  0.312100  0.963500  1.0  0.0466
  H  H38  1  0.498500  0.429000  0.709700  1.0  -0.0482
  H  H39  1  0.500500  0.187900  0.963500  1.0  0.0459
  H  H40  1  0.001500  0.071000  0.709700  1.0  -0.0478
  H  H41  1  0.000500  0.812100  0.536500  1.0  0.0471
  H  H42  1  0.501500  0.929000  0.790300  1.0  -0.0471
  H  H43  1  0.499500  0.687900  0.536500  1.0  0.048
  H  H44  1  0.998500  0.571000  0.790300  1.0  -0.0492
  O  O45  1  0.109600  0.722940  0.216700  1.0  -0.7387
  O  O46  1  0.198200  0.690870  0.967700  1.0  -0.7996
  O  O47  1  0.121400  0.625900  0.159100  1.0  -0.8245
  O  O48  1  0.338700  0.532750  0.155500  1.0  -0.779
  O  O49  1  0.528900  0.482520  0.250800  1.0  -0.7568
  O  O50  1  0.362100  0.520680  0.429700  1.0  -0.7953
  O  O51  1  0.390400  0.777060  0.216700  1.0  -0.7392
  O  O52  1  0.301800  0.809130  0.967700  1.0  -0.7996
  O  O53  1  0.378600  0.874100  0.159100  1.0  -0.8259
  O  O54  1  0.161300  0.967250  0.155500  1.0  -0.779
  O  O55  1  0.971100  0.017480  0.250800  1.0  -0.7566
  O  O56  1  0.137900  0.979320  0.429700  1.0  -0.7952
  O  O57  1  0.890400  0.222940  0.283300  1.0  -0.7381
  O  O58  1  0.801800  0.190870  0.532300  1.0  -0.7984
  O  O59  1  0.878600  0.125900  0.340900  1.0  -0.8255
  O  O60  1  0.661300  0.032750  0.344500  1.0  -0.7835
  O  O61  1  0.471100  0.982520  0.249200  1.0  -0.7575
  O  O62  1  0.637900  0.020680  0.070300  1.0  -0.7934
  O  O63  1  0.609600  0.277060  0.283300  1.0  -0.7396
  O  O64  1  0.698200  0.309130  0.532300  1.0  -0.7984
  O  O65  1  0.621400  0.374100  0.340900  1.0  -0.8251
  O  O66  1  0.838700  0.467250  0.344500  1.0  -0.7832
  O  O67  1  0.028900  0.517480  0.249200  1.0  -0.7561
  O  O68  1  0.862100  0.479320  0.070300  1.0  -0.7939
  O  O69  1  0.890400  0.277060  0.783300  1.0  -0.7386
  O  O70  1  0.801800  0.309130  0.032300  1.0  -0.7977
  O  O71  1  0.878600  0.374100  0.840900  1.0  -0.8256
  O  O72  1  0.661300  0.467250  0.844500  1.0  -0.7824
  O  O73  1  0.471100  0.517480  0.749200  1.0  -0.7567
  O  O74  1  0.637900  0.479320  0.570300  1.0  -0.7934
  O  O75  1  0.609600  0.222940  0.783300  1.0  -0.7381
  O  O76  1  0.698200  0.190870  0.032300  1.0  -0.7987
  O  O77  1  0.621400  0.125900  0.840900  1.0  -0.8251
  O  O78  1  0.838700  0.032750  0.844500  1.0  -0.782
  O  O79  1  0.028900  0.982520  0.749200  1.0  -0.7573
  O  O80  1  0.862100  0.020680  0.570300  1.0  -0.7935
  O  O81  1  0.109600  0.777060  0.716700  1.0  -0.7395
  O  O82  1  0.198200  0.809130  0.467700  1.0  -0.7989
  O  O83  1  0.121400  0.874100  0.659100  1.0  -0.8266
  O  O84  1  0.338700  0.967250  0.655500  1.0  -0.779
  O  O85  1  0.528900  0.017480  0.750800  1.0  -0.7561
  O  O86  1  0.362100  0.979320  0.929700  1.0  -0.7958
  O  O87  1  0.390400  0.722940  0.716700  1.0  -0.7378
  O  O88  1  0.301800  0.690870  0.467700  1.0  -0.7991
  O  O89  1  0.378600  0.625900  0.659100  1.0  -0.8261
  O  O90  1  0.161300  0.532750  0.655500  1.0  -0.7791
  O  O91  1  0.971100  0.482520  0.750800  1.0  -0.7571
  O  O92  1  0.137900  0.520680  0.929700  1.0  -0.7948
