# generated using pymatgen
data_Zn2P2H16C13(NO3)2
_symmetry_space_group_name_H-M   'P 1'
_cell_length_a   8.45900000
_cell_length_b   9.62200000
_cell_length_c   24.38900000
_cell_angle_alpha   90.00000000
_cell_angle_beta   90.00000000
_cell_angle_gamma   90.00000000
_symmetry_Int_Tables_number   1
_chemical_formula_structural   Zn2P2H16C13(NO3)2
_chemical_formula_sum   'Zn8 P8 H64 C52 N8 O24'
_cell_volume   1985.08163372
_cell_formula_units_Z   4
loop_
 _symmetry_equiv_pos_site_id
 _symmetry_equiv_pos_as_xyz
  1  'x, y, z'
loop_
 _atom_site_type_symbol
 _atom_site_label
 _atom_site_symmetry_multiplicity
 _atom_site_fract_x
 _atom_site_fract_y
 _atom_site_fract_z
 _atom_site_occupancy
 _atom_site_charge
  Zn  Zn1  1  0.773410  0.595520  0.535070  1.0  1.0795
  Zn  Zn2  1  0.773410  0.904480  0.964930  1.0  1.0795
  Zn  Zn3  1  0.726590  0.404480  0.035070  1.0  1.0805
  Zn  Zn4  1  0.726590  0.095520  0.464930  1.0  1.08
  Zn  Zn5  1  0.226590  0.404480  0.464930  1.0  1.0803
  Zn  Zn6  1  0.226590  0.095520  0.035070  1.0  1.0803
  Zn  Zn7  1  0.273410  0.595520  0.964930  1.0  1.0792
  Zn  Zn8  1  0.273410  0.904480  0.535070  1.0  1.0798
  P  P9  1  0.865540  0.397950  0.437630  1.0  1.529
  P  P10  1  0.865540  0.102050  0.062370  1.0  1.5296
  P  P11  1  0.634460  0.602050  0.937630  1.0  1.5295
  P  P12  1  0.634460  0.897950  0.562370  1.0  1.5305
  P  P13  1  0.134460  0.602050  0.562370  1.0  1.5304
  P  P14  1  0.134460  0.897950  0.937630  1.0  1.5296
  P  P15  1  0.365540  0.397950  0.062370  1.0  1.5297
  P  P16  1  0.365540  0.102050  0.437630  1.0  1.5289
  H  H17  1  0.779300  0.386700  0.393700  1.0  -0.2029
  H  H18  1  0.417900  0.208800  0.602500  1.0  0.1281
  H  H19  1  0.587900  0.315500  0.541600  1.0  0.0864
  H  H20  1  0.622400  0.643900  0.637800  1.0  0.0867
  H  H21  1  0.453000  0.545000  0.700700  1.0  0.1312
  H  H22  1  0.229200  0.369800  0.713700  1.0  0.096
  H  H23  1  0.250000  0.221300  0.684800  1.0  0.0899
  H  H24  1  0.474000  0.173200  0.737600  1.0  0.0691
  H  H25  1  0.779300  0.113300  0.106300  1.0  -0.2054
  H  H26  1  0.417900  0.291200  0.897500  1.0  0.1285
  H  H27  1  0.587900  0.184500  0.958400  1.0  0.0858
  H  H28  1  0.622400  0.856100  0.862200  1.0  0.0866
  H  H29  1  0.453000  0.955000  0.799300  1.0  0.1309
  H  H30  1  0.229200  0.130200  0.786300  1.0  0.0956
  H  H31  1  0.250000  0.278700  0.815200  1.0  0.0897
  H  H32  1  0.474000  0.326800  0.762400  1.0  0.069
  H  H33  1  0.720700  0.613300  0.893700  1.0  -0.203
  H  H34  1  0.082100  0.791200  0.102500  1.0  0.1282
  H  H35  1  0.912100  0.684500  0.041600  1.0  0.0879
  H  H36  1  0.877600  0.356100  0.137800  1.0  0.0866
  H  H37  1  0.047000  0.455000  0.200700  1.0  0.1318
  H  H38  1  0.270800  0.630200  0.213700  1.0  0.0962
  H  H39  1  0.250000  0.778700  0.184800  1.0  0.0897
  H  H40  1  0.026000  0.826800  0.237600  1.0  0.0699
  H  H41  1  0.720700  0.886700  0.606300  1.0  -0.2056
  H  H42  1  0.082100  0.708800  0.397500  1.0  0.1286
  H  H43  1  0.912100  0.815500  0.458400  1.0  0.0874
  H  H44  1  0.877600  0.143900  0.362200  1.0  0.0869
  H  H45  1  0.047000  0.045000  0.299300  1.0  0.1309
  H  H46  1  0.270800  0.869800  0.286300  1.0  0.0961
  H  H47  1  0.250000  0.721300  0.315200  1.0  0.0898
  H  H48  1  0.026000  0.673200  0.262400  1.0  0.0703
  H  H49  1  0.220700  0.613300  0.606300  1.0  -0.2056
  H  H50  1  0.582100  0.791200  0.397500  1.0  0.1283
  H  H51  1  0.412100  0.684500  0.458400  1.0  0.0873
  H  H52  1  0.377600  0.356100  0.362200  1.0  0.0865
  H  H53  1  0.547000  0.455000  0.299300  1.0  0.131
  H  H54  1  0.770800  0.630200  0.286300  1.0  0.0957
  H  H55  1  0.750000  0.778700  0.315200  1.0  0.0891
  H  H56  1  0.526000  0.826800  0.262400  1.0  0.0693
  H  H57  1  0.220700  0.886700  0.893700  1.0  -0.203
  H  H58  1  0.582100  0.708800  0.102500  1.0  0.1281
  H  H59  1  0.412100  0.815500  0.041600  1.0  0.0881
  H  H60  1  0.377600  0.143900  0.137800  1.0  0.0868
  H  H61  1  0.547000  0.045000  0.200700  1.0  0.131
  H  H62  1  0.770800  0.869800  0.213700  1.0  0.0963
  H  H63  1  0.750000  0.721300  0.184800  1.0  0.0894
  H  H64  1  0.526000  0.673200  0.237600  1.0  0.0696
  H  H65  1  0.279300  0.386700  0.106300  1.0  -0.2055
  H  H66  1  0.917900  0.208800  0.897500  1.0  0.1285
  H  H67  1  0.087900  0.315500  0.958400  1.0  0.0874
  H  H68  1  0.122400  0.643900  0.862200  1.0  0.0868
  H  H69  1  0.953000  0.545000  0.799300  1.0  0.1311
  H  H70  1  0.729200  0.369800  0.786300  1.0  0.0958
  H  H71  1  0.750000  0.221300  0.815200  1.0  0.0903
  H  H72  1  0.974000  0.173200  0.762400  1.0  0.0698
  H  H73  1  0.279300  0.113300  0.393700  1.0  -0.2027
  H  H74  1  0.917900  0.291200  0.602500  1.0  0.1284
  H  H75  1  0.087900  0.184500  0.541600  1.0  0.0877
  H  H76  1  0.122400  0.856100  0.637800  1.0  0.0865
  H  H77  1  0.953000  0.955000  0.700700  1.0  0.1318
  H  H78  1  0.729200  0.130200  0.713700  1.0  0.096
  H  H79  1  0.750000  0.278700  0.684800  1.0  0.0903
  H  H80  1  0.974000  0.326800  0.737600  1.0  0.0694
  C  C81  1  0.458100  0.298700  0.610580  1.0  -0.1952
  C  C82  1  0.559900  0.362600  0.574450  1.0  0.2036
  C  C83  1  0.580100  0.554300  0.630530  1.0  0.1841
  C  C84  1  0.478800  0.495800  0.668110  1.0  -0.2452
  C  C85  1  0.413700  0.364900  0.658780  1.0  0.167
  C  C86  1  0.307800  0.300500  0.701140  1.0  -0.1931
  C  C87  1  0.458100  0.201300  0.889420  1.0  -0.1953
  C  C88  1  0.559900  0.137400  0.925550  1.0  0.2024
  C  C89  1  0.580100  0.945700  0.869470  1.0  0.1833
  C  C90  1  0.478800  0.004200  0.831890  1.0  -0.243
  C  C91  1  0.413700  0.135100  0.841220  1.0  0.1667
  C  C92  1  0.307800  0.199500  0.798860  1.0  -0.1941
  C  C93  1  0.041900  0.701300  0.110580  1.0  -0.1961
  C  C94  1  0.940100  0.637400  0.074450  1.0  0.2034
  C  C95  1  0.919900  0.445700  0.130530  1.0  0.184
  C  C96  1  0.021200  0.504200  0.168110  1.0  -0.2436
  C  C97  1  0.086300  0.635100  0.158780  1.0  0.1662
  C  C98  1  0.192200  0.699500  0.201140  1.0  -0.1939
  C  C99  1  0.041900  0.798700  0.389420  1.0  -0.1953
  C  C100  1  0.940100  0.862600  0.425550  1.0  0.2013
  C  C101  1  0.919900  0.054300  0.369470  1.0  0.1845
  C  C102  1  0.021200  0.995800  0.331890  1.0  -0.2436
  C  C103  1  0.086300  0.864900  0.341220  1.0  0.167
  C  C104  1  0.192200  0.800500  0.298860  1.0  -0.1937
  C  C105  1  0.541900  0.701300  0.389420  1.0  -0.1953
  C  C106  1  0.440100  0.637400  0.425550  1.0  0.2011
  C  C107  1  0.419900  0.445700  0.369470  1.0  0.1839
  C  C108  1  0.521200  0.504200  0.331890  1.0  -0.2425
  C  C109  1  0.586300  0.635100  0.341220  1.0  0.1664
  C  C110  1  0.692200  0.699500  0.298860  1.0  -0.194
  C  C111  1  0.541900  0.798700  0.110580  1.0  -0.1951
  C  C112  1  0.440100  0.862600  0.074450  1.0  0.2032
  C  C113  1  0.419900  0.054300  0.130530  1.0  0.1841
  C  C114  1  0.521200  0.995800  0.168110  1.0  -0.2443
  C  C115  1  0.586300  0.864900  0.158780  1.0  0.1672
  C  C116  1  0.692200  0.800500  0.201140  1.0  -0.1926
  C  C117  1  0.958100  0.298700  0.889420  1.0  -0.1952
  C  C118  1  0.059900  0.362600  0.925550  1.0  0.2026
  C  C119  1  0.080100  0.554300  0.869470  1.0  0.1846
  C  C120  1  0.978800  0.495800  0.831890  1.0  -0.2444
  C  C121  1  0.913700  0.364900  0.841220  1.0  0.1668
  C  C122  1  0.807800  0.300500  0.798860  1.0  -0.1947
  C  C123  1  0.958100  0.201300  0.610580  1.0  -0.1961
  C  C124  1  0.059900  0.137400  0.574450  1.0  0.2038
  C  C125  1  0.080100  0.945700  0.630530  1.0  0.1832
  C  C126  1  0.978800  0.004200  0.668110  1.0  -0.2442
  C  C127  1  0.913700  0.135100  0.658780  1.0  0.1663
  C  C128  1  0.807800  0.199500  0.701140  1.0  -0.1936
  C  C129  1  0.404800  0.250000  0.750000  1.0  -0.0826
  C  C130  1  0.095200  0.750000  0.250000  1.0  -0.0829
  C  C131  1  0.595200  0.750000  0.250000  1.0  -0.0829
  C  C132  1  0.904800  0.250000  0.750000  1.0  -0.0826
  N  N133  1  0.621300  0.489200  0.583910  1.0  -0.3844
  N  N134  1  0.621300  0.010800  0.916090  1.0  -0.3808
  N  N135  1  0.878700  0.510800  0.083910  1.0  -0.3845
  N  N136  1  0.878700  0.989200  0.416090  1.0  -0.3841
  N  N137  1  0.378700  0.510800  0.416090  1.0  -0.3822
  N  N138  1  0.378700  0.989200  0.083910  1.0  -0.3845
  N  N139  1  0.121300  0.489200  0.916090  1.0  -0.3834
  N  N140  1  0.121300  0.010800  0.583910  1.0  -0.3834
  O  O141  1  0.823900  0.536740  0.462770  1.0  -0.8511
  O  O142  1  0.820100  0.277450  0.474050  1.0  -0.8586
  O  O143  1  0.037900  0.391370  0.418360  1.0  -0.88
  O  O144  1  0.823900  0.963260  0.037230  1.0  -0.8512
  O  O145  1  0.820100  0.222550  0.025950  1.0  -0.8594
  O  O146  1  0.037900  0.108630  0.081640  1.0  -0.8794
  O  O147  1  0.676100  0.463260  0.962770  1.0  -0.8519
  O  O148  1  0.679900  0.722550  0.974050  1.0  -0.8586
  O  O149  1  0.462100  0.608630  0.918360  1.0  -0.8784
  O  O150  1  0.676100  0.036740  0.537230  1.0  -0.8513
  O  O151  1  0.679900  0.777450  0.525950  1.0  -0.8595
  O  O152  1  0.462100  0.891370  0.581640  1.0  -0.8785
  O  O153  1  0.176100  0.463260  0.537230  1.0  -0.8516
  O  O154  1  0.179900  0.722550  0.525950  1.0  -0.8593
  O  O155  1  0.962100  0.608630  0.581640  1.0  -0.8783
  O  O156  1  0.176100  0.036740  0.962770  1.0  -0.8516
  O  O157  1  0.179900  0.777450  0.974050  1.0  -0.8586
  O  O158  1  0.962100  0.891370  0.918360  1.0  -0.8788
  O  O159  1  0.323900  0.536740  0.037230  1.0  -0.8508
  O  O160  1  0.320100  0.277450  0.025950  1.0  -0.8596
  O  O161  1  0.537900  0.391370  0.081640  1.0  -0.8797
  O  O162  1  0.323900  0.963260  0.462770  1.0  -0.8515
  O  O163  1  0.320100  0.222550  0.474050  1.0  -0.8587
  O  O164  1  0.537900  0.108630  0.418360  1.0  -0.8794
