# generated using pymatgen
data_Zn2P2H16C13(NO3)2
_symmetry_space_group_name_H-M   'P 1'
_cell_length_a   9.55330000
_cell_length_b   9.99470000
_cell_length_c   23.88660000
_cell_angle_alpha   90.00000000
_cell_angle_beta   90.00000000
_cell_angle_gamma   90.00000000
_symmetry_Int_Tables_number   1
_chemical_formula_structural   Zn2P2H16C13(NO3)2
_chemical_formula_sum   'Zn8 P8 H64 C52 N8 O24'
_cell_volume   2280.74911976
_cell_formula_units_Z   4
loop_
 _symmetry_equiv_pos_site_id
 _symmetry_equiv_pos_as_xyz
  1  'x, y, z'
loop_
 _atom_site_type_symbol
 _atom_site_label
 _atom_site_symmetry_multiplicity
 _atom_site_fract_x
 _atom_site_fract_y
 _atom_site_fract_z
 _atom_site_occupancy
 _atom_site_charge
  Zn  Zn1  1  0.825280  0.625510  0.488060  1.0  1.0823
  Zn  Zn2  1  0.325280  0.874490  0.511940  1.0  1.0833
  Zn  Zn3  1  0.174720  0.374490  0.988060  1.0  1.0819
  Zn  Zn4  1  0.674720  0.125510  0.011940  1.0  1.083
  Zn  Zn5  1  0.174720  0.374490  0.511940  1.0  1.083
  Zn  Zn6  1  0.674720  0.125510  0.488060  1.0  1.0818
  Zn  Zn7  1  0.825280  0.625510  0.011940  1.0  1.0832
  Zn  Zn8  1  0.325280  0.874490  0.988060  1.0  1.0824
  P  P9  1  0.112690  0.654180  0.561290  1.0  1.5203
  P  P10  1  0.612690  0.845820  0.438710  1.0  1.5184
  P  P11  1  0.887310  0.345820  0.061290  1.0  1.5192
  P  P12  1  0.387310  0.154180  0.938710  1.0  1.5184
  P  P13  1  0.887310  0.345820  0.438710  1.0  1.5183
  P  P14  1  0.387310  0.154180  0.561290  1.0  1.5198
  P  P15  1  0.112690  0.654180  0.938710  1.0  1.5188
  P  P16  1  0.612690  0.845820  0.061290  1.0  1.5195
  H  H17  1  0.068600  0.702800  0.608600  1.0  -0.2077
  H  H18  1  0.531800  0.624600  0.539600  1.0  0.0912
  H  H19  1  0.419700  0.531700  0.616200  1.0  0.1321
  H  H20  1  0.776600  0.334000  0.653100  1.0  0.1261
  H  H21  1  0.878700  0.429400  0.575500  1.0  0.0856
  H  H22  1  0.419500  0.386400  0.696600  1.0  0.1061
  H  H23  1  0.535600  0.271000  0.698200  1.0  0.1014
  H  H24  1  0.568600  0.797200  0.391400  1.0  -0.2055
  H  H25  1  0.031800  0.875400  0.460400  1.0  0.0912
  H  H26  1  0.919700  0.968300  0.383800  1.0  0.1322
  H  H27  1  0.276600  0.166000  0.346900  1.0  0.1261
  H  H28  1  0.378700  0.070600  0.424500  1.0  0.085
  H  H29  1  0.919500  0.113600  0.303400  1.0  0.1059
  H  H30  1  0.035600  0.229000  0.301800  1.0  0.1006
  H  H31  1  0.931400  0.297200  0.108600  1.0  -0.2087
  H  H32  1  0.468200  0.375400  0.039600  1.0  0.0909
  H  H33  1  0.580300  0.468300  0.116200  1.0  0.1324
  H  H34  1  0.223400  0.666000  0.153100  1.0  0.1256
  H  H35  1  0.121300  0.570600  0.075500  1.0  0.086
  H  H36  1  0.580500  0.613600  0.196600  1.0  0.1055
  H  H37  1  0.464400  0.729000  0.198200  1.0  0.1011
  H  H38  1  0.431400  0.202800  0.891400  1.0  -0.2057
  H  H39  1  0.968200  0.124600  0.960400  1.0  0.0912
  H  H40  1  0.080300  0.031700  0.883800  1.0  0.133
  H  H41  1  0.723400  0.834000  0.846900  1.0  0.1256
  H  H42  1  0.621300  0.929400  0.924500  1.0  0.0854
  H  H43  1  0.080500  0.886400  0.803400  1.0  0.1054
  H  H44  1  0.964400  0.771000  0.801800  1.0  0.1014
  H  H45  1  0.931400  0.297200  0.391400  1.0  -0.2059
  H  H46  1  0.468200  0.375400  0.460400  1.0  0.0912
  H  H47  1  0.580300  0.468300  0.383800  1.0  0.1326
  H  H48  1  0.223400  0.666000  0.346900  1.0  0.1257
  H  H49  1  0.121300  0.570600  0.424500  1.0  0.0854
  H  H50  1  0.580500  0.613600  0.303400  1.0  0.1054
  H  H51  1  0.464400  0.729000  0.301800  1.0  0.1007
  H  H52  1  0.431400  0.202800  0.608600  1.0  -0.2085
  H  H53  1  0.968200  0.124600  0.539600  1.0  0.0912
  H  H54  1  0.080300  0.031700  0.616200  1.0  0.1324
  H  H55  1  0.723400  0.834000  0.653100  1.0  0.1258
  H  H56  1  0.621300  0.929400  0.575500  1.0  0.0859
  H  H57  1  0.080500  0.886400  0.696600  1.0  0.1054
  H  H58  1  0.964400  0.771000  0.698200  1.0  0.1017
  H  H59  1  0.068600  0.702800  0.891400  1.0  -0.2056
  H  H60  1  0.531800  0.624600  0.960400  1.0  0.0911
  H  H61  1  0.419700  0.531700  0.883800  1.0  0.1324
  H  H62  1  0.776600  0.334000  0.846900  1.0  0.1261
  H  H63  1  0.878700  0.429400  0.924500  1.0  0.085
  H  H64  1  0.419500  0.386400  0.803400  1.0  0.1058
  H  H65  1  0.535600  0.271000  0.801800  1.0  0.1013
  H  H66  1  0.568600  0.797200  0.108600  1.0  -0.2079
  H  H67  1  0.031800  0.875400  0.039600  1.0  0.0909
  H  H68  1  0.919700  0.968300  0.116200  1.0  0.1324
  H  H69  1  0.276600  0.166000  0.153100  1.0  0.1257
  H  H70  1  0.378700  0.070600  0.075500  1.0  0.0855
  H  H71  1  0.919500  0.113600  0.196600  1.0  0.1061
  H  H72  1  0.035600  0.229000  0.198200  1.0  0.101
  H  H73  1  0.687200  0.417200  0.750000  1.0  0.0806
  H  H74  1  0.566800  0.528800  0.750000  1.0  0.0806
  H  H75  1  0.187200  0.082800  0.250000  1.0  0.0803
  H  H76  1  0.066800  0.971200  0.250000  1.0  0.0775
  H  H77  1  0.312800  0.582800  0.250000  1.0  0.0744
  H  H78  1  0.433200  0.471200  0.250000  1.0  0.0772
  H  H79  1  0.812800  0.917200  0.750000  1.0  0.0748
  H  H80  1  0.933200  0.028800  0.750000  1.0  0.0796
  C  C81  1  0.582400  0.565700  0.563400  1.0  0.2031
  C  C82  1  0.515000  0.510600  0.609130  1.0  -0.2242
  C  C83  1  0.586300  0.424600  0.644840  1.0  0.1739
  C  C84  1  0.724200  0.394600  0.630670  1.0  -0.2356
  C  C85  1  0.784800  0.452100  0.584440  1.0  0.1876
  C  C86  1  0.521500  0.369100  0.697230  1.0  -0.1923
  C  C87  1  0.082400  0.934300  0.436600  1.0  0.2036
  C  C88  1  0.015000  0.989400  0.390870  1.0  -0.2223
  C  C89  1  0.086300  0.075400  0.355160  1.0  0.1736
  C  C90  1  0.224200  0.105400  0.369330  1.0  -0.2357
  C  C91  1  0.284800  0.047900  0.415560  1.0  0.1874
  C  C92  1  0.021500  0.130900  0.302770  1.0  -0.1925
  C  C93  1  0.417600  0.434300  0.063400  1.0  0.2033
  C  C94  1  0.485000  0.489400  0.109130  1.0  -0.2214
  C  C95  1  0.413700  0.575400  0.144840  1.0  0.1742
  C  C96  1  0.275800  0.605400  0.130670  1.0  -0.236
  C  C97  1  0.215200  0.547900  0.084440  1.0  0.1889
  C  C98  1  0.478500  0.630900  0.197230  1.0  -0.1918
  C  C99  1  0.917600  0.065700  0.936600  1.0  0.2033
  C  C100  1  0.985000  0.010600  0.890870  1.0  -0.2228
  C  C101  1  0.913700  0.924600  0.855160  1.0  0.1743
  C  C102  1  0.775800  0.894600  0.869330  1.0  -0.236
  C  C103  1  0.715200  0.952100  0.915560  1.0  0.1882
  C  C104  1  0.978500  0.869100  0.802770  1.0  -0.1925
  C  C105  1  0.417600  0.434300  0.436600  1.0  0.204
  C  C106  1  0.485000  0.489400  0.390870  1.0  -0.2217
  C  C107  1  0.413700  0.575400  0.355160  1.0  0.1742
  C  C108  1  0.275800  0.605400  0.369330  1.0  -0.2357
  C  C109  1  0.215200  0.547900  0.415560  1.0  0.1885
  C  C110  1  0.478500  0.630900  0.302770  1.0  -0.1929
  C  C111  1  0.917600  0.065700  0.563400  1.0  0.2034
  C  C112  1  0.985000  0.010600  0.609130  1.0  -0.2231
  C  C113  1  0.913700  0.924600  0.644840  1.0  0.1744
  C  C114  1  0.775800  0.894600  0.630670  1.0  -0.2362
  C  C115  1  0.715200  0.952100  0.584440  1.0  0.1886
  C  C116  1  0.978500  0.869100  0.697230  1.0  -0.1916
  C  C117  1  0.582400  0.565700  0.936600  1.0  0.2029
  C  C118  1  0.515000  0.510600  0.890870  1.0  -0.2234
  C  C119  1  0.586300  0.424600  0.855160  1.0  0.1737
  C  C120  1  0.724200  0.394600  0.869330  1.0  -0.2353
  C  C121  1  0.784800  0.452100  0.915560  1.0  0.1874
  C  C122  1  0.521500  0.369100  0.802770  1.0  -0.1925
  C  C123  1  0.082400  0.934300  0.063400  1.0  0.2028
  C  C124  1  0.015000  0.989400  0.109130  1.0  -0.2222
  C  C125  1  0.086300  0.075400  0.144840  1.0  0.1738
  C  C126  1  0.224200  0.105400  0.130670  1.0  -0.2359
  C  C127  1  0.284800  0.047900  0.084440  1.0  0.1876
  C  C128  1  0.021500  0.130900  0.197230  1.0  -0.192
  C  C129  1  0.584600  0.431200  0.750000  1.0  -0.0852
  C  C130  1  0.084600  0.068800  0.250000  1.0  -0.0855
  C  C131  1  0.415400  0.568800  0.250000  1.0  -0.0856
  C  C132  1  0.915400  0.931200  0.750000  1.0  -0.0854
  N  N133  1  0.717100  0.538800  0.551380  1.0  -0.4161
  N  N134  1  0.217100  0.961200  0.448620  1.0  -0.4138
  N  N135  1  0.282900  0.461200  0.051380  1.0  -0.4182
  N  N136  1  0.782900  0.038800  0.948620  1.0  -0.4158
  N  N137  1  0.282900  0.461200  0.448620  1.0  -0.4152
  N  N138  1  0.782900  0.038800  0.551380  1.0  -0.4168
  N  N139  1  0.717100  0.538800  0.948620  1.0  -0.4142
  N  N140  1  0.217100  0.961200  0.051380  1.0  -0.4173
  O  O141  1  0.002310  0.687510  0.518390  1.0  -0.8732
  O  O142  1  0.131700  0.504500  0.570400  1.0  -0.8547
  O  O143  1  0.249800  0.722190  0.549100  1.0  -0.8428
  O  O144  1  0.502310  0.812490  0.481610  1.0  -0.8731
  O  O145  1  0.631700  0.995500  0.429600  1.0  -0.8548
  O  O146  1  0.749800  0.777810  0.450900  1.0  -0.843
  O  O147  1  0.997690  0.312490  0.018390  1.0  -0.8731
  O  O148  1  0.868300  0.495500  0.070400  1.0  -0.8551
  O  O149  1  0.750200  0.277810  0.049100  1.0  -0.8424
  O  O150  1  0.497690  0.187510  0.981610  1.0  -0.8736
  O  O151  1  0.368300  0.004500  0.929600  1.0  -0.8552
  O  O152  1  0.250200  0.222190  0.950900  1.0  -0.8429
  O  O153  1  0.997690  0.312490  0.481610  1.0  -0.8736
  O  O154  1  0.868300  0.495500  0.429600  1.0  -0.8537
  O  O155  1  0.750200  0.277810  0.450900  1.0  -0.8431
  O  O156  1  0.497690  0.187510  0.518390  1.0  -0.8736
  O  O157  1  0.368300  0.004500  0.570400  1.0  -0.8539
  O  O158  1  0.250200  0.222190  0.549100  1.0  -0.8425
  O  O159  1  0.002310  0.687510  0.981610  1.0  -0.8734
  O  O160  1  0.131700  0.504500  0.929600  1.0  -0.8544
  O  O161  1  0.249800  0.722190  0.950900  1.0  -0.8428
  O  O162  1  0.502310  0.812490  0.018390  1.0  -0.8732
  O  O163  1  0.631700  0.995500  0.070400  1.0  -0.8541
  O  O164  1  0.749800  0.777810  0.049100  1.0  -0.8427
