# generated using pymatgen
data_Zn5H9C27O19
_symmetry_space_group_name_H-M   'P 1'
_cell_length_a   19.72700000
_cell_length_b   28.38420000
_cell_length_c   28.38420000
_cell_angle_alpha   61.48530000
_cell_angle_beta   69.66550000
_cell_angle_gamma   69.66550000
_symmetry_Int_Tables_number   1
_chemical_formula_structural   Zn5H9C27O19
_chemical_formula_sum   'Zn40 H72 C216 O152'
_cell_volume   12772.98018675
_cell_formula_units_Z   8
loop_
 _symmetry_equiv_pos_site_id
 _symmetry_equiv_pos_as_xyz
  1  'x, y, z'
loop_
 _atom_site_type_symbol
 _atom_site_label
 _atom_site_symmetry_multiplicity
 _atom_site_fract_x
 _atom_site_fract_y
 _atom_site_fract_z
 _atom_site_occupancy
 _atom_site_charge
  Zn  Zn1  1  0.657420  0.520650  0.014430  1.0  1.1394
  Zn  Zn2  1  0.873510  0.449900  0.319380  1.0  1.0742
  Zn  Zn3  1  0.647090  0.697660  0.556420  1.0  0.8844
  Zn  Zn4  1  0.342580  0.985570  0.479350  1.0  1.1481
  Zn  Zn5  1  0.126490  0.680620  0.550100  1.0  1.0757
  Zn  Zn6  1  0.352910  0.443580  0.302340  1.0  0.883
  Zn  Zn7  1  0.192500  0.979350  0.485570  1.0  1.1409
  Zn  Zn8  1  0.642790  0.050100  0.180620  1.0  1.0791
  Zn  Zn9  1  0.901170  0.802340  0.943580  1.0  0.8863
  Zn  Zn10  1  0.807500  0.514430  0.020650  1.0  1.1479
  Zn  Zn11  1  0.357210  0.819380  0.949900  1.0  1.0753
  Zn  Zn12  1  0.098830  0.056420  0.197660  1.0  0.8831
  Zn  Zn13  1  0.342580  0.479350  0.985570  1.0  1.1481
  Zn  Zn14  1  0.126490  0.550100  0.680620  1.0  1.0751
  Zn  Zn15  1  0.352910  0.302340  0.443580  1.0  0.8865
  Zn  Zn16  1  0.657420  0.014430  0.520650  1.0  1.1405
  Zn  Zn17  1  0.873510  0.319380  0.449900  1.0  1.0756
  Zn  Zn18  1  0.647090  0.556420  0.697660  1.0  0.884
  Zn  Zn19  1  0.807500  0.020650  0.514430  1.0  1.1479
  Zn  Zn20  1  0.357210  0.949900  0.819380  1.0  1.0753
  Zn  Zn21  1  0.098830  0.197660  0.056420  1.0  0.8848
  Zn  Zn22  1  0.192500  0.485570  0.979350  1.0  1.1395
  Zn  Zn23  1  0.642790  0.180620  0.050100  1.0  1.0748
  Zn  Zn24  1  0.901170  0.943580  0.802340  1.0  0.8821
  Zn  Zn25  1  0.736450  0.424380  0.424380  1.0  1.0024
  Zn  Zn26  1  0.263550  0.575620  0.575620  1.0  1.0023
  Zn  Zn27  1  0.585210  0.075620  0.075620  1.0  1.0024
  Zn  Zn28  1  0.414790  0.924380  0.924380  1.0  1.0023
  Zn  Zn29  1  0.759080  0.604350  0.604350  1.0  0.9769
  Zn  Zn30  1  0.608060  0.593200  0.593200  1.0  0.9893
  Zn  Zn31  1  0.240920  0.395650  0.395650  1.0  0.9735
  Zn  Zn32  1  0.391940  0.406800  0.406800  1.0  0.9888
  Zn  Zn33  1  0.967780  0.895650  0.895650  1.0  0.9752
  Zn  Zn34  1  0.794460  0.906800  0.906800  1.0  0.9895
  Zn  Zn35  1  0.032220  0.104350  0.104350  1.0  0.9793
  Zn  Zn36  1  0.205540  0.093200  0.093200  1.0  0.9895
  Zn  Zn37  1  0.032930  0.717070  0.217070  1.0  1.1544
  Zn  Zn38  1  0.967070  0.782930  0.282930  1.0  1.1501
  Zn  Zn39  1  0.967070  0.282930  0.782930  1.0  1.1501
  Zn  Zn40  1  0.032930  0.217070  0.717070  1.0  1.1544
  H  H41  1  0.723400  0.561100  0.449500  1.0  0.1187
  H  H42  1  0.808000  0.689700  0.403500  1.0  0.1212
  H  H43  1  0.883000  0.603100  0.312700  1.0  0.1248
  H  H44  1  0.566300  0.472500  0.189300  1.0  0.1226
  H  H45  1  0.601700  0.441500  0.332500  1.0  0.1153
  H  H46  1  0.762800  0.479100  0.194700  1.0  0.1271
  H  H47  1  0.711800  0.558400  0.833600  1.0  0.1226
  H  H48  1  0.908800  0.541700  0.856700  1.0  0.1219
  H  H49  1  0.890500  0.575000  0.708200  1.0  0.1204
  H  H50  1  0.276600  0.550500  0.438900  1.0  0.1187
  H  H51  1  0.192000  0.596500  0.310300  1.0  0.12
  H  H52  1  0.117000  0.687300  0.396900  1.0  0.1245
  H  H53  1  0.433700  0.810700  0.527500  1.0  0.1233
  H  H54  1  0.398300  0.667500  0.558500  1.0  0.1158
  H  H55  1  0.237200  0.805300  0.520900  1.0  0.1265
  H  H56  1  0.288200  0.166400  0.441600  1.0  0.122
  H  H57  1  0.091200  0.143300  0.458300  1.0  0.1202
  H  H58  1  0.109500  0.291800  0.425000  1.0  0.1186
  H  H59  1  0.734000  0.938900  0.050500  1.0  0.1181
  H  H60  1  0.901200  0.810300  0.096500  1.0  0.1209
  H  H61  1  0.798800  0.896900  0.187300  1.0  0.1236
  H  H62  1  0.228100  0.027500  0.310700  1.0  0.1214
  H  H63  1  0.375700  0.058500  0.167500  1.0  0.1168
  H  H64  1  0.436600  0.020900  0.305300  1.0  0.1274
  H  H65  1  0.103800  0.941600  0.666400  1.0  0.1236
  H  H66  1  0.307200  0.958300  0.643300  1.0  0.1208
  H  H67  1  0.173700  0.925000  0.791800  1.0  0.1203
  H  H68  1  0.266000  0.949500  0.061100  1.0  0.1192
  H  H69  1  0.098800  0.903500  0.189700  1.0  0.1204
  H  H70  1  0.201200  0.812700  0.103100  1.0  0.1238
  H  H71  1  0.771900  0.689300  0.972500  1.0  0.1225
  H  H72  1  0.624300  0.832500  0.941500  1.0  0.1164
  H  H73  1  0.563400  0.694700  0.979100  1.0  0.1263
  H  H74  1  0.896200  0.333600  0.058400  1.0  0.1226
  H  H75  1  0.692800  0.356700  0.041700  1.0  0.1201
  H  H76  1  0.826300  0.208200  0.075000  1.0  0.1197
  H  H77  1  0.276600  0.438900  0.550500  1.0  0.1197
  H  H78  1  0.192000  0.310300  0.596500  1.0  0.1203
  H  H79  1  0.117000  0.396900  0.687300  1.0  0.1243
  H  H80  1  0.433700  0.527500  0.810700  1.0  0.1235
  H  H81  1  0.398300  0.558500  0.667500  1.0  0.1166
  H  H82  1  0.237200  0.520900  0.805300  1.0  0.1264
  H  H83  1  0.288200  0.441600  0.166400  1.0  0.123
  H  H84  1  0.091200  0.458300  0.143300  1.0  0.1209
  H  H85  1  0.109500  0.425000  0.291800  1.0  0.1198
  H  H86  1  0.723400  0.449500  0.561100  1.0  0.1184
  H  H87  1  0.808000  0.403500  0.689700  1.0  0.1202
  H  H88  1  0.883000  0.312700  0.603100  1.0  0.1241
  H  H89  1  0.566300  0.189300  0.472500  1.0  0.122
  H  H90  1  0.601700  0.332500  0.441500  1.0  0.1165
  H  H91  1  0.762800  0.194700  0.479100  1.0  0.1267
  H  H92  1  0.711800  0.833600  0.558400  1.0  0.1218
  H  H93  1  0.908800  0.856700  0.541700  1.0  0.122
  H  H94  1  0.890500  0.708200  0.575000  1.0  0.1184
  H  H95  1  0.266000  0.061100  0.949500  1.0  0.1183
  H  H96  1  0.098800  0.189700  0.903500  1.0  0.1221
  H  H97  1  0.201200  0.103100  0.812700  1.0  0.1242
  H  H98  1  0.771900  0.972500  0.689300  1.0  0.1221
  H  H99  1  0.624300  0.941500  0.832500  1.0  0.1149
  H  H100  1  0.563400  0.979100  0.694700  1.0  0.1271
  H  H101  1  0.896200  0.058400  0.333600  1.0  0.1231
  H  H102  1  0.692800  0.041700  0.356700  1.0  0.1207
  H  H103  1  0.826300  0.075000  0.208200  1.0  0.1203
  H  H104  1  0.734000  0.050500  0.938900  1.0  0.1191
  H  H105  1  0.901200  0.096500  0.810300  1.0  0.1207
  H  H106  1  0.798800  0.187300  0.896900  1.0  0.1247
  H  H107  1  0.228100  0.310700  0.027500  1.0  0.1225
  H  H108  1  0.375700  0.167500  0.058500  1.0  0.1158
  H  H109  1  0.436600  0.305300  0.020900  1.0  0.1264
  H  H110  1  0.103800  0.666400  0.941600  1.0  0.1225
  H  H111  1  0.307200  0.643300  0.958300  1.0  0.1208
  H  H112  1  0.173700  0.791800  0.925000  1.0  0.1206
  C  C113  1  0.802530  0.575070  0.379470  1.0  -0.1673
  C  C114  1  0.756510  0.583590  0.425590  1.0  -0.0011
  C  C115  1  0.759520  0.625680  0.436280  1.0  -0.0895
  C  C116  1  0.807730  0.659970  0.398170  1.0  -0.0226
  C  C117  1  0.854930  0.650970  0.352970  1.0  -0.1311
  C  C118  1  0.851840  0.609060  0.343460  1.0  0.0314
  C  C119  1  0.802420  0.526780  0.370980  1.0  0.7395
  C  C120  1  0.714640  0.631260  0.486860  1.0  0.6476
  C  C121  1  0.905890  0.688510  0.314310  1.0  0.7392
  C  C122  1  0.668800  0.479100  0.182500  1.0  -0.1501
  C  C123  1  0.597390  0.469210  0.209410  1.0  0.0428
  C  C124  1  0.572420  0.454580  0.265780  1.0  -0.1512
  C  C125  1  0.618180  0.450420  0.295020  1.0  0.0425
  C  C126  1  0.690120  0.459780  0.268380  1.0  -0.1803
  C  C127  1  0.714960  0.473540  0.212140  1.0  0.0383
  C  C128  1  0.694760  0.494440  0.121840  1.0  0.7324
  C  C129  1  0.496710  0.443090  0.295090  1.0  0.7408
  C  C130  1  0.739660  0.452940  0.303140  1.0  0.7442
  C  C131  1  0.793500  0.567300  0.765500  1.0  -0.1592
  C  C132  1  0.761980  0.558620  0.820020  1.0  0.029
  C  C133  1  0.804050  0.550350  0.854350  1.0  -0.1851
  C  C134  1  0.879730  0.548670  0.833470  1.0  0.0265
  C  C135  1  0.912030  0.556970  0.780170  1.0  -0.1034
  C  C136  1  0.869170  0.567630  0.745230  1.0  0.0098
  C  C137  1  0.749950  0.574950  0.727350  1.0  0.7187
  C  C138  1  0.771480  0.539220  0.913420  1.0  0.7132
  C  C139  1  0.995200  0.552000  0.758600  1.0  0.6169
  C  C140  1  0.197470  0.620530  0.424930  1.0  -0.17
  C  C141  1  0.243490  0.574410  0.416410  1.0  -0.0003
  C  C142  1  0.240480  0.563720  0.374320  1.0  -0.0891
  C  C143  1  0.192270  0.601830  0.340030  1.0  -0.0218
  C  C144  1  0.145070  0.647030  0.349030  1.0  -0.1314
  C  C145  1  0.148160  0.656540  0.390940  1.0  0.0305
  C  C146  1  0.197580  0.629020  0.473220  1.0  0.7369
  C  C147  1  0.285360  0.513140  0.368740  1.0  0.6503
  C  C148  1  0.094110  0.685690  0.311490  1.0  0.7402
  C  C149  1  0.331200  0.817500  0.520900  1.0  -0.1475
  C  C150  1  0.402610  0.790590  0.530790  1.0  0.0426
  C  C151  1  0.427580  0.734220  0.545420  1.0  -0.1512
  C  C152  1  0.381820  0.704980  0.549580  1.0  0.0432
  C  C153  1  0.309880  0.731620  0.540220  1.0  -0.1788
  C  C154  1  0.285040  0.787860  0.526460  1.0  0.0378
  C  C155  1  0.305240  0.878160  0.505560  1.0  0.7308
  C  C156  1  0.503290  0.704910  0.556910  1.0  0.7406
  C  C157  1  0.260340  0.696860  0.547060  1.0  0.7413
  C  C158  1  0.206500  0.234500  0.432700  1.0  -0.1574
  C  C159  1  0.238020  0.179980  0.441380  1.0  0.0311
  C  C160  1  0.195950  0.145650  0.449650  1.0  -0.1845
  C  C161  1  0.120270  0.166530  0.451330  1.0  0.0254
  C  C162  1  0.087970  0.219830  0.443030  1.0  -0.1039
  C  C163  1  0.130830  0.254770  0.432370  1.0  0.0094
  C  C164  1  0.250050  0.272650  0.425050  1.0  0.7182
  C  C165  1  0.228520  0.086580  0.460780  1.0  0.7132
  C  C166  1  0.004800  0.241400  0.448000  1.0  0.6197
  C  C167  1  0.757070  0.924930  0.120530  1.0  -0.1689
  C  C168  1  0.765690  0.916410  0.074410  1.0  -0.002
  C  C169  1  0.821480  0.874320  0.063720  1.0  -0.0897
  C  C170  1  0.865870  0.840030  0.101830  1.0  -0.023
  C  C171  1  0.858870  0.849030  0.147030  1.0  -0.1316
  C  C172  1  0.804360  0.890940  0.156540  1.0  0.0353
  C  C173  1  0.700180  0.973220  0.129020  1.0  0.7352
  C  C174  1  0.832760  0.868740  0.013140  1.0  0.6514
  C  C175  1  0.908710  0.811490  0.185690  1.0  0.7404
  C  C176  1  0.330400  0.020900  0.317500  1.0  -0.1488
  C  C177  1  0.276010  0.030790  0.290590  1.0  0.0402
  C  C178  1  0.292780  0.045420  0.234220  1.0  -0.1507
  C  C179  1  0.363620  0.049580  0.204980  1.0  0.0427
  C  C180  1  0.418280  0.040220  0.231620  1.0  -0.1791
  C  C181  1  0.400640  0.026460  0.287860  1.0  0.0373
  C  C182  1  0.311040  0.005560  0.378160  1.0  0.732
  C  C183  1  0.234890  0.056910  0.204910  1.0  0.7409
  C  C184  1  0.495740  0.047060  0.196860  1.0  0.7419
  C  C185  1  0.126300  0.932700  0.734500  1.0  -0.1578
  C  C186  1  0.140620  0.941380  0.679980  1.0  0.0245
  C  C187  1  0.208750  0.949650  0.645650  1.0  -0.1825
  C  C188  1  0.261870  0.951330  0.666530  1.0  0.0262
  C  C189  1  0.249170  0.943030  0.719830  1.0  -0.105
  C  C190  1  0.182030  0.932370  0.754770  1.0  0.0132
  C  C191  1  0.052250  0.925050  0.772650  1.0  0.7179
  C  C192  1  0.224120  0.960780  0.586580  1.0  0.7145
  C  C193  1  0.305800  0.948000  0.741400  1.0  0.6209
  C  C194  1  0.242930  0.879470  0.075070  1.0  -0.1701
  C  C195  1  0.234310  0.925590  0.083590  1.0  -0.0011
  C  C196  1  0.178520  0.936280  0.125680  1.0  -0.0892
  C  C197  1  0.134130  0.898170  0.159970  1.0  -0.0236
  C  C198  1  0.141130  0.852970  0.150970  1.0  -0.1316
  C  C199  1  0.195640  0.843460  0.109060  1.0  0.0324
  C  C200  1  0.299820  0.870980  0.026780  1.0  0.7355
  C  C201  1  0.167240  0.986860  0.131260  1.0  0.6495
  C  C202  1  0.091290  0.814310  0.188510  1.0  0.739
  C  C203  1  0.669600  0.682500  0.979100  1.0  -0.1479
  C  C204  1  0.723990  0.709410  0.969210  1.0  0.0434
  C  C205  1  0.707220  0.765780  0.954580  1.0  -0.1513
  C  C206  1  0.636380  0.795020  0.950420  1.0  0.0424
  C  C207  1  0.581720  0.768380  0.959780  1.0  -0.1785
  C  C208  1  0.599360  0.712140  0.973540  1.0  0.0376
  C  C209  1  0.688960  0.621840  0.994440  1.0  0.7318
  C  C210  1  0.765110  0.795090  0.943090  1.0  0.7384
  C  C211  1  0.504260  0.803140  0.952940  1.0  0.7423
  C  C212  1  0.873700  0.265500  0.067300  1.0  -0.1574
  C  C213  1  0.859380  0.320020  0.058620  1.0  0.0239
  C  C214  1  0.791250  0.354350  0.050350  1.0  -0.1841
  C  C215  1  0.738130  0.333470  0.048670  1.0  0.0258
  C  C216  1  0.750830  0.280170  0.056970  1.0  -0.1042
  C  C217  1  0.817970  0.245230  0.067630  1.0  0.0124
  C  C218  1  0.947750  0.227350  0.074950  1.0  0.7169
  C  C219  1  0.775880  0.413420  0.039220  1.0  0.7141
  C  C220  1  0.694200  0.258600  0.052000  1.0  0.6207
  C  C221  1  0.197470  0.424930  0.620530  1.0  -0.1663
  C  C222  1  0.243490  0.416410  0.574410  1.0  -0.0021
  C  C223  1  0.240480  0.374320  0.563720  1.0  -0.0897
  C  C224  1  0.192270  0.340030  0.601830  1.0  -0.0228
  C  C225  1  0.145070  0.349030  0.647030  1.0  -0.1315
  C  C226  1  0.148160  0.390940  0.656540  1.0  0.0312
  C  C227  1  0.197580  0.473220  0.629020  1.0  0.7354
  C  C228  1  0.285360  0.368740  0.513140  1.0  0.6468
  C  C229  1  0.094110  0.311490  0.685690  1.0  0.739
  C  C230  1  0.331200  0.520900  0.817500  1.0  -0.1469
  C  C231  1  0.402610  0.530790  0.790590  1.0  0.0437
  C  C232  1  0.427580  0.545420  0.734220  1.0  -0.1512
  C  C233  1  0.381820  0.549580  0.704980  1.0  0.0415
  C  C234  1  0.309880  0.540220  0.731620  1.0  -0.1803
  C  C235  1  0.285040  0.526460  0.787860  1.0  0.0366
  C  C236  1  0.305240  0.505560  0.878160  1.0  0.7333
  C  C237  1  0.503290  0.556910  0.704910  1.0  0.7392
  C  C238  1  0.260340  0.547060  0.696860  1.0  0.7443
  C  C239  1  0.206500  0.432700  0.234500  1.0  -0.1596
  C  C240  1  0.238020  0.441380  0.179980  1.0  0.026
  C  C241  1  0.195950  0.449650  0.145650  1.0  -0.1843
  C  C242  1  0.120270  0.451330  0.166530  1.0  0.0256
  C  C243  1  0.087970  0.443030  0.219830  1.0  -0.1035
  C  C244  1  0.130830  0.432370  0.254770  1.0  0.0103
  C  C245  1  0.250050  0.425050  0.272650  1.0  0.7188
  C  C246  1  0.228520  0.460780  0.086580  1.0  0.7138
  C  C247  1  0.004800  0.448000  0.241400  1.0  0.6209
  C  C248  1  0.802530  0.379470  0.575070  1.0  -0.1676
  C  C249  1  0.756510  0.425590  0.583590  1.0  -0.002
  C  C250  1  0.759520  0.436280  0.625680  1.0  -0.0894
  C  C251  1  0.807730  0.398170  0.659970  1.0  -0.0204
  C  C252  1  0.854930  0.352970  0.650970  1.0  -0.1312
  C  C253  1  0.851840  0.343460  0.609060  1.0  0.0322
  C  C254  1  0.802420  0.370980  0.526780  1.0  0.7377
  C  C255  1  0.714640  0.486860  0.631260  1.0  0.6501
  C  C256  1  0.905890  0.314310  0.688510  1.0  0.7406
  C  C257  1  0.668800  0.182500  0.479100  1.0  -0.1501
  C  C258  1  0.597390  0.209410  0.469210  1.0  0.0426
  C  C259  1  0.572420  0.265780  0.454580  1.0  -0.1509
  C  C260  1  0.618180  0.295020  0.450420  1.0  0.0416
  C  C261  1  0.690120  0.268380  0.459780  1.0  -0.1795
  C  C262  1  0.714960  0.212140  0.473540  1.0  0.0378
  C  C263  1  0.694760  0.121840  0.494440  1.0  0.7304
  C  C264  1  0.496710  0.295090  0.443090  1.0  0.7425
  C  C265  1  0.739660  0.303140  0.452940  1.0  0.7421
  C  C266  1  0.793500  0.765500  0.567300  1.0  -0.1581
  C  C267  1  0.761980  0.820020  0.558620  1.0  0.0262
  C  C268  1  0.804050  0.854350  0.550350  1.0  -0.1846
  C  C269  1  0.879730  0.833470  0.548670  1.0  0.0256
  C  C270  1  0.912030  0.780170  0.556970  1.0  -0.1038
  C  C271  1  0.869170  0.745230  0.567630  1.0  0.0111
  C  C272  1  0.749950  0.727350  0.574950  1.0  0.7181
  C  C273  1  0.771480  0.913420  0.539220  1.0  0.7136
  C  C274  1  0.995200  0.758600  0.552000  1.0  0.6167
  C  C275  1  0.242930  0.075070  0.879470  1.0  -0.1687
  C  C276  1  0.234310  0.083590  0.925590  1.0  -0.001
  C  C277  1  0.178520  0.125680  0.936280  1.0  -0.0899
  C  C278  1  0.134130  0.159970  0.898170  1.0  -0.0226
  C  C279  1  0.141130  0.150970  0.852970  1.0  -0.1317
  C  C280  1  0.195640  0.109060  0.843460  1.0  0.0328
  C  C281  1  0.299820  0.026780  0.870980  1.0  0.7349
  C  C282  1  0.167240  0.131260  0.986860  1.0  0.6518
  C  C283  1  0.091290  0.188510  0.814310  1.0  0.7402
  C  C284  1  0.669600  0.979100  0.682500  1.0  -0.1507
  C  C285  1  0.723990  0.969210  0.709410  1.0  0.0432
  C  C286  1  0.707220  0.954580  0.765780  1.0  -0.151
  C  C287  1  0.636380  0.950420  0.795020  1.0  0.0434
  C  C288  1  0.581720  0.959780  0.768380  1.0  -0.179
  C  C289  1  0.599360  0.973540  0.712140  1.0  0.0376
  C  C290  1  0.688960  0.994440  0.621840  1.0  0.731
  C  C291  1  0.765110  0.943090  0.795090  1.0  0.7396
  C  C292  1  0.504260  0.952940  0.803140  1.0  0.7419
  C  C293  1  0.873700  0.067300  0.265500  1.0  -0.157
  C  C294  1  0.859380  0.058620  0.320020  1.0  0.0263
  C  C295  1  0.791250  0.050350  0.354350  1.0  -0.1839
  C  C296  1  0.738130  0.048670  0.333470  1.0  0.0263
  C  C297  1  0.750830  0.056970  0.280170  1.0  -0.1052
  C  C298  1  0.817970  0.067630  0.245230  1.0  0.0122
  C  C299  1  0.947750  0.074950  0.227350  1.0  0.7177
  C  C300  1  0.775880  0.039220  0.413420  1.0  0.715
  C  C301  1  0.694200  0.052000  0.258600  1.0  0.6212
  C  C302  1  0.757070  0.120530  0.924930  1.0  -0.1693
  C  C303  1  0.765690  0.074410  0.916410  1.0  -0.0004
  C  C304  1  0.821480  0.063720  0.874320  1.0  -0.0891
  C  C305  1  0.865870  0.101830  0.840030  1.0  -0.0233
  C  C306  1  0.858870  0.147030  0.849030  1.0  -0.1314
  C  C307  1  0.804360  0.156540  0.890940  1.0  0.0309
  C  C308  1  0.700180  0.129020  0.973220  1.0  0.7365
  C  C309  1  0.832760  0.013140  0.868740  1.0  0.6488
  C  C310  1  0.908710  0.185690  0.811490  1.0  0.739
  C  C311  1  0.330400  0.317500  0.020900  1.0  -0.1466
  C  C312  1  0.276010  0.290590  0.030790  1.0  0.0426
  C  C313  1  0.292780  0.234220  0.045420  1.0  -0.1511
  C  C314  1  0.363620  0.204980  0.049580  1.0  0.0445
  C  C315  1  0.418280  0.231620  0.040220  1.0  -0.1782
  C  C316  1  0.400640  0.287860  0.026460  1.0  0.0385
  C  C317  1  0.311040  0.378160  0.005560  1.0  0.7314
  C  C318  1  0.234890  0.204910  0.056910  1.0  0.7408
  C  C319  1  0.495740  0.196860  0.047060  1.0  0.7418
  C  C320  1  0.126300  0.734500  0.932700  1.0  -0.1581
  C  C321  1  0.140620  0.679980  0.941380  1.0  0.0286
  C  C322  1  0.208750  0.645650  0.949650  1.0  -0.184
  C  C323  1  0.261870  0.666530  0.951330  1.0  0.0273
  C  C324  1  0.249170  0.719830  0.943030  1.0  -0.104
  C  C325  1  0.182030  0.754770  0.932370  1.0  0.0108
  C  C326  1  0.052250  0.772650  0.925050  1.0  0.7168
  C  C327  1  0.224120  0.586580  0.960780  1.0  0.7151
  C  C328  1  0.305800  0.741400  0.948000  1.0  0.6217
  O  O329  1  0.852640  0.516970  0.331150  1.0  -0.5918
  O  O330  1  0.754760  0.500600  0.401680  1.0  -0.6137
  O  O331  1  0.665600  0.607540  0.513860  1.0  -0.5514
  O  O332  1  0.948850  0.678350  0.273950  1.0  -0.6186
  O  O333  1  0.904970  0.726230  0.325030  1.0  -0.6049
  O  O334  1  0.760770  0.498660  0.100000  1.0  -0.5735
  O  O335  1  0.648710  0.501310  0.096070  1.0  -0.6358
  O  O336  1  0.461140  0.439860  0.268860  1.0  -0.5797
  O  O337  1  0.475580  0.437170  0.342470  1.0  -0.5829
  O  O338  1  0.711510  0.447730  0.349850  1.0  -0.627
  O  O339  1  0.806840  0.454540  0.279580  1.0  -0.5704
  O  O340  1  0.782160  0.580790  0.680890  1.0  -0.6337
  O  O341  1  0.684910  0.570590  0.746190  1.0  -0.5705
  O  O342  1  0.702920  0.540520  0.931440  1.0  -0.5869
  O  O343  1  0.816230  0.528880  0.942060  1.0  -0.6092
  O  O344  1  0.021510  0.564650  0.709730  1.0  -0.557
  O  O345  1  0.036500  0.518700  0.793500  1.0  -0.4346
  O  O346  1  0.752700  0.642200  0.511400  1.0  -0.7232
  O  O347  1  0.147360  0.668850  0.483030  1.0  -0.59
  O  O348  1  0.245240  0.598320  0.499400  1.0  -0.6137
  O  O349  1  0.334400  0.486140  0.392460  1.0  -0.5546
  O  O350  1  0.051150  0.726050  0.321650  1.0  -0.6197
  O  O351  1  0.095030  0.674970  0.273770  1.0  -0.6061
  O  O352  1  0.239230  0.900000  0.501340  1.0  -0.5738
  O  O353  1  0.351290  0.903930  0.498690  1.0  -0.6365
  O  O354  1  0.538860  0.731140  0.560140  1.0  -0.5823
  O  O355  1  0.524420  0.657530  0.562830  1.0  -0.5823
  O  O356  1  0.288490  0.650150  0.552270  1.0  -0.6271
  O  O357  1  0.193160  0.720420  0.545460  1.0  -0.5717
  O  O358  1  0.217840  0.319110  0.419210  1.0  -0.6366
  O  O359  1  0.315090  0.253810  0.429410  1.0  -0.5727
  O  O360  1  0.297080  0.068560  0.459480  1.0  -0.5891
  O  O361  1  0.183770  0.057940  0.471120  1.0  -0.6088
  O  O362  1  0.978490  0.290270  0.435350  1.0  -0.5567
  O  O363  1  0.963500  0.206500  0.481300  1.0  -0.4331
  O  O364  1  0.247300  0.488600  0.357800  1.0  -0.7197
  O  O365  1  0.700760  0.983030  0.168850  1.0  -0.5886
  O  O366  1  0.657040  0.999400  0.098320  1.0  -0.6113
  O  O367  1  0.787000  0.892460  0.986140  1.0  -0.5544
  O  O368  1  0.901150  0.821650  0.226050  1.0  -0.6203
  O  O369  1  0.956230  0.773770  0.174970  1.0  -0.6064
  O  O370  1  0.359430  0.001340  0.400000  1.0  -0.5739
  O  O371  1  0.246090  0.998690  0.403930  1.0  -0.6369
  O  O372  1  0.169860  0.060140  0.231140  1.0  -0.5801
  O  O373  1  0.255220  0.062830  0.157530  1.0  -0.5812
  O  O374  1  0.509090  0.052270  0.150150  1.0  -0.625
  O  O375  1  0.540960  0.045460  0.220420  1.0  -0.5719
  O  O376  1  0.043840  0.919210  0.819110  1.0  -0.6353
  O  O377  1  0.001690  0.929410  0.753810  1.0  -0.5771
  O  O378  1  0.174880  0.959480  0.568560  1.0  -0.5885
  O  O379  1  0.287170  0.971120  0.557940  1.0  -0.6079
  O  O380  1  0.295890  0.935350  0.790270  1.0  -0.5579
  O  O381  1  0.348700  0.981300  0.706500  1.0  -0.4336
  O  O382  1  0.906300  0.857800  0.988600  1.0  -0.721
  O  O383  1  0.299240  0.831150  0.016970  1.0  -0.5932
  O  O384  1  0.342960  0.901680  0.000600  1.0  -0.613
  O  O385  1  0.213000  0.013860  0.107540  1.0  -0.5534
  O  O386  1  0.098850  0.773950  0.178350  1.0  -0.6182
  O  O387  1  0.043770  0.825030  0.226230  1.0  -0.6055
  O  O388  1  0.640570  0.600000  0.998660  1.0  -0.5741
  O  O389  1  0.753910  0.596070  0.001310  1.0  -0.636
  O  O390  1  0.830140  0.768860  0.939860  1.0  -0.5801
  O  O391  1  0.744780  0.842470  0.937170  1.0  -0.5859
  O  O392  1  0.490910  0.849850  0.947730  1.0  -0.6282
  O  O393  1  0.459040  0.779580  0.954540  1.0  -0.5723
  O  O394  1  0.956160  0.180890  0.080790  1.0  -0.6343
  O  O395  1  0.998310  0.246190  0.070590  1.0  -0.5771
  O  O396  1  0.825120  0.431440  0.040520  1.0  -0.5874
  O  O397  1  0.712830  0.442060  0.028880  1.0  -0.609
  O  O398  1  0.704110  0.209730  0.064650  1.0  -0.5561
  O  O399  1  0.651300  0.293500  0.018700  1.0  -0.4391
  O  O400  1  0.093700  0.011400  0.142200  1.0  -0.7187
  O  O401  1  0.147360  0.483030  0.668850  1.0  -0.5886
  O  O402  1  0.245240  0.499400  0.598320  1.0  -0.6125
  O  O403  1  0.334400  0.392460  0.486140  1.0  -0.5533
  O  O404  1  0.051150  0.321650  0.726050  1.0  -0.619
  O  O405  1  0.095030  0.273770  0.674970  1.0  -0.6051
  O  O406  1  0.239230  0.501340  0.900000  1.0  -0.5738
  O  O407  1  0.351290  0.498690  0.903930  1.0  -0.636
  O  O408  1  0.538860  0.560140  0.731140  1.0  -0.5808
  O  O409  1  0.524420  0.562830  0.657530  1.0  -0.5817
  O  O410  1  0.288490  0.552270  0.650150  1.0  -0.6251
  O  O411  1  0.193160  0.545460  0.720420  1.0  -0.5709
  O  O412  1  0.217840  0.419210  0.319110  1.0  -0.635
  O  O413  1  0.315090  0.429410  0.253810  1.0  -0.5736
  O  O414  1  0.297080  0.459480  0.068560  1.0  -0.588
  O  O415  1  0.183770  0.471120  0.057940  1.0  -0.6082
  O  O416  1  0.978490  0.435350  0.290270  1.0  -0.5574
  O  O417  1  0.963500  0.481300  0.206500  1.0  -0.4393
  O  O418  1  0.247300  0.357800  0.488600  1.0  -0.7216
  O  O419  1  0.852640  0.331150  0.516970  1.0  -0.5924
  O  O420  1  0.754760  0.401680  0.500600  1.0  -0.6146
  O  O421  1  0.665600  0.513860  0.607540  1.0  -0.5538
  O  O422  1  0.948850  0.273950  0.678350  1.0  -0.6181
  O  O423  1  0.904970  0.325030  0.726230  1.0  -0.6047
  O  O424  1  0.760770  0.100000  0.498660  1.0  -0.574
  O  O425  1  0.648710  0.096070  0.501310  1.0  -0.6361
  O  O426  1  0.461140  0.268860  0.439860  1.0  -0.5834
  O  O427  1  0.475580  0.342470  0.437170  1.0  -0.5825
  O  O428  1  0.711510  0.349850  0.447730  1.0  -0.6299
  O  O429  1  0.806840  0.279580  0.454540  1.0  -0.573
  O  O430  1  0.782160  0.680890  0.580790  1.0  -0.6336
  O  O431  1  0.684910  0.746190  0.570590  1.0  -0.5731
  O  O432  1  0.702920  0.931440  0.540520  1.0  -0.5881
  O  O433  1  0.816230  0.942060  0.528880  1.0  -0.6095
  O  O434  1  0.021510  0.709730  0.564650  1.0  -0.5558
  O  O435  1  0.036500  0.793500  0.518700  1.0  -0.4333
  O  O436  1  0.752700  0.511400  0.642200  1.0  -0.7214
  O  O437  1  0.299240  0.016970  0.831150  1.0  -0.5911
  O  O438  1  0.342960  0.000600  0.901680  1.0  -0.6119
  O  O439  1  0.213000  0.107540  0.013860  1.0  -0.5552
  O  O440  1  0.098850  0.178350  0.773950  1.0  -0.6184
  O  O441  1  0.043770  0.226230  0.825030  1.0  -0.6053
  O  O442  1  0.640570  0.998660  0.600000  1.0  -0.5733
  O  O443  1  0.753910  0.001310  0.596070  1.0  -0.636
  O  O444  1  0.830140  0.939860  0.768860  1.0  -0.5787
  O  O445  1  0.744780  0.937170  0.842470  1.0  -0.5818
  O  O446  1  0.490910  0.947730  0.849850  1.0  -0.6255
  O  O447  1  0.459040  0.954540  0.779580  1.0  -0.5687
  O  O448  1  0.956160  0.080790  0.180890  1.0  -0.6342
  O  O449  1  0.998310  0.070590  0.246190  1.0  -0.5743
  O  O450  1  0.825120  0.040520  0.431440  1.0  -0.5882
  O  O451  1  0.712830  0.028880  0.442060  1.0  -0.6096
  O  O452  1  0.704110  0.064650  0.209730  1.0  -0.5561
  O  O453  1  0.651300  0.018700  0.293500  1.0  -0.4347
  O  O454  1  0.093700  0.142200  0.011400  1.0  -0.7207
  O  O455  1  0.700760  0.168850  0.983030  1.0  -0.5926
  O  O456  1  0.657040  0.098320  0.999400  1.0  -0.6121
  O  O457  1  0.787000  0.986140  0.892460  1.0  -0.5542
  O  O458  1  0.901150  0.226050  0.821650  1.0  -0.6204
  O  O459  1  0.956230  0.174970  0.773770  1.0  -0.6064
  O  O460  1  0.359430  0.400000  0.001340  1.0  -0.5739
  O  O461  1  0.246090  0.403930  0.998690  1.0  -0.6355
  O  O462  1  0.169860  0.231140  0.060140  1.0  -0.5804
  O  O463  1  0.255220  0.157530  0.062830  1.0  -0.5834
  O  O464  1  0.509090  0.150150  0.052270  1.0  -0.6252
  O  O465  1  0.540960  0.220420  0.045460  1.0  -0.5721
  O  O466  1  0.043840  0.819110  0.919210  1.0  -0.6374
  O  O467  1  0.001690  0.753810  0.929410  1.0  -0.5721
  O  O468  1  0.174880  0.568560  0.959480  1.0  -0.5877
  O  O469  1  0.287170  0.557940  0.971120  1.0  -0.6091
  O  O470  1  0.295890  0.790270  0.935350  1.0  -0.557
  O  O471  1  0.348700  0.706500  0.981300  1.0  -0.4347
  O  O472  1  0.906300  0.988600  0.857800  1.0  -0.7201
  O  O473  1  0.852500  0.395500  0.395500  1.0  -0.7708
  O  O474  1  0.147500  0.604500  0.604500  1.0  -0.7698
  O  O475  1  0.643500  0.104500  0.104500  1.0  -0.7712
  O  O476  1  0.356500  0.895500  0.895500  1.0  -0.7702
  O  O477  1  0.655020  0.621780  0.621780  1.0  -0.9438
  O  O478  1  0.344980  0.378220  0.378220  1.0  -0.943
  O  O479  1  0.898580  0.878220  0.878220  1.0  -0.9421
  O  O480  1  0.101420  0.121780  0.121780  1.0  -0.9442
