# generated using pymatgen
data_NiH9C9(NO2)2
_symmetry_space_group_name_H-M   'P 1'
_cell_length_a   6.83710000
_cell_length_b   22.27210000
_cell_length_c   7.73080000
_cell_angle_alpha   90.00000000
_cell_angle_beta   90.00000000
_cell_angle_gamma   90.00000000
_symmetry_Int_Tables_number   1
_chemical_formula_structural   NiH9C9(NO2)2
_chemical_formula_sum   'Ni4 H36 C36 N8 O16'
_cell_volume   1177.21974531
_cell_formula_units_Z   4
loop_
 _symmetry_equiv_pos_site_id
 _symmetry_equiv_pos_as_xyz
  1  'x, y, z'
loop_
 _atom_site_type_symbol
 _atom_site_label
 _atom_site_symmetry_multiplicity
 _atom_site_fract_x
 _atom_site_fract_y
 _atom_site_fract_z
 _atom_site_occupancy
 _atom_site_charge
  Ni  Ni1  1  0.943920  0.787410  0.741720  1.0  0.8665
  Ni  Ni2  1  0.056080  0.212590  0.741720  1.0  0.8667
  Ni  Ni3  1  0.443920  0.712590  0.258280  1.0  0.867
  Ni  Ni4  1  0.556080  0.287410  0.258280  1.0  0.8668
  H  H5  1  0.155400  0.699700  0.650100  1.0  0.3151
  H  H6  1  0.095000  0.688600  0.833400  1.0  0.3025
  H  H7  1  0.838100  0.615800  0.886100  1.0  0.1269
  H  H8  1  0.645200  0.625000  0.773100  1.0  0.1436
  H  H9  1  0.939000  0.628100  0.606400  1.0  0.0762
  H  H10  1  0.524100  0.828100  0.765700  1.0  0.0805
  H  H11  1  0.338300  0.914700  0.732600  1.0  0.118
  H  H12  1  0.819100  0.007400  0.652900  1.0  0.1081
  H  H13  1  0.987900  0.918100  0.629100  1.0  0.088
  H  H14  1  0.844600  0.300300  0.650100  1.0  0.3141
  H  H15  1  0.905000  0.311400  0.833400  1.0  0.3017
  H  H16  1  0.161900  0.384200  0.886100  1.0  0.1259
  H  H17  1  0.354800  0.375000  0.773100  1.0  0.1427
  H  H18  1  0.061000  0.371900  0.606400  1.0  0.0756
  H  H19  1  0.475900  0.171900  0.765700  1.0  0.0805
  H  H20  1  0.661700  0.085300  0.732600  1.0  0.1187
  H  H21  1  0.180900  0.992600  0.652900  1.0  0.1087
  H  H22  1  0.012100  0.081900  0.629100  1.0  0.0879
  H  H23  1  0.655400  0.800300  0.349900  1.0  0.3154
  H  H24  1  0.595000  0.811400  0.166600  1.0  0.304
  H  H25  1  0.338100  0.884200  0.113900  1.0  0.1257
  H  H26  1  0.145200  0.875000  0.226900  1.0  0.1428
  H  H27  1  0.439000  0.871900  0.393600  1.0  0.0753
  H  H28  1  0.024100  0.671900  0.234300  1.0  0.0806
  H  H29  1  0.838300  0.585300  0.267400  1.0  0.1176
  H  H30  1  0.319100  0.492600  0.347100  1.0  0.1089
  H  H31  1  0.487900  0.581900  0.370900  1.0  0.0882
  H  H32  1  0.344600  0.199700  0.349900  1.0  0.3153
  H  H33  1  0.405000  0.188600  0.166600  1.0  0.3035
  H  H34  1  0.661900  0.115800  0.113900  1.0  0.1268
  H  H35  1  0.854800  0.125000  0.226900  1.0  0.1427
  H  H36  1  0.561000  0.128100  0.393600  1.0  0.0761
  H  H37  1  0.975900  0.328100  0.234300  1.0  0.0807
  H  H38  1  0.161700  0.414700  0.267400  1.0  0.119
  H  H39  1  0.680900  0.507400  0.347100  1.0  0.1091
  H  H40  1  0.512100  0.418100  0.370900  1.0  0.0879
  C  C41  1  0.695900  0.695820  0.942000  1.0  0.731
  C  C42  1  0.763100  0.645610  0.818200  1.0  -0.381
  C  C43  1  0.887000  0.664730  0.665600  1.0  0.0849
  C  C44  1  0.762700  0.700980  0.536600  1.0  0.6208
  C  C45  1  0.588000  0.865780  0.755600  1.0  0.1576
  C  C46  1  0.473800  0.916910  0.759000  1.0  -0.2147
  C  C47  1  0.557200  0.971700  0.715600  1.0  0.0974
  C  C48  1  0.754200  0.970700  0.677900  1.0  -0.1997
  C  C49  1  0.859100  0.918400  0.675300  1.0  0.1423
  C  C50  1  0.304100  0.304180  0.942000  1.0  0.7303
  C  C51  1  0.236900  0.354390  0.818200  1.0  -0.3822
  C  C52  1  0.113000  0.335270  0.665600  1.0  0.0856
  C  C53  1  0.237300  0.299020  0.536600  1.0  0.621
  C  C54  1  0.412000  0.134220  0.755600  1.0  0.158
  C  C55  1  0.526200  0.083090  0.759000  1.0  -0.2159
  C  C56  1  0.442800  0.028300  0.715600  1.0  0.0973
  C  C57  1  0.245800  0.029300  0.677900  1.0  -0.201
  C  C58  1  0.140900  0.081600  0.675300  1.0  0.1438
  C  C59  1  0.195900  0.804180  0.058000  1.0  0.731
  C  C60  1  0.263100  0.854390  0.181800  1.0  -0.3808
  C  C61  1  0.387000  0.835270  0.334400  1.0  0.0862
  C  C62  1  0.262700  0.799020  0.463400  1.0  0.6225
  C  C63  1  0.088000  0.634220  0.244400  1.0  0.1582
  C  C64  1  0.973800  0.583090  0.241000  1.0  -0.2153
  C  C65  1  0.057200  0.528300  0.284400  1.0  0.0972
  C  C66  1  0.254200  0.529300  0.322100  1.0  -0.1998
  C  C67  1  0.359100  0.581600  0.324700  1.0  0.1429
  C  C68  1  0.804100  0.195820  0.058000  1.0  0.7306
  C  C69  1  0.736900  0.145610  0.181800  1.0  -0.3812
  C  C70  1  0.613000  0.164730  0.334400  1.0  0.0857
  C  C71  1  0.737300  0.200980  0.463400  1.0  0.6219
  C  C72  1  0.912000  0.365780  0.244400  1.0  0.1589
  C  C73  1  0.026200  0.416910  0.241000  1.0  -0.2153
  C  C74  1  0.942800  0.471700  0.284400  1.0  0.0971
  C  C75  1  0.745800  0.470700  0.322100  1.0  -0.2013
  C  C76  1  0.640900  0.418400  0.324700  1.0  0.1431
  N  N77  1  0.052700  0.701550  0.726800  1.0  -0.6418
  N  N78  1  0.779400  0.865880  0.739100  1.0  -0.2996
  N  N79  1  0.947300  0.298450  0.726800  1.0  -0.6444
  N  N80  1  0.220600  0.134120  0.739100  1.0  -0.3014
  N  N81  1  0.552700  0.798450  0.273200  1.0  -0.6432
  N  N82  1  0.279400  0.634120  0.260900  1.0  -0.2996
  N  N83  1  0.447300  0.201550  0.273200  1.0  -0.6437
  N  N84  1  0.720600  0.365880  0.260900  1.0  -0.3017
  O  O85  1  0.736300  0.749760  0.917200  1.0  -0.5872
  O  O86  1  0.600000  0.674950  0.067600  1.0  -0.6047
  O  O87  1  0.648600  0.672990  0.438400  1.0  -0.5754
  O  O88  1  0.785700  0.757050  0.538700  1.0  -0.5532
  O  O89  1  0.263700  0.250240  0.917200  1.0  -0.5867
  O  O90  1  0.400000  0.325050  0.067600  1.0  -0.6058
  O  O91  1  0.351400  0.327010  0.438400  1.0  -0.5762
  O  O92  1  0.214300  0.242950  0.538700  1.0  -0.5528
  O  O93  1  0.236300  0.750240  0.082800  1.0  -0.5867
  O  O94  1  0.100000  0.825050  0.932400  1.0  -0.6046
  O  O95  1  0.148600  0.827010  0.561600  1.0  -0.5757
  O  O96  1  0.285700  0.742950  0.461300  1.0  -0.5529
  O  O97  1  0.763700  0.249760  0.082800  1.0  -0.5863
  O  O98  1  0.900000  0.174950  0.932400  1.0  -0.6051
  O  O99  1  0.851400  0.172990  0.561600  1.0  -0.5764
  O  O100  1  0.714300  0.257050  0.461300  1.0  -0.5536
