# generated using pymatgen
data_NiH9C9(NO2)2
_symmetry_space_group_name_H-M   'P 1'
_cell_length_a   6.56970000
_cell_length_b   22.61670000
_cell_length_c   7.85110000
_cell_angle_alpha   90.00000000
_cell_angle_beta   90.15400000
_cell_angle_gamma   90.00000000
_symmetry_Int_Tables_number   1
_chemical_formula_structural   NiH9C9(NO2)2
_chemical_formula_sum   'Ni4 H36 C36 N8 O16'
_cell_volume   1166.55096148
_cell_formula_units_Z   4
loop_
 _symmetry_equiv_pos_site_id
 _symmetry_equiv_pos_as_xyz
  1  'x, y, z'
loop_
 _atom_site_type_symbol
 _atom_site_label
 _atom_site_symmetry_multiplicity
 _atom_site_fract_x
 _atom_site_fract_y
 _atom_site_fract_z
 _atom_site_occupancy
 _atom_site_charge
  Ni  Ni1  1  0.546770  0.209820  0.605980  1.0  0.8699
  Ni  Ni2  1  0.953230  0.709820  0.894020  1.0  0.8699
  Ni  Ni3  1  0.453230  0.790180  0.394020  1.0  0.8692
  Ni  Ni4  1  0.046770  0.290180  0.105980  1.0  0.8693
  H  H5  1  0.872200  0.193700  0.044600  1.0  0.2703
  H  H6  1  0.820700  0.209900  0.219800  1.0  0.3064
  H  H7  1  0.964000  0.158800  0.678600  1.0  0.074
  H  H8  1  0.154500  0.074600  0.643400  1.0  0.1327
  H  H9  1  0.037400  0.138500  0.273100  1.0  0.0704
  H  H10  1  0.684300  0.003900  0.388800  1.0  0.1238
  H  H11  1  0.506300  0.089000  0.436800  1.0  0.0768
  H  H12  1  0.129000  0.117100  0.001600  1.0  0.1162
  H  H13  1  0.332400  0.127600  0.100800  1.0  0.1364
  H  H14  1  0.627800  0.693700  0.455400  1.0  0.269
  H  H15  1  0.679300  0.709900  0.280200  1.0  0.3041
  H  H16  1  0.536000  0.658800  0.821400  1.0  0.0735
  H  H17  1  0.345500  0.574600  0.856600  1.0  0.1319
  H  H18  1  0.462600  0.638500  0.226900  1.0  0.0706
  H  H19  1  0.815700  0.503900  0.111200  1.0  0.1242
  H  H20  1  0.993700  0.589000  0.063200  1.0  0.0775
  H  H21  1  0.371000  0.617100  0.498400  1.0  0.1165
  H  H22  1  0.167600  0.627600  0.399200  1.0  0.1389
  H  H23  1  0.127800  0.806300  0.955400  1.0  0.2678
  H  H24  1  0.179300  0.790100  0.780200  1.0  0.3042
  H  H25  1  0.036000  0.841200  0.321400  1.0  0.0739
  H  H26  1  0.845500  0.925400  0.356600  1.0  0.1323
  H  H27  1  0.962600  0.861500  0.726900  1.0  0.0709
  H  H28  1  0.315700  0.996100  0.611200  1.0  0.124
  H  H29  1  0.493700  0.911000  0.563200  1.0  0.077
  H  H30  1  0.871000  0.882900  0.998400  1.0  0.1164
  H  H31  1  0.667600  0.872400  0.899200  1.0  0.1379
  H  H32  1  0.372200  0.306300  0.544600  1.0  0.2703
  H  H33  1  0.320700  0.290100  0.719800  1.0  0.3061
  H  H34  1  0.464000  0.341200  0.178600  1.0  0.0741
  H  H35  1  0.654500  0.425400  0.143400  1.0  0.132
  H  H36  1  0.537400  0.361500  0.773100  1.0  0.0703
  H  H37  1  0.184300  0.496100  0.888800  1.0  0.1243
  H  H38  1  0.006300  0.411000  0.936800  1.0  0.0768
  H  H39  1  0.629000  0.382900  0.501600  1.0  0.1173
  H  H40  1  0.832400  0.372400  0.600800  1.0  0.137
  C  C41  1  0.236300  0.208230  0.321100  1.0  0.6426
  C  C42  1  0.906100  0.126950  0.621500  1.0  0.1726
  C  C43  1  0.022800  0.076270  0.600000  1.0  -0.203
  C  C44  1  0.941400  0.027940  0.513000  1.0  0.0934
  C  C45  1  0.092500  0.171530  0.206700  1.0  0.0497
  C  C46  1  0.279100  0.191840  0.920400  1.0  0.7186
  C  C47  1  0.744500  0.034460  0.450300  1.0  -0.174
  C  C48  1  0.638300  0.086100  0.479000  1.0  0.1744
  C  C49  1  0.211700  0.147060  0.056800  1.0  -0.382
  C  C50  1  0.263700  0.708230  0.178900  1.0  0.6428
  C  C51  1  0.593900  0.626950  0.878500  1.0  0.1703
  C  C52  1  0.477200  0.576270  0.900000  1.0  -0.2037
  C  C53  1  0.558600  0.527940  0.987000  1.0  0.0937
  C  C54  1  0.407500  0.671530  0.293300  1.0  0.0492
  C  C55  1  0.220900  0.691840  0.579600  1.0  0.7182
  C  C56  1  0.755500  0.534460  0.049700  1.0  -0.1743
  C  C57  1  0.861700  0.586100  0.021000  1.0  0.1719
  C  C58  1  0.288300  0.647060  0.443200  1.0  -0.3797
  C  C59  1  0.763700  0.791770  0.678900  1.0  0.6429
  C  C60  1  0.093900  0.873050  0.378500  1.0  0.1708
  C  C61  1  0.977200  0.923730  0.400000  1.0  -0.2046
  C  C62  1  0.058600  0.972060  0.487000  1.0  0.0944
  C  C63  1  0.907500  0.828470  0.793300  1.0  0.0499
  C  C64  1  0.720900  0.808160  0.079600  1.0  0.7187
  C  C65  1  0.255500  0.965540  0.549700  1.0  -0.1754
  C  C66  1  0.361700  0.913900  0.521000  1.0  0.1719
  C  C67  1  0.788300  0.852940  0.943200  1.0  -0.376
  C  C68  1  0.736300  0.291770  0.821100  1.0  0.6426
  C  C69  1  0.406100  0.373050  0.121500  1.0  0.1722
  C  C70  1  0.522800  0.423730  0.100000  1.0  -0.2032
  C  C71  1  0.441400  0.472060  0.013000  1.0  0.0938
  C  C72  1  0.592500  0.328470  0.706700  1.0  0.0496
  C  C73  1  0.779100  0.308160  0.420400  1.0  0.719
  C  C74  1  0.244500  0.465540  0.950300  1.0  -0.1751
  C  C75  1  0.138300  0.413900  0.979000  1.0  0.1743
  C  C76  1  0.711700  0.352940  0.556800  1.0  -0.3773
  N  N77  1  0.921900  0.208300  0.142900  1.0  -0.6477
  N  N78  1  0.715400  0.132340  0.564500  1.0  -0.324
  N  N79  1  0.578100  0.708300  0.357100  1.0  -0.6469
  N  N80  1  0.784600  0.632340  0.935500  1.0  -0.3232
  N  N81  1  0.078100  0.791700  0.857100  1.0  -0.6489
  N  N82  1  0.284600  0.867660  0.435500  1.0  -0.3233
  N  N83  1  0.421900  0.291700  0.642900  1.0  -0.6486
  N  N84  1  0.215400  0.367660  0.064500  1.0  -0.3235
  O  O85  1  0.342400  0.180200  0.427580  1.0  -0.6014
  O  O86  1  0.378200  0.168680  0.800410  1.0  -0.5935
  O  O87  1  0.238000  0.263080  0.298800  1.0  -0.5533
  O  O88  1  0.236200  0.245990  0.931200  1.0  -0.5507
  O  O89  1  0.157600  0.680200  0.072420  1.0  -0.6004
  O  O90  1  0.121800  0.668680  0.699590  1.0  -0.5932
  O  O91  1  0.262000  0.763080  0.201200  1.0  -0.552
  O  O92  1  0.263800  0.745990  0.568800  1.0  -0.551
  O  O93  1  0.657600  0.819800  0.572420  1.0  -0.5999
  O  O94  1  0.621800  0.831320  0.199590  1.0  -0.5926
  O  O95  1  0.762000  0.736920  0.701200  1.0  -0.5519
  O  O96  1  0.763800  0.754010  0.068800  1.0  -0.5508
  O  O97  1  0.842400  0.319800  0.927580  1.0  -0.6009
  O  O98  1  0.878200  0.331320  0.300410  1.0  -0.5931
  O  O99  1  0.738000  0.236920  0.798800  1.0  -0.5526
  O  O100  1  0.736200  0.254010  0.431200  1.0  -0.5501
