# generated using pymatgen
data_VH4C8O5
_symmetry_space_group_name_H-M   'P 1'
_cell_length_a   6.79600000
_cell_length_b   10.21400000
_cell_length_c   18.41000000
_cell_angle_alpha   90.00000000
_cell_angle_beta   90.00000000
_cell_angle_gamma   90.00000000
_symmetry_Int_Tables_number   1
_chemical_formula_structural   VH4C8O5
_chemical_formula_sum   'V4 H16 C32 O20'
_cell_volume   1277.91807304
_cell_formula_units_Z   4
loop_
 _symmetry_equiv_pos_site_id
 _symmetry_equiv_pos_as_xyz
  1  'x, y, z'
loop_
 _atom_site_type_symbol
 _atom_site_label
 _atom_site_symmetry_multiplicity
 _atom_site_fract_x
 _atom_site_fract_y
 _atom_site_fract_z
 _atom_site_occupancy
 _atom_site_charge
  V  V1  1  0.800700  0.267700  0.250000  1.0  1.8963
  V  V2  1  0.699300  0.767700  0.750000  1.0  1.8968
  V  V3  1  0.199300  0.732300  0.750000  1.0  1.8967
  V  V4  1  0.300700  0.232300  0.250000  1.0  1.896
  H  H5  1  0.297400  0.024000  0.442100  1.0  0.1097
  H  H6  1  0.714100  0.059900  0.441600  1.0  0.1109
  H  H7  1  0.202600  0.524000  0.557900  1.0  0.1093
  H  H8  1  0.785900  0.559900  0.558400  1.0  0.1114
  H  H9  1  0.702600  0.976000  0.942100  1.0  0.1099
  H  H10  1  0.285900  0.940100  0.941600  1.0  0.1111
  H  H11  1  0.797400  0.476000  0.057900  1.0  0.1093
  H  H12  1  0.214100  0.440100  0.058400  1.0  0.111
  H  H13  1  0.702600  0.976000  0.557900  1.0  0.1093
  H  H14  1  0.285900  0.940100  0.558400  1.0  0.1112
  H  H15  1  0.797400  0.476000  0.442100  1.0  0.1098
  H  H16  1  0.214100  0.440100  0.441600  1.0  0.1111
  H  H17  1  0.297400  0.024000  0.057900  1.0  0.1095
  H  H18  1  0.714100  0.059900  0.058400  1.0  0.111
  H  H19  1  0.202600  0.524000  0.942100  1.0  0.1096
  H  H20  1  0.785900  0.559900  0.941600  1.0  0.1111
  C  C21  1  0.013800  0.108400  0.356300  1.0  0.7219
  C  C22  1  0.007200  0.047700  0.430300  1.0  -0.1201
  C  C23  1  0.177000  0.013900  0.465400  1.0  -0.0542
  C  C24  1  0.830000  0.035200  0.465000  1.0  -0.0587
  C  C25  1  0.486200  0.608400  0.643700  1.0  0.722
  C  C26  1  0.492800  0.547700  0.569700  1.0  -0.1204
  C  C27  1  0.323000  0.513900  0.534600  1.0  -0.0551
  C  C28  1  0.670000  0.535200  0.535000  1.0  -0.0589
  C  C29  1  0.986200  0.891600  0.856300  1.0  0.7235
  C  C30  1  0.992800  0.952300  0.930300  1.0  -0.12
  C  C31  1  0.823000  0.986100  0.965400  1.0  -0.055
  C  C32  1  0.170000  0.964800  0.965000  1.0  -0.0585
  C  C33  1  0.513800  0.391600  0.143700  1.0  0.724
  C  C34  1  0.507200  0.452300  0.069700  1.0  -0.1202
  C  C35  1  0.677000  0.486100  0.034600  1.0  -0.0547
  C  C36  1  0.330000  0.464800  0.035000  1.0  -0.0593
  C  C37  1  0.986200  0.891600  0.643700  1.0  0.7245
  C  C38  1  0.992800  0.952300  0.569700  1.0  -0.1202
  C  C39  1  0.823000  0.986100  0.534600  1.0  -0.0554
  C  C40  1  0.170000  0.964800  0.535000  1.0  -0.0588
  C  C41  1  0.513800  0.391600  0.356300  1.0  0.723
  C  C42  1  0.507200  0.452300  0.430300  1.0  -0.12
  C  C43  1  0.677000  0.486100  0.465400  1.0  -0.0541
  C  C44  1  0.330000  0.464800  0.465000  1.0  -0.0588
  C  C45  1  0.013800  0.108400  0.143700  1.0  0.7236
  C  C46  1  0.007200  0.047700  0.069700  1.0  -0.1204
  C  C47  1  0.177000  0.013900  0.034600  1.0  -0.0546
  C  C48  1  0.830000  0.035200  0.035000  1.0  -0.0592
  C  C49  1  0.486200  0.608400  0.856300  1.0  0.7202
  C  C50  1  0.492800  0.547700  0.930300  1.0  -0.1201
  C  C51  1  0.323000  0.513900  0.965400  1.0  -0.0548
  C  C52  1  0.670000  0.535200  0.965000  1.0  -0.0585
  O  O53  1  0.851700  0.139700  0.327500  1.0  -0.625
  O  O54  1  0.180700  0.124200  0.328300  1.0  -0.6523
  O  O55  1  0.648300  0.639700  0.672500  1.0  -0.625
  O  O56  1  0.319300  0.624200  0.671700  1.0  -0.6525
  O  O57  1  0.148300  0.860300  0.827500  1.0  -0.6259
  O  O58  1  0.819300  0.875800  0.828300  1.0  -0.6518
  O  O59  1  0.351700  0.360300  0.172500  1.0  -0.6251
  O  O60  1  0.680700  0.375800  0.171700  1.0  -0.6497
  O  O61  1  0.148300  0.860300  0.672500  1.0  -0.6255
  O  O62  1  0.819300  0.875800  0.671700  1.0  -0.6507
  O  O63  1  0.351700  0.360300  0.327500  1.0  -0.6254
  O  O64  1  0.680700  0.375800  0.328300  1.0  -0.6507
  O  O65  1  0.851700  0.139700  0.172500  1.0  -0.6247
  O  O66  1  0.180700  0.124200  0.171700  1.0  -0.6513
  O  O67  1  0.648300  0.639700  0.827500  1.0  -0.6248
  O  O68  1  0.319300  0.624200  0.828300  1.0  -0.6534
  O  O69  1  0.016000  0.328400  0.250000  1.0  -0.763
  O  O70  1  0.484000  0.828400  0.750000  1.0  -0.7634
  O  O71  1  0.984000  0.671600  0.750000  1.0  -0.7622
  O  O72  1  0.516000  0.171600  0.250000  1.0  -0.7618
