# generated using pymatgen
data_VH4C8O5
_symmetry_space_group_name_H-M   'P 1'
_cell_length_a   6.78490000
_cell_length_b   13.03090000
_cell_length_c   16.85100000
_cell_angle_alpha   90.00000000
_cell_angle_beta   90.00000000
_cell_angle_gamma   90.00000000
_symmetry_Int_Tables_number   1
_chemical_formula_structural   VH4C8O5
_chemical_formula_sum   'V4 H16 C32 O20'
_cell_volume   1489.85341831
_cell_formula_units_Z   4
loop_
 _symmetry_equiv_pos_site_id
 _symmetry_equiv_pos_as_xyz
  1  'x, y, z'
loop_
 _atom_site_type_symbol
 _atom_site_label
 _atom_site_symmetry_multiplicity
 _atom_site_fract_x
 _atom_site_fract_y
 _atom_site_fract_z
 _atom_site_occupancy
 _atom_site_charge
  V  V1  1  0.940780  0.235360  0.500340  1.0  1.8825
  V  V2  1  0.559220  0.764640  0.000340  1.0  1.8829
  V  V3  1  0.059220  0.735360  0.999660  1.0  1.8824
  V  V4  1  0.440780  0.264640  0.499660  1.0  1.8824
  H  H5  1  0.030400  0.417200  0.296100  1.0  0.1087
  H  H6  1  0.051400  0.520700  0.185000  1.0  0.1155
  H  H7  1  0.465800  0.570400  0.197500  1.0  0.111
  H  H8  1  0.450400  0.470700  0.311100  1.0  0.1121
  H  H9  1  0.469600  0.582800  0.796100  1.0  0.1082
  H  H10  1  0.448600  0.479300  0.685000  1.0  0.1157
  H  H11  1  0.034200  0.429600  0.697500  1.0  0.1109
  H  H12  1  0.049600  0.529300  0.811100  1.0  0.1122
  H  H13  1  0.969600  0.917200  0.203900  1.0  0.1087
  H  H14  1  0.948600  0.020700  0.315000  1.0  0.1155
  H  H15  1  0.534200  0.070400  0.302500  1.0  0.1106
  H  H16  1  0.549600  0.970700  0.188900  1.0  0.112
  H  H17  1  0.530400  0.082800  0.703900  1.0  0.1083
  H  H18  1  0.551400  0.979300  0.815000  1.0  0.1166
  H  H19  1  0.965800  0.929600  0.802500  1.0  0.1135
  H  H20  1  0.950400  0.029300  0.688900  1.0  0.1125
  C  C21  1  0.729600  0.367700  0.386990  1.0  0.7229
  C  C22  1  0.739300  0.434800  0.314630  1.0  -0.1206
  C  C23  1  0.917800  0.449200  0.276570  1.0  -0.0558
  C  C24  1  0.930700  0.510600  0.209940  1.0  -0.0545
  C  C25  1  0.579800  0.540900  0.217870  1.0  -0.05
  C  C26  1  0.570300  0.480500  0.285430  1.0  -0.0634
  C  C27  1  0.772000  0.624700  0.109490  1.0  0.7281
  C  C28  1  0.760400  0.557400  0.180450  1.0  -0.133
  C  C29  1  0.770400  0.632300  0.886990  1.0  0.7232
  C  C30  1  0.760700  0.565200  0.814630  1.0  -0.1209
  C  C31  1  0.582200  0.550800  0.776570  1.0  -0.0562
  C  C32  1  0.569300  0.489400  0.709940  1.0  -0.054
  C  C33  1  0.920200  0.459100  0.717870  1.0  -0.0498
  C  C34  1  0.929700  0.519500  0.785430  1.0  -0.0634
  C  C35  1  0.728000  0.375300  0.609490  1.0  0.7279
  C  C36  1  0.739600  0.442600  0.680450  1.0  -0.1327
  C  C37  1  0.270400  0.867700  0.113010  1.0  0.7227
  C  C38  1  0.260700  0.934800  0.185370  1.0  -0.1209
  C  C39  1  0.082200  0.949200  0.223430  1.0  -0.0565
  C  C40  1  0.069300  0.010600  0.290060  1.0  -0.0533
  C  C41  1  0.420200  0.040900  0.282130  1.0  -0.0499
  C  C42  1  0.429700  0.980500  0.214570  1.0  -0.0624
  C  C43  1  0.228000  0.124700  0.390510  1.0  0.7281
  C  C44  1  0.239600  0.057400  0.319550  1.0  -0.1326
  C  C45  1  0.229600  0.132300  0.613010  1.0  0.723
  C  C46  1  0.239300  0.065200  0.685370  1.0  -0.1211
  C  C47  1  0.417800  0.050800  0.723430  1.0  -0.0559
  C  C48  1  0.430700  0.989400  0.790060  1.0  -0.0536
  C  C49  1  0.079800  0.959100  0.782130  1.0  -0.049
  C  C50  1  0.070300  0.019500  0.714570  1.0  -0.0632
  C  C51  1  0.272000  0.875300  0.890510  1.0  0.7282
  C  C52  1  0.260400  0.942600  0.819550  1.0  -0.1323
  O  O53  1  0.721160  0.187100  0.501190  1.0  -0.7674
  O  O54  1  0.890100  0.334890  0.414070  1.0  -0.6151
  O  O55  1  0.939600  0.643970  0.081280  1.0  -0.6493
  O  O56  1  0.559600  0.348970  0.413960  1.0  -0.6487
  O  O57  1  0.611000  0.659770  0.083090  1.0  -0.6258
  O  O58  1  0.778840  0.812900  0.001190  1.0  -0.7668
  O  O59  1  0.609900  0.665110  0.914070  1.0  -0.6147
  O  O60  1  0.560400  0.356030  0.581280  1.0  -0.6497
  O  O61  1  0.940400  0.651030  0.913960  1.0  -0.6471
  O  O62  1  0.889000  0.340230  0.583090  1.0  -0.626
  O  O63  1  0.278840  0.687100  0.998810  1.0  -0.767
  O  O64  1  0.109900  0.834890  0.085930  1.0  -0.6151
  O  O65  1  0.060400  0.143970  0.418720  1.0  -0.6492
  O  O66  1  0.440400  0.848970  0.086040  1.0  -0.6481
  O  O67  1  0.389000  0.159770  0.416910  1.0  -0.6256
  O  O68  1  0.221160  0.312900  0.498810  1.0  -0.7667
  O  O69  1  0.390100  0.165110  0.585930  1.0  -0.6154
  O  O70  1  0.439600  0.856030  0.918720  1.0  -0.6494
  O  O71  1  0.059600  0.151030  0.586040  1.0  -0.6485
  O  O72  1  0.111000  0.840230  0.916910  1.0  -0.6257
