# generated using pymatgen
data_VH4C8O5
_symmetry_space_group_name_H-M   'P 1'
_cell_length_a   6.80940000
_cell_length_b   12.42200000
_cell_length_c   17.17330000
_cell_angle_alpha   90.00000000
_cell_angle_beta   90.00000000
_cell_angle_gamma   90.00000000
_symmetry_Int_Tables_number   1
_chemical_formula_structural   VH4C8O5
_chemical_formula_sum   'V4 H16 C32 O20'
_cell_volume   1452.62705297
_cell_formula_units_Z   4
loop_
 _symmetry_equiv_pos_site_id
 _symmetry_equiv_pos_as_xyz
  1  'x, y, z'
loop_
 _atom_site_type_symbol
 _atom_site_label
 _atom_site_symmetry_multiplicity
 _atom_site_fract_x
 _atom_site_fract_y
 _atom_site_fract_z
 _atom_site_occupancy
 _atom_site_charge
  V  V1  1  0.060550  0.265670  0.000840  1.0  1.8812
  V  V2  1  0.439450  0.734330  0.500840  1.0  1.8808
  V  V3  1  0.939450  0.765670  0.499160  1.0  1.8813
  V  V4  1  0.560550  0.234330  0.999160  1.0  1.8812
  H  H5  1  0.965400  0.075800  0.800000  1.0  0.1075
  H  H6  1  0.949400  0.976400  0.686200  1.0  0.1041
  H  H7  1  0.554600  0.055700  0.794200  1.0  0.1058
  H  H8  1  0.534400  0.957900  0.680100  1.0  0.1058
  H  H9  1  0.534600  0.924200  0.300000  1.0  0.1076
  H  H10  1  0.550600  0.023600  0.186200  1.0  0.1041
  H  H11  1  0.945400  0.944300  0.294200  1.0  0.1057
  H  H12  1  0.965600  0.042100  0.180100  1.0  0.1054
  H  H13  1  0.034600  0.575800  0.700000  1.0  0.1077
  H  H14  1  0.050600  0.476400  0.813800  1.0  0.1038
  H  H15  1  0.445400  0.555700  0.705800  1.0  0.1057
  H  H16  1  0.465600  0.457900  0.819900  1.0  0.1053
  H  H17  1  0.465400  0.424200  0.200000  1.0  0.1075
  H  H18  1  0.449400  0.523600  0.313800  1.0  0.104
  H  H19  1  0.054600  0.444300  0.205800  1.0  0.106
  H  H20  1  0.034400  0.542100  0.319900  1.0  0.1055
  C  C21  1  0.273500  0.138600  0.882220  1.0  0.7369
  C  C22  1  0.261700  0.076400  0.808460  1.0  -0.138
  C  C23  1  0.080100  0.052200  0.776100  1.0  -0.055
  C  C24  1  0.070900  0.992600  0.707900  1.0  -0.035
  C  C25  1  0.432700  0.040300  0.772500  1.0  -0.0583
  C  C26  1  0.420300  0.981500  0.704500  1.0  -0.0515
  C  C27  1  0.270700  0.113000  0.101930  1.0  0.7287
  C  C28  1  0.238800  0.957400  0.672370  1.0  -0.1465
  C  C29  1  0.226500  0.861400  0.382220  1.0  0.7367
  C  C30  1  0.238300  0.923600  0.308460  1.0  -0.1373
  C  C31  1  0.419900  0.947800  0.276100  1.0  -0.0543
  C  C32  1  0.429100  0.007400  0.207900  1.0  -0.0357
  C  C33  1  0.067300  0.959700  0.272500  1.0  -0.058
  C  C34  1  0.079700  0.018500  0.204500  1.0  -0.0511
  C  C35  1  0.229300  0.887000  0.601930  1.0  0.7283
  C  C36  1  0.261200  0.042600  0.172370  1.0  -0.147
  C  C37  1  0.726500  0.638600  0.617780  1.0  0.7367
  C  C38  1  0.738300  0.576400  0.691540  1.0  -0.138
  C  C39  1  0.919900  0.552200  0.723900  1.0  -0.055
  C  C40  1  0.929100  0.492600  0.792100  1.0  -0.0353
  C  C41  1  0.567300  0.540300  0.727500  1.0  -0.0586
  C  C42  1  0.579700  0.481500  0.795500  1.0  -0.0503
  C  C43  1  0.729300  0.613000  0.398070  1.0  0.7287
  C  C44  1  0.761200  0.457400  0.827630  1.0  -0.1462
  C  C45  1  0.773500  0.361400  0.117780  1.0  0.7367
  C  C46  1  0.761700  0.423600  0.191540  1.0  -0.1381
  C  C47  1  0.580100  0.447800  0.223900  1.0  -0.0546
  C  C48  1  0.570900  0.507400  0.292100  1.0  -0.0349
  C  C49  1  0.932700  0.459700  0.227500  1.0  -0.0581
  C  C50  1  0.920300  0.518500  0.295500  1.0  -0.0509
  C  C51  1  0.770700  0.387000  0.898070  1.0  0.728
  C  C52  1  0.738800  0.542600  0.327630  1.0  -0.1469
  O  O53  1  0.278300  0.316850  0.004920  1.0  -0.7602
  O  O54  1  0.112200  0.171100  0.910630  1.0  -0.6325
  O  O55  1  0.111900  0.148300  0.075710  1.0  -0.6142
  O  O56  1  0.939400  0.344600  0.089290  1.0  -0.6403
  O  O57  1  0.939400  0.367200  0.924760  1.0  -0.6382
  O  O58  1  0.221700  0.683150  0.504920  1.0  -0.761
  O  O59  1  0.387800  0.828900  0.410630  1.0  -0.6318
  O  O60  1  0.388100  0.851700  0.575710  1.0  -0.6146
  O  O61  1  0.560600  0.655400  0.589290  1.0  -0.641
  O  O62  1  0.560600  0.632800  0.424760  1.0  -0.6382
  O  O63  1  0.721700  0.816850  0.495080  1.0  -0.7601
  O  O64  1  0.887800  0.671100  0.589370  1.0  -0.6323
  O  O65  1  0.888100  0.648300  0.424290  1.0  -0.6136
  O  O66  1  0.060600  0.844600  0.410710  1.0  -0.6401
  O  O67  1  0.060600  0.867200  0.575240  1.0  -0.6391
  O  O68  1  0.778300  0.183150  0.995080  1.0  -0.7606
  O  O69  1  0.612200  0.328900  0.089370  1.0  -0.6322
  O  O70  1  0.611900  0.351700  0.924290  1.0  -0.614
  O  O71  1  0.439400  0.155400  0.910710  1.0  -0.6401
  O  O72  1  0.439400  0.132800  0.075240  1.0  -0.6382
