# generated using pymatgen
data_VH4C8O5
_symmetry_space_group_name_H-M   'P 1'
_cell_length_a   6.78580000
_cell_length_b   12.61800000
_cell_length_c   17.08600000
_cell_angle_alpha   90.00000000
_cell_angle_beta   90.00000000
_cell_angle_gamma   90.00000000
_symmetry_Int_Tables_number   1
_chemical_formula_structural   VH4C8O5
_chemical_formula_sum   'V4 H16 C32 O20'
_cell_volume   1462.95841210
_cell_formula_units_Z   4
loop_
 _symmetry_equiv_pos_site_id
 _symmetry_equiv_pos_as_xyz
  1  'x, y, z'
loop_
 _atom_site_type_symbol
 _atom_site_label
 _atom_site_symmetry_multiplicity
 _atom_site_fract_x
 _atom_site_fract_y
 _atom_site_fract_z
 _atom_site_occupancy
 _atom_site_charge
  V  V1  1  0.941140  0.265400  0.000740  1.0  1.8854
  V  V2  1  0.558860  0.734600  0.500740  1.0  1.8858
  V  V3  1  0.058860  0.765400  0.499260  1.0  1.8859
  V  V4  1  0.441140  0.234600  0.999260  1.0  1.8854
  H  H5  1  0.949500  0.463600  0.194400  1.0  0.1148
  H  H6  1  0.545300  0.504500  0.323300  1.0  0.1074
  H  H7  1  0.530200  0.403700  0.211100  1.0  0.1155
  H  H8  1  0.968500  0.565500  0.307900  1.0  0.1072
  H  H9  1  0.550500  0.536400  0.694400  1.0  0.1143
  H  H10  1  0.954700  0.495500  0.823300  1.0  0.1075
  H  H11  1  0.969800  0.596300  0.711100  1.0  0.1154
  H  H12  1  0.531500  0.434500  0.807900  1.0  0.1074
  H  H13  1  0.050500  0.963600  0.305600  1.0  0.1143
  H  H14  1  0.454700  0.004500  0.176700  1.0  0.1072
  H  H15  1  0.469800  0.903700  0.288900  1.0  0.1155
  H  H16  1  0.031500  0.065500  0.192100  1.0  0.1073
  H  H17  1  0.449500  0.036400  0.805600  1.0  0.1144
  H  H18  1  0.045300  0.995500  0.676700  1.0  0.107
  H  H19  1  0.030200  0.096300  0.788900  1.0  0.1153
  H  H20  1  0.468500  0.934500  0.692100  1.0  0.1077
  C  C21  1  0.239300  0.425600  0.190700  1.0  -0.1248
  C  C22  1  0.069500  0.472500  0.219900  1.0  -0.0602
  C  C23  1  0.227400  0.362500  0.117400  1.0  0.7313
  C  C24  1  0.425600  0.496700  0.297400  1.0  -0.0467
  C  C25  1  0.417300  0.436600  0.230100  1.0  -0.0603
  C  C26  1  0.260300  0.545000  0.326800  1.0  -0.1273
  C  C27  1  0.081000  0.533000  0.288100  1.0  -0.0504
  C  C28  1  0.270200  0.615400  0.396800  1.0  0.7166
  C  C29  1  0.260700  0.574400  0.690700  1.0  -0.1248
  C  C30  1  0.430500  0.527500  0.719900  1.0  -0.0599
  C  C31  1  0.272600  0.637500  0.617400  1.0  0.7315
  C  C32  1  0.074400  0.503300  0.797400  1.0  -0.0462
  C  C33  1  0.082700  0.563400  0.730100  1.0  -0.06
  C  C34  1  0.239700  0.455000  0.826800  1.0  -0.1268
  C  C35  1  0.419000  0.467000  0.788100  1.0  -0.05
  C  C36  1  0.229800  0.384600  0.896800  1.0  0.7166
  C  C37  1  0.760700  0.925600  0.309300  1.0  -0.1241
  C  C38  1  0.930500  0.972500  0.280100  1.0  -0.059
  C  C39  1  0.772600  0.862500  0.382600  1.0  0.731
  C  C40  1  0.574400  0.996700  0.202600  1.0  -0.0457
  C  C41  1  0.582700  0.936600  0.269900  1.0  -0.0595
  C  C42  1  0.739700  0.045000  0.173200  1.0  -0.1276
  C  C43  1  0.919000  0.033000  0.211900  1.0  -0.0508
  C  C44  1  0.729800  0.115400  0.103200  1.0  0.7167
  C  C45  1  0.739300  0.074400  0.809300  1.0  -0.1245
  C  C46  1  0.569500  0.027500  0.780100  1.0  -0.0609
  C  C47  1  0.727400  0.137500  0.882600  1.0  0.7312
  C  C48  1  0.925600  0.003300  0.702600  1.0  -0.047
  C  C49  1  0.917300  0.063400  0.769900  1.0  -0.0598
  C  C50  1  0.760300  0.955000  0.673200  1.0  -0.1275
  C  C51  1  0.581000  0.967000  0.711900  1.0  -0.0501
  C  C52  1  0.770200  0.884600  0.603200  1.0  0.7169
  O  O53  1  0.222400  0.185340  0.996040  1.0  -0.771
  O  O54  1  0.062000  0.344900  0.088330  1.0  -0.6444
  O  O55  1  0.441000  0.635000  0.423870  1.0  -0.6456
  O  O56  1  0.109600  0.650500  0.423160  1.0  -0.6173
  O  O57  1  0.390200  0.329900  0.089300  1.0  -0.6298
  O  O58  1  0.277600  0.814660  0.496040  1.0  -0.7707
  O  O59  1  0.438000  0.655100  0.588330  1.0  -0.6452
  O  O60  1  0.059000  0.365000  0.923870  1.0  -0.6465
  O  O61  1  0.390400  0.349500  0.923160  1.0  -0.618
  O  O62  1  0.109800  0.670100  0.589300  1.0  -0.6305
  O  O63  1  0.777600  0.685340  0.503960  1.0  -0.771
  O  O64  1  0.938000  0.844900  0.411670  1.0  -0.6448
  O  O65  1  0.559000  0.135000  0.076130  1.0  -0.6472
  O  O66  1  0.890400  0.150500  0.076840  1.0  -0.6177
  O  O67  1  0.609800  0.829900  0.410700  1.0  -0.6301
  O  O68  1  0.722400  0.314660  0.003960  1.0  -0.7714
  O  O69  1  0.562000  0.155100  0.911670  1.0  -0.6443
  O  O70  1  0.941000  0.865000  0.576130  1.0  -0.6456
  O  O71  1  0.609600  0.849500  0.576840  1.0  -0.6181
  O  O72  1  0.890200  0.170100  0.910700  1.0  -0.6295
