# generated using pymatgen
data_Na2CoH12(C3O)8
_symmetry_space_group_name_H-M   'P 1'
_cell_length_a   13.32970000
_cell_length_b   16.32130000
_cell_length_c   16.32130000
_cell_angle_alpha   80.40100000
_cell_angle_beta   65.89870000
_cell_angle_gamma   65.89870000
_symmetry_Int_Tables_number   1
_chemical_formula_structural   Na2CoH12(C3O)8
_chemical_formula_sum   'Na8 Co4 H48 C96 O32'
_cell_volume   2958.72661597
_cell_formula_units_Z   4
loop_
 _symmetry_equiv_pos_site_id
 _symmetry_equiv_pos_as_xyz
  1  'x, y, z'
loop_
 _atom_site_type_symbol
 _atom_site_label
 _atom_site_symmetry_multiplicity
 _atom_site_fract_x
 _atom_site_fract_y
 _atom_site_fract_z
 _atom_site_occupancy
 _atom_site_charge
  Na  Na1  1  0.393790  0.930400  0.092480  1.0  0.9519
  Na  Na2  1  0.416670  0.069600  0.907520  1.0  0.9524
  Na  Na3  1  0.736270  0.407520  0.430400  1.0  0.9525
  Na  Na4  1  0.574190  0.592480  0.569600  1.0  0.9518
  Na  Na5  1  0.916670  0.907520  0.069600  1.0  0.953
  Na  Na6  1  0.893790  0.092480  0.930400  1.0  0.9512
  Na  Na7  1  0.074190  0.569600  0.592480  1.0  0.952
  Na  Na8  1  0.236270  0.430400  0.407520  1.0  0.9527
  Co  Co9  1  0.637020  0.000000  0.000000  1.0  1.0688
  Co  Co10  1  0.887020  0.500000  0.500000  1.0  1.0678
  Co  Co11  1  0.137020  0.000000  0.000000  1.0  1.0685
  Co  Co12  1  0.387020  0.500000  0.500000  1.0  1.0679
  H  H13  1  0.641100  0.730400  0.160200  1.0  0.093
  H  H14  1  0.675600  0.623300  0.268900  1.0  0.0987
  H  H15  1  0.790100  0.746900  0.435500  1.0  0.1049
  H  H16  1  0.801900  0.881900  0.436100  1.0  0.0939
  H  H17  1  0.767100  0.988900  0.328900  1.0  0.1074
  H  H18  1  0.708100  0.965300  0.225500  1.0  0.102
  H  H19  1  0.531700  0.269600  0.839800  1.0  0.0927
  H  H20  1  0.567800  0.376700  0.731100  1.0  0.0986
  H  H21  1  0.972500  0.253100  0.564500  1.0  0.1054
  H  H22  1  0.119900  0.118100  0.563900  1.0  0.0928
  H  H23  1  0.084900  0.011100  0.671100  1.0  0.1054
  H  H24  1  0.898900  0.034700  0.774500  1.0  0.1017
  H  H25  1  0.051300  0.339800  0.230400  1.0  0.0921
  H  H26  1  0.194500  0.231100  0.123300  1.0  0.1002
  H  H27  1  0.475600  0.064500  0.246900  1.0  0.1049
  H  H28  1  0.488000  0.063900  0.381900  1.0  0.0932
  H  H29  1  0.346000  0.171100  0.488900  1.0  0.1079
  H  H30  1  0.183600  0.274500  0.465300  1.0  0.102
  H  H31  1  0.621500  0.660200  0.769600  1.0  0.0918
  H  H32  1  0.548900  0.768900  0.876700  1.0  0.0986
  H  H33  1  0.787000  0.935500  0.753100  1.0  0.1054
  H  H34  1  0.933800  0.936100  0.618100  1.0  0.0935
  H  H35  1  0.006000  0.828900  0.511100  1.0  0.1058
  H  H36  1  0.923400  0.725500  0.534700  1.0  0.1022
  H  H37  1  0.031700  0.839800  0.269600  1.0  0.092
  H  H38  1  0.067800  0.731100  0.376700  1.0  0.0986
  H  H39  1  0.472500  0.564500  0.253100  1.0  0.1055
  H  H40  1  0.619900  0.563900  0.118100  1.0  0.0926
  H  H41  1  0.584900  0.671100  0.011100  1.0  0.1055
  H  H42  1  0.398900  0.774500  0.034700  1.0  0.1023
  H  H43  1  0.141100  0.160200  0.730400  1.0  0.0916
  H  H44  1  0.175600  0.268900  0.623300  1.0  0.1002
  H  H45  1  0.290100  0.435500  0.746900  1.0  0.1054
  H  H46  1  0.301900  0.436100  0.881900  1.0  0.0924
  H  H47  1  0.267100  0.328900  0.988900  1.0  0.1079
  H  H48  1  0.208100  0.225500  0.965300  1.0  0.1023
  H  H49  1  0.121500  0.769600  0.660200  1.0  0.0932
  H  H50  1  0.048900  0.876700  0.768900  1.0  0.0989
  H  H51  1  0.287000  0.753100  0.935500  1.0  0.1049
  H  H52  1  0.433800  0.618100  0.936100  1.0  0.0947
  H  H53  1  0.506000  0.511100  0.828900  1.0  0.107
  H  H54  1  0.423400  0.534700  0.725500  1.0  0.102
  H  H55  1  0.551300  0.230400  0.339800  1.0  0.0927
  H  H56  1  0.694500  0.123300  0.231100  1.0  0.0987
  H  H57  1  0.975600  0.246900  0.064500  1.0  0.1054
  H  H58  1  0.988000  0.381900  0.063900  1.0  0.0934
  H  H59  1  0.846000  0.488900  0.171100  1.0  0.1061
  H  H60  1  0.683600  0.465300  0.274500  1.0  0.1015
  C  C61  1  0.661290  0.882160  0.121460  1.0  0.7311
  C  C62  1  0.682490  0.818630  0.197390  1.0  -0.1788
  C  C63  1  0.666667  0.740760  0.201240  1.0  -0.0506
  C  C64  1  0.688400  0.675690  0.266710  1.0  -0.0593
  C  C65  1  0.727720  0.687650  0.326710  1.0  -0.1398
  C  C66  1  0.740540  0.770290  0.327430  1.0  0.0546
  C  C67  1  0.773600  0.789770  0.392630  1.0  -0.1183
  C  C68  1  0.781400  0.870100  0.392500  1.0  -0.0811
  C  C69  1  0.759120  0.934990  0.328770  1.0  -0.0575
  C  C70  1  0.725880  0.920240  0.266400  1.0  -0.1781
  C  C71  1  0.717700  0.837420  0.262180  1.0  0.052
  C  C72  1  0.753000  0.609910  0.391490  1.0  0.6974
  C  C73  1  0.664910  0.117840  0.878540  1.0  0.7299
  C  C74  1  0.698510  0.181370  0.802610  1.0  -0.1795
  C  C75  1  0.608600  0.259240  0.798760  1.0  -0.0477
  C  C76  1  0.630800  0.324310  0.733290  1.0  -0.0595
  C  C77  1  0.742080  0.312350  0.673290  1.0  -0.1395
  C  C78  1  0.838260  0.229710  0.672570  1.0  0.0541
  C  C79  1  0.956000  0.210230  0.607370  1.0  -0.1167
  C  C80  1  0.044000  0.129900  0.607500  1.0  -0.0844
  C  C81  1  0.022880  0.065010  0.671230  1.0  -0.0574
  C  C82  1  0.912520  0.079760  0.733600  1.0  -0.1802
  C  C83  1  0.817300  0.162580  0.737820  1.0  0.0516
  C  C84  1  0.754400  0.390090  0.608510  1.0  0.6963
  C  C85  1  0.032750  0.378540  0.382160  1.0  0.7292
  C  C86  1  0.129880  0.302610  0.318630  1.0  -0.1791
  C  C87  1  0.117840  0.298760  0.240760  1.0  -0.0471
  C  C88  1  0.205110  0.233290  0.175690  1.0  -0.0589
  C  C89  1  0.304430  0.173290  0.187650  1.0  -0.1396
  C  C90  1  0.317970  0.172570  0.270290  1.0  0.0547
  C  C91  1  0.416230  0.107370  0.289770  1.0  -0.1138
  C  C92  1  0.423900  0.107500  0.370100  1.0  -0.0821
  C  C93  1  0.337890  0.171230  0.434990  1.0  -0.0531
  C  C94  1  0.242280  0.233600  0.420240  1.0  -0.1784
  C  C95  1  0.229880  0.237820  0.337420  1.0  0.0524
  C  C96  1  0.394490  0.108510  0.109910  1.0  0.696
  C  C97  1  0.793450  0.621460  0.617840  1.0  0.7302
  C  C98  1  0.751120  0.697390  0.681370  1.0  -0.1797
  C  C99  1  0.657360  0.701240  0.759240  1.0  -0.0462
  C  C100  1  0.614090  0.766710  0.824310  1.0  -0.0587
  C  C101  1  0.665370  0.826710  0.812350  1.0  -0.1394
  C  C102  1  0.760830  0.827430  0.729710  1.0  0.0544
  C  C103  1  0.813370  0.892630  0.710230  1.0  -0.1175
  C  C104  1  0.901500  0.892500  0.629900  1.0  -0.0823
  C  C105  1  0.944110  0.828770  0.565010  1.0  -0.0581
  C  C106  1  0.896120  0.766400  0.579760  1.0  -0.1788
  C  C107  1  0.805120  0.762180  0.662580  1.0  0.0522
  C  C108  1  0.612910  0.891490  0.890090  1.0  0.6968
  C  C109  1  0.164910  0.878540  0.117840  1.0  0.7299
  C  C110  1  0.198510  0.802610  0.181370  1.0  -0.1796
  C  C111  1  0.108600  0.798760  0.259240  1.0  -0.0469
  C  C112  1  0.130800  0.733290  0.324310  1.0  -0.0587
  C  C113  1  0.242080  0.673290  0.312350  1.0  -0.1396
  C  C114  1  0.338260  0.672570  0.229710  1.0  0.0544
  C  C115  1  0.456000  0.607370  0.210230  1.0  -0.1175
  C  C116  1  0.544000  0.607500  0.129900  1.0  -0.0837
  C  C117  1  0.522880  0.671230  0.065010  1.0  -0.0575
  C  C118  1  0.412520  0.733600  0.079760  1.0  -0.1782
  C  C119  1  0.317300  0.737820  0.162580  1.0  0.0524
  C  C120  1  0.254400  0.608510  0.390090  1.0  0.6968
  C  C121  1  0.161290  0.121460  0.882160  1.0  0.7295
  C  C122  1  0.182490  0.197390  0.818630  1.0  -0.1793
  C  C123  1  0.166600  0.201240  0.740760  1.0  -0.0466
  C  C124  1  0.188400  0.266710  0.675690  1.0  -0.0587
  C  C125  1  0.227720  0.326710  0.687650  1.0  -0.1396
  C  C126  1  0.240540  0.327430  0.770290  1.0  0.0547
  C  C127  1  0.273600  0.392630  0.789770  1.0  -0.1135
  C  C128  1  0.281400  0.392500  0.870100  1.0  -0.0823
  C  C129  1  0.259120  0.328770  0.934990  1.0  -0.0536
  C  C130  1  0.225880  0.266400  0.920240  1.0  -0.1788
  C  C131  1  0.217700  0.262180  0.837420  1.0  0.0522
  C  C132  1  0.253000  0.391490  0.609910  1.0  0.6961
  C  C133  1  0.293450  0.617840  0.621460  1.0  0.7311
  C  C134  1  0.251120  0.681370  0.697390  1.0  -0.1812
  C  C135  1  0.157360  0.759240  0.701240  1.0  -0.0481
  C  C136  1  0.114090  0.824310  0.766710  1.0  -0.0595
  C  C137  1  0.165370  0.812350  0.826710  1.0  -0.1396
  C  C138  1  0.260830  0.729710  0.827430  1.0  0.054
  C  C139  1  0.313370  0.710230  0.892630  1.0  -0.1177
  C  C140  1  0.401500  0.629900  0.892500  1.0  -0.0806
  C  C141  1  0.444110  0.565010  0.828770  1.0  -0.0579
  C  C142  1  0.396120  0.579760  0.766400  1.0  -0.1784
  C  C143  1  0.305120  0.662580  0.762180  1.0  0.0525
  C  C144  1  0.112910  0.890090  0.891490  1.0  0.6971
  C  C145  1  0.532750  0.382160  0.378540  1.0  0.7297
  C  C146  1  0.629880  0.318630  0.302610  1.0  -0.1797
  C  C147  1  0.617840  0.240760  0.298760  1.0  -0.0476
  C  C148  1  0.705110  0.175690  0.233290  1.0  -0.0593
  C  C149  1  0.804430  0.187650  0.173290  1.0  -0.1397
  C  C150  1  0.817970  0.270290  0.172570  1.0  0.0544
  C  C151  1  0.916230  0.289770  0.107370  1.0  -0.1169
  C  C152  1  0.923900  0.370100  0.107500  1.0  -0.0842
  C  C153  1  0.837890  0.434990  0.171230  1.0  -0.0572
  C  C154  1  0.742280  0.420240  0.233600  1.0  -0.1798
  C  C155  1  0.729880  0.337420  0.237820  1.0  0.0512
  C  C156  1  0.894490  0.109910  0.108510  1.0  0.6965
  O  O157  1  0.579030  0.889490  0.100050  1.0  -0.6981
  O  O158  1  0.727550  0.926200  0.081800  1.0  -0.6991
  O  O159  1  0.837830  0.596640  0.415500  1.0  -0.6026
  O  O160  1  0.690240  0.565130  0.415990  1.0  -0.7613
  O  O161  1  0.568570  0.110510  0.899950  1.0  -0.6968
  O  O162  1  0.735550  0.073800  0.918200  1.0  -0.6984
  O  O163  1  0.849970  0.403360  0.584500  1.0  -0.6023
  O  O164  1  0.671360  0.434870  0.584010  1.0  -0.7621
  O  O165  1  0.929080  0.399950  0.389490  1.0  -0.6938
  O  O166  1  0.059350  0.418200  0.426200  1.0  -0.6981
  O  O167  1  0.503330  0.084500  0.096640  1.0  -0.6011
  O  O168  1  0.356230  0.084010  0.065130  1.0  -0.7631
  O  O169  1  0.718520  0.600050  0.610510  1.0  -0.6931
  O  O170  1  0.903750  0.581800  0.573800  1.0  -0.6983
  O  O171  1  0.684470  0.915500  0.903360  1.0  -0.6014
  O  O172  1  0.505370  0.915990  0.934870  1.0  -0.7614
  O  O173  1  0.068570  0.899950  0.110510  1.0  -0.6973
  O  O174  1  0.235550  0.918200  0.073800  1.0  -0.6979
  O  O175  1  0.349970  0.584500  0.403360  1.0  -0.6013
  O  O176  1  0.171360  0.584010  0.434870  1.0  -0.7614
  O  O177  1  0.079030  0.100050  0.889490  1.0  -0.6977
  O  O178  1  0.227550  0.081800  0.926200  1.0  -0.6984
  O  O179  1  0.337830  0.415500  0.596640  1.0  -0.6013
  O  O180  1  0.190240  0.415990  0.565130  1.0  -0.7634
  O  O181  1  0.218520  0.610510  0.600050  1.0  -0.6942
  O  O182  1  0.403750  0.573800  0.581800  1.0  -0.6995
  O  O183  1  0.184470  0.903360  0.915500  1.0  -0.6024
  O  O184  1  0.005370  0.934870  0.915990  1.0  -0.7612
  O  O185  1  0.429080  0.389490  0.399950  1.0  -0.6931
  O  O186  1  0.559350  0.426200  0.418200  1.0  -0.6976
  O  O187  1  0.003330  0.096640  0.084500  1.0  -0.6026
  O  O188  1  0.856230  0.065130  0.084010  1.0  -0.7618
