# generated using pymatgen
data_DyCuH12C24N4ClO8
_symmetry_space_group_name_H-M   'P 1'
_cell_length_a   12.49030000
_cell_length_b   12.49030000
_cell_length_c   22.48550000
_cell_angle_alpha   82.41790000
_cell_angle_beta   81.50900000
_cell_angle_gamma   119.77900000
_symmetry_Int_Tables_number   1
_chemical_formula_structural   DyCuH12C24N4ClO8
_chemical_formula_sum   'Dy4 Cu4 H48 C96 N16 Cl4 O32'
_cell_volume   2923.94058247
_cell_formula_units_Z   4
loop_
 _symmetry_equiv_pos_site_id
 _symmetry_equiv_pos_as_xyz
  1  'x, y, z'
loop_
 _atom_site_type_symbol
 _atom_site_label
 _atom_site_symmetry_multiplicity
 _atom_site_fract_x
 _atom_site_fract_y
 _atom_site_fract_z
 _atom_site_occupancy
 _atom_site_charge
  Dy  Dy1  1  0.906010  0.428450  0.139990  1.0  2.2531
  Dy  Dy2  1  0.931560  0.954000  0.639990  1.0  2.2551
  Dy  Dy3  1  0.068440  0.046000  0.360010  1.0  2.2555
  Dy  Dy4  1  0.093990  0.571550  0.860010  1.0  2.2551
  Cu  Cu5  1  0.422010  0.208610  0.921060  1.0  0.6821
  Cu  Cu6  1  0.370330  0.656930  0.421060  1.0  0.6823
  Cu  Cu7  1  0.629670  0.343070  0.578940  1.0  0.6833
  Cu  Cu8  1  0.577990  0.791390  0.078940  1.0  0.6811
  H  H9  1  0.304000  0.525300  0.988500  1.0  0.1245
  H  H10  1  0.431200  0.467500  0.934900  1.0  0.0744
  H  H11  1  0.055500  0.155500  0.069400  1.0  0.1083
  H  H12  1  0.015700  0.958700  0.076800  1.0  0.113
  H  H13  1  0.158700  0.753600  0.023500  1.0  0.1268
  H  H14  1  0.332800  0.935000  0.961600  1.0  0.0838
  H  H15  1  0.383000  0.347600  0.715800  1.0  0.1191
  H  H16  1  0.189200  0.996600  0.877400  1.0  0.0731
  H  H17  1  0.101500  0.986900  0.794200  1.0  0.119
  H  H18  1  0.552400  0.512900  0.726700  1.0  0.1175
  H  H19  1  0.805500  0.638700  0.830600  1.0  0.117
  H  H20  1  0.683600  0.445700  0.900100  1.0  0.0843
  H  H21  1  0.986200  0.707500  0.488500  1.0  0.1244
  H  H22  1  0.097600  0.633900  0.434900  1.0  0.0751
  H  H23  1  0.275100  0.875100  0.569400  1.0  0.1089
  H  H24  1  0.464500  0.907500  0.576800  1.0  0.1129
  H  H25  1  0.722900  0.817800  0.523500  1.0  0.1283
  H  H26  1  0.603400  0.705600  0.461600  1.0  0.0815
  H  H27  1  0.436600  0.901200  0.215800  1.0  0.1192
  H  H28  1  0.626000  0.933400  0.377400  1.0  0.0739
  H  H29  1  0.718900  0.104300  0.294200  1.0  0.1183
  H  H30  1  0.260400  0.720900  0.226700  1.0  0.1169
  H  H31  1  0.030700  0.363900  0.330600  1.0  0.1174
  H  H32  1  0.154200  0.416300  0.400100  1.0  0.083
  H  H33  1  0.013800  0.292500  0.511500  1.0  0.1243
  H  H34  1  0.902400  0.366100  0.565100  1.0  0.0749
  H  H35  1  0.724900  0.124900  0.430600  1.0  0.1093
  H  H36  1  0.535500  0.092500  0.423200  1.0  0.1126
  H  H37  1  0.277100  0.182200  0.476500  1.0  0.1287
  H  H38  1  0.396600  0.294400  0.538400  1.0  0.0816
  H  H39  1  0.563400  0.098800  0.784200  1.0  0.1207
  H  H40  1  0.374000  0.066600  0.622600  1.0  0.0741
  H  H41  1  0.281100  0.895700  0.705800  1.0  0.1188
  H  H42  1  0.739600  0.279100  0.773300  1.0  0.1175
  H  H43  1  0.969300  0.636100  0.669400  1.0  0.1174
  H  H44  1  0.845800  0.583700  0.599900  1.0  0.0827
  H  H45  1  0.696000  0.474700  0.011500  1.0  0.1253
  H  H46  1  0.568800  0.532500  0.065100  1.0  0.0735
  H  H47  1  0.944500  0.844500  0.930600  1.0  0.1085
  H  H48  1  0.984300  0.041300  0.923200  1.0  0.1125
  H  H49  1  0.841300  0.246400  0.976500  1.0  0.1267
  H  H50  1  0.667200  0.065000  0.038400  1.0  0.0836
  H  H51  1  0.617000  0.652400  0.284200  1.0  0.12
  H  H52  1  0.810800  0.003400  0.122600  1.0  0.0727
  H  H53  1  0.898500  0.013100  0.205800  1.0  0.1193
  H  H54  1  0.447600  0.487100  0.273300  1.0  0.1185
  H  H55  1  0.194500  0.361300  0.169400  1.0  0.1171
  H  H56  1  0.316400  0.554300  0.099900  1.0  0.0841
  C  C57  1  0.075300  0.377100  0.069800  1.0  0.6695
  C  C58  1  0.163900  0.346000  0.034500  1.0  -0.1223
  C  C59  1  0.278500  0.440200  0.994100  1.0  -0.195
  C  C60  1  0.354300  0.404500  0.962200  1.0  0.1616
  C  C61  1  0.131300  0.220200  0.042100  1.0  -0.0882
  C  C62  1  0.212400  0.192500  0.008900  1.0  0.1948
  C  C63  1  0.187200  0.061200  0.014600  1.0  0.1322
  C  C64  1  0.079300  0.952700  0.053000  1.0  -0.0883
  C  C65  1  0.163800  0.830900  0.021500  1.0  -0.1364
  C  C66  1  0.067200  0.836200  0.055600  1.0  -0.1452
  C  C67  1  0.267400  0.939700  0.984500  1.0  0.1741
  C  C68  1  0.949800  0.714400  0.095800  1.0  0.6645
  C  C69  1  0.178700  0.161400  0.688300  1.0  0.6669
  C  C70  1  0.232100  0.165900  0.745600  1.0  -0.1616
  C  C71  1  0.342300  0.275300  0.748200  1.0  -0.0533
  C  C72  1  0.390000  0.274300  0.799700  1.0  0.1783
  C  C73  1  0.228500  0.067800  0.844500  1.0  0.1879
  C  C74  1  0.175100  0.061200  0.794700  1.0  -0.1266
  C  C75  1  0.509600  0.386200  0.805400  1.0  0.1626
  C  C76  1  0.579900  0.500500  0.761800  1.0  -0.0659
  C  C77  1  0.691500  0.596200  0.770700  1.0  -0.1504
  C  C78  1  0.730700  0.575500  0.823600  1.0  -0.1217
  C  C79  1  0.656800  0.460100  0.865100  1.0  0.1478
  C  C80  1  0.772400  0.722200  0.723800  1.0  0.682
  C  C81  1  0.053100  0.854900  0.569800  1.0  0.6703
  C  C82  1  0.119500  0.801600  0.534500  1.0  -0.1261
  C  C83  1  0.065700  0.727400  0.494100  1.0  -0.1864
  C  C84  1  0.133300  0.683500  0.462200  1.0  0.1641
  C  C85  1  0.237700  0.826600  0.542100  1.0  -0.0869
  C  C86  1  0.298600  0.778700  0.508900  1.0  0.1927
  C  C87  1  0.424200  0.798200  0.514600  1.0  0.1299
  C  C88  1  0.494300  0.867700  0.553000  1.0  -0.0886
  C  C89  1  0.647600  0.814700  0.521500  1.0  -0.1389
  C  C90  1  0.608200  0.877200  0.555600  1.0  -0.1454
  C  C91  1  0.575800  0.748100  0.484500  1.0  0.1711
  C  C92  1  0.689800  0.954400  0.595800  1.0  0.6704
  C  C93  1  0.650300  0.133000  0.188300  1.0  0.6684
  C  C94  1  0.588500  0.022300  0.245600  1.0  -0.1595
  C  C95  1  0.476500  0.909500  0.248200  1.0  -0.052
  C  C96  1  0.426000  0.810300  0.299700  1.0  0.1777
  C  C97  1  0.587700  0.927000  0.344500  1.0  0.1861
  C  C98  1  0.644100  0.030200  0.294700  1.0  -0.1285
  C  C99  1  0.308400  0.685000  0.305400  1.0  0.1633
  C  C100  1  0.237700  0.658300  0.261800  1.0  -0.0666
  C  C101  1  0.133100  0.537800  0.270700  1.0  -0.1545
  C  C102  1  0.100900  0.445700  0.323600  1.0  -0.1256
  C  C103  1  0.174800  0.478100  0.365100  1.0  0.1483
  C  C104  1  0.054000  0.503800  0.223800  1.0  0.6788
  C  C105  1  0.946900  0.145100  0.430200  1.0  0.6712
  C  C106  1  0.880500  0.198400  0.465500  1.0  -0.1245
  C  C107  1  0.934300  0.272600  0.505900  1.0  -0.1885
  C  C108  1  0.866700  0.316500  0.537800  1.0  0.1632
  C  C109  1  0.762300  0.173400  0.457900  1.0  -0.0882
  C  C110  1  0.701400  0.221300  0.491100  1.0  0.192
  C  C111  1  0.575800  0.201800  0.485400  1.0  0.1308
  C  C112  1  0.505700  0.132300  0.447000  1.0  -0.0909
  C  C113  1  0.352400  0.185300  0.478500  1.0  -0.1405
  C  C114  1  0.391800  0.122800  0.444400  1.0  -0.1459
  C  C115  1  0.424200  0.251900  0.515500  1.0  0.1713
  C  C116  1  0.310200  0.045600  0.404200  1.0  0.6726
  C  C117  1  0.349700  0.867000  0.811700  1.0  0.6677
  C  C118  1  0.411500  0.977700  0.754400  1.0  -0.159
  C  C119  1  0.523500  0.090500  0.751800  1.0  -0.0509
  C  C120  1  0.574000  0.189700  0.700300  1.0  0.178
  C  C121  1  0.412300  0.073000  0.655500  1.0  0.1858
  C  C122  1  0.355900  0.969800  0.705300  1.0  -0.1292
  C  C123  1  0.691600  0.315000  0.694600  1.0  0.1637
  C  C124  1  0.762300  0.341700  0.738200  1.0  -0.0673
  C  C125  1  0.866900  0.462200  0.729300  1.0  -0.1524
  C  C126  1  0.899100  0.554300  0.676400  1.0  -0.1266
  C  C127  1  0.825200  0.521900  0.634900  1.0  0.1489
  C  C128  1  0.946000  0.496200  0.776200  1.0  0.6794
  C  C129  1  0.924700  0.622900  0.930200  1.0  0.6713
  C  C130  1  0.836100  0.654000  0.965500  1.0  -0.122
  C  C131  1  0.721500  0.559800  0.005900  1.0  -0.1929
  C  C132  1  0.645700  0.595500  0.037800  1.0  0.163
  C  C133  1  0.868700  0.779800  0.957900  1.0  -0.0897
  C  C134  1  0.787600  0.807500  0.991100  1.0  0.1937
  C  C135  1  0.812800  0.938800  0.985400  1.0  0.1323
  C  C136  1  0.920700  0.047300  0.947000  1.0  -0.0896
  C  C137  1  0.836200  0.169100  0.978500  1.0  -0.138
  C  C138  1  0.932800  0.163800  0.944400  1.0  -0.1453
  C  C139  1  0.732600  0.060300  0.015500  1.0  0.1757
  C  C140  1  0.050200  0.285600  0.904200  1.0  0.665
  C  C141  1  0.821300  0.838600  0.311700  1.0  0.6651
  C  C142  1  0.767900  0.834100  0.254400  1.0  -0.1619
  C  C143  1  0.657700  0.724700  0.251800  1.0  -0.0522
  C  C144  1  0.610000  0.725700  0.200300  1.0  0.1777
  C  C145  1  0.771500  0.932200  0.155500  1.0  0.1878
  C  C146  1  0.824900  0.938800  0.205300  1.0  -0.1248
  C  C147  1  0.490400  0.613800  0.194600  1.0  0.1621
  C  C148  1  0.420100  0.499500  0.238200  1.0  -0.0676
  C  C149  1  0.308500  0.403800  0.229300  1.0  -0.1502
  C  C150  1  0.269300  0.424500  0.176400  1.0  -0.1231
  C  C151  1  0.343200  0.539900  0.134900  1.0  0.1481
  C  C152  1  0.227600  0.277800  0.276200  1.0  0.6799
  N  N153  1  0.322600  0.283700  0.968700  1.0  -0.3216
  N  N154  1  0.279050  0.052800  0.979750  1.0  -0.335
  N  N155  1  0.335130  0.173100  0.847770  1.0  -0.3196
  N  N156  1  0.547170  0.366800  0.857230  1.0  -0.3398
  N  N157  1  0.247600  0.708700  0.468700  1.0  -0.3201
  N  N158  1  0.467450  0.741200  0.479750  1.0  -0.3357
  N  N159  1  0.479130  0.817100  0.347770  1.0  -0.3188
  N  N160  1  0.275970  0.595600  0.357230  1.0  -0.3374
  N  N161  1  0.752400  0.291300  0.531300  1.0  -0.3225
  N  N162  1  0.532550  0.258800  0.520250  1.0  -0.3355
  N  N163  1  0.520870  0.182900  0.652230  1.0  -0.32
  N  N164  1  0.724030  0.404400  0.642770  1.0  -0.3387
  N  N165  1  0.677400  0.716300  0.031300  1.0  -0.3214
  N  N166  1  0.720950  0.947200  0.020250  1.0  -0.3363
  N  N167  1  0.664870  0.826900  0.152230  1.0  -0.3194
  N  N168  1  0.452830  0.633200  0.142770  1.0  -0.3403
  Cl  Cl169  1  0.564560  0.206950  0.974190  1.0  -0.4982
  Cl  Cl170  1  0.318860  0.461250  0.474190  1.0  -0.4979
  Cl  Cl171  1  0.681140  0.538750  0.525810  1.0  -0.499
  Cl  Cl172  1  0.435440  0.793050  0.025810  1.0  -0.4987
  O  O173  1  0.094400  0.487860  0.055740  1.0  -0.6186
  O  O174  1  0.984100  0.292300  0.113200  1.0  -0.6505
  O  O175  1  0.872400  0.720600  0.133000  1.0  -0.5425
  O  O176  1  0.942970  0.613850  0.086180  1.0  -0.6826
  O  O177  1  0.070700  0.067200  0.694300  1.0  -0.7058
  O  O178  1  0.244300  0.247900  0.641200  1.0  -0.5365
  O  O179  1  0.737500  0.741900  0.677200  1.0  -0.5899
  O  O180  1  0.874400  0.803400  0.733200  1.0  -0.6145
  O  O181  1  0.956400  0.849860  0.555740  1.0  -0.62
  O  O182  1  0.094500  0.902700  0.613200  1.0  -0.6554
  O  O183  1  0.646400  0.994600  0.633000  1.0  -0.5433
  O  O184  1  0.799970  0.970850  0.586180  1.0  -0.69
  O  O185  1  0.738500  0.235000  0.194300  1.0  -0.7064
  O  O186  1  0.610900  0.114500  0.141200  1.0  -0.5324
  O  O187  1  0.080900  0.585300  0.177200  1.0  -0.5901
  O  O188  1  0.963400  0.392400  0.233200  1.0  -0.6134
  O  O189  1  0.043600  0.150140  0.444260  1.0  -0.619
  O  O190  1  0.905500  0.097300  0.386800  1.0  -0.6548
  O  O191  1  0.353600  0.005400  0.367000  1.0  -0.5456
  O  O192  1  0.200030  0.029150  0.413820  1.0  -0.6886
  O  O193  1  0.261500  0.765000  0.805700  1.0  -0.7049
  O  O194  1  0.389100  0.885500  0.858800  1.0  -0.5349
  O  O195  1  0.919100  0.414700  0.822800  1.0  -0.5904
  O  O196  1  0.036600  0.607600  0.766800  1.0  -0.6155
  O  O197  1  0.905600  0.512140  0.944260  1.0  -0.6176
  O  O198  1  0.015900  0.707700  0.886800  1.0  -0.6532
  O  O199  1  0.127600  0.279400  0.867000  1.0  -0.5466
  O  O200  1  0.057030  0.386150  0.913820  1.0  -0.6831
  O  O201  1  0.929300  0.932800  0.305700  1.0  -0.7039
  O  O202  1  0.755700  0.752100  0.358800  1.0  -0.537
  O  O203  1  0.262500  0.258100  0.322800  1.0  -0.5899
  O  O204  1  0.125600  0.196600  0.266800  1.0  -0.6146
