# generated using pymatgen
data_MnH6(C3O)4
_symmetry_space_group_name_H-M   'P 1'
_cell_length_a   7.53500000
_cell_length_b   10.46600000
_cell_length_c   21.51300000
_cell_angle_alpha   90.00000000
_cell_angle_beta   90.00000000
_cell_angle_gamma   96.66600000
_symmetry_Int_Tables_number   1
_chemical_formula_structural   MnH6(C3O)4
_chemical_formula_sum   'Mn4 H24 C48 O16'
_cell_volume   1685.07423432
_cell_formula_units_Z   4
loop_
 _symmetry_equiv_pos_site_id
 _symmetry_equiv_pos_as_xyz
  1  'x, y, z'
loop_
 _atom_site_type_symbol
 _atom_site_label
 _atom_site_symmetry_multiplicity
 _atom_site_fract_x
 _atom_site_fract_y
 _atom_site_fract_z
 _atom_site_occupancy
 _atom_site_charge
  Mn  Mn1  1  0.625600  0.667410  0.762390  1.0  1.1296
  Mn  Mn2  1  0.874400  0.332590  0.262390  1.0  1.1303
  Mn  Mn3  1  0.374400  0.332590  0.237610  1.0  1.1302
  Mn  Mn4  1  0.125600  0.667410  0.737610  1.0  1.1295
  H  H5  1  0.753100  0.928600  0.625400  1.0  0.1122
  H  H6  1  0.836300  0.036000  0.535200  1.0  0.1105
  H  H7  1  0.596300  0.428100  0.573100  1.0  0.1088
  H  H8  1  0.066800  0.644400  0.599600  1.0  0.0967
  H  H9  1  0.692500  0.357600  0.480200  1.0  0.1081
  H  H10  1  0.242700  0.880900  0.568800  1.0  0.0994
  H  H11  1  0.746900  0.071400  0.125400  1.0  0.1125
  H  H12  1  0.663700  0.964000  0.035200  1.0  0.1105
  H  H13  1  0.903700  0.571900  0.073100  1.0  0.1087
  H  H14  1  0.433200  0.355600  0.099600  1.0  0.0964
  H  H15  1  0.807500  0.642400  0.980200  1.0  0.1083
  H  H16  1  0.257300  0.119100  0.068800  1.0  0.0999
  H  H17  1  0.246900  0.071400  0.374600  1.0  0.1125
  H  H18  1  0.163700  0.964000  0.464800  1.0  0.1101
  H  H19  1  0.403700  0.571900  0.426900  1.0  0.1089
  H  H20  1  0.933200  0.355600  0.400400  1.0  0.0961
  H  H21  1  0.307500  0.642400  0.519800  1.0  0.1085
  H  H22  1  0.757300  0.119100  0.431200  1.0  0.1001
  H  H23  1  0.253100  0.928600  0.874600  1.0  0.1121
  H  H24  1  0.336300  0.036000  0.964800  1.0  0.1104
  H  H25  1  0.096300  0.428100  0.926900  1.0  0.1086
  H  H26  1  0.566800  0.644400  0.900400  1.0  0.0962
  H  H27  1  0.192500  0.357600  0.019800  1.0  0.1086
  H  H28  1  0.742700  0.880900  0.931200  1.0  0.1
  C  C29  1  0.667500  0.941000  0.595490  1.0  -0.0486
  C  C30  1  0.825700  0.542400  0.596940  1.0  -0.1503
  C  C31  1  0.759100  0.583100  0.657910  1.0  0.6872
  C  C32  1  0.717000  0.004800  0.541380  1.0  -0.1315
  C  C33  1  0.486000  0.893800  0.605890  1.0  -0.1441
  C  C34  1  0.590700  0.024000  0.495080  1.0  0.0414
  C  C35  1  0.711400  0.456000  0.559470  1.0  -0.0494
  C  C36  1  0.993100  0.586300  0.575670  1.0  -0.0656
  C  C37  1  0.768800  0.414000  0.504090  1.0  -0.1258
  C  C38  1  0.055800  0.544600  0.517850  1.0  0.0462
  C  C39  1  0.361800  0.911700  0.561620  1.0  -0.0654
  C  C40  1  0.434300  0.822900  0.665410  1.0  0.7347
  C  C41  1  0.832500  0.059000  0.095490  1.0  -0.0499
  C  C42  1  0.674300  0.457600  0.096940  1.0  -0.1502
  C  C43  1  0.740900  0.416900  0.157910  1.0  0.6876
  C  C44  1  0.783000  0.995200  0.041380  1.0  -0.1331
  C  C45  1  0.014000  0.106200  0.105890  1.0  -0.1437
  C  C46  1  0.909300  0.976000  0.995080  1.0  0.041
  C  C47  1  0.788600  0.544000  0.059470  1.0  -0.049
  C  C48  1  0.506900  0.413700  0.075670  1.0  -0.0674
  C  C49  1  0.731200  0.586000  0.004090  1.0  -0.126
  C  C50  1  0.444200  0.455400  0.017850  1.0  0.0462
  C  C51  1  0.138200  0.088300  0.061620  1.0  -0.066
  C  C52  1  0.065700  0.177100  0.165410  1.0  0.736
  C  C53  1  0.332500  0.059000  0.404510  1.0  -0.0492
  C  C54  1  0.174300  0.457600  0.403060  1.0  -0.1513
  C  C55  1  0.240900  0.416900  0.342090  1.0  0.6876
  C  C56  1  0.283000  0.995200  0.458620  1.0  -0.1335
  C  C57  1  0.514000  0.106200  0.394110  1.0  -0.1428
  C  C58  1  0.409300  0.976000  0.504920  1.0  0.041
  C  C59  1  0.288600  0.544000  0.440530  1.0  -0.0486
  C  C60  1  0.006900  0.413700  0.424330  1.0  -0.0658
  C  C61  1  0.231200  0.586000  0.495910  1.0  -0.1192
  C  C62  1  0.944200  0.455400  0.482150  1.0  0.0464
  C  C63  1  0.638200  0.088300  0.438380  1.0  -0.0663
  C  C64  1  0.565700  0.177100  0.334590  1.0  0.7356
  C  C65  1  0.167500  0.941000  0.904510  1.0  -0.048
  C  C66  1  0.325700  0.542400  0.903060  1.0  -0.1507
  C  C67  1  0.259100  0.583100  0.842090  1.0  0.6869
  C  C68  1  0.217000  0.004800  0.958620  1.0  -0.1318
  C  C69  1  0.986000  0.893800  0.894110  1.0  -0.1438
  C  C70  1  0.090700  0.024000  0.004920  1.0  0.0414
  C  C71  1  0.211400  0.456000  0.940530  1.0  -0.0492
  C  C72  1  0.493100  0.586300  0.924330  1.0  -0.0646
  C  C73  1  0.268800  0.414000  0.995910  1.0  -0.1188
  C  C74  1  0.555800  0.544600  0.982150  1.0  0.0464
  C  C75  1  0.861800  0.911700  0.938380  1.0  -0.0655
  C  C76  1  0.934300  0.822900  0.834590  1.0  0.7359
  O  O77  1  0.864800  0.647420  0.696320  1.0  -0.6742
  O  O78  1  0.598400  0.554480  0.671490  1.0  -0.5794
  O  O79  1  0.551600  0.819050  0.706070  1.0  -0.6266
  O  O80  1  0.273900  0.774180  0.669930  1.0  -0.6177
  O  O81  1  0.635200  0.352580  0.196320  1.0  -0.6751
  O  O82  1  0.901600  0.445520  0.171490  1.0  -0.5795
  O  O83  1  0.948400  0.180950  0.206070  1.0  -0.6259
  O  O84  1  0.226100  0.225820  0.169930  1.0  -0.6169
  O  O85  1  0.135200  0.352580  0.303680  1.0  -0.6741
  O  O86  1  0.401600  0.445520  0.328510  1.0  -0.5797
  O  O87  1  0.448400  0.180950  0.293930  1.0  -0.6256
  O  O88  1  0.726100  0.225820  0.330070  1.0  -0.617
  O  O89  1  0.364800  0.647420  0.803680  1.0  -0.6741
  O  O90  1  0.098400  0.554480  0.828510  1.0  -0.5797
  O  O91  1  0.051600  0.819050  0.793930  1.0  -0.6265
  O  O92  1  0.773900  0.774180  0.830070  1.0  -0.6181
