# generated using pymatgen
data_UZnH2(CO)12
_symmetry_space_group_name_H-M   'P 1'
_cell_length_a   6.30570000
_cell_length_b   8.35290000
_cell_length_c   9.10640000
_cell_angle_alpha   98.20000000
_cell_angle_beta   91.28000000
_cell_angle_gamma   103.20000000
_symmetry_Int_Tables_number   1
_chemical_formula_structural   UZnH2(CO)12
_chemical_formula_sum   'U1 Zn1 H2 C12 O12'
_cell_volume   461.44432571
_cell_formula_units_Z   1
loop_
 _symmetry_equiv_pos_site_id
 _symmetry_equiv_pos_as_xyz
  1  'x, y, z'
loop_
 _atom_site_type_symbol
 _atom_site_label
 _atom_site_symmetry_multiplicity
 _atom_site_fract_x
 _atom_site_fract_y
 _atom_site_fract_z
 _atom_site_occupancy
 _atom_site_charge
  U  U1  1  0.500000  0.500000  0.000000  1.0  2.0545
  Zn  Zn2  1  0.000000  0.500000  0.500000  1.0  0.6842
  H  H3  1  0.593000  0.958000  0.255000  1.0  0.3773
  H  H4  1  0.407000  0.042000  0.745000  1.0  0.3815
  C  C5  1  0.132200  0.291200  0.229600  1.0  0.7336
  C  C6  1  0.060300  0.136800  0.112700  1.0  -0.0931
  C  C7  1  0.773500  0.269000  0.018400  1.0  0.6569
  C  C8  1  0.349700  0.020700  0.219000  1.0  0.6641
  C  C9  1  0.171300  0.009200  0.103100  1.0  -0.0996
  C  C10  1  0.888300  0.127800  0.010400  1.0  -0.0481
  C  C11  1  0.867800  0.708800  0.770400  1.0  0.7334
  C  C12  1  0.939700  0.863200  0.887300  1.0  -0.0956
  C  C13  1  0.226500  0.731000  0.981600  1.0  0.6597
  C  C14  1  0.650300  0.979300  0.781000  1.0  0.6682
  C  C15  1  0.828700  0.990800  0.896900  1.0  -0.0992
  C  C16  1  0.111700  0.872200  0.989600  1.0  -0.0487
  O  O17  1  0.351800  0.099500  0.342500  1.0  -0.4961
  O  O18  1  0.020000  0.299100  0.340650  1.0  -0.5809
  O  O19  1  0.495100  0.939400  0.175300  1.0  -0.5202
  O  O20  1  0.292600  0.401820  0.205540  1.0  -0.687
  O  O21  1  0.645700  0.290200  0.118660  1.0  -0.6291
  O  O22  1  0.807200  0.365400  0.922940  1.0  -0.6579
  O  O23  1  0.648200  0.900500  0.657500  1.0  -0.4956
  O  O24  1  0.980000  0.700900  0.659350  1.0  -0.5675
  O  O25  1  0.504900  0.060600  0.824700  1.0  -0.5199
  O  O26  1  0.707400  0.598180  0.794460  1.0  -0.6886
  O  O27  1  0.354300  0.709800  0.881340  1.0  -0.6285
  O  O28  1  0.192800  0.634600  0.077060  1.0  -0.6578
