# generated using pymatgen
data_NiH9C9(NO2)2
_symmetry_space_group_name_H-M   'P 1'
_cell_length_a   6.79070000
_cell_length_b   22.24500000
_cell_length_c   7.73870000
_cell_angle_alpha   90.00000000
_cell_angle_beta   90.00000000
_cell_angle_gamma   90.00000000
_symmetry_Int_Tables_number   1
_chemical_formula_structural   NiH9C9(NO2)2
_chemical_formula_sum   'Ni4 H36 C36 N8 O16'
_cell_volume   1169.00122355
_cell_formula_units_Z   4
loop_
 _symmetry_equiv_pos_site_id
 _symmetry_equiv_pos_as_xyz
  1  'x, y, z'
loop_
 _atom_site_type_symbol
 _atom_site_label
 _atom_site_symmetry_multiplicity
 _atom_site_fract_x
 _atom_site_fract_y
 _atom_site_fract_z
 _atom_site_occupancy
 _atom_site_charge
  Ni  Ni1  1  0.949650  0.787230  0.741550  1.0  0.8655
  Ni  Ni2  1  0.050350  0.212770  0.741550  1.0  0.8655
  Ni  Ni3  1  0.449650  0.712770  0.258450  1.0  0.8657
  Ni  Ni4  1  0.550350  0.287230  0.258450  1.0  0.866
  H  H5  1  0.161400  0.699000  0.656600  1.0  0.3156
  H  H6  1  0.096200  0.688200  0.834200  1.0  0.3108
  H  H7  1  0.831700  0.615300  0.879500  1.0  0.1241
  H  H8  1  0.645000  0.626700  0.766400  1.0  0.1496
  H  H9  1  0.943700  0.628200  0.606600  1.0  0.073
  H  H10  1  0.529200  0.829400  0.775900  1.0  0.0766
  H  H11  1  0.342700  0.914000  0.782300  1.0  0.1223
  H  H12  1  0.810700  0.004500  0.612400  1.0  0.1216
  H  H13  1  0.979600  0.916500  0.609800  1.0  0.0881
  H  H14  1  0.838600  0.301000  0.656600  1.0  0.3151
  H  H15  1  0.903800  0.311800  0.834200  1.0  0.3102
  H  H16  1  0.168300  0.384700  0.879500  1.0  0.1238
  H  H17  1  0.355000  0.373300  0.766400  1.0  0.1477
  H  H18  1  0.056300  0.371800  0.606600  1.0  0.0726
  H  H19  1  0.470800  0.170600  0.775900  1.0  0.0763
  H  H20  1  0.657300  0.086000  0.782300  1.0  0.1212
  H  H21  1  0.189300  0.995500  0.612400  1.0  0.1221
  H  H22  1  0.020400  0.083500  0.609800  1.0  0.0883
  H  H23  1  0.661400  0.801000  0.343400  1.0  0.3162
  H  H24  1  0.596200  0.811800  0.165800  1.0  0.3108
  H  H25  1  0.331700  0.884700  0.120500  1.0  0.1238
  H  H26  1  0.145000  0.873300  0.233600  1.0  0.1486
  H  H27  1  0.443700  0.871800  0.393400  1.0  0.0728
  H  H28  1  0.029200  0.670600  0.224100  1.0  0.0762
  H  H29  1  0.842700  0.586000  0.217700  1.0  0.1217
  H  H30  1  0.310700  0.495500  0.387600  1.0  0.1219
  H  H31  1  0.479600  0.583500  0.390200  1.0  0.0888
  H  H32  1  0.338600  0.199000  0.343400  1.0  0.3176
  H  H33  1  0.403800  0.188200  0.165800  1.0  0.3108
  H  H34  1  0.668300  0.115300  0.120500  1.0  0.1243
  H  H35  1  0.855000  0.126700  0.233600  1.0  0.1483
  H  H36  1  0.556300  0.128200  0.393400  1.0  0.073
  H  H37  1  0.970800  0.329400  0.224100  1.0  0.0765
  H  H38  1  0.157300  0.414000  0.217700  1.0  0.1208
  H  H39  1  0.689300  0.504500  0.387600  1.0  0.1215
  H  H40  1  0.520400  0.416500  0.390200  1.0  0.089
  C  C41  1  0.695600  0.695110  0.938900  1.0  0.7263
  C  C42  1  0.761900  0.645660  0.813400  1.0  -0.3862
  C  C43  1  0.891800  0.664200  0.663600  1.0  0.0671
  C  C44  1  0.770800  0.700950  0.533300  1.0  0.6208
  C  C45  1  0.591000  0.866190  0.757900  1.0  0.1747
  C  C46  1  0.476800  0.916910  0.759200  1.0  -0.2135
  C  C47  1  0.558900  0.971540  0.726700  1.0  0.0965
  C  C48  1  0.753900  0.969900  0.658000  1.0  -0.21
  C  C49  1  0.855200  0.917600  0.660000  1.0  0.1584
  C  C50  1  0.304400  0.304890  0.938900  1.0  0.7261
  C  C51  1  0.238100  0.354340  0.813400  1.0  -0.3864
  C  C52  1  0.108200  0.335800  0.663600  1.0  0.0683
  C  C53  1  0.229200  0.299050  0.533300  1.0  0.621
  C  C54  1  0.409000  0.133810  0.757900  1.0  0.1756
  C  C55  1  0.523200  0.083090  0.759200  1.0  -0.2141
  C  C56  1  0.441100  0.028460  0.726700  1.0  0.0963
  C  C57  1  0.246100  0.030100  0.658000  1.0  -0.2095
  C  C58  1  0.144800  0.082400  0.660000  1.0  0.158
  C  C59  1  0.195600  0.804890  0.061100  1.0  0.7269
  C  C60  1  0.261900  0.854340  0.186600  1.0  -0.3863
  C  C61  1  0.391800  0.835800  0.336400  1.0  0.0681
  C  C62  1  0.270800  0.799050  0.466700  1.0  0.6222
  C  C63  1  0.091000  0.633810  0.242100  1.0  0.1753
  C  C64  1  0.976800  0.583090  0.240800  1.0  -0.2144
  C  C65  1  0.058900  0.528460  0.273300  1.0  0.0956
  C  C66  1  0.253900  0.530100  0.342000  1.0  -0.2103
  C  C67  1  0.355200  0.582400  0.340000  1.0  0.1587
  C  C68  1  0.804400  0.195110  0.061100  1.0  0.7267
  C  C69  1  0.738100  0.145660  0.186600  1.0  -0.3869
  C  C70  1  0.608200  0.164200  0.336400  1.0  0.0682
  C  C71  1  0.729200  0.200950  0.466700  1.0  0.6214
  C  C72  1  0.909000  0.366190  0.242100  1.0  0.1759
  C  C73  1  0.023200  0.416910  0.240800  1.0  -0.2139
  C  C74  1  0.941100  0.471540  0.273300  1.0  0.0971
  C  C75  1  0.746100  0.469900  0.342000  1.0  -0.2095
  C  C76  1  0.644800  0.417600  0.340000  1.0  0.1585
  N  N77  1  0.058000  0.700980  0.729000  1.0  -0.6489
  N  N78  1  0.781900  0.866180  0.733000  1.0  -0.3017
  N  N79  1  0.942000  0.299020  0.729000  1.0  -0.6502
  N  N80  1  0.218100  0.133820  0.733000  1.0  -0.3048
  N  N81  1  0.558000  0.799020  0.271000  1.0  -0.6512
  N  N82  1  0.281900  0.633820  0.267000  1.0  -0.3015
  N  N83  1  0.442000  0.200980  0.271000  1.0  -0.6498
  N  N84  1  0.718100  0.366180  0.267000  1.0  -0.3052
  O  O85  1  0.794900  0.756890  0.536200  1.0  -0.5613
  O  O86  1  0.658700  0.673010  0.434000  1.0  -0.5712
  O  O87  1  0.735800  0.749390  0.912700  1.0  -0.5923
  O  O88  1  0.599600  0.674680  0.064500  1.0  -0.6034
  O  O89  1  0.205100  0.243110  0.536200  1.0  -0.5606
  O  O90  1  0.341300  0.326990  0.434000  1.0  -0.5721
  O  O91  1  0.264200  0.250610  0.912700  1.0  -0.5929
  O  O92  1  0.400400  0.325320  0.064500  1.0  -0.6035
  O  O93  1  0.294900  0.743110  0.463800  1.0  -0.56
  O  O94  1  0.158700  0.826990  0.566000  1.0  -0.5716
  O  O95  1  0.235800  0.750610  0.087300  1.0  -0.5926
  O  O96  1  0.099600  0.825320  0.935500  1.0  -0.6028
  O  O97  1  0.705100  0.256890  0.463800  1.0  -0.5611
  O  O98  1  0.841300  0.173010  0.566000  1.0  -0.5721
  O  O99  1  0.764200  0.249390  0.087300  1.0  -0.5922
  O  O100  1  0.900400  0.174680  0.935500  1.0  -0.6036
