# generated using pymatgen
data_In2P5H7O15
_symmetry_space_group_name_H-M   'P 1'
_cell_length_a   9.46100000
_cell_length_b   9.40280000
_cell_length_c   20.96300000
_cell_angle_alpha   90.00000000
_cell_angle_beta   100.18600000
_cell_angle_gamma   90.00000000
_symmetry_Int_Tables_number   1
_chemical_formula_structural   In2P5H7O15
_chemical_formula_sum   'In8 P20 H28 O60'
_cell_volume   1835.47375238
_cell_formula_units_Z   4
loop_
 _symmetry_equiv_pos_site_id
 _symmetry_equiv_pos_as_xyz
  1  'x, y, z'
loop_
 _atom_site_type_symbol
 _atom_site_label
 _atom_site_symmetry_multiplicity
 _atom_site_fract_x
 _atom_site_fract_y
 _atom_site_fract_z
 _atom_site_occupancy
 _atom_site_charge
  In  In1  1  0.372420  0.334230  0.403300  1.0  1.6474
  In  In2  1  0.124890  0.164500  0.590380  1.0  1.6014
  In  In3  1  0.627580  0.834230  0.096700  1.0  1.6484
  In  In4  1  0.875110  0.664500  0.909620  1.0  1.6043
  In  In5  1  0.627580  0.665770  0.596700  1.0  1.6487
  In  In6  1  0.875110  0.835500  0.409620  1.0  1.6035
  In  In7  1  0.372420  0.165770  0.903300  1.0  1.6474
  In  In8  1  0.124890  0.335500  0.090380  1.0  1.6009
  P  P9  1  0.619110  0.589040  0.439920  1.0  1.5855
  P  P10  1  0.666100  0.125520  0.442780  1.0  1.6559
  P  P11  1  0.208460  0.263400  0.252620  1.0  1.587
  P  P12  1  0.096000  0.118860  0.422940  1.0  1.5237
  P  P13  1  0.034910  0.511140  0.397190  1.0  1.579
  P  P14  1  0.380890  0.089040  0.060080  1.0  1.5859
  P  P15  1  0.333900  0.625520  0.057220  1.0  1.6577
  P  P16  1  0.791540  0.763400  0.247380  1.0  1.5928
  P  P17  1  0.904000  0.618860  0.077060  1.0  1.5253
  P  P18  1  0.965090  0.011140  0.102810  1.0  1.5811
  P  P19  1  0.380890  0.410960  0.560080  1.0  1.5871
  P  P20  1  0.333900  0.874480  0.557220  1.0  1.6574
  P  P21  1  0.791540  0.736600  0.747380  1.0  1.5922
  P  P22  1  0.904000  0.881140  0.577060  1.0  1.5215
  P  P23  1  0.965090  0.488860  0.602810  1.0  1.5797
  P  P24  1  0.619110  0.910960  0.939920  1.0  1.5866
  P  P25  1  0.666100  0.374480  0.942780  1.0  1.6569
  P  P26  1  0.208460  0.236600  0.752620  1.0  1.5861
  P  P27  1  0.096000  0.381140  0.922940  1.0  1.5201
  P  P28  1  0.034910  0.988860  0.897190  1.0  1.5781
  H  H29  1  0.090000  0.260000  0.280000  1.0  -0.0837
  H  H30  1  0.006000  0.192000  0.380000  1.0  -0.1184
  H  H31  1  0.713000  0.481000  0.462000  1.0  -0.1481
  H  H32  1  0.987000  0.439000  0.447000  1.0  -0.1544
  H  H33  1  0.854000  0.482200  0.336300  1.0  0.4434
  H  H34  1  0.852300  0.212800  0.475900  1.0  0.3986
  H  H35  1  0.592000  0.047000  0.485000  1.0  -0.019
  H  H36  1  0.910000  0.760000  0.220000  1.0  -0.0803
  H  H37  1  0.994000  0.692000  0.120000  1.0  -0.1162
  H  H38  1  0.287000  0.981000  0.038000  1.0  -0.1477
  H  H39  1  0.013000  0.939000  0.053000  1.0  -0.153
  H  H40  1  0.146000  0.982200  0.163700  1.0  0.4432
  H  H41  1  0.147700  0.712800  0.024100  1.0  0.3978
  H  H42  1  0.408000  0.547000  0.015000  1.0  -0.021
  H  H43  1  0.910000  0.740000  0.720000  1.0  -0.0801
  H  H44  1  0.994000  0.808000  0.620000  1.0  -0.1163
  H  H45  1  0.287000  0.519000  0.538000  1.0  -0.1485
  H  H46  1  0.013000  0.561000  0.553000  1.0  -0.1528
  H  H47  1  0.146000  0.517800  0.663700  1.0  0.4432
  H  H48  1  0.147700  0.787200  0.524100  1.0  0.3979
  H  H49  1  0.408000  0.953000  0.515000  1.0  -0.0228
  H  H50  1  0.090000  0.240000  0.780000  1.0  -0.0836
  H  H51  1  0.006000  0.308000  0.880000  1.0  -0.1178
  H  H52  1  0.713000  0.019000  0.962000  1.0  -0.1485
  H  H53  1  0.987000  0.061000  0.947000  1.0  -0.154
  H  H54  1  0.854000  0.017800  0.836300  1.0  0.4439
  H  H55  1  0.852300  0.287200  0.975900  1.0  0.3986
  H  H56  1  0.592000  0.453000  0.985000  1.0  -0.0213
  O  O57  1  0.246700  0.150100  0.410420  1.0  -0.8058
  O  O58  1  0.338100  0.324100  0.298860  1.0  -0.7378
  O  O59  1  0.066200  0.179000  0.486770  1.0  -0.757
  O  O60  1  0.233400  0.108900  0.236310  1.0  -0.6269
  O  O61  1  0.494600  0.523900  0.390950  1.0  -0.7514
  O  O62  1  0.169400  0.356400  0.193230  1.0  -0.7703
  O  O63  1  0.027100  0.671000  0.402960  1.0  -0.8443
  O  O64  1  0.066800  0.959700  0.414650  1.0  -0.794
  O  O65  1  0.703300  0.690900  0.404640  1.0  -0.8563
  O  O66  1  0.561600  0.658900  0.495520  1.0  -0.8167
  O  O67  1  0.186800  0.464900  0.397650  1.0  -0.8594
  O  O68  1  0.554700  0.204600  0.396510  1.0  -0.7707
  O  O69  1  0.744100  0.016300  0.411900  1.0  -0.8267
  O  O70  1  0.936700  0.456600  0.336000  1.0  -0.6107
  O  O71  1  0.769900  0.233600  0.479500  1.0  -0.6708
  O  O72  1  0.753300  0.650100  0.089580  1.0  -0.8102
  O  O73  1  0.661900  0.824100  0.201140  1.0  -0.7368
  O  O74  1  0.933800  0.679000  0.013230  1.0  -0.7572
  O  O75  1  0.766600  0.608900  0.263690  1.0  -0.6276
  O  O76  1  0.505400  0.023900  0.109050  1.0  -0.7525
  O  O77  1  0.830600  0.856400  0.306770  1.0  -0.7693
  O  O78  1  0.972900  0.171000  0.097040  1.0  -0.8478
  O  O79  1  0.933200  0.459700  0.085350  1.0  -0.7952
  O  O80  1  0.296700  0.190900  0.095360  1.0  -0.8566
  O  O81  1  0.438400  0.158900  0.004480  1.0  -0.8182
  O  O82  1  0.813200  0.964900  0.102350  1.0  -0.8613
  O  O83  1  0.445300  0.704600  0.103490  1.0  -0.7703
  O  O84  1  0.255900  0.516300  0.088100  1.0  -0.8253
  O  O85  1  0.063300  0.956600  0.164000  1.0  -0.6118
  O  O86  1  0.230100  0.733600  0.020500  1.0  -0.6707
  O  O87  1  0.753300  0.849900  0.589580  1.0  -0.8108
  O  O88  1  0.661900  0.675900  0.701140  1.0  -0.7374
  O  O89  1  0.933800  0.821000  0.513230  1.0  -0.7573
  O  O90  1  0.766600  0.891100  0.763690  1.0  -0.6286
  O  O91  1  0.505400  0.476100  0.609050  1.0  -0.7522
  O  O92  1  0.830600  0.643600  0.806770  1.0  -0.7686
  O  O93  1  0.972900  0.329000  0.597040  1.0  -0.8453
  O  O94  1  0.933200  0.040300  0.585350  1.0  -0.7955
  O  O95  1  0.296700  0.309100  0.595360  1.0  -0.8564
  O  O96  1  0.438400  0.341100  0.504480  1.0  -0.8185
  O  O97  1  0.813200  0.535100  0.602350  1.0  -0.8618
  O  O98  1  0.445300  0.795400  0.603490  1.0  -0.7714
  O  O99  1  0.255900  0.983700  0.588100  1.0  -0.8258
  O  O100  1  0.063300  0.543400  0.664000  1.0  -0.6114
  O  O101  1  0.230100  0.766400  0.520500  1.0  -0.67
  O  O102  1  0.246700  0.349900  0.910420  1.0  -0.8066
  O  O103  1  0.338100  0.175900  0.798860  1.0  -0.7382
  O  O104  1  0.066200  0.321000  0.986770  1.0  -0.7568
  O  O105  1  0.233400  0.391100  0.736310  1.0  -0.6273
  O  O106  1  0.494600  0.976100  0.890950  1.0  -0.7508
  O  O107  1  0.169400  0.143600  0.693230  1.0  -0.7694
  O  O108  1  0.027100  0.829000  0.902960  1.0  -0.8427
  O  O109  1  0.066800  0.540300  0.914650  1.0  -0.7932
  O  O110  1  0.703300  0.809100  0.904640  1.0  -0.8567
  O  O111  1  0.561600  0.841100  0.995520  1.0  -0.8175
  O  O112  1  0.186800  0.035100  0.897650  1.0  -0.8612
  O  O113  1  0.554700  0.295400  0.896510  1.0  -0.7715
  O  O114  1  0.744100  0.483700  0.911900  1.0  -0.8271
  O  O115  1  0.936700  0.043400  0.836000  1.0  -0.6116
  O  O116  1  0.769900  0.266400  0.979500  1.0  -0.6696
