# generated using pymatgen
data_Cd3H12C15N9O4
_symmetry_space_group_name_H-M   'P 1'
_cell_length_a   10.19800000
_cell_length_b   13.28500000
_cell_length_c   22.36700000
_cell_angle_alpha   90.00000000
_cell_angle_beta   90.00000000
_cell_angle_gamma   97.77500000
_symmetry_Int_Tables_number   1
_chemical_formula_structural   Cd3H12C15N9O4
_chemical_formula_sum   'Cd12 H48 C60 N36 O16'
_cell_volume   3002.43320332
_cell_formula_units_Z   4
loop_
 _symmetry_equiv_pos_site_id
 _symmetry_equiv_pos_as_xyz
  1  'x, y, z'
loop_
 _atom_site_type_symbol
 _atom_site_label
 _atom_site_symmetry_multiplicity
 _atom_site_fract_x
 _atom_site_fract_y
 _atom_site_fract_z
 _atom_site_occupancy
 _atom_site_charge
  Cd  Cd1  1  0.206800  0.316830  0.580150  1.0  0.8875
  Cd  Cd2  1  0.211630  0.215350  0.743580  1.0  0.6073
  Cd  Cd3  1  0.662310  0.008760  0.606920  1.0  0.5243
  Cd  Cd4  1  0.793200  0.183170  0.080150  1.0  0.888
  Cd  Cd5  1  0.788370  0.284650  0.243580  1.0  0.6081
  Cd  Cd6  1  0.337690  0.491240  0.106920  1.0  0.5077
  Cd  Cd7  1  0.793200  0.683170  0.419850  1.0  0.8886
  Cd  Cd8  1  0.788370  0.784650  0.256420  1.0  0.6149
  Cd  Cd9  1  0.337690  0.991240  0.393080  1.0  0.4949
  Cd  Cd10  1  0.206800  0.816830  0.919850  1.0  0.8888
  Cd  Cd11  1  0.211630  0.715350  0.756420  1.0  0.6129
  Cd  Cd12  1  0.662310  0.508760  0.893080  1.0  0.4996
  H  H13  1  0.040400  0.491500  0.414800  1.0  0.0925
  H  H14  1  0.054400  0.571200  0.321200  1.0  0.0981
  H  H15  1  0.443900  0.649100  0.346700  1.0  0.0971
  H  H16  1  0.429200  0.566300  0.439100  1.0  0.1071
  H  H17  1  0.190300  0.460800  0.794700  1.0  0.0694
  H  H18  1  0.243000  0.562500  0.633700  1.0  0.0805
  H  H19  1  0.889700  0.084400  0.719400  1.0  0.0737
  H  H20  1  0.896100  0.199000  0.561900  1.0  0.0715
  H  H21  1  0.462100  0.084200  0.704200  1.0  0.0853
  H  H22  1  0.469400  0.175300  0.540500  1.0  0.0678
  H  H23  1  0.324800  0.728000  0.264700  1.0  0.1415
  H  H24  1  0.175600  0.686600  0.253300  1.0  0.1352
  H  H25  1  0.959600  0.008500  0.914800  1.0  0.0926
  H  H26  1  0.945600  0.928800  0.821200  1.0  0.0986
  H  H27  1  0.556100  0.850900  0.846700  1.0  0.097
  H  H28  1  0.570800  0.933700  0.939100  1.0  0.1068
  H  H29  1  0.809700  0.039200  0.294700  1.0  0.0694
  H  H30  1  0.757000  0.937500  0.133700  1.0  0.0792
  H  H31  1  0.110300  0.415600  0.219400  1.0  0.0735
  H  H32  1  0.103900  0.301000  0.061900  1.0  0.0716
  H  H33  1  0.537900  0.415800  0.204200  1.0  0.085
  H  H34  1  0.530600  0.324700  0.040500  1.0  0.068
  H  H35  1  0.675200  0.772000  0.764700  1.0  0.142
  H  H36  1  0.824400  0.813400  0.753300  1.0  0.134
  H  H37  1  0.959600  0.508500  0.585200  1.0  0.0924
  H  H38  1  0.945600  0.428800  0.678800  1.0  0.0984
  H  H39  1  0.556100  0.350900  0.653300  1.0  0.0969
  H  H40  1  0.570800  0.433700  0.560900  1.0  0.1071
  H  H41  1  0.809700  0.539200  0.205300  1.0  0.0688
  H  H42  1  0.757000  0.437500  0.366300  1.0  0.0791
  H  H43  1  0.110300  0.915600  0.280600  1.0  0.0736
  H  H44  1  0.103900  0.801000  0.438100  1.0  0.0717
  H  H45  1  0.537900  0.915800  0.295800  1.0  0.0852
  H  H46  1  0.530600  0.824700  0.459500  1.0  0.0678
  H  H47  1  0.675200  0.272000  0.735300  1.0  0.1422
  H  H48  1  0.824400  0.313400  0.746700  1.0  0.1361
  H  H49  1  0.040400  0.991500  0.085200  1.0  0.0919
  H  H50  1  0.054400  0.071200  0.178800  1.0  0.0983
  H  H51  1  0.443900  0.149100  0.153300  1.0  0.097
  H  H52  1  0.429200  0.066300  0.060900  1.0  0.1069
  H  H53  1  0.190300  0.960800  0.705300  1.0  0.0685
  H  H54  1  0.243000  0.062500  0.866300  1.0  0.0798
  H  H55  1  0.889700  0.584400  0.780600  1.0  0.0735
  H  H56  1  0.896100  0.699000  0.938100  1.0  0.0711
  H  H57  1  0.462100  0.584200  0.795800  1.0  0.0852
  H  H58  1  0.469400  0.675300  0.959500  1.0  0.0679
  H  H59  1  0.324800  0.228000  0.235300  1.0  0.1412
  H  H60  1  0.175600  0.186600  0.246700  1.0  0.1373
  C  C61  1  0.232500  0.518100  0.434500  1.0  -0.1403
  C  C62  1  0.122100  0.521700  0.400700  1.0  -0.0121
  C  C63  1  0.129800  0.570700  0.344500  1.0  -0.1796
  C  C64  1  0.252500  0.618400  0.324500  1.0  0.1191
  C  C65  1  0.362500  0.616700  0.359800  1.0  -0.1564
  C  C66  1  0.354200  0.566700  0.415500  1.0  -0.0458
  C  C67  1  0.221500  0.456000  0.491200  1.0  0.6518
  C  C68  1  0.301200  0.597800  0.214600  1.0  0.7206
  C  C69  1  0.204100  0.464400  0.753600  1.0  0.2419
  C  C70  1  0.232600  0.519300  0.666667  1.0  0.2574
  C  C71  1  0.916600  0.121400  0.685200  1.0  0.2485
  C  C72  1  0.919900  0.183000  0.600600  1.0  0.2361
  C  C73  1  0.442000  0.116700  0.669200  1.0  0.2429
  C  C74  1  0.446500  0.165800  0.580600  1.0  0.2363
  C  C75  1  0.261000  0.666800  0.263400  1.0  -0.3711
  C  C76  1  0.767500  0.981900  0.934500  1.0  -0.1403
  C  C77  1  0.877900  0.978300  0.900700  1.0  -0.0129
  C  C78  1  0.870200  0.929300  0.844500  1.0  -0.181
  C  C79  1  0.747500  0.881600  0.824500  1.0  0.12
  C  C80  1  0.637500  0.883300  0.859800  1.0  -0.155
  C  C81  1  0.645800  0.933300  0.915500  1.0  -0.046
  C  C82  1  0.778500  0.044000  0.991200  1.0  0.6511
  C  C83  1  0.698800  0.902200  0.714600  1.0  0.7246
  C  C84  1  0.795900  0.035600  0.253600  1.0  0.2409
  C  C85  1  0.767400  0.980700  0.166600  1.0  0.2562
  C  C86  1  0.083400  0.378600  0.185200  1.0  0.2484
  C  C87  1  0.080100  0.317000  0.100600  1.0  0.2371
  C  C88  1  0.558000  0.383300  0.169200  1.0  0.2419
  C  C89  1  0.553500  0.334200  0.080600  1.0  0.2361
  C  C90  1  0.739000  0.833200  0.763400  1.0  -0.3697
  C  C91  1  0.767500  0.481900  0.565500  1.0  -0.1397
  C  C92  1  0.877900  0.478300  0.599300  1.0  -0.0132
  C  C93  1  0.870200  0.429300  0.655500  1.0  -0.1812
  C  C94  1  0.747500  0.381600  0.675500  1.0  0.1204
  C  C95  1  0.637500  0.383300  0.640200  1.0  -0.1549
  C  C96  1  0.645800  0.433300  0.584500  1.0  -0.0462
  C  C97  1  0.778500  0.544000  0.508800  1.0  0.6502
  C  C98  1  0.698800  0.402200  0.785400  1.0  0.7278
  C  C99  1  0.795900  0.535600  0.246400  1.0  0.2416
  C  C100  1  0.767400  0.480700  0.333400  1.0  0.2561
  C  C101  1  0.083400  0.878600  0.314800  1.0  0.2486
  C  C102  1  0.080100  0.817000  0.399400  1.0  0.2369
  C  C103  1  0.558000  0.883300  0.330800  1.0  0.2416
  C  C104  1  0.553500  0.834200  0.419400  1.0  0.2348
  C  C105  1  0.739000  0.333200  0.736600  1.0  -0.3698
  C  C106  1  0.232500  0.018100  0.065500  1.0  -0.1399
  C  C107  1  0.122100  0.021700  0.099300  1.0  -0.0125
  C  C108  1  0.129800  0.070700  0.155500  1.0  -0.1799
  C  C109  1  0.252500  0.118400  0.175500  1.0  0.1195
  C  C110  1  0.362500  0.116700  0.140200  1.0  -0.1562
  C  C111  1  0.354200  0.066700  0.084500  1.0  -0.0461
  C  C112  1  0.221500  0.956000  0.008800  1.0  0.6507
  C  C113  1  0.301200  0.097800  0.285400  1.0  0.7275
  C  C114  1  0.204100  0.964400  0.746400  1.0  0.2413
  C  C115  1  0.232600  0.019300  0.833400  1.0  0.2554
  C  C116  1  0.916600  0.621400  0.814800  1.0  0.2477
  C  C117  1  0.919900  0.683000  0.899400  1.0  0.2356
  C  C118  1  0.442000  0.616700  0.830800  1.0  0.2405
  C  C119  1  0.446500  0.665800  0.919400  1.0  0.2362
  C  C120  1  0.261000  0.166800  0.236600  1.0  -0.3711
  N  N121  1  0.215700  0.383900  0.720400  1.0  -0.247
  N  N122  1  0.234400  0.420800  0.662900  1.0  -0.2556
  N  N123  1  0.213900  0.551700  0.723000  1.0  -0.4296
  N  N124  1  0.030900  0.179700  0.681300  1.0  -0.2486
  N  N125  1  0.032200  0.220400  0.624700  1.0  -0.285
  N  N126  1  0.842000  0.119900  0.635800  1.0  -0.3837
  N  N127  1  0.352200  0.180200  0.666200  1.0  -0.2421
  N  N128  1  0.355500  0.212600  0.607800  1.0  -0.2885
  N  N129  1  0.500600  0.104300  0.616700  1.0  -0.3813
  N  N130  1  0.784300  0.116100  0.220400  1.0  -0.247
  N  N131  1  0.765600  0.079200  0.162900  1.0  -0.2548
  N  N132  1  0.786100  0.948300  0.223000  1.0  -0.4291
  N  N133  1  0.969100  0.320300  0.181300  1.0  -0.2496
  N  N134  1  0.967800  0.279600  0.124700  1.0  -0.2865
  N  N135  1  0.158000  0.380100  0.135800  1.0  -0.3863
  N  N136  1  0.647800  0.319800  0.166200  1.0  -0.2426
  N  N137  1  0.644500  0.287400  0.107800  1.0  -0.2899
  N  N138  1  0.499400  0.395700  0.116700  1.0  -0.3804
  N  N139  1  0.784300  0.616100  0.279600  1.0  -0.2479
  N  N140  1  0.765600  0.579200  0.337100  1.0  -0.2545
  N  N141  1  0.786100  0.448300  0.277000  1.0  -0.4286
  N  N142  1  0.969100  0.820300  0.318700  1.0  -0.2488
  N  N143  1  0.967800  0.779600  0.375300  1.0  -0.2867
  N  N144  1  0.158000  0.880100  0.364200  1.0  -0.3888
  N  N145  1  0.647800  0.819800  0.333800  1.0  -0.2415
  N  N146  1  0.644500  0.787400  0.392200  1.0  -0.2888
  N  N147  1  0.499400  0.895700  0.383300  1.0  -0.3809
  N  N148  1  0.215700  0.883900  0.779600  1.0  -0.2471
  N  N149  1  0.234400  0.920800  0.837100  1.0  -0.2546
  N  N150  1  0.213900  0.051700  0.777000  1.0  -0.4283
  N  N151  1  0.030900  0.679700  0.818700  1.0  -0.2477
  N  N152  1  0.032200  0.720400  0.875300  1.0  -0.2843
  N  N153  1  0.842000  0.619900  0.864200  1.0  -0.3848
  N  N154  1  0.352200  0.680200  0.833800  1.0  -0.2413
  N  N155  1  0.355500  0.712600  0.892200  1.0  -0.2889
  N  N156  1  0.500600  0.604300  0.883300  1.0  -0.382
  O  O157  1  0.326100  0.436300  0.515100  1.0  -0.6028
  O  O158  1  0.110800  0.420200  0.510800  1.0  -0.5905
  O  O159  1  0.363500  0.525800  0.226400  1.0  -0.6188
  O  O160  1  0.270100  0.617200  0.162200  1.0  -0.6
  O  O161  1  0.673900  0.063700  0.015100  1.0  -0.6029
  O  O162  1  0.889200  0.079800  0.010800  1.0  -0.5905
  O  O163  1  0.636500  0.974200  0.726400  1.0  -0.6194
  O  O164  1  0.729900  0.882800  0.662200  1.0  -0.5977
  O  O165  1  0.673900  0.563700  0.484900  1.0  -0.6028
  O  O166  1  0.889200  0.579800  0.489200  1.0  -0.5907
  O  O167  1  0.636500  0.474200  0.773600  1.0  -0.6188
  O  O168  1  0.729900  0.382800  0.837800  1.0  -0.5997
  O  O169  1  0.326100  0.936300  0.984900  1.0  -0.6027
  O  O170  1  0.110800  0.920200  0.989200  1.0  -0.5906
  O  O171  1  0.363500  0.025800  0.273600  1.0  -0.618
  O  O172  1  0.270100  0.117200  0.337800  1.0  -0.6013
