# generated using pymatgen
data_U3H12(C3O2)8
_symmetry_space_group_name_H-M   'P 1'
_cell_length_a   15.21350000
_cell_length_b   15.21350000
_cell_length_c   15.21350000
_cell_angle_alpha   60.00000000
_cell_angle_beta   60.00000000
_cell_angle_gamma   60.00000000
_symmetry_Int_Tables_number   1
_chemical_formula_structural   U3H12(C3O2)8
_chemical_formula_sum   'U6 H24 C48 O32'
_cell_volume   2489.84561225
_cell_formula_units_Z   2
loop_
 _symmetry_equiv_pos_site_id
 _symmetry_equiv_pos_as_xyz
  1  'x, y, z'
loop_
 _atom_site_type_symbol
 _atom_site_label
 _atom_site_symmetry_multiplicity
 _atom_site_fract_x
 _atom_site_fract_y
 _atom_site_fract_z
 _atom_site_occupancy
 _atom_site_charge
  U  U1  1  0.873990  0.873990  0.126010  1.0  2.9352
  U  U2  1  0.126010  0.126010  0.873990  1.0  2.9301
  U  U3  1  0.873990  0.126010  0.126010  1.0  2.936
  U  U4  1  0.126010  0.873990  0.873990  1.0  2.9348
  U  U5  1  0.873990  0.126010  0.873990  1.0  2.9349
  U  U6  1  0.126010  0.873990  0.126010  1.0  2.936
  H  H7  1  0.864320  0.578300  0.421700  1.0  0.1124
  H  H8  1  0.578300  0.864320  0.135680  1.0  0.1123
  H  H9  1  0.421700  0.135680  0.864320  1.0  0.1124
  H  H10  1  0.135680  0.421700  0.578300  1.0  0.1124
  H  H11  1  0.864320  0.421700  0.135680  1.0  0.112
  H  H12  1  0.578300  0.135680  0.421700  1.0  0.1126
  H  H13  1  0.421700  0.864320  0.578300  1.0  0.1136
  H  H14  1  0.135680  0.578300  0.864320  1.0  0.1128
  H  H15  1  0.864320  0.135680  0.578300  1.0  0.1125
  H  H16  1  0.578300  0.421700  0.864320  1.0  0.1118
  H  H17  1  0.421700  0.578300  0.135680  1.0  0.1115
  H  H18  1  0.135680  0.864320  0.421700  1.0  0.1125
  H  H19  1  0.421700  0.135680  0.578300  1.0  0.1119
  H  H20  1  0.135680  0.421700  0.864320  1.0  0.1124
  H  H21  1  0.864320  0.578300  0.135680  1.0  0.1123
  H  H22  1  0.578300  0.864320  0.421700  1.0  0.112
  H  H23  1  0.578300  0.135680  0.864320  1.0  0.1131
  H  H24  1  0.864320  0.421700  0.578300  1.0  0.112
  H  H25  1  0.135680  0.578300  0.421700  1.0  0.1125
  H  H26  1  0.421700  0.864320  0.135680  1.0  0.1136
  H  H27  1  0.864320  0.135680  0.421700  1.0  0.1125
  H  H28  1  0.578300  0.421700  0.135680  1.0  0.1118
  H  H29  1  0.421700  0.578300  0.864320  1.0  0.1125
  H  H30  1  0.135680  0.864320  0.578300  1.0  0.1127
  C  C31  1  0.918700  0.546300  0.453700  1.0  -0.0744
  C  C32  1  0.546300  0.918700  0.081300  1.0  -0.0744
  C  C33  1  0.453700  0.081300  0.918700  1.0  -0.0756
  C  C34  1  0.081300  0.453700  0.546300  1.0  -0.0735
  C  C35  1  0.918700  0.453700  0.081300  1.0  -0.0747
  C  C36  1  0.546300  0.081300  0.453700  1.0  -0.0753
  C  C37  1  0.453700  0.918700  0.546300  1.0  -0.0744
  C  C38  1  0.081300  0.546300  0.918700  1.0  -0.0752
  C  C39  1  0.918700  0.081300  0.546300  1.0  -0.0741
  C  C40  1  0.546300  0.453700  0.918700  1.0  -0.0757
  C  C41  1  0.453700  0.546300  0.081300  1.0  -0.0748
  C  C42  1  0.081300  0.918700  0.453700  1.0  -0.0737
  C  C43  1  0.453700  0.081300  0.546300  1.0  -0.0758
  C  C44  1  0.081300  0.453700  0.918700  1.0  -0.0736
  C  C45  1  0.918700  0.546300  0.081300  1.0  -0.0741
  C  C46  1  0.546300  0.918700  0.453700  1.0  -0.0747
  C  C47  1  0.546300  0.081300  0.918700  1.0  -0.0758
  C  C48  1  0.918700  0.453700  0.546300  1.0  -0.0746
  C  C49  1  0.081300  0.546300  0.453700  1.0  -0.0748
  C  C50  1  0.453700  0.918700  0.081300  1.0  -0.0732
  C  C51  1  0.918700  0.081300  0.453700  1.0  -0.0754
  C  C52  1  0.546300  0.453700  0.081300  1.0  -0.0741
  C  C53  1  0.453700  0.546300  0.918700  1.0  -0.0758
  C  C54  1  0.081300  0.918700  0.546300  1.0  -0.0724
  C  C55  1  0.000000  0.690200  0.309800  1.0  0.7861
  C  C56  1  0.000000  0.591600  0.408400  1.0  -0.1051
  C  C57  1  0.690200  0.000000  0.000000  1.0  0.7875
  C  C58  1  0.591600  0.000000  0.000000  1.0  -0.1066
  C  C59  1  0.309800  0.000000  0.000000  1.0  0.7876
  C  C60  1  0.408400  0.000000  0.000000  1.0  -0.1062
  C  C61  1  0.000000  0.309800  0.690200  1.0  0.787
  C  C62  1  0.000000  0.408400  0.591600  1.0  -0.1055
  C  C63  1  0.000000  0.309800  0.000000  1.0  0.7869
  C  C64  1  0.000000  0.408400  0.000000  1.0  -0.1051
  C  C65  1  0.690200  0.000000  0.309800  1.0  0.787
  C  C66  1  0.591600  0.000000  0.408400  1.0  -0.1063
  C  C67  1  0.309800  0.000000  0.690200  1.0  0.7877
  C  C68  1  0.408400  0.000000  0.591600  1.0  -0.1067
  C  C69  1  0.000000  0.690200  0.000000  1.0  0.7862
  C  C70  1  0.000000  0.591600  0.000000  1.0  -0.1053
  C  C71  1  0.000000  0.000000  0.690200  1.0  0.7912
  C  C72  1  0.000000  0.000000  0.591600  1.0  -0.1065
  C  C73  1  0.690200  0.309800  0.000000  1.0  0.7872
  C  C74  1  0.591600  0.408400  0.000000  1.0  -0.1056
  C  C75  1  0.309800  0.690200  0.000000  1.0  0.787
  C  C76  1  0.408400  0.591600  0.000000  1.0  -0.1054
  C  C77  1  0.000000  0.000000  0.309800  1.0  0.7882
  C  C78  1  0.000000  0.000000  0.408400  1.0  -0.107
  O  O79  1  0.925300  0.727100  0.272900  1.0  -0.7174
  O  O80  1  0.727100  0.925300  0.074700  1.0  -0.7204
  O  O81  1  0.272900  0.074700  0.925300  1.0  -0.7194
  O  O82  1  0.074700  0.272900  0.727100  1.0  -0.7186
  O  O83  1  0.925300  0.272900  0.074700  1.0  -0.7177
  O  O84  1  0.727100  0.074700  0.272900  1.0  -0.7211
  O  O85  1  0.272900  0.925300  0.727100  1.0  -0.7199
  O  O86  1  0.074700  0.727100  0.925300  1.0  -0.718
  O  O87  1  0.925300  0.074700  0.727100  1.0  -0.7211
  O  O88  1  0.727100  0.272900  0.925300  1.0  -0.7178
  O  O89  1  0.272900  0.727100  0.074700  1.0  -0.7175
  O  O90  1  0.074700  0.925300  0.272900  1.0  -0.7206
  O  O91  1  0.272900  0.074700  0.727100  1.0  -0.7211
  O  O92  1  0.074700  0.272900  0.925300  1.0  -0.7171
  O  O93  1  0.925300  0.727100  0.074700  1.0  -0.7183
  O  O94  1  0.727100  0.925300  0.272900  1.0  -0.7204
  O  O95  1  0.727100  0.074700  0.925300  1.0  -0.7206
  O  O96  1  0.925300  0.272900  0.727100  1.0  -0.717
  O  O97  1  0.074700  0.727100  0.272900  1.0  -0.7181
  O  O98  1  0.272900  0.925300  0.074700  1.0  -0.7195
  O  O99  1  0.925300  0.074700  0.272900  1.0  -0.721
  O  O100  1  0.727100  0.272900  0.074700  1.0  -0.7187
  O  O101  1  0.272900  0.727100  0.925300  1.0  -0.7176
  O  O102  1  0.074700  0.925300  0.727100  1.0  -0.7207
  O  O103  1  0.819700  0.060100  0.060100  1.0  -1.1794
  O  O104  1  0.060100  0.819700  0.060100  1.0  -1.1804
  O  O105  1  0.060100  0.060100  0.819700  1.0  -1.1798
  O  O106  1  0.060100  0.060100  0.060100  1.0  -1.1781
  O  O107  1  0.939900  0.180300  0.939900  1.0  -1.1797
  O  O108  1  0.180300  0.939900  0.939900  1.0  -1.1799
  O  O109  1  0.939900  0.939900  0.180300  1.0  -1.1773
  O  O110  1  0.939900  0.939900  0.939900  1.0  -1.1789
