# generated using pymatgen
data_Cu19H60(C58N39)2
_symmetry_space_group_name_H-M   'P 1'
_cell_length_a   22.77300000
_cell_length_b   22.77300000
_cell_length_c   12.66800000
_cell_angle_alpha   90.00000000
_cell_angle_beta   90.00000000
_cell_angle_gamma   90.00000000
_symmetry_Int_Tables_number   1
_chemical_formula_structural   Cu19H60(C58N39)2
_chemical_formula_sum   'Cu38 H120 C232 N156'
_cell_volume   6569.74551337
_cell_formula_units_Z   2
loop_
 _symmetry_equiv_pos_site_id
 _symmetry_equiv_pos_as_xyz
  1  'x, y, z'
loop_
 _atom_site_type_symbol
 _atom_site_label
 _atom_site_symmetry_multiplicity
 _atom_site_fract_x
 _atom_site_fract_y
 _atom_site_fract_z
 _atom_site_occupancy
 _atom_site_charge
  Cu  Cu1  1  0.710900  0.588730  0.414970  1.0  0.767
  Cu  Cu2  1  0.545630  0.632520  0.258940  1.0  0.38
  Cu  Cu3  1  0.557840  0.184210  0.169050  1.0  0.5174
  Cu  Cu4  1  0.620920  0.370150  0.011780  1.0  0.4029
  Cu  Cu5  1  0.789100  0.911270  0.414970  1.0  0.7671
  Cu  Cu6  1  0.954370  0.867480  0.258940  1.0  0.3791
  Cu  Cu7  1  0.942160  0.315790  0.169050  1.0  0.5175
  Cu  Cu8  1  0.879080  0.129850  0.011780  1.0  0.3966
  Cu  Cu9  1  0.411270  0.210900  0.914970  1.0  0.7648
  Cu  Cu10  1  0.367480  0.045630  0.758940  1.0  0.3798
  Cu  Cu11  1  0.815790  0.057840  0.669050  1.0  0.5168
  Cu  Cu12  1  0.629850  0.120920  0.511780  1.0  0.402
  Cu  Cu13  1  0.088730  0.289100  0.914970  1.0  0.7646
  Cu  Cu14  1  0.132520  0.454370  0.758940  1.0  0.3832
  Cu  Cu15  1  0.684210  0.442160  0.669050  1.0  0.5174
  Cu  Cu16  1  0.870150  0.379080  0.511780  1.0  0.3983
  Cu  Cu17  1  0.289100  0.411270  0.585030  1.0  0.7671
  Cu  Cu18  1  0.454370  0.367480  0.741060  1.0  0.3815
  Cu  Cu19  1  0.442160  0.815790  0.830950  1.0  0.5172
  Cu  Cu20  1  0.379080  0.629850  0.988220  1.0  0.3983
  Cu  Cu21  1  0.210900  0.088730  0.585030  1.0  0.7672
  Cu  Cu22  1  0.045630  0.132520  0.741060  1.0  0.3832
  Cu  Cu23  1  0.057840  0.684210  0.830950  1.0  0.5172
  Cu  Cu24  1  0.120920  0.870150  0.988220  1.0  0.4041
  Cu  Cu25  1  0.588730  0.789100  0.085030  1.0  0.7647
  Cu  Cu26  1  0.632520  0.954370  0.241060  1.0  0.3836
  Cu  Cu27  1  0.184210  0.942160  0.330950  1.0  0.5172
  Cu  Cu28  1  0.370150  0.879080  0.488220  1.0  0.4011
  Cu  Cu29  1  0.911270  0.710900  0.085030  1.0  0.7649
  Cu  Cu30  1  0.867480  0.545630  0.241060  1.0  0.3798
  Cu  Cu31  1  0.315790  0.557840  0.330950  1.0  0.5167
  Cu  Cu32  1  0.129850  0.620920  0.488220  1.0  0.4027
  Cu  Cu33  1  0.750000  0.750000  0.250000  1.0  0.7469
  Cu  Cu34  1  0.250000  0.250000  0.750000  1.0  0.7469
  Cu  Cu35  1  0.500000  0.000000  0.000000  1.0  0.343
  Cu  Cu36  1  0.000000  0.500000  0.000000  1.0  0.343
  Cu  Cu37  1  0.000000  0.000000  0.500000  1.0  0.343
  Cu  Cu38  1  0.500000  0.500000  0.500000  1.0  0.343
  H  H39  1  0.713700  0.577400  0.027500  1.0  0.2771
  H  H40  1  0.802300  0.559400  0.762500  1.0  0.0963
  H  H41  1  0.715500  0.566600  0.857500  1.0  0.0825
  H  H42  1  0.628200  0.595500  0.774500  1.0  0.1019
  H  H43  1  0.445300  0.668400  0.594800  1.0  0.0642
  H  H44  1  0.333900  0.689200  0.367300  1.0  0.0575
  H  H45  1  0.405900  0.673100  0.245700  1.0  0.0607
  H  H46  1  0.012400  0.517000  0.212000  1.0  0.0664
  H  H47  1  0.093200  0.531900  0.313500  1.0  0.064
  H  H48  1  0.994400  0.583300  0.546400  1.0  0.07
  H  H49  1  0.730000  0.661300  0.900300  1.0  0.0726
  H  H50  1  0.799500  0.738900  0.821000  1.0  0.0886
  H  H51  1  0.697200  0.476200  0.064000  1.0  0.0628
  H  H52  1  0.666200  0.359500  0.279600  1.0  0.0616
  H  H53  1  0.681800  0.427900  0.407100  1.0  0.0596
  H  H54  1  0.786300  0.922600  0.027500  1.0  0.2777
  H  H55  1  0.697700  0.940600  0.762500  1.0  0.0959
  H  H56  1  0.784500  0.933400  0.857500  1.0  0.0817
  H  H57  1  0.871800  0.904500  0.774500  1.0  0.1021
  H  H58  1  0.054700  0.831600  0.594800  1.0  0.0644
  H  H59  1  0.166100  0.810800  0.367300  1.0  0.0572
  H  H60  1  0.094100  0.826900  0.245700  1.0  0.0632
  H  H61  1  0.487600  0.983000  0.212000  1.0  0.0662
  H  H62  1  0.406800  0.968100  0.313500  1.0  0.0632
  H  H63  1  0.505600  0.916700  0.546400  1.0  0.069
  H  H64  1  0.770000  0.838700  0.900300  1.0  0.0732
  H  H65  1  0.700500  0.761100  0.821000  1.0  0.0878
  H  H66  1  0.802800  0.023800  0.064000  1.0  0.0633
  H  H67  1  0.833800  0.140500  0.279600  1.0  0.0615
  H  H68  1  0.818200  0.072100  0.407100  1.0  0.0594
  H  H69  1  0.422600  0.213700  0.527500  1.0  0.2773
  H  H70  1  0.440600  0.302300  0.262500  1.0  0.0963
  H  H71  1  0.433400  0.215500  0.357500  1.0  0.0821
  H  H72  1  0.404500  0.128200  0.274500  1.0  0.102
  H  H73  1  0.331600  0.945300  0.094800  1.0  0.0645
  H  H74  1  0.310800  0.833900  0.867300  1.0  0.057
  H  H75  1  0.326900  0.905900  0.745700  1.0  0.0587
  H  H76  1  0.483000  0.512400  0.712000  1.0  0.066
  H  H77  1  0.468100  0.593200  0.813500  1.0  0.0633
  H  H78  1  0.416700  0.494400  0.046400  1.0  0.0697
  H  H79  1  0.338700  0.230000  0.400300  1.0  0.0732
  H  H80  1  0.261100  0.299500  0.321000  1.0  0.0882
  H  H81  1  0.523800  0.197200  0.564000  1.0  0.0631
  H  H82  1  0.640500  0.166200  0.779600  1.0  0.0627
  H  H83  1  0.572100  0.181800  0.907100  1.0  0.0601
  H  H84  1  0.077400  0.286300  0.527500  1.0  0.2776
  H  H85  1  0.059400  0.197700  0.262500  1.0  0.0967
  H  H86  1  0.066600  0.284500  0.357500  1.0  0.0809
  H  H87  1  0.095500  0.371800  0.274500  1.0  0.1021
  H  H88  1  0.168400  0.554700  0.094800  1.0  0.0642
  H  H89  1  0.189200  0.666100  0.867300  1.0  0.0566
  H  H90  1  0.173100  0.594100  0.745700  1.0  0.0623
  H  H91  1  0.017000  0.987600  0.712000  1.0  0.0682
  H  H92  1  0.031900  0.906800  0.813500  1.0  0.0626
  H  H93  1  0.083300  0.005600  0.046400  1.0  0.069
  H  H94  1  0.161300  0.270000  0.400300  1.0  0.0722
  H  H95  1  0.238900  0.200500  0.321000  1.0  0.087
  H  H96  1  0.976200  0.302800  0.564000  1.0  0.0634
  H  H97  1  0.859500  0.333800  0.779600  1.0  0.0618
  H  H98  1  0.927900  0.318200  0.907100  1.0  0.0602
  H  H99  1  0.286300  0.422600  0.972500  1.0  0.2792
  H  H100  1  0.197700  0.440600  0.237500  1.0  0.0958
  H  H101  1  0.284500  0.433400  0.142500  1.0  0.0828
  H  H102  1  0.371800  0.404500  0.225500  1.0  0.1021
  H  H103  1  0.554700  0.331600  0.405200  1.0  0.0647
  H  H104  1  0.666100  0.310800  0.632700  1.0  0.0569
  H  H105  1  0.594100  0.326900  0.754300  1.0  0.0625
  H  H106  1  0.987600  0.483000  0.788000  1.0  0.0665
  H  H107  1  0.906800  0.468100  0.686500  1.0  0.063
  H  H108  1  0.005600  0.416700  0.453600  1.0  0.0699
  H  H109  1  0.270000  0.338700  0.099700  1.0  0.0732
  H  H110  1  0.200500  0.261100  0.179000  1.0  0.087
  H  H111  1  0.302800  0.523800  0.936000  1.0  0.0631
  H  H112  1  0.333800  0.640500  0.720400  1.0  0.0612
  H  H113  1  0.318200  0.572100  0.592900  1.0  0.0591
  H  H114  1  0.213700  0.077400  0.972500  1.0  0.2795
  H  H115  1  0.302300  0.059400  0.237500  1.0  0.0959
  H  H116  1  0.215500  0.066600  0.142500  1.0  0.0826
  H  H117  1  0.128200  0.095500  0.225500  1.0  0.1016
  H  H118  1  0.945300  0.168400  0.405200  1.0  0.0645
  H  H119  1  0.833900  0.189200  0.632700  1.0  0.0579
  H  H120  1  0.905900  0.173100  0.754300  1.0  0.0599
  H  H121  1  0.512400  0.017000  0.788000  1.0  0.0668
  H  H122  1  0.593200  0.031900  0.686500  1.0  0.0642
  H  H123  1  0.494400  0.083300  0.453600  1.0  0.0707
  H  H124  1  0.230000  0.161300  0.099700  1.0  0.0721
  H  H125  1  0.299500  0.238900  0.179000  1.0  0.0884
  H  H126  1  0.197200  0.976200  0.936000  1.0  0.0632
  H  H127  1  0.166200  0.859500  0.720400  1.0  0.0613
  H  H128  1  0.181800  0.927900  0.592900  1.0  0.0596
  H  H129  1  0.577400  0.786300  0.472500  1.0  0.2794
  H  H130  1  0.559400  0.697700  0.737500  1.0  0.0963
  H  H131  1  0.566600  0.784500  0.642500  1.0  0.0828
  H  H132  1  0.595500  0.871800  0.725500  1.0  0.1021
  H  H133  1  0.668400  0.054700  0.905200  1.0  0.0648
  H  H134  1  0.689200  0.166100  0.132700  1.0  0.0557
  H  H135  1  0.673100  0.094100  0.254300  1.0  0.0615
  H  H136  1  0.517000  0.487600  0.288000  1.0  0.0662
  H  H137  1  0.531900  0.406800  0.186500  1.0  0.0628
  H  H138  1  0.583300  0.505600  0.953600  1.0  0.0705
  H  H139  1  0.661300  0.770000  0.599700  1.0  0.072
  H  H140  1  0.738900  0.700500  0.679000  1.0  0.0871
  H  H141  1  0.476200  0.802800  0.436000  1.0  0.0635
  H  H142  1  0.359500  0.833800  0.220400  1.0  0.0611
  H  H143  1  0.427900  0.818200  0.092900  1.0  0.0598
  H  H144  1  0.922600  0.713700  0.472500  1.0  0.2792
  H  H145  1  0.940600  0.802300  0.737500  1.0  0.0965
  H  H146  1  0.933400  0.715500  0.642500  1.0  0.0817
  H  H147  1  0.904500  0.628200  0.725500  1.0  0.1017
  H  H148  1  0.831600  0.445300  0.905200  1.0  0.0646
  H  H149  1  0.810800  0.333900  0.132700  1.0  0.0578
  H  H150  1  0.826900  0.405900  0.254300  1.0  0.0578
  H  H151  1  0.983000  0.012400  0.288000  1.0  0.0652
  H  H152  1  0.968100  0.093200  0.186500  1.0  0.0631
  H  H153  1  0.916700  0.994400  0.953600  1.0  0.0704
  H  H154  1  0.838700  0.730000  0.599700  1.0  0.0731
  H  H155  1  0.761100  0.799500  0.679000  1.0  0.0879
  H  H156  1  0.023800  0.697200  0.436000  1.0  0.0635
  H  H157  1  0.140500  0.666200  0.220400  1.0  0.0621
  H  H158  1  0.072100  0.681800  0.092900  1.0  0.0599
  C  C159  1  0.573100  0.258300  0.104500  1.0  0.0373
  C  C160  1  0.764540  0.576200  0.620800  1.0  0.1284
  C  C161  1  0.767100  0.568200  0.728900  1.0  -0.1445
  C  C162  1  0.715300  0.573800  0.785300  1.0  -0.1177
  C  C163  1  0.662600  0.590000  0.736200  1.0  -0.1592
  C  C164  1  0.664500  0.597500  0.626600  1.0  0.1497
  C  C165  1  0.616290  0.613200  0.556200  1.0  0.235
  C  C166  1  0.539970  0.638310  0.479500  1.0  0.2625
  C  C167  1  0.480560  0.656110  0.450700  1.0  0.1277
  C  C168  1  0.436400  0.669100  0.523100  1.0  0.1697
  C  C169  1  0.371900  0.681900  0.390700  1.0  0.1113
  C  C170  1  0.415200  0.671100  0.317100  1.0  0.1138
  C  C171  1  0.812120  0.572000  0.543400  1.0  0.2288
  C  C172  1  0.888850  0.564060  0.455800  1.0  0.2541
  C  C173  1  0.948620  0.557270  0.418500  1.0  0.1425
  C  C174  1  0.007500  0.530200  0.281000  1.0  0.151
  C  C175  1  0.056300  0.540100  0.341400  1.0  0.1254
  C  C176  1  0.998640  0.569200  0.477900  1.0  0.1098
  C  C177  1  0.737900  0.699800  0.044300  1.0  0.1654
  C  C178  1  0.738300  0.698300  0.936900  1.0  -0.0945
  C  C179  1  0.774700  0.744500  0.883400  1.0  -0.0187
  C  C180  1  0.726100  0.650030  0.113900  1.0  0.3297
  C  C181  1  0.709480  0.569650  0.185300  1.0  0.2953
  C  C182  1  0.698030  0.508850  0.210700  1.0  0.1362
  C  C183  1  0.692010  0.465900  0.134500  1.0  0.1233
  C  C184  1  0.675000  0.397800  0.259600  1.0  0.1272
  C  C185  1  0.683400  0.439300  0.336700  1.0  0.1301
  C  C186  1  0.533100  0.115900  0.093100  1.0  -0.0933
  C  C187  1  0.673000  0.425600  0.817800  1.0  0.0336
  C  C188  1  0.926900  0.241700  0.104500  1.0  0.0341
  C  C189  1  0.735460  0.923800  0.620800  1.0  0.1278
  C  C190  1  0.732900  0.931800  0.728900  1.0  -0.1461
  C  C191  1  0.784700  0.926200  0.785300  1.0  -0.1181
  C  C192  1  0.837400  0.910000  0.736200  1.0  -0.1581
  C  C193  1  0.835500  0.902500  0.626600  1.0  0.1501
  C  C194  1  0.883710  0.886800  0.556200  1.0  0.2354
  C  C195  1  0.960030  0.861690  0.479500  1.0  0.2637
  C  C196  1  0.019440  0.843890  0.450700  1.0  0.1253
  C  C197  1  0.063600  0.830900  0.523100  1.0  0.1691
  C  C198  1  0.128100  0.818100  0.390700  1.0  0.1121
  C  C199  1  0.084800  0.828900  0.317100  1.0  0.112
  C  C200  1  0.687880  0.928000  0.543400  1.0  0.2287
  C  C201  1  0.611150  0.935940  0.455800  1.0  0.2546
  C  C202  1  0.551380  0.942730  0.418500  1.0  0.143
  C  C203  1  0.492500  0.969800  0.281000  1.0  0.1538
  C  C204  1  0.443700  0.959900  0.341400  1.0  0.1232
  C  C205  1  0.501360  0.930800  0.477900  1.0  0.1117
  C  C206  1  0.762100  0.800200  0.044300  1.0  0.1654
  C  C207  1  0.761700  0.801700  0.936900  1.0  -0.0915
  C  C208  1  0.725300  0.755500  0.883400  1.0  -0.0177
  C  C209  1  0.773900  0.849970  0.113900  1.0  0.3297
  C  C210  1  0.790520  0.930350  0.185300  1.0  0.2917
  C  C211  1  0.801970  0.991150  0.210700  1.0  0.1347
  C  C212  1  0.807990  0.034100  0.134500  1.0  0.1212
  C  C213  1  0.825000  0.102200  0.259600  1.0  0.1286
  C  C214  1  0.816600  0.060700  0.336700  1.0  0.1296
  C  C215  1  0.966900  0.384100  0.093100  1.0  -0.0907
  C  C216  1  0.827000  0.074400  0.817800  1.0  0.0337
  C  C217  1  0.741700  0.073100  0.604500  1.0  0.0365
  C  C218  1  0.423800  0.264540  0.120800  1.0  0.1289
  C  C219  1  0.431800  0.267100  0.228900  1.0  -0.1454
  C  C220  1  0.426200  0.215300  0.285300  1.0  -0.121
  C  C221  1  0.410000  0.162600  0.236200  1.0  -0.159
  C  C222  1  0.402500  0.164500  0.126600  1.0  0.1517
  C  C223  1  0.386800  0.116290  0.056200  1.0  0.2354
  C  C224  1  0.361690  0.039970  0.979500  1.0  0.264
  C  C225  1  0.343890  0.980560  0.950700  1.0  0.128
  C  C226  1  0.330900  0.936400  0.023100  1.0  0.1692
  C  C227  1  0.318100  0.871900  0.890700  1.0  0.1084
  C  C228  1  0.328900  0.915200  0.817100  1.0  0.1165
  C  C229  1  0.428000  0.312120  0.043400  1.0  0.2287
  C  C230  1  0.435940  0.388850  0.955800  1.0  0.255
  C  C231  1  0.442730  0.448620  0.918500  1.0  0.1443
  C  C232  1  0.469800  0.507500  0.781000  1.0  0.1491
  C  C233  1  0.459900  0.556300  0.841400  1.0  0.1248
  C  C234  1  0.430800  0.498640  0.977900  1.0  0.1118
  C  C235  1  0.300200  0.237900  0.544300  1.0  0.1658
  C  C236  1  0.301700  0.238300  0.436900  1.0  -0.0937
  C  C237  1  0.255500  0.274700  0.383400  1.0  -0.0071
  C  C238  1  0.349970  0.226100  0.613900  1.0  0.3289
  C  C239  1  0.430350  0.209480  0.685300  1.0  0.2909
  C  C240  1  0.491150  0.198030  0.710700  1.0  0.1338
  C  C241  1  0.534100  0.192010  0.634500  1.0  0.1211
  C  C242  1  0.602200  0.175000  0.759600  1.0  0.1306
  C  C243  1  0.560700  0.183400  0.836700  1.0  0.1301
  C  C244  1  0.884100  0.033100  0.593100  1.0  -0.0898
  C  C245  1  0.574400  0.173000  0.317800  1.0  0.032
  C  C246  1  0.758300  0.426900  0.604500  1.0  0.0372
  C  C247  1  0.076200  0.235460  0.120800  1.0  0.1283
  C  C248  1  0.068200  0.232900  0.228900  1.0  -0.1441
  C  C249  1  0.073800  0.284700  0.285300  1.0  -0.1212
  C  C250  1  0.090000  0.337400  0.236200  1.0  -0.1593
  C  C251  1  0.097500  0.335500  0.126600  1.0  0.1517
  C  C252  1  0.113200  0.383710  0.056200  1.0  0.2353
  C  C253  1  0.138310  0.460030  0.979500  1.0  0.2648
  C  C254  1  0.156110  0.519440  0.950700  1.0  0.1265
  C  C255  1  0.169100  0.563600  0.023100  1.0  0.1699
  C  C256  1  0.181900  0.628100  0.890700  1.0  0.1087
  C  C257  1  0.171100  0.584800  0.817100  1.0  0.1152
  C  C258  1  0.072000  0.187880  0.043400  1.0  0.2278
  C  C259  1  0.064060  0.111150  0.955800  1.0  0.2522
  C  C260  1  0.057270  0.051380  0.918500  1.0  0.1485
  C  C261  1  0.030200  0.992500  0.781000  1.0  0.1528
  C  C262  1  0.040100  0.943700  0.841400  1.0  0.1246
  C  C263  1  0.069200  0.001360  0.977900  1.0  0.1109
  C  C264  1  0.199800  0.262100  0.544300  1.0  0.1635
  C  C265  1  0.198300  0.261700  0.436900  1.0  -0.0961
  C  C266  1  0.244500  0.225300  0.383400  1.0  -0.0134
  C  C267  1  0.150030  0.273900  0.613900  1.0  0.3289
  C  C268  1  0.069650  0.290520  0.685300  1.0  0.2922
  C  C269  1  0.008850  0.301970  0.710700  1.0  0.1358
  C  C270  1  0.965900  0.307990  0.634500  1.0  0.1226
  C  C271  1  0.897800  0.325000  0.759600  1.0  0.1306
  C  C272  1  0.939300  0.316600  0.836700  1.0  0.1298
  C  C273  1  0.615900  0.466900  0.593100  1.0  -0.0917
  C  C274  1  0.925600  0.327000  0.317800  1.0  0.0319
  C  C275  1  0.426900  0.741700  0.895500  1.0  0.0344
  C  C276  1  0.235460  0.423800  0.379200  1.0  0.1278
  C  C277  1  0.232900  0.431800  0.271100  1.0  -0.1465
  C  C278  1  0.284700  0.426200  0.214700  1.0  -0.1184
  C  C279  1  0.337400  0.410000  0.263800  1.0  -0.1586
  C  C280  1  0.335500  0.402500  0.373400  1.0  0.1498
  C  C281  1  0.383710  0.386800  0.443800  1.0  0.2358
  C  C282  1  0.460030  0.361690  0.520500  1.0  0.2641
  C  C283  1  0.519440  0.343890  0.549300  1.0  0.1205
  C  C284  1  0.563600  0.330900  0.476900  1.0  0.17
  C  C285  1  0.628100  0.318100  0.609300  1.0  0.112
  C  C286  1  0.584800  0.328900  0.682900  1.0  0.1121
  C  C287  1  0.187880  0.428000  0.456600  1.0  0.2292
  C  C288  1  0.111150  0.435940  0.544200  1.0  0.2543
  C  C289  1  0.051380  0.442730  0.581500  1.0  0.1432
  C  C290  1  0.992500  0.469800  0.719000  1.0  0.1537
  C  C291  1  0.943700  0.459900  0.658600  1.0  0.1224
  C  C292  1  0.001360  0.430800  0.522100  1.0  0.1148
  C  C293  1  0.262100  0.300200  0.955700  1.0  0.1645
  C  C294  1  0.261700  0.301700  0.063100  1.0  -0.0908
  C  C295  1  0.225300  0.255500  0.116600  1.0  -0.0184
  C  C296  1  0.273900  0.349970  0.886100  1.0  0.3298
  C  C297  1  0.290520  0.430350  0.814700  1.0  0.2895
  C  C298  1  0.301970  0.491150  0.789300  1.0  0.1341
  C  C299  1  0.307990  0.534100  0.865500  1.0  0.12
  C  C300  1  0.325000  0.602200  0.740400  1.0  0.1282
  C  C301  1  0.316600  0.560700  0.663300  1.0  0.1299
  C  C302  1  0.466900  0.884100  0.906900  1.0  -0.0903
  C  C303  1  0.327000  0.574400  0.182200  1.0  0.0331
  C  C304  1  0.073100  0.758300  0.895500  1.0  0.0378
  C  C305  1  0.264540  0.076200  0.379200  1.0  0.1285
  C  C306  1  0.267100  0.068200  0.271100  1.0  -0.1454
  C  C307  1  0.215300  0.073800  0.214700  1.0  -0.1142
  C  C308  1  0.162600  0.090000  0.263800  1.0  -0.1598
  C  C309  1  0.164500  0.097500  0.373400  1.0  0.1496
  C  C310  1  0.116290  0.113200  0.443800  1.0  0.2355
  C  C311  1  0.039970  0.138310  0.520500  1.0  0.2628
  C  C312  1  0.980560  0.156110  0.549300  1.0  0.126
  C  C313  1  0.936400  0.169100  0.476900  1.0  0.1709
  C  C314  1  0.871900  0.181900  0.609300  1.0  0.1105
  C  C315  1  0.915200  0.171100  0.682900  1.0  0.1122
  C  C316  1  0.312120  0.072000  0.456600  1.0  0.2294
  C  C317  1  0.388850  0.064060  0.544200  1.0  0.2539
  C  C318  1  0.448620  0.057270  0.581500  1.0  0.1423
  C  C319  1  0.507500  0.030200  0.719000  1.0  0.1515
  C  C320  1  0.556300  0.040100  0.658600  1.0  0.1246
  C  C321  1  0.498640  0.069200  0.522100  1.0  0.1125
  C  C322  1  0.237900  0.199800  0.955700  1.0  0.1637
  C  C323  1  0.238300  0.198300  0.063100  1.0  -0.0932
  C  C324  1  0.274700  0.244500  0.116600  1.0  -0.0198
  C  C325  1  0.226100  0.150030  0.886100  1.0  0.3283
  C  C326  1  0.209480  0.069650  0.814700  1.0  0.292
  C  C327  1  0.198030  0.008850  0.789300  1.0  0.1361
  C  C328  1  0.192010  0.965900  0.865500  1.0  0.1203
  C  C329  1  0.175000  0.897800  0.740400  1.0  0.127
  C  C330  1  0.183400  0.939300  0.663300  1.0  0.1304
  C  C331  1  0.033100  0.615900  0.906900  1.0  -0.0928
  C  C332  1  0.173000  0.925600  0.182200  1.0  0.0333
  C  C333  1  0.258300  0.926900  0.395500  1.0  0.0382
  C  C334  1  0.576200  0.735460  0.879200  1.0  0.1286
  C  C335  1  0.568200  0.732900  0.771100  1.0  -0.1449
  C  C336  1  0.573800  0.784700  0.714700  1.0  -0.1215
  C  C337  1  0.590000  0.837400  0.763800  1.0  -0.1598
  C  C338  1  0.597500  0.835500  0.873400  1.0  0.1516
  C  C339  1  0.613200  0.883710  0.943800  1.0  0.2357
  C  C340  1  0.638310  0.960030  0.020500  1.0  0.2652
  C  C341  1  0.656110  0.019440  0.049300  1.0  0.1204
  C  C342  1  0.669100  0.063600  0.976900  1.0  0.1703
  C  C343  1  0.681900  0.128100  0.109300  1.0  0.1065
  C  C344  1  0.671100  0.084800  0.182900  1.0  0.1123
  C  C345  1  0.572000  0.687880  0.956600  1.0  0.2282
  C  C346  1  0.564060  0.611150  0.044200  1.0  0.2527
  C  C347  1  0.557270  0.551380  0.081500  1.0  0.1432
  C  C348  1  0.530200  0.492500  0.219000  1.0  0.1531
  C  C349  1  0.540100  0.443700  0.158600  1.0  0.1245
  C  C350  1  0.569200  0.501360  0.022100  1.0  0.1138
  C  C351  1  0.699800  0.762100  0.455700  1.0  0.1637
  C  C352  1  0.698300  0.761700  0.563100  1.0  -0.0946
  C  C353  1  0.744500  0.725300  0.616600  1.0  -0.0143
  C  C354  1  0.650030  0.773900  0.386100  1.0  0.3306
  C  C355  1  0.569650  0.790520  0.314700  1.0  0.2892
  C  C356  1  0.508850  0.801970  0.289300  1.0  0.1355
  C  C357  1  0.465900  0.807990  0.365500  1.0  0.1205
  C  C358  1  0.397800  0.825000  0.240400  1.0  0.1301
  C  C359  1  0.439300  0.816600  0.163300  1.0  0.1308
  C  C360  1  0.115900  0.966900  0.406900  1.0  -0.0907
  C  C361  1  0.425600  0.827000  0.682200  1.0  0.0326
  C  C362  1  0.241700  0.573100  0.395500  1.0  0.0373
  C  C363  1  0.923800  0.764540  0.879200  1.0  0.1284
  C  C364  1  0.931800  0.767100  0.771100  1.0  -0.1455
  C  C365  1  0.926200  0.715300  0.714700  1.0  -0.1215
  C  C366  1  0.910000  0.662600  0.763800  1.0  -0.1598
  C  C367  1  0.902500  0.664500  0.873400  1.0  0.1532
  C  C368  1  0.886800  0.616290  0.943800  1.0  0.236
  C  C369  1  0.861690  0.539970  0.020500  1.0  0.2642
  C  C370  1  0.843890  0.480560  0.049300  1.0  0.1245
  C  C371  1  0.830900  0.436400  0.976900  1.0  0.1709
  C  C372  1  0.818100  0.371900  0.109300  1.0  0.1085
  C  C373  1  0.828900  0.415200  0.182900  1.0  0.1137
  C  C374  1  0.928000  0.812120  0.956600  1.0  0.229
  C  C375  1  0.935940  0.888850  0.044200  1.0  0.2548
  C  C376  1  0.942730  0.948620  0.081500  1.0  0.1394
  C  C377  1  0.969800  0.007500  0.219000  1.0  0.1499
  C  C378  1  0.959900  0.056300  0.158600  1.0  0.1242
  C  C379  1  0.930800  0.998640  0.022100  1.0  0.1158
  C  C380  1  0.800200  0.737900  0.455700  1.0  0.1653
  C  C381  1  0.801700  0.738300  0.563100  1.0  -0.0925
  C  C382  1  0.755500  0.774700  0.616600  1.0  -0.0108
  C  C383  1  0.849970  0.726100  0.386100  1.0  0.3284
  C  C384  1  0.930350  0.709480  0.314700  1.0  0.2889
  C  C385  1  0.991150  0.698030  0.289300  1.0  0.1335
  C  C386  1  0.034100  0.692010  0.365500  1.0  0.1195
  C  C387  1  0.102200  0.675000  0.240400  1.0  0.1305
  C  C388  1  0.060700  0.683400  0.163300  1.0  0.1305
  C  C389  1  0.384100  0.533100  0.406900  1.0  -0.0891
  C  C390  1  0.074400  0.673000  0.682200  1.0  0.0316
  N  N391  1  0.714060  0.588720  0.572500  1.0  -0.3289
  N  N392  1  0.628730  0.611950  0.451600  1.0  -0.2859
  N  N393  1  0.578980  0.628030  0.402300  1.0  -0.2624
  N  N394  1  0.561470  0.629890  0.578000  1.0  -0.4612
  N  N395  1  0.470060  0.657770  0.345700  1.0  -0.3203
  N  N396  1  0.382500  0.682200  0.493700  1.0  -0.4361
  N  N397  1  0.795420  0.571760  0.441400  1.0  -0.2682
  N  N398  1  0.869990  0.567820  0.557500  1.0  -0.4516
  N  N399  1  0.845090  0.566340  0.384800  1.0  -0.2766
  N  N400  1  0.952900  0.538780  0.317600  1.0  -0.3495
  N  N401  1  0.052350  0.561070  0.439400  1.0  -0.3784
  N  N402  1  0.726100  0.661120  0.217200  1.0  -0.2564
  N  N403  1  0.715310  0.609160  0.263600  1.0  -0.2606
  N  N404  1  0.715780  0.593710  0.088700  1.0  -0.2895
  N  N405  1  0.693680  0.495540  0.313800  1.0  -0.4414
  N  N406  1  0.679120  0.410220  0.157500  1.0  -0.3994
  N  N407  1  0.521100  0.072400  0.053500  1.0  -0.4085
  N  N408  1  0.658700  0.406900  0.893300  1.0  -0.3619
  N  N409  1  0.589000  0.299900  0.069000  1.0  -0.3802
  N  N410  1  0.785940  0.911280  0.572500  1.0  -0.3278
  N  N411  1  0.871270  0.888050  0.451600  1.0  -0.2845
  N  N412  1  0.921020  0.871970  0.402300  1.0  -0.2664
  N  N413  1  0.938530  0.870110  0.578000  1.0  -0.4598
  N  N414  1  0.029940  0.842230  0.345700  1.0  -0.3205
  N  N415  1  0.117500  0.817800  0.493700  1.0  -0.4332
  N  N416  1  0.704580  0.928240  0.441400  1.0  -0.2689
  N  N417  1  0.630010  0.932180  0.557500  1.0  -0.4546
  N  N418  1  0.654910  0.933660  0.384800  1.0  -0.2663
  N  N419  1  0.547100  0.961220  0.317600  1.0  -0.3483
  N  N420  1  0.447650  0.938930  0.439400  1.0  -0.3778
  N  N421  1  0.773900  0.838880  0.217200  1.0  -0.2569
  N  N422  1  0.784690  0.890840  0.263600  1.0  -0.2605
  N  N423  1  0.784220  0.906290  0.088700  1.0  -0.2838
  N  N424  1  0.806320  0.004460  0.313800  1.0  -0.4408
  N  N425  1  0.820880  0.089780  0.157500  1.0  -0.4006
  N  N426  1  0.978900  0.427600  0.053500  1.0  -0.4109
  N  N427  1  0.841300  0.093100  0.893300  1.0  -0.3634
  N  N428  1  0.911000  0.200100  0.069000  1.0  -0.3752
  N  N429  1  0.411280  0.214060  0.072500  1.0  -0.3263
  N  N430  1  0.388050  0.128730  0.951600  1.0  -0.2852
  N  N431  1  0.371970  0.078980  0.902300  1.0  -0.2576
  N  N432  1  0.370110  0.061470  0.078000  1.0  -0.4633
  N  N433  1  0.342230  0.970060  0.845700  1.0  -0.3206
  N  N434  1  0.317800  0.882500  0.993700  1.0  -0.4367
  N  N435  1  0.428240  0.295420  0.941400  1.0  -0.2694
  N  N436  1  0.432180  0.369990  0.057500  1.0  -0.455
  N  N437  1  0.433660  0.345090  0.884800  1.0  -0.2756
  N  N438  1  0.461220  0.452900  0.817600  1.0  -0.345
  N  N439  1  0.438930  0.552350  0.939400  1.0  -0.3767
  N  N440  1  0.338880  0.226100  0.717200  1.0  -0.2541
  N  N441  1  0.390840  0.215310  0.763600  1.0  -0.2606
  N  N442  1  0.406290  0.215780  0.588700  1.0  -0.2836
  N  N443  1  0.504460  0.193680  0.813800  1.0  -0.4402
  N  N444  1  0.589780  0.179120  0.657500  1.0  -0.3983
  N  N445  1  0.927600  0.021100  0.553500  1.0  -0.4065
  N  N446  1  0.593100  0.158700  0.393300  1.0  -0.3592
  N  N447  1  0.700100  0.089000  0.569000  1.0  -0.3743
  N  N448  1  0.088720  0.285940  0.072500  1.0  -0.3276
  N  N449  1  0.111950  0.371270  0.951600  1.0  -0.2853
  N  N450  1  0.128030  0.421020  0.902300  1.0  -0.2669
  N  N451  1  0.129890  0.438530  0.078000  1.0  -0.4663
  N  N452  1  0.157770  0.529940  0.845700  1.0  -0.3209
  N  N453  1  0.182200  0.617500  0.993700  1.0  -0.4383
  N  N454  1  0.071760  0.204580  0.941400  1.0  -0.2683
  N  N455  1  0.067820  0.130010  0.057500  1.0  -0.4548
  N  N456  1  0.066340  0.154910  0.884800  1.0  -0.2691
  N  N457  1  0.038780  0.047100  0.817600  1.0  -0.3499
  N  N458  1  0.061070  0.947650  0.939400  1.0  -0.3763
  N  N459  1  0.161120  0.273900  0.717200  1.0  -0.2555
  N  N460  1  0.109160  0.284690  0.763600  1.0  -0.2606
  N  N461  1  0.093710  0.284220  0.588700  1.0  -0.2841
  N  N462  1  0.995540  0.306320  0.813800  1.0  -0.4414
  N  N463  1  0.910220  0.320880  0.657500  1.0  -0.3974
  N  N464  1  0.572400  0.478900  0.553500  1.0  -0.4075
  N  N465  1  0.906900  0.341300  0.393300  1.0  -0.36
  N  N466  1  0.799900  0.411000  0.569000  1.0  -0.3785
  N  N467  1  0.285940  0.411280  0.427500  1.0  -0.3264
  N  N468  1  0.371270  0.388050  0.548400  1.0  -0.2854
  N  N469  1  0.421020  0.371970  0.597700  1.0  -0.2638
  N  N470  1  0.438530  0.370110  0.422000  1.0  -0.4597
  N  N471  1  0.529940  0.342230  0.654300  1.0  -0.3219
  N  N472  1  0.617500  0.317800  0.506300  1.0  -0.4362
  N  N473  1  0.204580  0.428240  0.558600  1.0  -0.2696
  N  N474  1  0.130010  0.432180  0.442500  1.0  -0.4533
  N  N475  1  0.154910  0.433660  0.615200  1.0  -0.2649
  N  N476  1  0.047100  0.461220  0.682400  1.0  -0.3496
  N  N477  1  0.947650  0.438930  0.560600  1.0  -0.3784
  N  N478  1  0.273900  0.338880  0.782800  1.0  -0.2585
  N  N479  1  0.284690  0.390840  0.736400  1.0  -0.2638
  N  N480  1  0.284220  0.406290  0.911300  1.0  -0.2821
  N  N481  1  0.306320  0.504460  0.686200  1.0  -0.4427
  N  N482  1  0.320880  0.589780  0.842500  1.0  -0.4009
  N  N483  1  0.478900  0.927600  0.946500  1.0  -0.4096
  N  N484  1  0.341300  0.593100  0.106700  1.0  -0.3642
  N  N485  1  0.411000  0.700100  0.931000  1.0  -0.3744
  N  N486  1  0.214060  0.088720  0.427500  1.0  -0.3268
  N  N487  1  0.128730  0.111950  0.548400  1.0  -0.2859
  N  N488  1  0.078980  0.128030  0.597700  1.0  -0.2559
  N  N489  1  0.061470  0.129890  0.422000  1.0  -0.4595
  N  N490  1  0.970060  0.157770  0.654300  1.0  -0.3208
  N  N491  1  0.882500  0.182200  0.506300  1.0  -0.4351
  N  N492  1  0.295420  0.071760  0.558600  1.0  -0.269
  N  N493  1  0.369990  0.067820  0.442500  1.0  -0.4514
  N  N494  1  0.345090  0.066340  0.615200  1.0  -0.2729
  N  N495  1  0.452900  0.038780  0.682400  1.0  -0.3507
  N  N496  1  0.552350  0.061070  0.560600  1.0  -0.3794
  N  N497  1  0.226100  0.161120  0.782800  1.0  -0.2571
  N  N498  1  0.215310  0.109160  0.736400  1.0  -0.2636
  N  N499  1  0.215780  0.093710  0.911300  1.0  -0.2839
  N  N500  1  0.193680  0.995540  0.686200  1.0  -0.4434
  N  N501  1  0.179120  0.910220  0.842500  1.0  -0.399
  N  N502  1  0.021100  0.572400  0.946500  1.0  -0.4069
  N  N503  1  0.158700  0.906900  0.106700  1.0  -0.3624
  N  N504  1  0.089000  0.799900  0.931000  1.0  -0.3772
  N  N505  1  0.588720  0.785940  0.927500  1.0  -0.3259
  N  N506  1  0.611950  0.871270  0.048400  1.0  -0.2855
  N  N507  1  0.628030  0.921020  0.097700  1.0  -0.2648
  N  N508  1  0.629890  0.938530  0.922000  1.0  -0.4622
  N  N509  1  0.657770  0.029940  0.154300  1.0  -0.32
  N  N510  1  0.682200  0.117500  0.006300  1.0  -0.4387
  N  N511  1  0.571760  0.704580  0.058600  1.0  -0.2696
  N  N512  1  0.567820  0.630010  0.942500  1.0  -0.4548
  N  N513  1  0.566340  0.654910  0.115200  1.0  -0.268
  N  N514  1  0.538780  0.547100  0.182400  1.0  -0.3501
  N  N515  1  0.561070  0.447650  0.060600  1.0  -0.3781
  N  N516  1  0.661120  0.773900  0.282800  1.0  -0.2571
  N  N517  1  0.609160  0.784690  0.236400  1.0  -0.2638
  N  N518  1  0.593710  0.784220  0.411300  1.0  -0.2837
  N  N519  1  0.495540  0.806320  0.186200  1.0  -0.4441
  N  N520  1  0.410220  0.820880  0.342500  1.0  -0.3982
  N  N521  1  0.072400  0.978900  0.446500  1.0  -0.4065
  N  N522  1  0.406900  0.841300  0.606700  1.0  -0.3605
  N  N523  1  0.299900  0.911000  0.431000  1.0  -0.377
  N  N524  1  0.911280  0.714060  0.927500  1.0  -0.325
  N  N525  1  0.888050  0.628730  0.048400  1.0  -0.2857
  N  N526  1  0.871970  0.578980  0.097700  1.0  -0.2595
  N  N527  1  0.870110  0.561470  0.922000  1.0  -0.4644
  N  N528  1  0.842230  0.470060  0.154300  1.0  -0.3205
  N  N529  1  0.817800  0.382500  0.006300  1.0  -0.4364
  N  N530  1  0.928240  0.795420  0.058600  1.0  -0.269
  N  N531  1  0.932180  0.869990  0.942500  1.0  -0.4537
  N  N532  1  0.933660  0.845090  0.115200  1.0  -0.2741
  N  N533  1  0.961220  0.952900  0.182400  1.0  -0.3474
  N  N534  1  0.938930  0.052350  0.060600  1.0  -0.3771
  N  N535  1  0.838880  0.726100  0.282800  1.0  -0.2549
  N  N536  1  0.890840  0.715310  0.236400  1.0  -0.2637
  N  N537  1  0.906290  0.715780  0.411300  1.0  -0.2831
  N  N538  1  0.004460  0.693680  0.186200  1.0  -0.4408
  N  N539  1  0.089780  0.679120  0.342500  1.0  -0.3967
  N  N540  1  0.427600  0.521100  0.446500  1.0  -0.4053
  N  N541  1  0.093100  0.658700  0.606700  1.0  -0.3603
  N  N542  1  0.200100  0.589000  0.431000  1.0  -0.3743
  N  N543  1  0.750000  0.750000  0.094300  1.0  -0.329
  N  N544  1  0.250000  0.250000  0.594300  1.0  -0.329
  N  N545  1  0.250000  0.250000  0.905700  1.0  -0.3289
  N  N546  1  0.750000  0.750000  0.405700  1.0  -0.3289
