# generated using pymatgen
data_ZnH10(C2N)4
_symmetry_space_group_name_H-M   'P 1'
_cell_length_a   16.99480000
_cell_length_b   16.99480000
_cell_length_c   16.99480000
_cell_angle_alpha   90.00000000
_cell_angle_beta   90.00000000
_cell_angle_gamma   90.00000000
_symmetry_Int_Tables_number   1
_chemical_formula_structural   ZnH10(C2N)4
_chemical_formula_sum   'Zn12 H120 C96 N48'
_cell_volume   4908.49297890
_cell_formula_units_Z   12
loop_
 _symmetry_equiv_pos_site_id
 _symmetry_equiv_pos_as_xyz
  1  'x, y, z'
loop_
 _atom_site_type_symbol
 _atom_site_label
 _atom_site_symmetry_multiplicity
 _atom_site_fract_x
 _atom_site_fract_y
 _atom_site_fract_z
 _atom_site_occupancy
 _atom_site_charge
  Zn  Zn1  1  0.500000  0.000000  0.750000  1.0  0.8188
  Zn  Zn2  1  0.500000  0.000000  0.250000  1.0  0.8188
  Zn  Zn3  1  0.750000  0.500000  0.000000  1.0  0.8188
  Zn  Zn4  1  0.250000  0.500000  0.000000  1.0  0.8188
  Zn  Zn5  1  0.000000  0.750000  0.500000  1.0  0.8188
  Zn  Zn6  1  0.000000  0.250000  0.500000  1.0  0.8188
  Zn  Zn7  1  0.000000  0.500000  0.750000  1.0  0.8188
  Zn  Zn8  1  0.000000  0.500000  0.250000  1.0  0.8188
  Zn  Zn9  1  0.500000  0.750000  0.000000  1.0  0.8188
  Zn  Zn10  1  0.500000  0.250000  0.000000  1.0  0.8188
  Zn  Zn11  1  0.750000  0.000000  0.500000  1.0  0.8188
  Zn  Zn12  1  0.250000  0.000000  0.500000  1.0  0.8188
  H  H13  1  0.385700  0.864100  0.728400  1.0  0.0941
  H  H14  1  0.431200  0.121800  0.634100  1.0  0.1107
  H  H15  1  0.885700  0.364100  0.228400  1.0  0.0941
  H  H16  1  0.931200  0.621800  0.134100  1.0  0.1107
  H  H17  1  0.614300  0.135900  0.728400  1.0  0.0962
  H  H18  1  0.568800  0.878200  0.634100  1.0  0.1111
  H  H19  1  0.114300  0.635900  0.228400  1.0  0.0962
  H  H20  1  0.068800  0.378200  0.134100  1.0  0.1111
  H  H21  1  0.614300  0.864100  0.271600  1.0  0.0968
  H  H22  1  0.568800  0.121800  0.365900  1.0  0.1112
  H  H23  1  0.114300  0.364100  0.771600  1.0  0.0968
  H  H24  1  0.068800  0.621800  0.865900  1.0  0.1112
  H  H25  1  0.385700  0.135900  0.271600  1.0  0.0939
  H  H26  1  0.431200  0.878200  0.365900  1.0  0.1109
  H  H27  1  0.885700  0.635900  0.771600  1.0  0.0939
  H  H28  1  0.931200  0.378200  0.865900  1.0  0.1109
  H  H29  1  0.728400  0.385700  0.864100  1.0  0.0945
  H  H30  1  0.634100  0.431200  0.121800  1.0  0.1101
  H  H31  1  0.228400  0.885700  0.364100  1.0  0.0945
  H  H32  1  0.134100  0.931200  0.621800  1.0  0.1101
  H  H33  1  0.728400  0.614300  0.135900  1.0  0.0956
  H  H34  1  0.634100  0.568800  0.878200  1.0  0.1094
  H  H35  1  0.228400  0.114300  0.635900  1.0  0.0956
  H  H36  1  0.134100  0.068800  0.378200  1.0  0.1094
  H  H37  1  0.271600  0.614300  0.864100  1.0  0.096
  H  H38  1  0.365900  0.568800  0.121800  1.0  0.1113
  H  H39  1  0.771600  0.114300  0.364100  1.0  0.096
  H  H40  1  0.865900  0.068800  0.621800  1.0  0.1113
  H  H41  1  0.271600  0.385700  0.135900  1.0  0.0966
  H  H42  1  0.365900  0.431200  0.878200  1.0  0.1098
  H  H43  1  0.771600  0.885700  0.635900  1.0  0.0963
  H  H44  1  0.865900  0.931200  0.378200  1.0  0.1098
  H  H45  1  0.864100  0.728400  0.385700  1.0  0.0925
  H  H46  1  0.121800  0.634100  0.431200  1.0  0.1102
  H  H47  1  0.364100  0.228400  0.885700  1.0  0.0925
  H  H48  1  0.621800  0.134100  0.931200  1.0  0.1102
  H  H49  1  0.135900  0.728400  0.614300  1.0  0.095
  H  H50  1  0.878200  0.634100  0.568800  1.0  0.1108
  H  H51  1  0.635900  0.228400  0.114300  1.0  0.095
  H  H52  1  0.378200  0.134100  0.068800  1.0  0.1108
  H  H53  1  0.864100  0.271600  0.614300  1.0  0.0948
  H  H54  1  0.121800  0.365900  0.568800  1.0  0.1108
  H  H55  1  0.364100  0.771600  0.114300  1.0  0.0948
  H  H56  1  0.621800  0.865900  0.068800  1.0  0.1108
  H  H57  1  0.135900  0.271600  0.385700  1.0  0.0959
  H  H58  1  0.878200  0.365900  0.431200  1.0  0.1104
  H  H59  1  0.635900  0.771600  0.885700  1.0  0.0959
  H  H60  1  0.378200  0.865900  0.931200  1.0  0.1104
  H  H61  1  0.864100  0.385700  0.728400  1.0  0.092
  H  H62  1  0.121800  0.431200  0.634100  1.0  0.1112
  H  H63  1  0.364100  0.885700  0.228400  1.0  0.092
  H  H64  1  0.621800  0.931200  0.134100  1.0  0.1112
  H  H65  1  0.135900  0.614300  0.728400  1.0  0.094
  H  H66  1  0.878200  0.568800  0.634100  1.0  0.1123
  H  H67  1  0.635900  0.114300  0.228400  1.0  0.094
  H  H68  1  0.378200  0.068800  0.134100  1.0  0.1123
  H  H69  1  0.864100  0.614300  0.271600  1.0  0.0942
  H  H70  1  0.121800  0.568800  0.365900  1.0  0.1119
  H  H71  1  0.364100  0.114300  0.771600  1.0  0.0942
  H  H72  1  0.621800  0.068800  0.865900  1.0  0.1119
  H  H73  1  0.135900  0.385700  0.271600  1.0  0.0928
  H  H74  1  0.878200  0.431200  0.365900  1.0  0.1112
  H  H75  1  0.635900  0.885700  0.771600  1.0  0.0933
  H  H76  1  0.378200  0.931200  0.865900  1.0  0.1112
  H  H77  1  0.385700  0.728400  0.864100  1.0  0.0934
  H  H78  1  0.431200  0.634100  0.121800  1.0  0.1115
  H  H79  1  0.885700  0.228400  0.364100  1.0  0.0934
  H  H80  1  0.931200  0.134100  0.621800  1.0  0.1115
  H  H81  1  0.614300  0.728400  0.135900  1.0  0.0954
  H  H82  1  0.568800  0.634100  0.878200  1.0  0.1103
  H  H83  1  0.114300  0.228400  0.635900  1.0  0.0954
  H  H84  1  0.068800  0.134100  0.378200  1.0  0.1103
  H  H85  1  0.614300  0.271600  0.864100  1.0  0.0964
  H  H86  1  0.568800  0.365900  0.121800  1.0  0.1115
  H  H87  1  0.114300  0.771600  0.364100  1.0  0.0964
  H  H88  1  0.068800  0.865900  0.621800  1.0  0.1115
  H  H89  1  0.385700  0.271600  0.135900  1.0  0.0939
  H  H90  1  0.431200  0.365900  0.878200  1.0  0.1103
  H  H91  1  0.885700  0.771600  0.635900  1.0  0.0939
  H  H92  1  0.931200  0.865900  0.378200  1.0  0.1103
  H  H93  1  0.728400  0.864100  0.385700  1.0  0.0959
  H  H94  1  0.634100  0.121800  0.431200  1.0  0.1083
  H  H95  1  0.228400  0.364100  0.885700  1.0  0.0959
  H  H96  1  0.134100  0.621800  0.931200  1.0  0.1083
  H  H97  1  0.728400  0.135900  0.614300  1.0  0.0971
  H  H98  1  0.634100  0.878200  0.568800  1.0  0.1091
  H  H99  1  0.228400  0.635900  0.114300  1.0  0.0971
  H  H100  1  0.134100  0.378200  0.068800  1.0  0.1091
  H  H101  1  0.271600  0.864100  0.614300  1.0  0.0971
  H  H102  1  0.365900  0.121800  0.568800  1.0  0.1098
  H  H103  1  0.771600  0.364100  0.114300  1.0  0.0971
  H  H104  1  0.865900  0.621800  0.068800  1.0  0.1098
  H  H105  1  0.271600  0.135900  0.385700  1.0  0.0958
  H  H106  1  0.365900  0.878200  0.431200  1.0  0.1096
  H  H107  1  0.771600  0.635900  0.885700  1.0  0.0979
  H  H108  1  0.865900  0.378200  0.931200  1.0  0.1096
  H  H109  1  0.448030  0.084100  0.551970  1.0  0.1225
  H  H110  1  0.948030  0.584100  0.051970  1.0  0.1225
  H  H111  1  0.551970  0.915900  0.551970  1.0  0.1228
  H  H112  1  0.051970  0.415900  0.051970  1.0  0.1228
  H  H113  1  0.551970  0.084100  0.448030  1.0  0.1233
  H  H114  1  0.051970  0.584100  0.948030  1.0  0.1233
  H  H115  1  0.448030  0.915900  0.448030  1.0  0.124
  H  H116  1  0.948030  0.415900  0.948030  1.0  0.124
  H  H117  1  0.551970  0.448030  0.084100  1.0  0.1253
  H  H118  1  0.051970  0.948030  0.584100  1.0  0.1253
  H  H119  1  0.551970  0.551970  0.915900  1.0  0.1272
  H  H120  1  0.051970  0.051970  0.415900  1.0  0.1272
  H  H121  1  0.448030  0.551970  0.084100  1.0  0.126
  H  H122  1  0.948030  0.051970  0.584100  1.0  0.126
  H  H123  1  0.448030  0.448030  0.915900  1.0  0.1269
  H  H124  1  0.948030  0.948030  0.415900  1.0  0.1269
  H  H125  1  0.084100  0.551970  0.448030  1.0  0.1256
  H  H126  1  0.584100  0.051970  0.948030  1.0  0.1256
  H  H127  1  0.915900  0.551970  0.551970  1.0  0.1236
  H  H128  1  0.415900  0.051970  0.051970  1.0  0.1236
  H  H129  1  0.084100  0.448030  0.551970  1.0  0.1244
  H  H130  1  0.584100  0.948030  0.051970  1.0  0.1244
  H  H131  1  0.915900  0.448030  0.448030  1.0  0.1252
  H  H132  1  0.415900  0.948030  0.948030  1.0  0.1252
  C  C133  1  0.370270  0.900480  0.687760  1.0  0.0106
  C  C134  1  0.870270  0.400480  0.187760  1.0  0.0106
  C  C135  1  0.629730  0.099520  0.687760  1.0  0.0077
  C  C136  1  0.129730  0.599520  0.187760  1.0  0.0077
  C  C137  1  0.629730  0.900480  0.312240  1.0  0.0081
  C  C138  1  0.129730  0.400480  0.812240  1.0  0.0081
  C  C139  1  0.370270  0.099520  0.312240  1.0  0.0085
  C  C140  1  0.870270  0.599520  0.812240  1.0  0.0085
  C  C141  1  0.687760  0.370270  0.900480  1.0  0.0089
  C  C142  1  0.187760  0.870270  0.400480  1.0  0.0089
  C  C143  1  0.687760  0.629730  0.099520  1.0  0.0093
  C  C144  1  0.187760  0.129730  0.599520  1.0  0.0093
  C  C145  1  0.312240  0.629730  0.900480  1.0  0.0075
  C  C146  1  0.812240  0.129730  0.400480  1.0  0.0075
  C  C147  1  0.312240  0.370270  0.099520  1.0  0.0075
  C  C148  1  0.812240  0.870270  0.599520  1.0  0.0075
  C  C149  1  0.900480  0.687760  0.370270  1.0  0.0102
  C  C150  1  0.400480  0.187760  0.870270  1.0  0.01
  C  C151  1  0.099520  0.687760  0.629730  1.0  0.0106
  C  C152  1  0.599520  0.187760  0.129730  1.0  0.0106
  C  C153  1  0.900480  0.312240  0.629730  1.0  0.0107
  C  C154  1  0.400480  0.812240  0.129730  1.0  0.011
  C  C155  1  0.099520  0.312240  0.370270  1.0  0.0114
  C  C156  1  0.599520  0.812240  0.870270  1.0  0.0114
  C  C157  1  0.900480  0.370270  0.687760  1.0  0.0101
  C  C158  1  0.400480  0.870270  0.187760  1.0  0.01
  C  C159  1  0.099520  0.629730  0.687760  1.0  0.0105
  C  C160  1  0.599520  0.129730  0.187760  1.0  0.0105
  C  C161  1  0.900480  0.629730  0.312240  1.0  0.0097
  C  C162  1  0.400480  0.129730  0.812240  1.0  0.0101
  C  C163  1  0.099520  0.370270  0.312240  1.0  0.0097
  C  C164  1  0.599520  0.870270  0.812240  1.0  0.0097
  C  C165  1  0.370270  0.687760  0.900480  1.0  0.0111
  C  C166  1  0.870270  0.187760  0.400480  1.0  0.0111
  C  C167  1  0.629730  0.687760  0.099520  1.0  0.01
  C  C168  1  0.129730  0.187760  0.599520  1.0  0.01
  C  C169  1  0.629730  0.312240  0.900480  1.0  0.0091
  C  C170  1  0.129730  0.812240  0.400480  1.0  0.0091
  C  C171  1  0.370270  0.312240  0.099520  1.0  0.0107
  C  C172  1  0.870270  0.812240  0.599520  1.0  0.0107
  C  C173  1  0.687760  0.900480  0.370270  1.0  0.0093
  C  C174  1  0.187760  0.400480  0.870270  1.0  0.0093
  C  C175  1  0.687760  0.099520  0.629730  1.0  0.0074
  C  C176  1  0.187760  0.599520  0.129730  1.0  0.0074
  C  C177  1  0.312240  0.900480  0.629730  1.0  0.0092
  C  C178  1  0.812240  0.400480  0.129730  1.0  0.0076
  C  C179  1  0.312240  0.099520  0.370270  1.0  0.0063
  C  C180  1  0.812240  0.599520  0.870270  1.0  0.0063
  C  C181  1  0.380790  0.015100  0.619210  1.0  0.2039
  C  C182  1  0.408640  0.092370  0.591360  1.0  -0.4017
  C  C183  1  0.880790  0.515100  0.119210  1.0  0.2039
  C  C184  1  0.908640  0.592370  0.091360  1.0  -0.4017
  C  C185  1  0.619210  0.984900  0.619210  1.0  0.2033
  C  C186  1  0.591360  0.907630  0.591360  1.0  -0.4001
  C  C187  1  0.119210  0.484900  0.119210  1.0  0.2033
  C  C188  1  0.091360  0.407630  0.091360  1.0  -0.4001
  C  C189  1  0.619210  0.015100  0.380790  1.0  0.2045
  C  C190  1  0.591360  0.092370  0.408640  1.0  -0.4017
  C  C191  1  0.119210  0.515100  0.880790  1.0  0.2045
  C  C192  1  0.091360  0.592370  0.908640  1.0  -0.4017
  C  C193  1  0.380790  0.984900  0.380790  1.0  0.2041
  C  C194  1  0.408640  0.907630  0.408640  1.0  -0.4008
  C  C195  1  0.880790  0.484900  0.880790  1.0  0.2041
  C  C196  1  0.908640  0.407630  0.908640  1.0  -0.4008
  C  C197  1  0.619210  0.380790  0.015100  1.0  0.2045
  C  C198  1  0.591360  0.408640  0.092370  1.0  -0.4059
  C  C199  1  0.119210  0.880790  0.515100  1.0  0.2045
  C  C200  1  0.091360  0.908640  0.592370  1.0  -0.4059
  C  C201  1  0.619210  0.619210  0.984900  1.0  0.204
  C  C202  1  0.591360  0.591360  0.907630  1.0  -0.4062
  C  C203  1  0.119210  0.119210  0.484900  1.0  0.204
  C  C204  1  0.091360  0.091360  0.407630  1.0  -0.4062
  C  C205  1  0.380790  0.619210  0.015100  1.0  0.2046
  C  C206  1  0.408640  0.591360  0.092370  1.0  -0.4058
  C  C207  1  0.880790  0.119210  0.515100  1.0  0.2046
  C  C208  1  0.908640  0.091360  0.592370  1.0  -0.4058
  C  C209  1  0.380790  0.380790  0.984900  1.0  0.2047
  C  C210  1  0.408640  0.408640  0.907630  1.0  -0.4062
  C  C211  1  0.880790  0.880790  0.484900  1.0  0.2047
  C  C212  1  0.908640  0.908640  0.407630  1.0  -0.4062
  C  C213  1  0.015100  0.619210  0.380790  1.0  0.2047
  C  C214  1  0.092370  0.591360  0.408640  1.0  -0.3996
  C  C215  1  0.515100  0.119210  0.880790  1.0  0.2047
  C  C216  1  0.592370  0.091360  0.908640  1.0  -0.3996
  C  C217  1  0.984900  0.619210  0.619210  1.0  0.2021
  C  C218  1  0.907630  0.591360  0.591360  1.0  -0.3984
  C  C219  1  0.484900  0.119210  0.119210  1.0  0.2021
  C  C220  1  0.407630  0.091360  0.091360  1.0  -0.3984
  C  C221  1  0.015100  0.380790  0.619210  1.0  0.2042
  C  C222  1  0.092370  0.408640  0.591360  1.0  -0.4
  C  C223  1  0.515100  0.880790  0.119210  1.0  0.2042
  C  C224  1  0.592370  0.908640  0.091360  1.0  -0.4
  C  C225  1  0.984900  0.380790  0.380790  1.0  0.2035
  C  C226  1  0.907630  0.408640  0.408640  1.0  -0.3986
  C  C227  1  0.484900  0.880790  0.880790  1.0  0.2035
  C  C228  1  0.407630  0.908640  0.908640  1.0  -0.3986
  N  N229  1  0.412280  0.971710  0.681070  1.0  -0.3836
  N  N230  1  0.912280  0.471710  0.181070  1.0  -0.3841
  N  N231  1  0.587720  0.028290  0.681070  1.0  -0.3838
  N  N232  1  0.087720  0.528290  0.181070  1.0  -0.3838
  N  N233  1  0.587720  0.971710  0.318930  1.0  -0.3847
  N  N234  1  0.087720  0.471710  0.818930  1.0  -0.385
  N  N235  1  0.412280  0.028290  0.318930  1.0  -0.3819
  N  N236  1  0.912280  0.528290  0.818930  1.0  -0.3819
  N  N237  1  0.681070  0.412280  0.971710  1.0  -0.3821
  N  N238  1  0.181070  0.912280  0.471710  1.0  -0.3836
  N  N239  1  0.681070  0.587720  0.028290  1.0  -0.3801
  N  N240  1  0.181070  0.087720  0.528290  1.0  -0.3801
  N  N241  1  0.318930  0.587720  0.971710  1.0  -0.3822
  N  N242  1  0.818930  0.087720  0.471710  1.0  -0.3824
  N  N243  1  0.318930  0.412280  0.028290  1.0  -0.383
  N  N244  1  0.818930  0.912280  0.528290  1.0  -0.383
  N  N245  1  0.971710  0.681070  0.412280  1.0  -0.3831
  N  N246  1  0.471710  0.181070  0.912280  1.0  -0.3836
  N  N247  1  0.028290  0.681070  0.587720  1.0  -0.3817
  N  N248  1  0.528290  0.181070  0.087720  1.0  -0.3817
  N  N249  1  0.971710  0.318930  0.587720  1.0  -0.3836
  N  N250  1  0.471710  0.818930  0.087720  1.0  -0.3837
  N  N251  1  0.028290  0.318930  0.412280  1.0  -0.3835
  N  N252  1  0.528290  0.818930  0.912280  1.0  -0.3835
  N  N253  1  0.971710  0.412280  0.681070  1.0  -0.3837
  N  N254  1  0.471710  0.912280  0.181070  1.0  -0.3842
  N  N255  1  0.028290  0.587720  0.681070  1.0  -0.3826
  N  N256  1  0.528290  0.087720  0.181070  1.0  -0.3826
  N  N257  1  0.971710  0.587720  0.318930  1.0  -0.3834
  N  N258  1  0.471710  0.087720  0.818930  1.0  -0.3836
  N  N259  1  0.028290  0.412280  0.318930  1.0  -0.383
  N  N260  1  0.528290  0.912280  0.818930  1.0  -0.383
  N  N261  1  0.412280  0.681070  0.971710  1.0  -0.3827
  N  N262  1  0.912280  0.181070  0.471710  1.0  -0.3842
  N  N263  1  0.587720  0.681070  0.028290  1.0  -0.3835
  N  N264  1  0.087720  0.181070  0.528290  1.0  -0.3835
  N  N265  1  0.587720  0.318930  0.971710  1.0  -0.3839
  N  N266  1  0.087720  0.818930  0.471710  1.0  -0.3841
  N  N267  1  0.412280  0.318930  0.028290  1.0  -0.3816
  N  N268  1  0.912280  0.818930  0.528290  1.0  -0.3816
  N  N269  1  0.681070  0.971710  0.412280  1.0  -0.3829
  N  N270  1  0.181070  0.471710  0.912280  1.0  -0.3844
  N  N271  1  0.681070  0.028290  0.587720  1.0  -0.3807
  N  N272  1  0.181070  0.528290  0.087720  1.0  -0.3807
  N  N273  1  0.318930  0.971710  0.587720  1.0  -0.3836
  N  N274  1  0.818930  0.471710  0.087720  1.0  -0.3837
  N  N275  1  0.318930  0.028290  0.412280  1.0  -0.3828
  N  N276  1  0.818930  0.528290  0.912280  1.0  -0.3828
