# generated using pymatgen
data_CdH22C28(NO)4
_symmetry_space_group_name_H-M   'P 1'
_cell_length_a   9.21330000
_cell_length_b   14.51870000
_cell_length_c   20.64860000
_cell_angle_alpha   110.58300000
_cell_angle_beta   97.67420000
_cell_angle_gamma   90.00000000
_symmetry_Int_Tables_number   1
_chemical_formula_structural   CdH22C28(NO)4
_chemical_formula_sum   'Cd4 H88 C112 N16 O16'
_cell_volume   2559.30112500
_cell_formula_units_Z   4
loop_
 _symmetry_equiv_pos_site_id
 _symmetry_equiv_pos_as_xyz
  1  'x, y, z'
loop_
 _atom_site_type_symbol
 _atom_site_label
 _atom_site_symmetry_multiplicity
 _atom_site_fract_x
 _atom_site_fract_y
 _atom_site_fract_z
 _atom_site_occupancy
 _atom_site_charge
  Cd  Cd1  1  0.601190  0.162380  0.792540  1.0  0.9524
  Cd  Cd2  1  0.898810  0.369840  0.207460  1.0  0.9529
  Cd  Cd3  1  0.398810  0.837620  0.207460  1.0  0.952
  Cd  Cd4  1  0.101190  0.630160  0.792540  1.0  0.9525
  H  H5  1  0.535600  0.167700  0.556800  1.0  0.0847
  H  H6  1  0.508100  0.897700  0.564800  1.0  0.1003
  H  H7  1  0.143500  0.257400  0.884600  1.0  0.082
  H  H8  1  0.501900  0.328200  0.028200  1.0  0.1004
  H  H9  1  0.887800  0.160300  0.713000  1.0  0.085
  H  H10  1  0.816000  0.378400  0.880000  1.0  0.1135
  H  H11  1  0.015000  0.432000  0.832800  1.0  0.1224
  H  H12  1  0.136300  0.357500  0.719400  1.0  0.111
  H  H13  1  0.192800  0.262300  0.731600  1.0  0.1141
  H  H14  1  0.862900  0.283100  0.626200  1.0  0.0976
  H  H15  1  0.811100  0.204100  0.507200  1.0  0.095
  H  H16  1  0.197600  0.079100  0.506600  1.0  0.0891
  H  H17  1  0.250400  0.159100  0.625000  1.0  0.0971
  H  H18  1  0.752900  0.068900  0.404800  1.0  0.0895
  H  H19  1  0.711200  0.004100  0.284800  1.0  0.1032
  H  H20  1  0.138500  0.028900  0.278200  1.0  0.1013
  H  H21  1  0.181700  0.094400  0.397800  1.0  0.0932
  H  H22  1  0.806300  0.926500  0.173400  1.0  0.1066
  H  H23  1  0.974500  0.938800  0.170400  1.0  0.0985
  H  H24  1  0.924200  0.175400  0.246600  1.0  0.0795
  H  H25  1  0.715800  0.156400  0.063200  1.0  0.1119
  H  H26  1  0.712500  0.989000  0.072000  1.0  0.1422
  H  H27  1  0.964400  0.610900  0.443200  1.0  0.084
  H  H28  1  0.991900  0.332900  0.435200  1.0  0.1009
  H  H29  1  0.356500  0.372800  0.115400  1.0  0.0822
  H  H30  1  0.998100  0.300000  0.971800  1.0  0.1007
  H  H31  1  0.612200  0.447300  0.287000  1.0  0.0855
  H  H32  1  0.684000  0.498400  0.120000  1.0  0.1129
  H  H33  1  0.485000  0.599200  0.167200  1.0  0.1208
  H  H34  1  0.363700  0.638100  0.280600  1.0  0.1115
  H  H35  1  0.307200  0.530700  0.268400  1.0  0.113
  H  H36  1  0.637100  0.656900  0.373800  1.0  0.0972
  H  H37  1  0.688900  0.696900  0.492800  1.0  0.0955
  H  H38  1  0.302400  0.572500  0.493400  1.0  0.0879
  H  H39  1  0.249600  0.534100  0.375000  1.0  0.0975
  H  H40  1  0.747100  0.664100  0.595200  1.0  0.0893
  H  H41  1  0.788800  0.719300  0.715200  1.0  0.1041
  H  H42  1  0.361500  0.750700  0.721800  1.0  0.1017
  H  H43  1  0.318300  0.696600  0.602200  1.0  0.0934
  H  H44  1  0.693700  0.753100  0.826600  1.0  0.1063
  H  H45  1  0.525500  0.768400  0.829600  1.0  0.096
  H  H46  1  0.575800  0.928800  0.753400  1.0  0.0812
  H  H47  1  0.784200  0.093200  0.936800  1.0  0.1112
  H  H48  1  0.787500  0.917000  0.928000  1.0  0.142
  H  H49  1  0.464400  0.832300  0.443200  1.0  0.0846
  H  H50  1  0.491900  0.102300  0.435200  1.0  0.0991
  H  H51  1  0.856500  0.742600  0.115400  1.0  0.0823
  H  H52  1  0.498100  0.671800  0.971800  1.0  0.1002
  H  H53  1  0.112200  0.839700  0.287000  1.0  0.0852
  H  H54  1  0.184000  0.621600  0.120000  1.0  0.1135
  H  H55  1  0.985000  0.568000  0.167200  1.0  0.1219
  H  H56  1  0.863700  0.642500  0.280600  1.0  0.1116
  H  H57  1  0.807200  0.737700  0.268400  1.0  0.1128
  H  H58  1  0.137100  0.716900  0.373800  1.0  0.0972
  H  H59  1  0.188900  0.795900  0.492800  1.0  0.0958
  H  H60  1  0.802400  0.920900  0.493400  1.0  0.0888
  H  H61  1  0.749600  0.840900  0.375000  1.0  0.0978
  H  H62  1  0.247100  0.931100  0.595200  1.0  0.0891
  H  H63  1  0.288800  0.995900  0.715200  1.0  0.1036
  H  H64  1  0.861500  0.971100  0.721800  1.0  0.1017
  H  H65  1  0.818300  0.905600  0.602200  1.0  0.093
  H  H66  1  0.193700  0.073500  0.826600  1.0  0.1069
  H  H67  1  0.025500  0.061200  0.829600  1.0  0.098
  H  H68  1  0.075800  0.824600  0.753400  1.0  0.079
  H  H69  1  0.284200  0.843600  0.936800  1.0  0.1115
  H  H70  1  0.287500  0.011000  0.928000  1.0  0.1424
  H  H71  1  0.035600  0.389100  0.556800  1.0  0.084
  H  H72  1  0.008100  0.667100  0.564800  1.0  0.1009
  H  H73  1  0.643500  0.627200  0.884600  1.0  0.0823
  H  H74  1  0.001900  0.700000  0.028200  1.0  0.101
  H  H75  1  0.387800  0.552700  0.713000  1.0  0.0843
  H  H76  1  0.316000  0.501600  0.880000  1.0  0.1124
  H  H77  1  0.515000  0.400800  0.832800  1.0  0.1208
  H  H78  1  0.636300  0.361900  0.719400  1.0  0.1122
  H  H79  1  0.692800  0.469300  0.731600  1.0  0.1132
  H  H80  1  0.362900  0.343100  0.626200  1.0  0.0971
  H  H81  1  0.311100  0.303100  0.507200  1.0  0.0951
  H  H82  1  0.697600  0.427500  0.506600  1.0  0.0882
  H  H83  1  0.750400  0.465900  0.625000  1.0  0.0976
  H  H84  1  0.252900  0.335900  0.404800  1.0  0.0893
  H  H85  1  0.211200  0.280700  0.284800  1.0  0.1033
  H  H86  1  0.638500  0.249300  0.278200  1.0  0.1014
  H  H87  1  0.681700  0.303400  0.397800  1.0  0.0937
  H  H88  1  0.306300  0.246900  0.173400  1.0  0.1059
  H  H89  1  0.474500  0.231600  0.170400  1.0  0.0966
  H  H90  1  0.424200  0.071200  0.246600  1.0  0.0817
  H  H91  1  0.215800  0.906800  0.063200  1.0  0.1114
  H  H92  1  0.212500  0.083000  0.072000  1.0  0.1417
  C  C93  1  0.546700  0.083720  0.651240  1.0  0.6426
  C  C94  1  0.523500  0.039530  0.572260  1.0  -0.1177
  C  C95  1  0.520700  0.100000  0.534000  1.0  -0.0495
  C  C96  1  0.504400  0.939070  0.538940  1.0  -0.0688
  C  C97  1  0.432200  0.253930  0.890660  1.0  0.6395
  C  C98  1  0.337100  0.287710  0.946820  1.0  -0.1238
  C  C99  1  0.186800  0.280110  0.931020  1.0  -0.0697
  C  C100  1  0.400300  0.322680  0.016760  1.0  -0.064
  C  C101  1  0.895400  0.221140  0.749280  1.0  0.1404
  C  C102  1  0.855700  0.340730  0.840460  1.0  0.0331
  C  C103  1  0.965900  0.370450  0.814700  1.0  -0.1336
  C  C104  1  0.107700  0.290740  0.714280  1.0  -0.0681
  C  C105  1  0.063800  0.232670  0.638540  1.0  0.0406
  C  C106  1  0.931800  0.243320  0.602240  1.0  -0.1188
  C  C107  1  0.900700  0.195740  0.530680  1.0  -0.1016
  C  C108  1  0.001700  0.134990  0.492780  1.0  0.0275
  C  C109  1  0.130600  0.121460  0.530120  1.0  -0.1037
  C  C110  1  0.162200  0.169270  0.601340  1.0  -0.1223
  C  C111  1  0.973000  0.090520  0.416040  1.0  0.0385
  C  C112  1  0.831700  0.061590  0.379780  1.0  -0.1002
  C  C113  1  0.806500  0.022340  0.307680  1.0  -0.1155
  C  C114  1  0.920700  0.009840  0.269080  1.0  0.0198
  C  C115  1  0.060200  0.037100  0.303600  1.0  -0.1254
  C  C116  1  0.085900  0.076580  0.375560  1.0  -0.0976
  C  C117  1  0.890700  0.972820  0.189640  1.0  -0.0685
  C  C118  1  0.886600  0.149570  0.199340  1.0  0.2045
  C  C119  1  0.762400  0.138900  0.101400  1.0  0.0088
  C  C120  1  0.767400  0.047200  0.103600  1.0  -0.1777
  C  C121  1  0.953300  0.432480  0.348760  1.0  0.642
  C  C122  1  0.976500  0.467270  0.427740  1.0  -0.1189
  C  C123  1  0.979300  0.566000  0.466000  1.0  -0.0493
  C  C124  1  0.995600  0.400130  0.461060  1.0  -0.0695
  C  C125  1  0.067800  0.363270  0.109340  1.0  0.6392
  C  C126  1  0.162900  0.340890  0.053180  1.0  -0.1292
  C  C127  1  0.313200  0.349090  0.068980  1.0  -0.0677
  C  C128  1  0.099700  0.305920  0.983240  1.0  -0.0655
  C  C129  1  0.604600  0.471860  0.250720  1.0  0.1411
  C  C130  1  0.644300  0.500270  0.159540  1.0  0.0324
  C  C131  1  0.534100  0.555750  0.185300  1.0  -0.1333
  C  C132  1  0.392300  0.576460  0.285720  1.0  -0.0687
  C  C133  1  0.436200  0.594130  0.361460  1.0  0.0408
  C  C134  1  0.568200  0.641080  0.397760  1.0  -0.1206
  C  C135  1  0.599300  0.665060  0.469320  1.0  -0.1024
  C  C136  1  0.498300  0.642210  0.507220  1.0  0.0272
  C  C137  1  0.369400  0.591340  0.469880  1.0  -0.1038
  C  C138  1  0.337800  0.567930  0.398660  1.0  -0.1213
  C  C139  1  0.527000  0.674480  0.583960  1.0  0.04
  C  C140  1  0.668300  0.681810  0.620220  1.0  -0.1007
  C  C141  1  0.693500  0.714660  0.692320  1.0  -0.1169
  C  C142  1  0.579300  0.740760  0.730920  1.0  0.019
  C  C143  1  0.439800  0.733500  0.696400  1.0  -0.1241
  C  C144  1  0.414100  0.701020  0.624440  1.0  -0.0976
  C  C145  1  0.609300  0.783180  0.810360  1.0  -0.0671
  C  C146  1  0.613400  0.950230  0.800660  1.0  0.2028
  C  C147  1  0.737600  0.037500  0.898600  1.0  0.0065
  C  C148  1  0.732600  0.943600  0.896400  1.0  -0.1764
  C  C149  1  0.453300  0.916280  0.348760  1.0  0.641
  C  C150  1  0.476500  0.960470  0.427740  1.0  -0.1195
  C  C151  1  0.479300  0.900000  0.466000  1.0  -0.0503
  C  C152  1  0.495600  0.060930  0.461060  1.0  -0.068
  C  C153  1  0.567800  0.746070  0.109340  1.0  0.639
  C  C154  1  0.662900  0.712290  0.053180  1.0  -0.1287
  C  C155  1  0.813200  0.719890  0.068980  1.0  -0.0704
  C  C156  1  0.599700  0.677320  0.983240  1.0  -0.0651
  C  C157  1  0.104600  0.778860  0.250720  1.0  0.1401
  C  C158  1  0.144300  0.659270  0.159540  1.0  0.033
  C  C159  1  0.034100  0.629550  0.185300  1.0  -0.1343
  C  C160  1  0.892300  0.709260  0.285720  1.0  -0.0676
  C  C161  1  0.936200  0.767330  0.361460  1.0  0.0409
  C  C162  1  0.068200  0.756680  0.397760  1.0  -0.1205
  C  C163  1  0.099300  0.804260  0.469320  1.0  -0.1026
  C  C164  1  0.998300  0.865010  0.507220  1.0  0.0271
  C  C165  1  0.869400  0.878540  0.469880  1.0  -0.1036
  C  C166  1  0.837800  0.830730  0.398660  1.0  -0.1222
  C  C167  1  0.027000  0.909480  0.583960  1.0  0.0399
  C  C168  1  0.168300  0.938410  0.620220  1.0  -0.1005
  C  C169  1  0.193500  0.977660  0.692320  1.0  -0.1165
  C  C170  1  0.079300  0.990160  0.730920  1.0  0.0193
  C  C171  1  0.939800  0.962900  0.696400  1.0  -0.1238
  C  C172  1  0.914100  0.923420  0.624440  1.0  -0.0977
  C  C173  1  0.109300  0.027180  0.810360  1.0  -0.0671
  C  C174  1  0.113400  0.850430  0.800660  1.0  0.2047
  C  C175  1  0.237600  0.861100  0.898600  1.0  0.0089
  C  C176  1  0.232600  0.952800  0.896400  1.0  -0.1755
  C  C177  1  0.046700  0.567520  0.651240  1.0  0.6431
  C  C178  1  0.023500  0.532730  0.572260  1.0  -0.1173
  C  C179  1  0.020700  0.434000  0.534000  1.0  -0.049
  C  C180  1  0.004400  0.599870  0.538940  1.0  -0.0698
  C  C181  1  0.932200  0.636730  0.890660  1.0  0.6394
  C  C182  1  0.837100  0.659110  0.946820  1.0  -0.1241
  C  C183  1  0.686800  0.650910  0.931020  1.0  -0.0674
  C  C184  1  0.900300  0.694080  0.016760  1.0  -0.0646
  C  C185  1  0.395400  0.528140  0.749280  1.0  0.1399
  C  C186  1  0.355700  0.499730  0.840460  1.0  0.0324
  C  C187  1  0.465900  0.444250  0.814700  1.0  -0.1318
  C  C188  1  0.607700  0.423540  0.714280  1.0  -0.0695
  C  C189  1  0.563800  0.405870  0.638540  1.0  0.041
  C  C190  1  0.431800  0.358920  0.602240  1.0  -0.1185
  C  C191  1  0.400700  0.334940  0.530680  1.0  -0.1008
  C  C192  1  0.501700  0.357790  0.492780  1.0  0.0274
  C  C193  1  0.630600  0.408660  0.530120  1.0  -0.1032
  C  C194  1  0.662200  0.432070  0.601340  1.0  -0.1214
  C  C195  1  0.473000  0.325520  0.416040  1.0  0.0392
  C  C196  1  0.331700  0.318190  0.379780  1.0  -0.1005
  C  C197  1  0.306500  0.285340  0.307680  1.0  -0.1161
  C  C198  1  0.420700  0.259240  0.269080  1.0  0.0195
  C  C199  1  0.560200  0.266500  0.303600  1.0  -0.1257
  C  C200  1  0.585900  0.298980  0.375560  1.0  -0.0972
  C  C201  1  0.390700  0.216820  0.189640  1.0  -0.0688
  C  C202  1  0.386600  0.049770  0.199340  1.0  0.2062
  C  C203  1  0.262400  0.962500  0.101400  1.0  0.0052
  C  C204  1  0.267400  0.056400  0.103600  1.0  -0.1778
  N  N205  1  0.811700  0.246310  0.799220  1.0  -0.4051
  N  N206  1  0.992600  0.294090  0.757180  1.0  0.063
  N  N207  1  0.855000  0.205160  0.163120  1.0  -0.4147
  N  N208  1  0.862800  0.054820  0.165840  1.0  0.0308
  N  N209  1  0.688300  0.447090  0.200780  1.0  -0.4012
  N  N210  1  0.507400  0.536910  0.242820  1.0  0.0625
  N  N211  1  0.645000  0.042040  0.836880  1.0  -0.4133
  N  N212  1  0.637200  0.888980  0.834160  1.0  0.0304
  N  N213  1  0.188300  0.753690  0.200780  1.0  -0.4059
  N  N214  1  0.007400  0.705910  0.242820  1.0  0.0634
  N  N215  1  0.145000  0.794840  0.836880  1.0  -0.414
  N  N216  1  0.137200  0.945180  0.834160  1.0  0.0305
  N  N217  1  0.311700  0.552910  0.799220  1.0  -0.4017
  N  N218  1  0.492600  0.463090  0.757180  1.0  0.0624
  N  N219  1  0.355000  0.957960  0.163120  1.0  -0.4119
  N  N220  1  0.362800  0.111020  0.165840  1.0  0.0304
  O  O221  1  0.577200  0.028400  0.685000  1.0  -0.5956
  O  O222  1  0.533900  0.174230  0.680460  1.0  -0.6063
  O  O223  1  0.565400  0.277460  0.903520  1.0  -0.5956
  O  O224  1  0.374000  0.200920  0.829440  1.0  -0.6119
  O  O225  1  0.922800  0.343400  0.315000  1.0  -0.5943
  O  O226  1  0.966100  0.493770  0.319540  1.0  -0.6053
  O  O227  1  0.934600  0.373940  0.096480  1.0  -0.5975
  O  O228  1  0.126000  0.371480  0.170560  1.0  -0.6101
  O  O229  1  0.422800  0.971600  0.315000  1.0  -0.5956
  O  O230  1  0.466100  0.825770  0.319540  1.0  -0.6058
  O  O231  1  0.434600  0.722540  0.096480  1.0  -0.5975
  O  O232  1  0.626000  0.799080  0.170560  1.0  -0.6118
  O  O233  1  0.077200  0.656600  0.685000  1.0  -0.5947
  O  O234  1  0.033900  0.506230  0.680460  1.0  -0.6059
  O  O235  1  0.065400  0.626060  0.903520  1.0  -0.5958
  O  O236  1  0.874000  0.628520  0.829440  1.0  -0.6117
