# generated using pymatgen
data_PrH5C10O7
_symmetry_space_group_name_H-M   'P 1'
_cell_length_a   6.66270000
_cell_length_b   9.67400000
_cell_length_c   10.71180000
_cell_angle_alpha   116.84400000
_cell_angle_beta   104.87400000
_cell_angle_gamma   90.00000000
_symmetry_Int_Tables_number   1
_chemical_formula_structural   PrH5C10O7
_chemical_formula_sum   'Pr2 H10 C20 O14'
_cell_volume   589.98290529
_cell_formula_units_Z   2
loop_
 _symmetry_equiv_pos_site_id
 _symmetry_equiv_pos_as_xyz
  1  'x, y, z'
loop_
 _atom_site_type_symbol
 _atom_site_label
 _atom_site_symmetry_multiplicity
 _atom_site_fract_x
 _atom_site_fract_y
 _atom_site_fract_z
 _atom_site_occupancy
 _atom_site_charge
  Pr  Pr1  1  0.975600  0.291160  0.103260  1.0  2.1972
  Pr  Pr2  1  0.475600  0.812100  0.103260  1.0  2.1866
  H  H3  1  0.963200  0.522500  0.717000  1.0  0.0777
  H  H4  1  0.784200  0.346700  0.488000  1.0  0.0895
  H  H5  1  0.888200  0.007300  0.593800  1.0  0.09
  H  H6  1  0.023400  0.949700  0.761400  1.0  0.0423
  H  H7  1  0.235900  0.023100  0.763400  1.0  0.0447
  H  H8  1  0.463200  0.194500  0.717000  1.0  0.0762
  H  H9  1  0.284200  0.141300  0.488000  1.0  0.0887
  H  H10  1  0.388200  0.586500  0.593800  1.0  0.0888
  H  H11  1  0.523400  0.811700  0.761400  1.0  0.0416
  H  H12  1  0.735900  0.740300  0.763400  1.0  0.0464
  C  C13  1  0.995100  0.220100  0.759000  1.0  0.3186
  C  C14  1  0.015300  0.372700  0.797400  1.0  -0.0462
  C  C15  1  0.942300  0.417300  0.692800  1.0  -0.1271
  C  C16  1  0.842000  0.314200  0.557400  1.0  -0.1384
  C  C17  1  0.824800  0.162500  0.521800  1.0  0.0228
  C  C18  1  0.900500  0.113300  0.620400  1.0  -0.1495
  C  C19  1  0.139400  0.033500  0.820200  1.0  -0.0088
  C  C20  1  0.247000  0.026200  0.955600  1.0  0.6378
  C  C21  1  0.123100  0.494600  0.944800  1.0  0.689
  C  C22  1  0.719300  0.043700  0.373800  1.0  0.6876
  C  C23  1  0.495100  0.538900  0.759000  1.0  0.3195
  C  C24  1  0.515300  0.424700  0.797400  1.0  -0.046
  C  C25  1  0.442300  0.275500  0.692800  1.0  -0.127
  C  C26  1  0.342000  0.243200  0.557400  1.0  -0.1427
  C  C27  1  0.324800  0.359300  0.521800  1.0  0.0213
  C  C28  1  0.400500  0.507100  0.620400  1.0  -0.1493
  C  C29  1  0.639400  0.786700  0.820200  1.0  -0.0105
  C  C30  1  0.747000  0.929400  0.955600  1.0  0.6361
  C  C31  1  0.623100  0.450200  0.944800  1.0  0.6922
  C  C32  1  0.219300  0.330100  0.373800  1.0  0.6916
  O  O33  1  0.066100  0.178800  0.862000  1.0  -0.3862
  O  O34  1  0.317900  0.909300  0.940600  1.0  -0.6374
  O  O35  1  0.260300  0.143500  0.068400  1.0  -0.6712
  O  O36  1  0.134600  0.465200  0.046600  1.0  -0.732
  O  O37  1  0.194300  0.614700  0.958400  1.0  -0.6837
  O  O38  1  0.583000  0.082200  0.298200  1.0  -0.6416
  O  O39  1  0.757300  0.913300  0.331600  1.0  -0.6625
  O  O40  1  0.566100  0.683200  0.862000  1.0  -0.386
  O  O41  1  0.817900  0.031300  0.940600  1.0  -0.6373
  O  O42  1  0.760300  0.924900  0.068400  1.0  -0.6697
  O  O43  1  0.634600  0.581400  0.046600  1.0  -0.7325
  O  O44  1  0.694300  0.343700  0.958400  1.0  -0.6888
  O  O45  1  0.083000  0.216000  0.298200  1.0  -0.643
  O  O46  1  0.257300  0.418300  0.331600  1.0  -0.6689
