# generated using pymatgen
data_NdH5C10O7
_symmetry_space_group_name_H-M   'P 1'
_cell_length_a   6.90590000
_cell_length_b   9.98900000
_cell_length_c   11.09210000
_cell_angle_alpha   116.76100000
_cell_angle_beta   104.27400000
_cell_angle_gamma   90.00000000
_symmetry_Int_Tables_number   1
_chemical_formula_structural   NdH5C10O7
_chemical_formula_sum   'Nd2 H10 C20 O14'
_cell_volume   656.64750664
_cell_formula_units_Z   2
loop_
 _symmetry_equiv_pos_site_id
 _symmetry_equiv_pos_as_xyz
  1  'x, y, z'
loop_
 _atom_site_type_symbol
 _atom_site_label
 _atom_site_symmetry_multiplicity
 _atom_site_fract_x
 _atom_site_fract_y
 _atom_site_fract_z
 _atom_site_occupancy
 _atom_site_charge
  Nd  Nd1  1  0.442360  0.908500  0.296210  1.0  2.2734
  Nd  Nd2  1  0.942360  0.387710  0.296210  1.0  2.2718
  H  H3  1  0.459700  0.678900  0.682800  1.0  0.0908
  H  H4  1  0.633200  0.852200  0.909400  1.0  0.1164
  H  H5  1  0.530000  0.188700  0.804800  1.0  0.1127
  H  H6  1  0.187600  0.179000  0.637400  1.0  0.1013
  H  H7  1  0.390300  0.247400  0.633600  1.0  0.0865
  H  H8  1  0.959700  0.003900  0.682800  1.0  0.0894
  H  H9  1  0.133200  0.057200  0.909400  1.0  0.116
  H  H10  1  0.030000  0.616100  0.804800  1.0  0.1129
  H  H11  1  0.687600  0.458400  0.637400  1.0  0.1011
  H  H12  1  0.890300  0.386200  0.633600  1.0  0.0875
  C  C13  1  0.425800  0.979400  0.642400  1.0  0.1965
  C  C14  1  0.404000  0.825400  0.602400  1.0  -0.1439
  C  C15  1  0.478000  0.780800  0.706200  1.0  -0.035
  C  C16  1  0.577900  0.884300  0.843000  1.0  -0.0937
  C  C17  1  0.594200  0.037500  0.879600  1.0  -0.1513
  C  C18  1  0.518600  0.086200  0.779800  1.0  -0.1751
  C  C19  1  0.278500  0.166700  0.580000  1.0  0.0022
  C  C20  1  0.169000  0.170700  0.445200  1.0  0.7301
  C  C21  1  0.298000  0.704200  0.454800  1.0  0.7176
  C  C22  1  0.702200  0.155500  0.026400  1.0  0.6949
  C  C23  1  0.925800  0.663000  0.642400  1.0  0.1959
  C  C24  1  0.904000  0.777000  0.602400  1.0  -0.1447
  C  C25  1  0.978000  0.925400  0.706200  1.0  -0.0353
  C  C26  1  0.077900  0.958700  0.843000  1.0  -0.0966
  C  C27  1  0.094200  0.842100  0.879600  1.0  -0.1544
  C  C28  1  0.018600  0.693600  0.779800  1.0  -0.1754
  C  C29  1  0.778500  0.413300  0.580000  1.0  -0.0066
  C  C30  1  0.669000  0.274500  0.445200  1.0  0.7291
  C  C31  1  0.798000  0.750600  0.454800  1.0  0.7279
  C  C32  1  0.202200  0.870900  0.026400  1.0  0.7013
  O  O33  1  0.350300  0.021900  0.539000  1.0  -0.3306
  O  O34  1  0.156500  0.054620  0.330640  1.0  -0.7115
  O  O35  1  0.100200  0.288980  0.459160  1.0  -0.6468
  O  O36  1  0.284600  0.731410  0.351220  1.0  -0.7699
  O  O37  1  0.225700  0.582290  0.441580  1.0  -0.7265
  O  O38  1  0.836500  0.118750  0.102300  1.0  -0.6568
  O  O39  1  0.659800  0.288300  0.070000  1.0  -0.6707
  O  O40  1  0.850300  0.517100  0.539000  1.0  -0.3258
  O  O41  1  0.656500  0.276020  0.330640  1.0  -0.7094
  O  O42  1  0.600200  0.170180  0.459160  1.0  -0.6472
  O  O43  1  0.784600  0.619810  0.351220  1.0  -0.7732
  O  O44  1  0.725700  0.859290  0.441580  1.0  -0.7322
  O  O45  1  0.336500  0.983550  0.102300  1.0  -0.6591
  O  O46  1  0.159800  0.781700  0.070000  1.0  -0.6835
