# generated using pymatgen
data_Zn4H12C24O13
_symmetry_space_group_name_H-M   'P 1'
_cell_length_a   25.54300000
_cell_length_b   25.54300000
_cell_length_c   25.54300000
_cell_angle_alpha   90.00000000
_cell_angle_beta   90.00000000
_cell_angle_gamma   90.00000000
_symmetry_Int_Tables_number   1
_chemical_formula_structural   Zn4H12C24O13
_chemical_formula_sum   'Zn32 H96 C192 O104'
_cell_volume   16665.39877801
_cell_formula_units_Z   8
loop_
 _symmetry_equiv_pos_site_id
 _symmetry_equiv_pos_as_xyz
  1  'x, y, z'
loop_
 _atom_site_type_symbol
 _atom_site_label
 _atom_site_symmetry_multiplicity
 _atom_site_fract_x
 _atom_site_fract_y
 _atom_site_fract_z
 _atom_site_occupancy
 _atom_site_charge
  Zn  Zn1  1  0.793680  0.706320  0.293680  1.0  1.1004
  Zn  Zn2  1  0.793680  0.206320  0.793680  1.0  1.1004
  Zn  Zn3  1  0.206320  0.293680  0.293680  1.0  1.1007
  Zn  Zn4  1  0.206320  0.793680  0.793680  1.0  1.1007
  Zn  Zn5  1  0.206320  0.706320  0.706320  1.0  1.0991
  Zn  Zn6  1  0.206320  0.206320  0.206320  1.0  1.0991
  Zn  Zn7  1  0.793680  0.293680  0.706320  1.0  1.0984
  Zn  Zn8  1  0.793680  0.793680  0.206320  1.0  1.0984
  Zn  Zn9  1  0.293680  0.793680  0.706320  1.0  1.0984
  Zn  Zn10  1  0.293680  0.206320  0.293680  1.0  1.1004
  Zn  Zn11  1  0.706320  0.206320  0.706320  1.0  1.0991
  Zn  Zn12  1  0.706320  0.793680  0.293680  1.0  1.1007
  Zn  Zn13  1  0.706320  0.293680  0.793680  1.0  1.1007
  Zn  Zn14  1  0.293680  0.293680  0.206320  1.0  1.0984
  Zn  Zn15  1  0.706320  0.706320  0.206320  1.0  1.0991
  Zn  Zn16  1  0.293680  0.706320  0.793680  1.0  1.1004
  Zn  Zn17  1  0.706320  0.793680  0.706320  1.0  1.0989
  Zn  Zn18  1  0.293680  0.206320  0.706320  1.0  1.0989
  Zn  Zn19  1  0.706320  0.206320  0.293680  1.0  1.101
  Zn  Zn20  1  0.293680  0.793680  0.293680  1.0  1.0996
  Zn  Zn21  1  0.793680  0.293680  0.293680  1.0  1.0996
  Zn  Zn22  1  0.793680  0.793680  0.793680  1.0  1.0996
  Zn  Zn23  1  0.206320  0.293680  0.706320  1.0  1.0989
  Zn  Zn24  1  0.206320  0.793680  0.206320  1.0  1.0989
  Zn  Zn25  1  0.206320  0.706320  0.293680  1.0  1.101
  Zn  Zn26  1  0.206320  0.206320  0.793680  1.0  1.101
  Zn  Zn27  1  0.793680  0.706320  0.706320  1.0  1.0989
  Zn  Zn28  1  0.793680  0.206320  0.206320  1.0  1.0989
  Zn  Zn29  1  0.293680  0.706320  0.206320  1.0  1.0989
  Zn  Zn30  1  0.293680  0.293680  0.793680  1.0  1.0996
  Zn  Zn31  1  0.706320  0.706320  0.793680  1.0  1.101
  Zn  Zn32  1  0.706320  0.293680  0.206320  1.0  1.0989
  H  H33  1  0.692890  0.540000  0.192890  1.0  0.0673
  H  H34  1  0.692890  0.040000  0.692890  1.0  0.0673
  H  H35  1  0.307110  0.460000  0.192890  1.0  0.0664
  H  H36  1  0.307110  0.960000  0.692890  1.0  0.0664
  H  H37  1  0.807110  0.460000  0.692890  1.0  0.0664
  H  H38  1  0.307110  0.540000  0.807110  1.0  0.0656
  H  H39  1  0.307110  0.040000  0.307110  1.0  0.0656
  H  H40  1  0.807110  0.040000  0.807110  1.0  0.0656
  H  H41  1  0.692890  0.460000  0.807110  1.0  0.0663
  H  H42  1  0.692890  0.960000  0.307110  1.0  0.0663
  H  H43  1  0.192890  0.692890  0.540000  1.0  0.0659
  H  H44  1  0.192890  0.192890  0.040000  1.0  0.0659
  H  H45  1  0.692890  0.692890  0.040000  1.0  0.0659
  H  H46  1  0.192890  0.307110  0.460000  1.0  0.066
  H  H47  1  0.192890  0.807110  0.960000  1.0  0.066
  H  H48  1  0.692890  0.807110  0.460000  1.0  0.066
  H  H49  1  0.807110  0.307110  0.540000  1.0  0.0648
  H  H50  1  0.807110  0.807110  0.040000  1.0  0.0648
  H  H51  1  0.807110  0.692890  0.460000  1.0  0.0658
  H  H52  1  0.807110  0.192890  0.960000  1.0  0.0658
  H  H53  1  0.540000  0.192890  0.692890  1.0  0.0672
  H  H54  1  0.040000  0.192890  0.192890  1.0  0.0672
  H  H55  1  0.040000  0.692890  0.692890  1.0  0.0672
  H  H56  1  0.460000  0.192890  0.307110  1.0  0.0663
  H  H57  1  0.460000  0.692890  0.807110  1.0  0.0663
  H  H58  1  0.960000  0.192890  0.807110  1.0  0.0663
  H  H59  1  0.540000  0.807110  0.307110  1.0  0.0659
  H  H60  1  0.040000  0.807110  0.807110  1.0  0.0659
  H  H61  1  0.460000  0.807110  0.692890  1.0  0.0661
  H  H62  1  0.960000  0.807110  0.192890  1.0  0.0661
  H  H63  1  0.540000  0.692890  0.807110  1.0  0.0661
  H  H64  1  0.040000  0.692890  0.307110  1.0  0.0661
  H  H65  1  0.460000  0.307110  0.807110  1.0  0.0662
  H  H66  1  0.960000  0.307110  0.307110  1.0  0.0662
  H  H67  1  0.960000  0.807110  0.807110  1.0  0.0662
  H  H68  1  0.540000  0.307110  0.192890  1.0  0.0657
  H  H69  1  0.540000  0.807110  0.692890  1.0  0.0657
  H  H70  1  0.040000  0.307110  0.692890  1.0  0.0657
  H  H71  1  0.460000  0.692890  0.192890  1.0  0.0672
  H  H72  1  0.960000  0.692890  0.692890  1.0  0.0672
  H  H73  1  0.692890  0.192890  0.460000  1.0  0.0663
  H  H74  1  0.692890  0.692890  0.960000  1.0  0.0663
  H  H75  1  0.307110  0.192890  0.540000  1.0  0.0653
  H  H76  1  0.307110  0.692890  0.040000  1.0  0.0653
  H  H77  1  0.807110  0.692890  0.540000  1.0  0.0653
  H  H78  1  0.307110  0.807110  0.460000  1.0  0.0651
  H  H79  1  0.307110  0.307110  0.960000  1.0  0.0651
  H  H80  1  0.807110  0.807110  0.960000  1.0  0.0651
  H  H81  1  0.692890  0.807110  0.540000  1.0  0.0659
  H  H82  1  0.692890  0.307110  0.040000  1.0  0.0659
  H  H83  1  0.192890  0.540000  0.307110  1.0  0.0664
  H  H84  1  0.192890  0.040000  0.807110  1.0  0.0664
  H  H85  1  0.692890  0.540000  0.807110  1.0  0.0664
  H  H86  1  0.192890  0.460000  0.692890  1.0  0.0669
  H  H87  1  0.192890  0.960000  0.192890  1.0  0.0669
  H  H88  1  0.692890  0.960000  0.692890  1.0  0.0669
  H  H89  1  0.807110  0.540000  0.692890  1.0  0.0663
  H  H90  1  0.807110  0.040000  0.192890  1.0  0.0663
  H  H91  1  0.807110  0.460000  0.307110  1.0  0.0656
  H  H92  1  0.807110  0.960000  0.807110  1.0  0.0656
  H  H93  1  0.307110  0.460000  0.807110  1.0  0.0656
  H  H94  1  0.307110  0.960000  0.307110  1.0  0.0656
  H  H95  1  0.692890  0.040000  0.307110  1.0  0.0664
  H  H96  1  0.692890  0.460000  0.192890  1.0  0.0669
  H  H97  1  0.307110  0.540000  0.192890  1.0  0.0663
  H  H98  1  0.307110  0.040000  0.692890  1.0  0.0663
  H  H99  1  0.807110  0.307110  0.460000  1.0  0.0651
  H  H100  1  0.807110  0.192890  0.040000  1.0  0.0653
  H  H101  1  0.192890  0.692890  0.460000  1.0  0.0663
  H  H102  1  0.192890  0.192890  0.960000  1.0  0.0663
  H  H103  1  0.192890  0.307110  0.540000  1.0  0.0659
  H  H104  1  0.192890  0.807110  0.040000  1.0  0.0659
  H  H105  1  0.460000  0.807110  0.307110  1.0  0.0662
  H  H106  1  0.040000  0.807110  0.192890  1.0  0.0657
  H  H107  1  0.460000  0.192890  0.692890  1.0  0.0672
  H  H108  1  0.960000  0.192890  0.192890  1.0  0.0672
  H  H109  1  0.540000  0.192890  0.307110  1.0  0.0661
  H  H110  1  0.040000  0.192890  0.807110  1.0  0.0661
  H  H111  1  0.460000  0.307110  0.192890  1.0  0.0661
  H  H112  1  0.960000  0.307110  0.692890  1.0  0.0661
  H  H113  1  0.540000  0.692890  0.192890  1.0  0.0672
  H  H114  1  0.960000  0.692890  0.307110  1.0  0.0663
  H  H115  1  0.540000  0.307110  0.807110  1.0  0.0659
  H  H116  1  0.040000  0.307110  0.307110  1.0  0.0659
  H  H117  1  0.307110  0.807110  0.540000  1.0  0.0648
  H  H118  1  0.307110  0.307110  0.040000  1.0  0.0648
  H  H119  1  0.692890  0.307110  0.960000  1.0  0.066
  H  H120  1  0.692890  0.192890  0.540000  1.0  0.0659
  H  H121  1  0.307110  0.192890  0.460000  1.0  0.0658
  H  H122  1  0.307110  0.692890  0.960000  1.0  0.0658
  H  H123  1  0.807110  0.960000  0.192890  1.0  0.0664
  H  H124  1  0.807110  0.540000  0.307110  1.0  0.0656
  H  H125  1  0.192890  0.460000  0.307110  1.0  0.0663
  H  H126  1  0.192890  0.960000  0.807110  1.0  0.0663
  H  H127  1  0.192890  0.540000  0.692890  1.0  0.0673
  H  H128  1  0.192890  0.040000  0.192890  1.0  0.0673
  C  C129  1  0.722300  0.523800  0.222300  1.0  -0.0532
  C  C130  1  0.722300  0.023800  0.722300  1.0  -0.0522
  C  C131  1  0.277700  0.476200  0.222300  1.0  -0.0525
  C  C132  1  0.277700  0.976200  0.722300  1.0  -0.0525
  C  C133  1  0.777700  0.476200  0.722300  1.0  -0.0528
  C  C134  1  0.277700  0.523800  0.777700  1.0  -0.0535
  C  C135  1  0.277700  0.023800  0.277700  1.0  -0.0535
  C  C136  1  0.777700  0.023800  0.777700  1.0  -0.0534
  C  C137  1  0.722300  0.476200  0.777700  1.0  -0.0526
  C  C138  1  0.722300  0.976200  0.277700  1.0  -0.0536
  C  C139  1  0.222300  0.722300  0.523800  1.0  -0.0546
  C  C140  1  0.222300  0.222300  0.023800  1.0  -0.0542
  C  C141  1  0.722300  0.722300  0.023800  1.0  -0.0546
  C  C142  1  0.222300  0.277700  0.476200  1.0  -0.0547
  C  C143  1  0.222300  0.777700  0.976200  1.0  -0.0547
  C  C144  1  0.722300  0.777700  0.476200  1.0  -0.0543
  C  C145  1  0.777700  0.277700  0.523800  1.0  -0.0562
  C  C146  1  0.777700  0.777700  0.023800  1.0  -0.0559
  C  C147  1  0.777700  0.722300  0.476200  1.0  -0.0536
  C  C148  1  0.777700  0.222300  0.976200  1.0  -0.0545
  C  C149  1  0.523800  0.222300  0.722300  1.0  -0.0515
  C  C150  1  0.023800  0.222300  0.222300  1.0  -0.051
  C  C151  1  0.023800  0.722300  0.722300  1.0  -0.0505
  C  C152  1  0.476200  0.222300  0.277700  1.0  -0.0525
  C  C153  1  0.476200  0.722300  0.777700  1.0  -0.0515
  C  C154  1  0.976200  0.222300  0.777700  1.0  -0.0525
  C  C155  1  0.523800  0.777700  0.277700  1.0  -0.0519
  C  C156  1  0.023800  0.777700  0.777700  1.0  -0.0508
  C  C157  1  0.476200  0.777700  0.722300  1.0  -0.0525
  C  C158  1  0.976200  0.777700  0.222300  1.0  -0.053
  C  C159  1  0.523800  0.722300  0.777700  1.0  -0.0513
  C  C160  1  0.023800  0.722300  0.277700  1.0  -0.0514
  C  C161  1  0.476200  0.277700  0.777700  1.0  -0.0556
  C  C162  1  0.976200  0.277700  0.277700  1.0  -0.0556
  C  C163  1  0.976200  0.777700  0.777700  1.0  -0.0556
  C  C164  1  0.523800  0.277700  0.222300  1.0  -0.0528
  C  C165  1  0.523800  0.777700  0.722300  1.0  -0.0527
  C  C166  1  0.023800  0.277700  0.722300  1.0  -0.0528
  C  C167  1  0.476200  0.722300  0.222300  1.0  -0.0538
  C  C168  1  0.976200  0.722300  0.722300  1.0  -0.0531
  C  C169  1  0.722300  0.222300  0.476200  1.0  -0.0556
  C  C170  1  0.722300  0.722300  0.976200  1.0  -0.055
  C  C171  1  0.277700  0.222300  0.523800  1.0  -0.056
  C  C172  1  0.277700  0.722300  0.023800  1.0  -0.056
  C  C173  1  0.777700  0.722300  0.523800  1.0  -0.0557
  C  C174  1  0.277700  0.777700  0.476200  1.0  -0.0566
  C  C175  1  0.277700  0.277700  0.976200  1.0  -0.0566
  C  C176  1  0.777700  0.777700  0.976200  1.0  -0.0566
  C  C177  1  0.722300  0.777700  0.523800  1.0  -0.0571
  C  C178  1  0.722300  0.277700  0.023800  1.0  -0.0574
  C  C179  1  0.222300  0.523800  0.277700  1.0  -0.0557
  C  C180  1  0.222300  0.023800  0.777700  1.0  -0.0557
  C  C181  1  0.722300  0.523800  0.777700  1.0  -0.0556
  C  C182  1  0.222300  0.476200  0.722300  1.0  -0.0544
  C  C183  1  0.222300  0.976200  0.222300  1.0  -0.0544
  C  C184  1  0.722300  0.976200  0.722300  1.0  -0.0538
  C  C185  1  0.777700  0.523800  0.722300  1.0  -0.0545
  C  C186  1  0.777700  0.023800  0.222300  1.0  -0.0551
  C  C187  1  0.777700  0.476200  0.277700  1.0  -0.0534
  C  C188  1  0.777700  0.976200  0.777700  1.0  -0.0532
  C  C189  1  0.277700  0.476200  0.777700  1.0  -0.0533
  C  C190  1  0.277700  0.976200  0.277700  1.0  -0.0533
  C  C191  1  0.722300  0.023800  0.277700  1.0  -0.0557
  C  C192  1  0.722300  0.476200  0.222300  1.0  -0.0543
  C  C193  1  0.277700  0.523800  0.222300  1.0  -0.055
  C  C194  1  0.277700  0.023800  0.722300  1.0  -0.055
  C  C195  1  0.777700  0.277700  0.476200  1.0  -0.0567
  C  C196  1  0.777700  0.222300  0.023800  1.0  -0.0558
  C  C197  1  0.222300  0.722300  0.476200  1.0  -0.0554
  C  C198  1  0.222300  0.222300  0.976200  1.0  -0.0554
  C  C199  1  0.222300  0.277700  0.523800  1.0  -0.0575
  C  C200  1  0.222300  0.777700  0.023800  1.0  -0.0575
  C  C201  1  0.476200  0.777700  0.277700  1.0  -0.0557
  C  C202  1  0.023800  0.777700  0.222300  1.0  -0.0528
  C  C203  1  0.476200  0.222300  0.722300  1.0  -0.0536
  C  C204  1  0.976200  0.222300  0.222300  1.0  -0.0536
  C  C205  1  0.523800  0.222300  0.277700  1.0  -0.0517
  C  C206  1  0.023800  0.222300  0.777700  1.0  -0.052
  C  C207  1  0.476200  0.277700  0.222300  1.0  -0.0519
  C  C208  1  0.976200  0.277700  0.722300  1.0  -0.0519
  C  C209  1  0.523800  0.722300  0.222300  1.0  -0.0505
  C  C210  1  0.976200  0.722300  0.277700  1.0  -0.0515
  C  C211  1  0.523800  0.277700  0.777700  1.0  -0.0509
  C  C212  1  0.023800  0.277700  0.277700  1.0  -0.0509
  C  C213  1  0.277700  0.777700  0.523800  1.0  -0.0554
  C  C214  1  0.277700  0.277700  0.023800  1.0  -0.0554
  C  C215  1  0.722300  0.277700  0.976200  1.0  -0.0537
  C  C216  1  0.722300  0.222300  0.523800  1.0  -0.0535
  C  C217  1  0.277700  0.222300  0.476200  1.0  -0.0536
  C  C218  1  0.277700  0.722300  0.976200  1.0  -0.0536
  C  C219  1  0.777700  0.976200  0.222300  1.0  -0.0517
  C  C220  1  0.777700  0.523800  0.277700  1.0  -0.0527
  C  C221  1  0.222300  0.476200  0.277700  1.0  -0.0525
  C  C222  1  0.222300  0.976200  0.777700  1.0  -0.0525
  C  C223  1  0.222300  0.523800  0.722300  1.0  -0.0522
  C  C224  1  0.222300  0.023800  0.222300  1.0  -0.0522
  C  C225  1  0.750000  0.612600  0.250000  1.0  0.6679
  C  C226  1  0.750000  0.555200  0.250000  1.0  -0.0356
  C  C227  1  0.750000  0.112600  0.750000  1.0  0.6679
  C  C228  1  0.750000  0.055200  0.750000  1.0  -0.0356
  C  C229  1  0.250000  0.387400  0.250000  1.0  0.6669
  C  C230  1  0.250000  0.444800  0.250000  1.0  -0.0341
  C  C231  1  0.250000  0.887400  0.750000  1.0  0.6669
  C  C232  1  0.250000  0.944800  0.750000  1.0  -0.0341
  C  C233  1  0.250000  0.612600  0.750000  1.0  0.6679
  C  C234  1  0.250000  0.555200  0.750000  1.0  -0.0356
  C  C235  1  0.250000  0.112600  0.250000  1.0  0.6679
  C  C236  1  0.250000  0.055200  0.250000  1.0  -0.0356
  C  C237  1  0.750000  0.387400  0.750000  1.0  0.6669
  C  C238  1  0.750000  0.444800  0.750000  1.0  -0.0341
  C  C239  1  0.750000  0.887400  0.250000  1.0  0.6669
  C  C240  1  0.750000  0.944800  0.250000  1.0  -0.0341
  C  C241  1  0.250000  0.750000  0.612600  1.0  0.6698
  C  C242  1  0.250000  0.750000  0.555200  1.0  -0.0359
  C  C243  1  0.250000  0.250000  0.112600  1.0  0.6698
  C  C244  1  0.250000  0.250000  0.055200  1.0  -0.0359
  C  C245  1  0.250000  0.250000  0.387400  1.0  0.6696
  C  C246  1  0.250000  0.250000  0.444800  1.0  -0.0363
  C  C247  1  0.250000  0.750000  0.887400  1.0  0.6696
  C  C248  1  0.250000  0.750000  0.944800  1.0  -0.0363
  C  C249  1  0.750000  0.250000  0.612600  1.0  0.6698
  C  C250  1  0.750000  0.250000  0.555200  1.0  -0.0359
  C  C251  1  0.750000  0.750000  0.112600  1.0  0.6698
  C  C252  1  0.750000  0.750000  0.055200  1.0  -0.0359
  C  C253  1  0.750000  0.750000  0.387400  1.0  0.6696
  C  C254  1  0.750000  0.750000  0.444800  1.0  -0.0363
  C  C255  1  0.750000  0.250000  0.887400  1.0  0.6696
  C  C256  1  0.750000  0.250000  0.944800  1.0  -0.0363
  C  C257  1  0.612600  0.250000  0.750000  1.0  0.6711
  C  C258  1  0.555200  0.250000  0.750000  1.0  -0.0359
  C  C259  1  0.112600  0.250000  0.250000  1.0  0.6711
  C  C260  1  0.055200  0.250000  0.250000  1.0  -0.0359
  C  C261  1  0.387400  0.250000  0.250000  1.0  0.6681
  C  C262  1  0.444800  0.250000  0.250000  1.0  -0.0377
  C  C263  1  0.887400  0.250000  0.750000  1.0  0.6681
  C  C264  1  0.944800  0.250000  0.750000  1.0  -0.0377
  C  C265  1  0.612600  0.750000  0.250000  1.0  0.6711
  C  C266  1  0.555200  0.750000  0.250000  1.0  -0.0359
  C  C267  1  0.112600  0.750000  0.750000  1.0  0.6711
  C  C268  1  0.055200  0.750000  0.750000  1.0  -0.0359
  C  C269  1  0.387400  0.750000  0.750000  1.0  0.6681
  C  C270  1  0.444800  0.750000  0.750000  1.0  -0.0377
  C  C271  1  0.887400  0.750000  0.250000  1.0  0.6681
  C  C272  1  0.944800  0.750000  0.250000  1.0  -0.0377
  C  C273  1  0.612600  0.750000  0.750000  1.0  0.6711
  C  C274  1  0.555200  0.750000  0.750000  1.0  -0.0359
  C  C275  1  0.112600  0.750000  0.250000  1.0  0.6711
  C  C276  1  0.055200  0.750000  0.250000  1.0  -0.0359
  C  C277  1  0.387400  0.250000  0.750000  1.0  0.6681
  C  C278  1  0.444800  0.250000  0.750000  1.0  -0.0377
  C  C279  1  0.887400  0.250000  0.250000  1.0  0.6681
  C  C280  1  0.944800  0.250000  0.250000  1.0  -0.0377
  C  C281  1  0.612600  0.250000  0.250000  1.0  0.6711
  C  C282  1  0.555200  0.250000  0.250000  1.0  -0.0359
  C  C283  1  0.112600  0.250000  0.750000  1.0  0.6711
  C  C284  1  0.055200  0.250000  0.750000  1.0  -0.0359
  C  C285  1  0.387400  0.750000  0.250000  1.0  0.6681
  C  C286  1  0.444800  0.750000  0.250000  1.0  -0.0377
  C  C287  1  0.887400  0.750000  0.750000  1.0  0.6681
  C  C288  1  0.944800  0.750000  0.750000  1.0  -0.0377
  C  C289  1  0.750000  0.250000  0.387400  1.0  0.6696
  C  C290  1  0.750000  0.250000  0.444800  1.0  -0.0363
  C  C291  1  0.750000  0.750000  0.887400  1.0  0.6696
  C  C292  1  0.750000  0.750000  0.944800  1.0  -0.0363
  C  C293  1  0.250000  0.250000  0.612600  1.0  0.6698
  C  C294  1  0.250000  0.250000  0.555200  1.0  -0.0359
  C  C295  1  0.250000  0.750000  0.112600  1.0  0.6698
  C  C296  1  0.250000  0.750000  0.055200  1.0  -0.0359
  C  C297  1  0.250000  0.750000  0.387400  1.0  0.6696
  C  C298  1  0.250000  0.750000  0.444800  1.0  -0.0363
  C  C299  1  0.250000  0.250000  0.887400  1.0  0.6696
  C  C300  1  0.250000  0.250000  0.944800  1.0  -0.0363
  C  C301  1  0.750000  0.750000  0.612600  1.0  0.6698
  C  C302  1  0.750000  0.750000  0.555200  1.0  -0.0359
  C  C303  1  0.750000  0.250000  0.112600  1.0  0.6698
  C  C304  1  0.750000  0.250000  0.055200  1.0  -0.0359
  C  C305  1  0.250000  0.612600  0.250000  1.0  0.6679
  C  C306  1  0.250000  0.555200  0.250000  1.0  -0.0356
  C  C307  1  0.250000  0.112600  0.750000  1.0  0.6679
  C  C308  1  0.250000  0.055200  0.750000  1.0  -0.0356
  C  C309  1  0.250000  0.387400  0.750000  1.0  0.6669
  C  C310  1  0.250000  0.444800  0.750000  1.0  -0.0341
  C  C311  1  0.250000  0.887400  0.250000  1.0  0.6669
  C  C312  1  0.250000  0.944800  0.250000  1.0  -0.0341
  C  C313  1  0.750000  0.612600  0.750000  1.0  0.6679
  C  C314  1  0.750000  0.555200  0.750000  1.0  -0.0356
  C  C315  1  0.750000  0.112600  0.250000  1.0  0.6679
  C  C316  1  0.750000  0.055200  0.250000  1.0  -0.0356
  C  C317  1  0.750000  0.387400  0.250000  1.0  0.6669
  C  C318  1  0.750000  0.444800  0.250000  1.0  -0.0341
  C  C319  1  0.750000  0.887400  0.750000  1.0  0.6669
  C  C320  1  0.750000  0.944800  0.750000  1.0  -0.0341
  O  O321  1  0.782400  0.634300  0.282400  1.0  -0.5869
  O  O322  1  0.782400  0.134300  0.782400  1.0  -0.5869
  O  O323  1  0.217600  0.365700  0.282400  1.0  -0.5871
  O  O324  1  0.217600  0.865700  0.782400  1.0  -0.5871
  O  O325  1  0.717600  0.365700  0.782400  1.0  -0.5871
  O  O326  1  0.217600  0.634300  0.717600  1.0  -0.5874
  O  O327  1  0.217600  0.134300  0.217600  1.0  -0.5874
  O  O328  1  0.717600  0.134300  0.717600  1.0  -0.5874
  O  O329  1  0.782400  0.365700  0.717600  1.0  -0.5873
  O  O330  1  0.782400  0.865700  0.217600  1.0  -0.5873
  O  O331  1  0.282400  0.782400  0.634300  1.0  -0.5891
  O  O332  1  0.282400  0.282400  0.134300  1.0  -0.5891
  O  O333  1  0.782400  0.782400  0.134300  1.0  -0.5891
  O  O334  1  0.282400  0.217600  0.365700  1.0  -0.5898
  O  O335  1  0.282400  0.717600  0.865700  1.0  -0.5898
  O  O336  1  0.782400  0.717600  0.365700  1.0  -0.5898
  O  O337  1  0.717600  0.217600  0.634300  1.0  -0.5894
  O  O338  1  0.717600  0.717600  0.134300  1.0  -0.5894
  O  O339  1  0.717600  0.782400  0.365700  1.0  -0.5892
  O  O340  1  0.717600  0.282400  0.865700  1.0  -0.5892
  O  O341  1  0.634300  0.282400  0.782400  1.0  -0.5898
  O  O342  1  0.134300  0.282400  0.282400  1.0  -0.5898
  O  O343  1  0.134300  0.782400  0.782400  1.0  -0.5898
  O  O344  1  0.365700  0.282400  0.217600  1.0  -0.5892
  O  O345  1  0.365700  0.782400  0.717600  1.0  -0.5892
  O  O346  1  0.865700  0.282400  0.717600  1.0  -0.5892
  O  O347  1  0.634300  0.717600  0.217600  1.0  -0.5901
  O  O348  1  0.134300  0.717600  0.717600  1.0  -0.5901
  O  O349  1  0.365700  0.717600  0.782400  1.0  -0.5893
  O  O350  1  0.865700  0.717600  0.282400  1.0  -0.5893
  O  O351  1  0.634300  0.782400  0.717600  1.0  -0.5899
  O  O352  1  0.134300  0.782400  0.217600  1.0  -0.5899
  O  O353  1  0.365700  0.217600  0.717600  1.0  -0.59
  O  O354  1  0.865700  0.217600  0.217600  1.0  -0.59
  O  O355  1  0.865700  0.717600  0.717600  1.0  -0.59
  O  O356  1  0.634300  0.217600  0.282400  1.0  -0.5897
  O  O357  1  0.634300  0.717600  0.782400  1.0  -0.5897
  O  O358  1  0.134300  0.217600  0.782400  1.0  -0.5897
  O  O359  1  0.365700  0.782400  0.282400  1.0  -0.5888
  O  O360  1  0.865700  0.782400  0.782400  1.0  -0.5888
  O  O361  1  0.782400  0.282400  0.365700  1.0  -0.5893
  O  O362  1  0.782400  0.782400  0.865700  1.0  -0.5893
  O  O363  1  0.217600  0.282400  0.634300  1.0  -0.5889
  O  O364  1  0.217600  0.782400  0.134300  1.0  -0.5889
  O  O365  1  0.717600  0.782400  0.634300  1.0  -0.5889
  O  O366  1  0.217600  0.717600  0.365700  1.0  -0.5898
  O  O367  1  0.217600  0.217600  0.865700  1.0  -0.5898
  O  O368  1  0.717600  0.717600  0.865700  1.0  -0.5898
  O  O369  1  0.782400  0.717600  0.634300  1.0  -0.5897
  O  O370  1  0.782400  0.217600  0.134300  1.0  -0.5897
  O  O371  1  0.282400  0.634300  0.217600  1.0  -0.5875
  O  O372  1  0.282400  0.134300  0.717600  1.0  -0.5875
  O  O373  1  0.782400  0.634300  0.717600  1.0  -0.5875
  O  O374  1  0.282400  0.365700  0.782400  1.0  -0.5872
  O  O375  1  0.282400  0.865700  0.282400  1.0  -0.5872
  O  O376  1  0.782400  0.865700  0.782400  1.0  -0.5872
  O  O377  1  0.717600  0.634300  0.782400  1.0  -0.5869
  O  O378  1  0.717600  0.134300  0.282400  1.0  -0.5869
  O  O379  1  0.717600  0.365700  0.217600  1.0  -0.587
  O  O380  1  0.717600  0.865700  0.717600  1.0  -0.587
  O  O381  1  0.217600  0.365700  0.717600  1.0  -0.587
  O  O382  1  0.217600  0.865700  0.217600  1.0  -0.587
  O  O383  1  0.782400  0.134300  0.217600  1.0  -0.5875
  O  O384  1  0.782400  0.365700  0.282400  1.0  -0.5872
  O  O385  1  0.217600  0.634300  0.282400  1.0  -0.5869
  O  O386  1  0.217600  0.134300  0.782400  1.0  -0.5869
  O  O387  1  0.717600  0.217600  0.365700  1.0  -0.5898
  O  O388  1  0.717600  0.282400  0.134300  1.0  -0.5889
  O  O389  1  0.282400  0.782400  0.365700  1.0  -0.5893
  O  O390  1  0.282400  0.282400  0.865700  1.0  -0.5893
  O  O391  1  0.282400  0.217600  0.634300  1.0  -0.5897
  O  O392  1  0.282400  0.717600  0.134300  1.0  -0.5897
  O  O393  1  0.365700  0.717600  0.217600  1.0  -0.59
  O  O394  1  0.134300  0.717600  0.282400  1.0  -0.5897
  O  O395  1  0.365700  0.282400  0.782400  1.0  -0.5888
  O  O396  1  0.865700  0.282400  0.282400  1.0  -0.5888
  O  O397  1  0.634300  0.282400  0.217600  1.0  -0.5899
  O  O398  1  0.134300  0.282400  0.717600  1.0  -0.5899
  O  O399  1  0.365700  0.217600  0.282400  1.0  -0.5893
  O  O400  1  0.865700  0.217600  0.782400  1.0  -0.5893
  O  O401  1  0.634300  0.782400  0.282400  1.0  -0.5898
  O  O402  1  0.865700  0.782400  0.217600  1.0  -0.5892
  O  O403  1  0.634300  0.217600  0.717600  1.0  -0.5901
  O  O404  1  0.134300  0.217600  0.217600  1.0  -0.5901
  O  O405  1  0.217600  0.717600  0.634300  1.0  -0.5894
  O  O406  1  0.217600  0.217600  0.134300  1.0  -0.5894
  O  O407  1  0.782400  0.217600  0.865700  1.0  -0.5898
  O  O408  1  0.782400  0.282400  0.634300  1.0  -0.5891
  O  O409  1  0.217600  0.282400  0.365700  1.0  -0.5892
  O  O410  1  0.217600  0.782400  0.865700  1.0  -0.5892
  O  O411  1  0.717600  0.865700  0.282400  1.0  -0.5871
  O  O412  1  0.717600  0.634300  0.217600  1.0  -0.5874
  O  O413  1  0.282400  0.365700  0.217600  1.0  -0.5873
  O  O414  1  0.282400  0.865700  0.717600  1.0  -0.5873
  O  O415  1  0.282400  0.634300  0.782400  1.0  -0.5869
  O  O416  1  0.282400  0.134300  0.282400  1.0  -0.5869
  O  O417  1  0.750000  0.750000  0.250000  1.0  -1.2789
  O  O418  1  0.250000  0.250000  0.250000  1.0  -1.2789
  O  O419  1  0.250000  0.750000  0.750000  1.0  -1.2789
  O  O420  1  0.750000  0.250000  0.750000  1.0  -1.2789
  O  O421  1  0.750000  0.750000  0.750000  1.0  -1.2789
  O  O422  1  0.250000  0.250000  0.750000  1.0  -1.2789
  O  O423  1  0.750000  0.250000  0.250000  1.0  -1.2789
  O  O424  1  0.250000  0.750000  0.250000  1.0  -1.2789
