# generated using pymatgen
data_Zn4H12C24O13
_symmetry_space_group_name_H-M   'P 1'
_cell_length_a   25.65400000
_cell_length_b   25.65400000
_cell_length_c   25.65400000
_cell_angle_alpha   90.00000000
_cell_angle_beta   90.00000000
_cell_angle_gamma   90.00000000
_symmetry_Int_Tables_number   1
_chemical_formula_structural   Zn4H12C24O13
_chemical_formula_sum   'Zn32 H96 C192 O104'
_cell_volume   16883.60842626
_cell_formula_units_Z   8
loop_
 _symmetry_equiv_pos_site_id
 _symmetry_equiv_pos_as_xyz
  1  'x, y, z'
loop_
 _atom_site_type_symbol
 _atom_site_label
 _atom_site_symmetry_multiplicity
 _atom_site_fract_x
 _atom_site_fract_y
 _atom_site_fract_z
 _atom_site_occupancy
 _atom_site_charge
  Zn  Zn1  1  0.206390  0.206390  0.206390  1.0  0.9875
  Zn  Zn2  1  0.206390  0.706390  0.706390  1.0  0.9875
  Zn  Zn3  1  0.706390  0.206390  0.706390  1.0  0.9875
  Zn  Zn4  1  0.706390  0.706390  0.206390  1.0  0.9875
  Zn  Zn5  1  0.793610  0.793610  0.206390  1.0  0.9871
  Zn  Zn6  1  0.793610  0.293610  0.706390  1.0  0.9871
  Zn  Zn7  1  0.293610  0.793610  0.706390  1.0  0.9871
  Zn  Zn8  1  0.293610  0.293610  0.206390  1.0  0.9871
  Zn  Zn9  1  0.793610  0.206390  0.793610  1.0  0.9873
  Zn  Zn10  1  0.793610  0.706390  0.293610  1.0  0.9873
  Zn  Zn11  1  0.293610  0.206390  0.293610  1.0  0.9873
  Zn  Zn12  1  0.293610  0.706390  0.793610  1.0  0.9873
  Zn  Zn13  1  0.206390  0.793610  0.793610  1.0  0.9873
  Zn  Zn14  1  0.206390  0.293610  0.293610  1.0  0.9873
  Zn  Zn15  1  0.706390  0.793610  0.293610  1.0  0.9873
  Zn  Zn16  1  0.706390  0.293610  0.793610  1.0  0.9873
  Zn  Zn17  1  0.206390  0.206390  0.793610  1.0  0.9876
  Zn  Zn18  1  0.206390  0.706390  0.293610  1.0  0.9876
  Zn  Zn19  1  0.706390  0.206390  0.293610  1.0  0.9876
  Zn  Zn20  1  0.706390  0.706390  0.793610  1.0  0.9876
  Zn  Zn21  1  0.793610  0.793610  0.793610  1.0  0.9868
  Zn  Zn22  1  0.793610  0.293610  0.293610  1.0  0.9868
  Zn  Zn23  1  0.293610  0.793610  0.293610  1.0  0.9868
  Zn  Zn24  1  0.293610  0.293610  0.793610  1.0  0.9868
  Zn  Zn25  1  0.206390  0.793610  0.206390  1.0  0.9873
  Zn  Zn26  1  0.206390  0.293610  0.706390  1.0  0.9873
  Zn  Zn27  1  0.706390  0.793610  0.706390  1.0  0.9873
  Zn  Zn28  1  0.706390  0.293610  0.206390  1.0  0.9873
  Zn  Zn29  1  0.793610  0.206390  0.206390  1.0  0.9875
  Zn  Zn30  1  0.793610  0.706390  0.706390  1.0  0.9875
  Zn  Zn31  1  0.293610  0.206390  0.706390  1.0  0.9875
  Zn  Zn32  1  0.293610  0.706390  0.206390  1.0  0.9875
  H  H33  1  0.189970  0.040330  0.189970  1.0  0.093
  H  H34  1  0.189970  0.540330  0.689970  1.0  0.093
  H  H35  1  0.689970  0.040330  0.689970  1.0  0.093
  H  H36  1  0.689970  0.540330  0.189970  1.0  0.093
  H  H37  1  0.810030  0.959670  0.189970  1.0  0.093
  H  H38  1  0.810030  0.459670  0.689970  1.0  0.093
  H  H39  1  0.310030  0.959670  0.689970  1.0  0.093
  H  H40  1  0.310030  0.459670  0.189970  1.0  0.093
  H  H41  1  0.810030  0.040330  0.810030  1.0  0.0925
  H  H42  1  0.810030  0.540330  0.310030  1.0  0.0925
  H  H43  1  0.310030  0.040330  0.310030  1.0  0.0925
  H  H44  1  0.310030  0.540330  0.810030  1.0  0.0925
  H  H45  1  0.189970  0.959670  0.810030  1.0  0.0923
  H  H46  1  0.189970  0.459670  0.310030  1.0  0.0923
  H  H47  1  0.689970  0.959670  0.310030  1.0  0.0923
  H  H48  1  0.689970  0.459670  0.810030  1.0  0.0923
  H  H49  1  0.189970  0.189970  0.040330  1.0  0.0921
  H  H50  1  0.189970  0.689970  0.540330  1.0  0.0921
  H  H51  1  0.689970  0.189970  0.540330  1.0  0.0921
  H  H52  1  0.689970  0.689970  0.040330  1.0  0.0921
  H  H53  1  0.189970  0.810030  0.959670  1.0  0.0923
  H  H54  1  0.189970  0.310030  0.459670  1.0  0.0923
  H  H55  1  0.689970  0.810030  0.459670  1.0  0.0923
  H  H56  1  0.689970  0.310030  0.959670  1.0  0.0923
  H  H57  1  0.810030  0.810030  0.040330  1.0  0.0923
  H  H58  1  0.810030  0.310030  0.540330  1.0  0.0923
  H  H59  1  0.310030  0.810030  0.540330  1.0  0.0923
  H  H60  1  0.310030  0.310030  0.040330  1.0  0.0923
  H  H61  1  0.810030  0.189970  0.959670  1.0  0.0923
  H  H62  1  0.810030  0.689970  0.459670  1.0  0.0923
  H  H63  1  0.310030  0.189970  0.459670  1.0  0.0923
  H  H64  1  0.310030  0.689970  0.959670  1.0  0.0923
  H  H65  1  0.040330  0.189970  0.189970  1.0  0.0934
  H  H66  1  0.040330  0.689970  0.689970  1.0  0.0934
  H  H67  1  0.540330  0.189970  0.689970  1.0  0.0934
  H  H68  1  0.540330  0.689970  0.189970  1.0  0.0934
  H  H69  1  0.959670  0.189970  0.810030  1.0  0.0934
  H  H70  1  0.959670  0.689970  0.310030  1.0  0.0934
  H  H71  1  0.459670  0.189970  0.310030  1.0  0.0934
  H  H72  1  0.459670  0.689970  0.810030  1.0  0.0934
  H  H73  1  0.040330  0.810030  0.810030  1.0  0.0936
  H  H74  1  0.040330  0.310030  0.310030  1.0  0.0936
  H  H75  1  0.540330  0.810030  0.310030  1.0  0.0936
  H  H76  1  0.540330  0.310030  0.810030  1.0  0.0936
  H  H77  1  0.959670  0.810030  0.189970  1.0  0.0935
  H  H78  1  0.959670  0.310030  0.689970  1.0  0.0935
  H  H79  1  0.459670  0.810030  0.689970  1.0  0.0935
  H  H80  1  0.459670  0.310030  0.189970  1.0  0.0935
  H  H81  1  0.040330  0.189970  0.810030  1.0  0.0933
  H  H82  1  0.040330  0.689970  0.310030  1.0  0.0933
  H  H83  1  0.540330  0.189970  0.310030  1.0  0.0933
  H  H84  1  0.540330  0.689970  0.810030  1.0  0.0933
  H  H85  1  0.959670  0.810030  0.810030  1.0  0.0938
  H  H86  1  0.959670  0.310030  0.310030  1.0  0.0938
  H  H87  1  0.459670  0.810030  0.310030  1.0  0.0938
  H  H88  1  0.459670  0.310030  0.810030  1.0  0.0938
  H  H89  1  0.040330  0.810030  0.189970  1.0  0.0931
  H  H90  1  0.040330  0.310030  0.689970  1.0  0.0931
  H  H91  1  0.540330  0.810030  0.689970  1.0  0.0931
  H  H92  1  0.540330  0.310030  0.189970  1.0  0.0931
  H  H93  1  0.959670  0.189970  0.189970  1.0  0.0934
  H  H94  1  0.959670  0.689970  0.689970  1.0  0.0934
  H  H95  1  0.459670  0.189970  0.689970  1.0  0.0934
  H  H96  1  0.459670  0.689970  0.189970  1.0  0.0934
  H  H97  1  0.189970  0.189970  0.959670  1.0  0.0924
  H  H98  1  0.189970  0.689970  0.459670  1.0  0.0924
  H  H99  1  0.689970  0.189970  0.459670  1.0  0.0924
  H  H100  1  0.689970  0.689970  0.959670  1.0  0.0924
  H  H101  1  0.810030  0.189970  0.040330  1.0  0.0919
  H  H102  1  0.810030  0.689970  0.540330  1.0  0.0919
  H  H103  1  0.310030  0.189970  0.540330  1.0  0.0919
  H  H104  1  0.310030  0.689970  0.040330  1.0  0.0919
  H  H105  1  0.810030  0.810030  0.959670  1.0  0.0928
  H  H106  1  0.810030  0.310030  0.459670  1.0  0.0928
  H  H107  1  0.310030  0.810030  0.459670  1.0  0.0928
  H  H108  1  0.310030  0.310030  0.959670  1.0  0.0928
  H  H109  1  0.189970  0.810030  0.040330  1.0  0.0918
  H  H110  1  0.189970  0.310030  0.540330  1.0  0.0918
  H  H111  1  0.689970  0.810030  0.540330  1.0  0.0918
  H  H112  1  0.689970  0.310030  0.040330  1.0  0.0918
  H  H113  1  0.189970  0.040330  0.810030  1.0  0.0921
  H  H114  1  0.189970  0.540330  0.310030  1.0  0.0921
  H  H115  1  0.689970  0.040330  0.310030  1.0  0.0921
  H  H116  1  0.689970  0.540330  0.810030  1.0  0.0921
  H  H117  1  0.189970  0.959670  0.189970  1.0  0.0928
  H  H118  1  0.189970  0.459670  0.689970  1.0  0.0928
  H  H119  1  0.689970  0.959670  0.689970  1.0  0.0928
  H  H120  1  0.689970  0.459670  0.189970  1.0  0.0928
  H  H121  1  0.810030  0.040330  0.189970  1.0  0.0928
  H  H122  1  0.810030  0.540330  0.689970  1.0  0.0928
  H  H123  1  0.310030  0.040330  0.689970  1.0  0.0928
  H  H124  1  0.310030  0.540330  0.189970  1.0  0.0928
  H  H125  1  0.810030  0.959670  0.810030  1.0  0.0924
  H  H126  1  0.810030  0.459670  0.310030  1.0  0.0924
  H  H127  1  0.310030  0.959670  0.310030  1.0  0.0924
  H  H128  1  0.310030  0.459670  0.810030  1.0  0.0924
  C  C129  1  0.218900  0.023000  0.218900  1.0  -0.0631
  C  C130  1  0.218900  0.523000  0.718900  1.0  -0.0631
  C  C131  1  0.718900  0.023000  0.718900  1.0  -0.0631
  C  C132  1  0.718900  0.523000  0.218900  1.0  -0.0631
  C  C133  1  0.781100  0.977000  0.218900  1.0  -0.0642
  C  C134  1  0.781100  0.477000  0.718900  1.0  -0.0642
  C  C135  1  0.281100  0.977000  0.718900  1.0  -0.0642
  C  C136  1  0.281100  0.477000  0.218900  1.0  -0.0642
  C  C137  1  0.781100  0.023000  0.781100  1.0  -0.0635
  C  C138  1  0.781100  0.523000  0.281100  1.0  -0.0635
  C  C139  1  0.281100  0.023000  0.281100  1.0  -0.0635
  C  C140  1  0.281100  0.523000  0.781100  1.0  -0.0635
  C  C141  1  0.218900  0.977000  0.781100  1.0  -0.0635
  C  C142  1  0.218900  0.477000  0.281100  1.0  -0.0635
  C  C143  1  0.718900  0.977000  0.281100  1.0  -0.0635
  C  C144  1  0.718900  0.477000  0.781100  1.0  -0.0635
  C  C145  1  0.218900  0.218900  0.023000  1.0  -0.0655
  C  C146  1  0.218900  0.718900  0.523000  1.0  -0.0634
  C  C147  1  0.718900  0.218900  0.523000  1.0  -0.0634
  C  C148  1  0.718900  0.718900  0.023000  1.0  -0.0655
  C  C149  1  0.218900  0.781100  0.977000  1.0  -0.0657
  C  C150  1  0.218900  0.281100  0.477000  1.0  -0.0657
  C  C151  1  0.718900  0.781100  0.477000  1.0  -0.0657
  C  C152  1  0.718900  0.281100  0.977000  1.0  -0.0657
  C  C153  1  0.781100  0.781100  0.023000  1.0  -0.0652
  C  C154  1  0.781100  0.281100  0.523000  1.0  -0.0652
  C  C155  1  0.281100  0.781100  0.523000  1.0  -0.0652
  C  C156  1  0.281100  0.281100  0.023000  1.0  -0.0652
  C  C157  1  0.781100  0.218900  0.977000  1.0  -0.0647
  C  C158  1  0.781100  0.718900  0.477000  1.0  -0.0647
  C  C159  1  0.281100  0.218900  0.477000  1.0  -0.0647
  C  C160  1  0.281100  0.718900  0.977000  1.0  -0.0647
  C  C161  1  0.023000  0.218900  0.218900  1.0  -0.0632
  C  C162  1  0.023000  0.718900  0.718900  1.0  -0.0632
  C  C163  1  0.523000  0.218900  0.718900  1.0  -0.0636
  C  C164  1  0.523000  0.718900  0.218900  1.0  -0.0636
  C  C165  1  0.977000  0.218900  0.781100  1.0  -0.0636
  C  C166  1  0.977000  0.718900  0.281100  1.0  -0.0636
  C  C167  1  0.477000  0.218900  0.281100  1.0  -0.0636
  C  C168  1  0.477000  0.718900  0.781100  1.0  -0.0636
  C  C169  1  0.023000  0.781100  0.781100  1.0  -0.0645
  C  C170  1  0.023000  0.281100  0.281100  1.0  -0.0645
  C  C171  1  0.523000  0.781100  0.281100  1.0  -0.0645
  C  C172  1  0.523000  0.281100  0.781100  1.0  -0.0645
  C  C173  1  0.977000  0.781100  0.218900  1.0  -0.0646
  C  C174  1  0.977000  0.281100  0.718900  1.0  -0.0646
  C  C175  1  0.477000  0.781100  0.718900  1.0  -0.0646
  C  C176  1  0.477000  0.281100  0.218900  1.0  -0.0646
  C  C177  1  0.023000  0.218900  0.781100  1.0  -0.0645
  C  C178  1  0.023000  0.718900  0.281100  1.0  -0.0645
  C  C179  1  0.523000  0.218900  0.281100  1.0  -0.0629
  C  C180  1  0.523000  0.718900  0.781100  1.0  -0.0629
  C  C181  1  0.977000  0.781100  0.781100  1.0  -0.067
  C  C182  1  0.977000  0.281100  0.281100  1.0  -0.067
  C  C183  1  0.477000  0.781100  0.281100  1.0  -0.067
  C  C184  1  0.477000  0.281100  0.781100  1.0  -0.067
  C  C185  1  0.023000  0.781100  0.218900  1.0  -0.0665
  C  C186  1  0.023000  0.281100  0.718900  1.0  -0.0665
  C  C187  1  0.523000  0.781100  0.718900  1.0  -0.0665
  C  C188  1  0.523000  0.281100  0.218900  1.0  -0.0665
  C  C189  1  0.977000  0.218900  0.218900  1.0  -0.0645
  C  C190  1  0.977000  0.718900  0.718900  1.0  -0.0645
  C  C191  1  0.477000  0.218900  0.718900  1.0  -0.0645
  C  C192  1  0.477000  0.718900  0.218900  1.0  -0.0645
  C  C193  1  0.218900  0.218900  0.977000  1.0  -0.0653
  C  C194  1  0.218900  0.718900  0.477000  1.0  -0.0653
  C  C195  1  0.718900  0.218900  0.477000  1.0  -0.0653
  C  C196  1  0.718900  0.718900  0.977000  1.0  -0.0653
  C  C197  1  0.781100  0.218900  0.023000  1.0  -0.0656
  C  C198  1  0.781100  0.718900  0.523000  1.0  -0.0656
  C  C199  1  0.281100  0.218900  0.523000  1.0  -0.0656
  C  C200  1  0.281100  0.718900  0.023000  1.0  -0.0656
  C  C201  1  0.781100  0.781100  0.977000  1.0  -0.0673
  C  C202  1  0.781100  0.281100  0.477000  1.0  -0.0673
  C  C203  1  0.281100  0.781100  0.477000  1.0  -0.0673
  C  C204  1  0.281100  0.281100  0.977000  1.0  -0.0673
  C  C205  1  0.218900  0.781100  0.023000  1.0  -0.0669
  C  C206  1  0.218900  0.281100  0.523000  1.0  -0.0669
  C  C207  1  0.718900  0.781100  0.523000  1.0  -0.0669
  C  C208  1  0.718900  0.281100  0.023000  1.0  -0.0669
  C  C209  1  0.218900  0.023000  0.781100  1.0  -0.0656
  C  C210  1  0.218900  0.523000  0.281100  1.0  -0.0656
  C  C211  1  0.718900  0.023000  0.281100  1.0  -0.0656
  C  C212  1  0.718900  0.523000  0.781100  1.0  -0.0656
  C  C213  1  0.218900  0.977000  0.218900  1.0  -0.0645
  C  C214  1  0.218900  0.477000  0.718900  1.0  -0.0645
  C  C215  1  0.718900  0.977000  0.718900  1.0  -0.0645
  C  C216  1  0.718900  0.477000  0.218900  1.0  -0.0645
  C  C217  1  0.781100  0.023000  0.218900  1.0  -0.064
  C  C218  1  0.781100  0.523000  0.718900  1.0  -0.064
  C  C219  1  0.281100  0.023000  0.718900  1.0  -0.064
  C  C220  1  0.281100  0.523000  0.218900  1.0  -0.064
  C  C221  1  0.781100  0.977000  0.781100  1.0  -0.0651
  C  C222  1  0.781100  0.477000  0.281100  1.0  -0.0651
  C  C223  1  0.281100  0.977000  0.281100  1.0  -0.0651
  C  C224  1  0.281100  0.477000  0.781100  1.0  -0.0651
  C  C225  1  0.250000  0.115200  0.250000  1.0  0.5386
  C  C226  1  0.250000  0.056200  0.250000  1.0  -0.0282
  C  C227  1  0.250000  0.615200  0.750000  1.0  0.5386
  C  C228  1  0.250000  0.556200  0.750000  1.0  -0.0282
  C  C229  1  0.750000  0.884800  0.250000  1.0  0.5381
  C  C230  1  0.750000  0.943800  0.250000  1.0  -0.0288
  C  C231  1  0.750000  0.384800  0.750000  1.0  0.5381
  C  C232  1  0.750000  0.443800  0.750000  1.0  -0.0288
  C  C233  1  0.250000  0.384800  0.250000  1.0  0.5381
  C  C234  1  0.250000  0.443800  0.250000  1.0  -0.0288
  C  C235  1  0.750000  0.115200  0.750000  1.0  0.5386
  C  C236  1  0.750000  0.056200  0.750000  1.0  -0.0282
  C  C237  1  0.750000  0.615200  0.250000  1.0  0.5386
  C  C238  1  0.750000  0.556200  0.250000  1.0  -0.0282
  C  C239  1  0.250000  0.884800  0.750000  1.0  0.5381
  C  C240  1  0.250000  0.943800  0.750000  1.0  -0.0288
  C  C241  1  0.250000  0.250000  0.115200  1.0  0.5388
  C  C242  1  0.250000  0.250000  0.056200  1.0  -0.0307
  C  C243  1  0.250000  0.750000  0.615200  1.0  0.5388
  C  C244  1  0.250000  0.750000  0.556200  1.0  -0.0307
  C  C245  1  0.250000  0.750000  0.884800  1.0  0.5404
  C  C246  1  0.250000  0.750000  0.943800  1.0  -0.0298
  C  C247  1  0.250000  0.250000  0.384800  1.0  0.5404
  C  C248  1  0.250000  0.250000  0.443800  1.0  -0.0298
  C  C249  1  0.750000  0.750000  0.115200  1.0  0.5388
  C  C250  1  0.750000  0.750000  0.056200  1.0  -0.0307
  C  C251  1  0.750000  0.250000  0.615200  1.0  0.5388
  C  C252  1  0.750000  0.250000  0.556200  1.0  -0.0307
  C  C253  1  0.750000  0.250000  0.884800  1.0  0.5404
  C  C254  1  0.750000  0.250000  0.943800  1.0  -0.0298
  C  C255  1  0.750000  0.750000  0.384800  1.0  0.5404
  C  C256  1  0.750000  0.750000  0.443800  1.0  -0.0298
  C  C257  1  0.115200  0.250000  0.250000  1.0  0.5406
  C  C258  1  0.056200  0.250000  0.250000  1.0  -0.0295
  C  C259  1  0.615200  0.250000  0.750000  1.0  0.5406
  C  C260  1  0.556200  0.250000  0.750000  1.0  -0.0295
  C  C261  1  0.884800  0.250000  0.750000  1.0  0.5395
  C  C262  1  0.943800  0.250000  0.750000  1.0  -0.0297
  C  C263  1  0.384800  0.250000  0.250000  1.0  0.5395
  C  C264  1  0.443800  0.250000  0.250000  1.0  -0.0297
  C  C265  1  0.115200  0.750000  0.750000  1.0  0.5406
  C  C266  1  0.056200  0.750000  0.750000  1.0  -0.0295
  C  C267  1  0.615200  0.750000  0.250000  1.0  0.5406
  C  C268  1  0.556200  0.750000  0.250000  1.0  -0.0295
  C  C269  1  0.884800  0.750000  0.250000  1.0  0.5395
  C  C270  1  0.943800  0.750000  0.250000  1.0  -0.0297
  C  C271  1  0.384800  0.750000  0.750000  1.0  0.5395
  C  C272  1  0.443800  0.750000  0.750000  1.0  -0.0297
  C  C273  1  0.115200  0.250000  0.750000  1.0  0.5406
  C  C274  1  0.056200  0.250000  0.750000  1.0  -0.0295
  C  C275  1  0.615200  0.250000  0.250000  1.0  0.5406
  C  C276  1  0.556200  0.250000  0.250000  1.0  -0.0295
  C  C277  1  0.884800  0.750000  0.750000  1.0  0.5395
  C  C278  1  0.943800  0.750000  0.750000  1.0  -0.0297
  C  C279  1  0.884800  0.250000  0.250000  1.0  0.5395
  C  C280  1  0.943800  0.250000  0.250000  1.0  -0.0297
  C  C281  1  0.384800  0.750000  0.250000  1.0  0.5395
  C  C282  1  0.443800  0.750000  0.250000  1.0  -0.0297
  C  C283  1  0.115200  0.750000  0.250000  1.0  0.5406
  C  C284  1  0.056200  0.750000  0.250000  1.0  -0.0295
  C  C285  1  0.615200  0.750000  0.750000  1.0  0.5406
  C  C286  1  0.556200  0.750000  0.750000  1.0  -0.0295
  C  C287  1  0.384800  0.250000  0.750000  1.0  0.5395
  C  C288  1  0.443800  0.250000  0.750000  1.0  -0.0297
  C  C289  1  0.250000  0.250000  0.884800  1.0  0.5404
  C  C290  1  0.250000  0.250000  0.943800  1.0  -0.0298
  C  C291  1  0.250000  0.750000  0.384800  1.0  0.5404
  C  C292  1  0.250000  0.750000  0.443800  1.0  -0.0298
  C  C293  1  0.750000  0.250000  0.115200  1.0  0.5388
  C  C294  1  0.750000  0.250000  0.056200  1.0  -0.0307
  C  C295  1  0.750000  0.750000  0.615200  1.0  0.5388
  C  C296  1  0.750000  0.750000  0.556200  1.0  -0.0307
  C  C297  1  0.250000  0.250000  0.615200  1.0  0.5388
  C  C298  1  0.250000  0.250000  0.556200  1.0  -0.0307
  C  C299  1  0.750000  0.750000  0.884800  1.0  0.5404
  C  C300  1  0.750000  0.750000  0.943800  1.0  -0.0298
  C  C301  1  0.750000  0.250000  0.384800  1.0  0.5404
  C  C302  1  0.750000  0.250000  0.443800  1.0  -0.0298
  C  C303  1  0.250000  0.750000  0.115200  1.0  0.5388
  C  C304  1  0.250000  0.750000  0.056200  1.0  -0.0307
  C  C305  1  0.250000  0.115200  0.750000  1.0  0.5386
  C  C306  1  0.250000  0.056200  0.750000  1.0  -0.0282
  C  C307  1  0.250000  0.615200  0.250000  1.0  0.5386
  C  C308  1  0.250000  0.556200  0.250000  1.0  -0.0282
  C  C309  1  0.250000  0.884800  0.250000  1.0  0.5381
  C  C310  1  0.250000  0.943800  0.250000  1.0  -0.0288
  C  C311  1  0.250000  0.384800  0.750000  1.0  0.5381
  C  C312  1  0.250000  0.443800  0.750000  1.0  -0.0288
  C  C313  1  0.750000  0.115200  0.250000  1.0  0.5386
  C  C314  1  0.750000  0.056200  0.250000  1.0  -0.0282
  C  C315  1  0.750000  0.615200  0.750000  1.0  0.5386
  C  C316  1  0.750000  0.556200  0.750000  1.0  -0.0282
  C  C317  1  0.750000  0.884800  0.750000  1.0  0.5381
  C  C318  1  0.750000  0.943800  0.750000  1.0  -0.0288
  C  C319  1  0.750000  0.384800  0.250000  1.0  0.5381
  C  C320  1  0.750000  0.443800  0.250000  1.0  -0.0288
  O  O321  1  0.214600  0.133400  0.214600  1.0  -0.5103
  O  O322  1  0.214600  0.633400  0.714600  1.0  -0.5103
  O  O323  1  0.714600  0.133400  0.714600  1.0  -0.5103
  O  O324  1  0.714600  0.633400  0.214600  1.0  -0.5103
  O  O325  1  0.785400  0.866600  0.214600  1.0  -0.5101
  O  O326  1  0.785400  0.366600  0.714600  1.0  -0.5101
  O  O327  1  0.285400  0.866600  0.714600  1.0  -0.5101
  O  O328  1  0.285400  0.366600  0.214600  1.0  -0.5101
  O  O329  1  0.785400  0.133400  0.785400  1.0  -0.5098
  O  O330  1  0.785400  0.633400  0.285400  1.0  -0.5098
  O  O331  1  0.285400  0.133400  0.285400  1.0  -0.5098
  O  O332  1  0.285400  0.633400  0.785400  1.0  -0.5098
  O  O333  1  0.214600  0.866600  0.785400  1.0  -0.5097
  O  O334  1  0.214600  0.366600  0.285400  1.0  -0.5097
  O  O335  1  0.714600  0.866600  0.285400  1.0  -0.5097
  O  O336  1  0.714600  0.366600  0.785400  1.0  -0.5097
  O  O337  1  0.214600  0.214600  0.133400  1.0  -0.5102
  O  O338  1  0.214600  0.714600  0.633400  1.0  -0.5102
  O  O339  1  0.714600  0.214600  0.633400  1.0  -0.5102
  O  O340  1  0.714600  0.714600  0.133400  1.0  -0.5102
  O  O341  1  0.214600  0.785400  0.866600  1.0  -0.5091
  O  O342  1  0.214600  0.285400  0.366600  1.0  -0.5091
  O  O343  1  0.714600  0.785400  0.366600  1.0  -0.5091
  O  O344  1  0.714600  0.285400  0.866600  1.0  -0.5091
  O  O345  1  0.785400  0.785400  0.133400  1.0  -0.5099
  O  O346  1  0.785400  0.285400  0.633400  1.0  -0.5099
  O  O347  1  0.285400  0.785400  0.633400  1.0  -0.5099
  O  O348  1  0.285400  0.285400  0.133400  1.0  -0.5099
  O  O349  1  0.785400  0.214600  0.866600  1.0  -0.5104
  O  O350  1  0.785400  0.714600  0.366600  1.0  -0.5104
  O  O351  1  0.285400  0.214600  0.366600  1.0  -0.5104
  O  O352  1  0.285400  0.714600  0.866600  1.0  -0.5104
  O  O353  1  0.133400  0.214600  0.214600  1.0  -0.5125
  O  O354  1  0.133400  0.714600  0.714600  1.0  -0.5125
  O  O355  1  0.633400  0.214600  0.714600  1.0  -0.5125
  O  O356  1  0.633400  0.714600  0.214600  1.0  -0.5125
  O  O357  1  0.866600  0.214600  0.785400  1.0  -0.512
  O  O358  1  0.866600  0.714600  0.285400  1.0  -0.512
  O  O359  1  0.366600  0.214600  0.285400  1.0  -0.512
  O  O360  1  0.366600  0.714600  0.785400  1.0  -0.512
  O  O361  1  0.133400  0.785400  0.785400  1.0  -0.5115
  O  O362  1  0.133400  0.285400  0.285400  1.0  -0.5115
  O  O363  1  0.633400  0.785400  0.285400  1.0  -0.5115
  O  O364  1  0.633400  0.285400  0.785400  1.0  -0.5115
  O  O365  1  0.866600  0.785400  0.214600  1.0  -0.5115
  O  O366  1  0.866600  0.285400  0.714600  1.0  -0.5115
  O  O367  1  0.366600  0.785400  0.714600  1.0  -0.5115
  O  O368  1  0.366600  0.285400  0.214600  1.0  -0.5115
  O  O369  1  0.133400  0.214600  0.785400  1.0  -0.5121
  O  O370  1  0.133400  0.714600  0.285400  1.0  -0.5121
  O  O371  1  0.633400  0.214600  0.285400  1.0  -0.5121
  O  O372  1  0.633400  0.714600  0.785400  1.0  -0.5121
  O  O373  1  0.866600  0.785400  0.785400  1.0  -0.5112
  O  O374  1  0.866600  0.285400  0.285400  1.0  -0.5112
  O  O375  1  0.366600  0.785400  0.285400  1.0  -0.5112
  O  O376  1  0.366600  0.285400  0.785400  1.0  -0.5112
  O  O377  1  0.133400  0.785400  0.214600  1.0  -0.5118
  O  O378  1  0.133400  0.285400  0.714600  1.0  -0.5118
  O  O379  1  0.633400  0.785400  0.714600  1.0  -0.5118
  O  O380  1  0.633400  0.285400  0.214600  1.0  -0.5118
  O  O381  1  0.866600  0.214600  0.214600  1.0  -0.5125
  O  O382  1  0.866600  0.714600  0.714600  1.0  -0.5125
  O  O383  1  0.366600  0.214600  0.714600  1.0  -0.5125
  O  O384  1  0.366600  0.714600  0.214600  1.0  -0.5125
  O  O385  1  0.214600  0.214600  0.866600  1.0  -0.5098
  O  O386  1  0.214600  0.714600  0.366600  1.0  -0.5098
  O  O387  1  0.714600  0.214600  0.366600  1.0  -0.5098
  O  O388  1  0.714600  0.714600  0.866600  1.0  -0.5098
  O  O389  1  0.785400  0.214600  0.133400  1.0  -0.5108
  O  O390  1  0.785400  0.714600  0.633400  1.0  -0.5108
  O  O391  1  0.285400  0.214600  0.633400  1.0  -0.5108
  O  O392  1  0.285400  0.714600  0.133400  1.0  -0.5108
  O  O393  1  0.785400  0.785400  0.866600  1.0  -0.5093
  O  O394  1  0.785400  0.285400  0.366600  1.0  -0.5093
  O  O395  1  0.285400  0.785400  0.366600  1.0  -0.5093
  O  O396  1  0.285400  0.285400  0.866600  1.0  -0.5093
  O  O397  1  0.214600  0.785400  0.133400  1.0  -0.5096
  O  O398  1  0.214600  0.285400  0.633400  1.0  -0.5096
  O  O399  1  0.714600  0.785400  0.633400  1.0  -0.5096
  O  O400  1  0.714600  0.285400  0.133400  1.0  -0.5096
  O  O401  1  0.214600  0.133400  0.785400  1.0  -0.5093
  O  O402  1  0.214600  0.633400  0.285400  1.0  -0.5093
  O  O403  1  0.714600  0.133400  0.285400  1.0  -0.5093
  O  O404  1  0.714600  0.633400  0.785400  1.0  -0.5093
  O  O405  1  0.214600  0.866600  0.214600  1.0  -0.5097
  O  O406  1  0.214600  0.366600  0.714600  1.0  -0.5097
  O  O407  1  0.714600  0.866600  0.714600  1.0  -0.5097
  O  O408  1  0.714600  0.366600  0.214600  1.0  -0.5097
  O  O409  1  0.785400  0.133400  0.214600  1.0  -0.5105
  O  O410  1  0.785400  0.633400  0.714600  1.0  -0.5105
  O  O411  1  0.285400  0.133400  0.714600  1.0  -0.5105
  O  O412  1  0.285400  0.633400  0.214600  1.0  -0.5105
  O  O413  1  0.785400  0.866600  0.785400  1.0  -0.5103
  O  O414  1  0.785400  0.366600  0.285400  1.0  -0.5103
  O  O415  1  0.285400  0.866600  0.285400  1.0  -0.5103
  O  O416  1  0.285400  0.366600  0.785400  1.0  -0.5103
  O  O417  1  0.250000  0.250000  0.250000  1.0  -1.2167
  O  O418  1  0.750000  0.750000  0.250000  1.0  -1.2167
  O  O419  1  0.750000  0.250000  0.750000  1.0  -1.2167
  O  O420  1  0.250000  0.750000  0.750000  1.0  -1.2167
  O  O421  1  0.250000  0.250000  0.750000  1.0  -1.2167
  O  O422  1  0.750000  0.750000  0.750000  1.0  -1.2167
  O  O423  1  0.750000  0.250000  0.250000  1.0  -1.2167
  O  O424  1  0.250000  0.750000  0.250000  1.0  -1.2167
