# generated using pymatgen
data_Fe2P2O8F
_symmetry_space_group_name_H-M   'P 1'
_cell_length_a   9.98700000
_cell_length_b   12.27500000
_cell_length_c   17.46200000
_cell_angle_alpha   90.00000000
_cell_angle_beta   102.80000000
_cell_angle_gamma   90.00000000
_symmetry_Int_Tables_number   1
_chemical_formula_structural   Fe2P2O8F
_chemical_formula_sum   'Fe16 P16 O64 F8'
_cell_volume   2087.47687020
_cell_formula_units_Z   8
loop_
 _symmetry_equiv_pos_site_id
 _symmetry_equiv_pos_as_xyz
  1  'x, y, z'
loop_
 _atom_site_type_symbol
 _atom_site_label
 _atom_site_symmetry_multiplicity
 _atom_site_fract_x
 _atom_site_fract_y
 _atom_site_fract_z
 _atom_site_occupancy
 _atom_site_charge
  Fe  Fe1  1  0.245800  0.924200  0.779500  1.0  1.47
  Fe  Fe2  1  0.649600  0.358500  0.572600  1.0  1.3189
  Fe  Fe3  1  0.565000  0.023900  0.372300  1.0  1.4603
  Fe  Fe4  1  0.964800  0.108300  0.710700  1.0  1.4267
  Fe  Fe5  1  0.254200  0.424200  0.720500  1.0  1.4707
  Fe  Fe6  1  0.850400  0.858500  0.927400  1.0  1.3198
  Fe  Fe7  1  0.935000  0.523900  0.127700  1.0  1.457
  Fe  Fe8  1  0.535200  0.608300  0.789300  1.0  1.4198
  Fe  Fe9  1  0.754200  0.075800  0.220500  1.0  1.4703
  Fe  Fe10  1  0.350400  0.641500  0.427400  1.0  1.3228
  Fe  Fe11  1  0.435000  0.976100  0.627700  1.0  1.4574
  Fe  Fe12  1  0.035200  0.891700  0.289300  1.0  1.4202
  Fe  Fe13  1  0.745800  0.575800  0.279500  1.0  1.4696
  Fe  Fe14  1  0.149600  0.141500  0.072600  1.0  1.322
  Fe  Fe15  1  0.065000  0.476100  0.872300  1.0  1.4605
  Fe  Fe16  1  0.464800  0.391700  0.210700  1.0  1.4263
  P  P17  1  0.701100  0.087600  0.558900  1.0  1.8322
  P  P18  1  0.083300  0.039400  0.893700  1.0  1.8138
  P  P19  1  0.272900  0.153800  0.704200  1.0  1.8255
  P  P20  1  0.938100  0.375500  0.695600  1.0  1.834
  P  P21  1  0.798900  0.587600  0.941100  1.0  1.832
  P  P22  1  0.416700  0.539400  0.606300  1.0  1.8139
  P  P23  1  0.227100  0.653800  0.795800  1.0  1.7997
  P  P24  1  0.561900  0.875500  0.804400  1.0  1.8372
  P  P25  1  0.298900  0.912400  0.441100  1.0  1.8332
  P  P26  1  0.916700  0.960600  0.106300  1.0  1.8139
  P  P27  1  0.727100  0.846200  0.295800  1.0  1.7972
  P  P28  1  0.061900  0.624500  0.304400  1.0  1.8372
  P  P29  1  0.201100  0.412400  0.058900  1.0  1.833
  P  P30  1  0.583300  0.460600  0.393700  1.0  1.8137
  P  P31  1  0.772900  0.346200  0.204200  1.0  1.8232
  P  P32  1  0.438100  0.124500  0.195600  1.0  1.8339
  O  O33  1  0.909700  0.258700  0.716700  1.0  -0.7848
  O  O34  1  0.816800  0.414100  0.629800  1.0  -0.7418
  O  O35  1  0.359700  0.118700  0.645000  1.0  -0.69
  O  O36  1  0.948300  0.988200  0.905300  1.0  -0.8092
  O  O37  1  0.179200  0.949200  0.876300  1.0  -0.708
  O  O38  1  0.120200  0.145300  0.665000  1.0  -0.7308
  O  O39  1  0.685600  0.024300  0.480900  1.0  -0.7476
  O  O40  1  0.154100  0.098600  0.968700  1.0  -0.7734
  O  O41  1  0.593900  0.049200  0.602800  1.0  -0.8186
  O  O42  1  0.049400  0.122500  0.826900  1.0  -0.731
  O  O43  1  0.307000  0.079800  0.777200  1.0  -0.7112
  O  O44  1  0.942700  0.450900  0.766400  1.0  -0.7499
  O  O45  1  0.846900  0.069500  0.608000  1.0  -0.7466
  O  O46  1  0.068400  0.387500  0.664000  1.0  -0.7053
  O  O47  1  0.314800  0.271400  0.727400  1.0  -0.7541
  O  O48  1  0.680000  0.210200  0.539500  1.0  -0.8187
  O  O49  1  0.590300  0.758700  0.783300  1.0  -0.7836
  O  O50  1  0.683200  0.914100  0.870200  1.0  -0.7418
  O  O51  1  0.140300  0.618700  0.855000  1.0  -0.6899
  O  O52  1  0.551700  0.488200  0.594700  1.0  -0.8082
  O  O53  1  0.320800  0.449200  0.623700  1.0  -0.7078
  O  O54  1  0.379800  0.645300  0.835000  1.0  -0.7301
  O  O55  1  0.814400  0.524300  0.019100  1.0  -0.7486
  O  O56  1  0.345900  0.598600  0.531300  1.0  -0.7758
  O  O57  1  0.906100  0.549200  0.897200  1.0  -0.8175
  O  O58  1  0.450600  0.622500  0.673100  1.0  -0.7309
  O  O59  1  0.193000  0.579800  0.722800  1.0  -0.7124
  O  O60  1  0.557300  0.950900  0.733600  1.0  -0.7504
  O  O61  1  0.653100  0.569500  0.892000  1.0  -0.7467
  O  O62  1  0.431600  0.887500  0.836000  1.0  -0.7036
  O  O63  1  0.185200  0.771400  0.772600  1.0  -0.752
  O  O64  1  0.820000  0.710200  0.960500  1.0  -0.8186
  O  O65  1  0.090300  0.741300  0.283300  1.0  -0.7831
  O  O66  1  0.183200  0.585900  0.370200  1.0  -0.7408
  O  O67  1  0.640300  0.881300  0.355000  1.0  -0.6913
  O  O68  1  0.051700  0.011800  0.094700  1.0  -0.8081
  O  O69  1  0.820800  0.050800  0.123700  1.0  -0.7071
  O  O70  1  0.879800  0.854700  0.335000  1.0  -0.7304
  O  O71  1  0.314400  0.975700  0.519100  1.0  -0.7485
  O  O72  1  0.845900  0.901400  0.031300  1.0  -0.7742
  O  O73  1  0.406100  0.950800  0.397200  1.0  -0.8178
  O  O74  1  0.950600  0.877500  0.173100  1.0  -0.7313
  O  O75  1  0.693000  0.920200  0.222800  1.0  -0.7122
  O  O76  1  0.057300  0.549100  0.233600  1.0  -0.7536
  O  O77  1  0.153100  0.930500  0.392000  1.0  -0.7498
  O  O78  1  0.931600  0.612500  0.336000  1.0  -0.7034
  O  O79  1  0.685200  0.728600  0.272600  1.0  -0.7519
  O  O80  1  0.320000  0.789800  0.460500  1.0  -0.8187
  O  O81  1  0.409700  0.241300  0.216700  1.0  -0.7841
  O  O82  1  0.316800  0.085900  0.129800  1.0  -0.7402
  O  O83  1  0.859700  0.381300  0.145000  1.0  -0.6905
  O  O84  1  0.448300  0.511800  0.405300  1.0  -0.8092
  O  O85  1  0.679200  0.550800  0.376300  1.0  -0.7071
  O  O86  1  0.620200  0.354700  0.165000  1.0  -0.731
  O  O87  1  0.185600  0.475700  0.980900  1.0  -0.7482
  O  O88  1  0.654100  0.401400  0.468700  1.0  -0.7729
  O  O89  1  0.093900  0.450800  0.102800  1.0  -0.8189
  O  O90  1  0.549400  0.377500  0.326900  1.0  -0.7318
  O  O91  1  0.807000  0.420200  0.277200  1.0  -0.7108
  O  O92  1  0.442700  0.049100  0.266400  1.0  -0.7523
  O  O93  1  0.346900  0.430500  0.108000  1.0  -0.7484
  O  O94  1  0.568400  0.112500  0.164000  1.0  -0.7049
  O  O95  1  0.814800  0.228600  0.227400  1.0  -0.7539
  O  O96  1  0.180000  0.289800  0.039500  1.0  -0.8194
  F  F97  1  0.049800  0.958000  0.722500  1.0  -0.4547
  F  F98  1  0.712600  0.090200  0.326500  1.0  -0.4903
  F  F99  1  0.450200  0.458000  0.777500  1.0  -0.4532
  F  F100  1  0.787400  0.590200  0.173500  1.0  -0.4918
  F  F101  1  0.950200  0.042000  0.277500  1.0  -0.4514
  F  F102  1  0.287400  0.909800  0.673500  1.0  -0.4936
  F  F103  1  0.549800  0.542000  0.222500  1.0  -0.4541
  F  F104  1  0.212600  0.409800  0.826500  1.0  -0.4921
