# generated using pymatgen
data_NiH15C18N7O3
_symmetry_space_group_name_H-M   'P 1'
_cell_length_a   14.99760000
_cell_length_b   16.31810000
_cell_length_c   19.69170000
_cell_angle_alpha   98.36000000
_cell_angle_beta   90.00000000
_cell_angle_gamma   90.00000000
_symmetry_Int_Tables_number   1
_chemical_formula_structural   NiH15C18N7O3
_chemical_formula_sum   'Ni8 H120 C144 N56 O24'
_cell_volume   4767.98734919
_cell_formula_units_Z   8
loop_
 _symmetry_equiv_pos_site_id
 _symmetry_equiv_pos_as_xyz
  1  'x, y, z'
loop_
 _atom_site_type_symbol
 _atom_site_label
 _atom_site_symmetry_multiplicity
 _atom_site_fract_x
 _atom_site_fract_y
 _atom_site_fract_z
 _atom_site_occupancy
 _atom_site_charge
  Ni  Ni1  1  0.743390  0.879050  0.756860  1.0  0.265
  Ni  Ni2  1  0.744320  0.375150  0.239250  1.0  0.3039
  Ni  Ni3  1  0.243390  0.120950  0.743140  1.0  0.2667
  Ni  Ni4  1  0.244320  0.624850  0.260750  1.0  0.3078
  Ni  Ni5  1  0.256610  0.120950  0.243140  1.0  0.2654
  Ni  Ni6  1  0.255680  0.624850  0.760750  1.0  0.3084
  Ni  Ni7  1  0.756610  0.879050  0.256860  1.0  0.2646
  Ni  Ni8  1  0.755680  0.375150  0.739250  1.0  0.3034
  H  H9  1  0.757700  0.006900  0.657600  1.0  0.0737
  H  H10  1  0.765900  0.009000  0.540700  1.0  0.1155
  H  H11  1  0.768500  0.883300  0.465700  1.0  0.1077
  H  H12  1  0.767700  0.762700  0.629600  1.0  0.0992
  H  H13  1  0.779900  0.727200  0.448500  1.0  0.0827
  H  H14  1  0.784400  0.530200  0.545300  1.0  0.0835
  H  H15  1  0.777500  0.248800  0.336900  1.0  0.0754
  H  H16  1  0.782100  0.247900  0.453600  1.0  0.1136
  H  H17  1  0.783400  0.373100  0.528000  1.0  0.1105
  H  H18  1  0.787400  0.493200  0.363100  1.0  0.0972
  H  H19  1  0.918600  0.822200  0.686300  1.0  0.0896
  H  H20  1  0.070200  0.821900  0.709600  1.0  0.106
  H  H21  1  0.123300  0.874900  0.817900  1.0  0.1128
  H  H22  1  0.869200  0.935600  0.872700  1.0  0.0807
  H  H23  1  0.090900  0.938800  0.939100  1.0  0.0714
  H  H24  1  0.566600  0.332800  0.180100  1.0  0.0831
  H  H25  1  0.414300  0.336000  0.205000  1.0  0.1105
  H  H26  1  0.366500  0.382000  0.315600  1.0  0.1093
  H  H27  1  0.624400  0.436100  0.367600  1.0  0.0661
  H  H28  1  0.406100  0.444800  0.439300  1.0  0.0644
  H  H29  1  0.575600  0.926600  0.839200  1.0  0.0806
  H  H30  1  0.423400  0.928800  0.827600  1.0  0.1026
  H  H31  1  0.356100  0.878500  0.723400  1.0  0.1098
  H  H32  1  0.602800  0.820400  0.648200  1.0  0.0708
  H  H33  1  0.378300  0.818500  0.595100  1.0  0.0781
  H  H34  1  0.563200  0.699200  0.473600  1.0  0.0622
  H  H35  1  0.431300  0.582100  0.209700  1.0  0.0726
  H  H36  1  0.578300  0.591200  0.244900  1.0  0.1154
  H  H37  1  0.611300  0.642200  0.357600  1.0  0.1049
  H  H38  1  0.348100  0.681200  0.392000  1.0  0.0799
  H  H39  1  0.257700  0.993100  0.842400  1.0  0.0739
  H  H40  1  0.265900  0.991000  0.959300  1.0  0.1157
  H  H41  1  0.268500  0.116700  0.034300  1.0  0.1081
  H  H42  1  0.267700  0.237300  0.870400  1.0  0.0987
  H  H43  1  0.279900  0.272800  0.051500  1.0  0.0843
  H  H44  1  0.284400  0.469800  0.954700  1.0  0.0851
  H  H45  1  0.277500  0.751200  0.163100  1.0  0.0742
  H  H46  1  0.282100  0.752100  0.046400  1.0  0.1142
  H  H47  1  0.283400  0.626900  0.972000  1.0  0.1115
  H  H48  1  0.287400  0.506800  0.136900  1.0  0.0974
  H  H49  1  0.418600  0.177800  0.813700  1.0  0.0895
  H  H50  1  0.570200  0.178100  0.790400  1.0  0.1058
  H  H51  1  0.623300  0.125100  0.682100  1.0  0.1133
  H  H52  1  0.369200  0.064400  0.627300  1.0  0.0811
  H  H53  1  0.590900  0.061200  0.560900  1.0  0.0711
  H  H54  1  0.066600  0.667200  0.319900  1.0  0.0829
  H  H55  1  0.914300  0.664000  0.295000  1.0  0.1109
  H  H56  1  0.866500  0.618000  0.184400  1.0  0.1094
  H  H57  1  0.124400  0.563900  0.132400  1.0  0.0657
  H  H58  1  0.906100  0.555200  0.060700  1.0  0.0643
  H  H59  1  0.075600  0.073400  0.660800  1.0  0.0804
  H  H60  1  0.923400  0.071200  0.672400  1.0  0.1025
  H  H61  1  0.856100  0.121500  0.776600  1.0  0.1099
  H  H62  1  0.102800  0.179600  0.851800  1.0  0.0709
  H  H63  1  0.878300  0.181500  0.904900  1.0  0.0784
  H  H64  1  0.063200  0.300800  0.026400  1.0  0.0622
  H  H65  1  0.931300  0.417900  0.290300  1.0  0.0729
  H  H66  1  0.078300  0.408800  0.255100  1.0  0.115
  H  H67  1  0.111300  0.357800  0.142400  1.0  0.1051
  H  H68  1  0.848100  0.318800  0.108000  1.0  0.0802
  H  H69  1  0.242300  0.993100  0.342400  1.0  0.0736
  H  H70  1  0.234100  0.991000  0.459300  1.0  0.1158
  H  H71  1  0.231500  0.116700  0.534300  1.0  0.108
  H  H72  1  0.232300  0.237300  0.370400  1.0  0.0994
  H  H73  1  0.220100  0.272800  0.551500  1.0  0.0864
  H  H74  1  0.215600  0.469800  0.454700  1.0  0.0879
  H  H75  1  0.222500  0.751200  0.663100  1.0  0.0738
  H  H76  1  0.217900  0.752100  0.546400  1.0  0.1144
  H  H77  1  0.216600  0.626900  0.472000  1.0  0.1118
  H  H78  1  0.212600  0.506800  0.636900  1.0  0.0975
  H  H79  1  0.081400  0.177800  0.313700  1.0  0.0895
  H  H80  1  0.929800  0.178100  0.290400  1.0  0.106
  H  H81  1  0.876700  0.125100  0.182100  1.0  0.1121
  H  H82  1  0.130800  0.064400  0.127300  1.0  0.0808
  H  H83  1  0.909100  0.061200  0.060900  1.0  0.0725
  H  H84  1  0.433400  0.667200  0.819900  1.0  0.0831
  H  H85  1  0.585700  0.664000  0.795000  1.0  0.1111
  H  H86  1  0.633500  0.618000  0.684400  1.0  0.1096
  H  H87  1  0.375600  0.563900  0.632400  1.0  0.0653
  H  H88  1  0.593900  0.555200  0.560700  1.0  0.064
  H  H89  1  0.424400  0.073400  0.160800  1.0  0.0804
  H  H90  1  0.576600  0.071200  0.172400  1.0  0.1018
  H  H91  1  0.643900  0.121500  0.276600  1.0  0.1092
  H  H92  1  0.397200  0.179600  0.351800  1.0  0.071
  H  H93  1  0.621700  0.181500  0.404900  1.0  0.0791
  H  H94  1  0.436800  0.300800  0.526400  1.0  0.0622
  H  H95  1  0.568700  0.417900  0.790300  1.0  0.0732
  H  H96  1  0.421700  0.408800  0.755100  1.0  0.1148
  H  H97  1  0.388700  0.357800  0.642400  1.0  0.1051
  H  H98  1  0.651900  0.318800  0.608000  1.0  0.0799
  H  H99  1  0.742300  0.006900  0.157600  1.0  0.0737
  H  H100  1  0.734100  0.009000  0.040700  1.0  0.116
  H  H101  1  0.731500  0.883300  0.965700  1.0  0.1073
  H  H102  1  0.732300  0.762700  0.129600  1.0  0.0996
  H  H103  1  0.720100  0.727200  0.948500  1.0  0.0844
  H  H104  1  0.715600  0.530200  0.045300  1.0  0.0852
  H  H105  1  0.722500  0.248800  0.836900  1.0  0.075
  H  H106  1  0.717900  0.247900  0.953600  1.0  0.1143
  H  H107  1  0.716600  0.373100  0.028000  1.0  0.1112
  H  H108  1  0.712600  0.493200  0.863100  1.0  0.0971
  H  H109  1  0.581400  0.822200  0.186300  1.0  0.0897
  H  H110  1  0.429800  0.821900  0.209600  1.0  0.106
  H  H111  1  0.376700  0.874900  0.317900  1.0  0.112
  H  H112  1  0.630800  0.935600  0.372700  1.0  0.0804
  H  H113  1  0.409100  0.938800  0.439100  1.0  0.0741
  H  H114  1  0.933400  0.332800  0.680100  1.0  0.0832
  H  H115  1  0.085700  0.336000  0.705000  1.0  0.1107
  H  H116  1  0.133500  0.382000  0.815600  1.0  0.1096
  H  H117  1  0.875600  0.436100  0.867600  1.0  0.0656
  H  H118  1  0.093900  0.444800  0.939300  1.0  0.0642
  H  H119  1  0.924400  0.926600  0.339200  1.0  0.0808
  H  H120  1  0.076600  0.928800  0.327600  1.0  0.1026
  H  H121  1  0.143900  0.878500  0.223400  1.0  0.1094
  H  H122  1  0.897200  0.820400  0.148200  1.0  0.0708
  H  H123  1  0.121700  0.818500  0.095100  1.0  0.079
  H  H124  1  0.936800  0.699200  0.973600  1.0  0.0625
  H  H125  1  0.068700  0.582100  0.709700  1.0  0.073
  H  H126  1  0.921700  0.591200  0.744900  1.0  0.1152
  H  H127  1  0.888700  0.642200  0.857600  1.0  0.1049
  H  H128  1  0.151900  0.681200  0.892000  1.0  0.0796
  C  C129  1  0.760900  0.955900  0.627400  1.0  0.1031
  C  C130  1  0.764700  0.957700  0.558100  1.0  -0.175
  C  C131  1  0.766900  0.883600  0.513900  1.0  -0.0162
  C  C132  1  0.766700  0.810000  0.540900  1.0  -0.0782
  C  C133  1  0.765500  0.813200  0.610900  1.0  0.1182
  C  C134  1  0.769300  0.729400  0.496300  1.0  0.1484
  C  C135  1  0.776800  0.527300  0.497100  1.0  0.1553
  C  C136  1  0.779300  0.300100  0.366700  1.0  0.1198
  C  C137  1  0.781400  0.299000  0.436000  1.0  -0.1671
  C  C138  1  0.782300  0.372600  0.479700  1.0  -0.0094
  C  C139  1  0.781700  0.446500  0.452100  1.0  -0.0807
  C  C140  1  0.783500  0.443000  0.382000  1.0  0.1146
  C  C141  1  0.939500  0.846300  0.730300  1.0  0.1171
  C  C142  1  0.029800  0.845000  0.744400  1.0  -0.1634
  C  C143  1  0.061500  0.876600  0.807700  1.0  -0.035
  C  C144  1  0.001000  0.911400  0.856700  1.0  -0.0907
  C  C145  1  0.910800  0.911900  0.839100  1.0  0.1359
  C  C146  1  0.030900  0.946600  0.926000  1.0  0.1556
  C  C147  1  0.547400  0.354500  0.225100  1.0  0.1249
  C  C148  1  0.456200  0.355200  0.239900  1.0  -0.1564
  C  C149  1  0.428000  0.383500  0.304400  1.0  0.0056
  C  C150  1  0.490600  0.415000  0.354400  1.0  -0.1104
  C  C151  1  0.581100  0.414000  0.334800  1.0  0.1422
  C  C152  1  0.466200  0.450100  0.425300  1.0  0.1838
  C  C153  1  0.549900  0.904900  0.796200  1.0  0.1105
  C  C154  1  0.459000  0.906500  0.789500  1.0  -0.1638
  C  C155  1  0.419000  0.876600  0.728700  1.0  -0.0476
  C  C156  1  0.473600  0.843200  0.674700  1.0  -0.0843
  C  C157  1  0.565500  0.843300  0.685200  1.0  0.1419
  C  C158  1  0.438600  0.809100  0.606600  1.0  0.1399
  C  C159  1  0.503600  0.703600  0.458100  1.0  0.1954
  C  C160  1  0.444300  0.605000  0.255800  1.0  0.1343
  C  C161  1  0.532000  0.609300  0.276400  1.0  -0.1478
  C  C162  1  0.551200  0.639800  0.342200  1.0  -0.0034
  C  C163  1  0.482700  0.667700  0.387600  1.0  -0.1045
  C  C164  1  0.395700  0.662100  0.362000  1.0  0.1378
  C  C165  1  0.260900  0.044100  0.872600  1.0  0.1032
  C  C166  1  0.264700  0.042300  0.941900  1.0  -0.1765
  C  C167  1  0.266900  0.116400  0.986100  1.0  -0.0165
  C  C168  1  0.266700  0.190000  0.959100  1.0  -0.0785
  C  C169  1  0.265500  0.186800  0.889100  1.0  0.1185
  C  C170  1  0.269300  0.270600  0.003700  1.0  0.1487
  C  C171  1  0.276800  0.472700  0.002900  1.0  0.1547
  C  C172  1  0.279300  0.699900  0.133300  1.0  0.1194
  C  C173  1  0.281400  0.701000  0.064000  1.0  -0.1667
  C  C174  1  0.282300  0.627400  0.020300  1.0  -0.0098
  C  C175  1  0.281700  0.553500  0.047900  1.0  -0.0806
  C  C176  1  0.283500  0.557000  0.118000  1.0  0.1135
  C  C177  1  0.439500  0.153700  0.769700  1.0  0.1177
  C  C178  1  0.529800  0.155000  0.755600  1.0  -0.1636
  C  C179  1  0.561500  0.123400  0.692300  1.0  -0.0348
  C  C180  1  0.501000  0.088600  0.643300  1.0  -0.0911
  C  C181  1  0.410800  0.088100  0.660900  1.0  0.1355
  C  C182  1  0.530900  0.053400  0.574000  1.0  0.1556
  C  C183  1  0.047400  0.645500  0.274900  1.0  0.1242
  C  C184  1  0.956200  0.644800  0.260100  1.0  -0.1573
  C  C185  1  0.928000  0.616500  0.195600  1.0  0.007
  C  C186  1  0.990600  0.585000  0.145600  1.0  -0.1108
  C  C187  1  0.081100  0.586000  0.165200  1.0  0.1424
  C  C188  1  0.966200  0.549900  0.074700  1.0  0.1836
  C  C189  1  0.049900  0.095100  0.703800  1.0  0.112
  C  C190  1  0.959000  0.093500  0.710500  1.0  -0.1606
  C  C191  1  0.919000  0.123400  0.771300  1.0  -0.0478
  C  C192  1  0.973600  0.156800  0.825300  1.0  -0.0831
  C  C193  1  0.065500  0.156700  0.814800  1.0  0.1421
  C  C194  1  0.938600  0.190900  0.893400  1.0  0.1404
  C  C195  1  0.003600  0.296400  0.041900  1.0  0.1951
  C  C196  1  0.944300  0.395000  0.244200  1.0  0.1345
  C  C197  1  0.032000  0.390700  0.223600  1.0  -0.1487
  C  C198  1  0.051200  0.360200  0.157800  1.0  -0.0031
  C  C199  1  0.982700  0.332300  0.112400  1.0  -0.1064
  C  C200  1  0.895700  0.337900  0.138000  1.0  0.1372
  C  C201  1  0.239100  0.044100  0.372600  1.0  0.1029
  C  C202  1  0.235300  0.042300  0.441900  1.0  -0.1766
  C  C203  1  0.233100  0.116400  0.486100  1.0  -0.0172
  C  C204  1  0.233300  0.190000  0.459100  1.0  -0.0778
  C  C205  1  0.234500  0.186800  0.389100  1.0  0.1179
  C  C206  1  0.230700  0.270600  0.503700  1.0  0.1502
  C  C207  1  0.223200  0.472700  0.502900  1.0  0.1548
  C  C208  1  0.220700  0.699900  0.633300  1.0  0.1196
  C  C209  1  0.218600  0.701000  0.564000  1.0  -0.1655
  C  C210  1  0.217700  0.627400  0.520300  1.0  -0.0093
  C  C211  1  0.218300  0.553500  0.547900  1.0  -0.0809
  C  C212  1  0.216500  0.557000  0.618000  1.0  0.1144
  C  C213  1  0.060500  0.153700  0.269700  1.0  0.1194
  C  C214  1  0.970200  0.155000  0.255600  1.0  -0.1667
  C  C215  1  0.938500  0.123400  0.192300  1.0  -0.0341
  C  C216  1  0.999000  0.088600  0.143300  1.0  -0.0919
  C  C217  1  0.089200  0.088100  0.160900  1.0  0.1355
  C  C218  1  0.969100  0.053400  0.074000  1.0  0.1541
  C  C219  1  0.452600  0.645500  0.774900  1.0  0.1235
  C  C220  1  0.543800  0.644800  0.760100  1.0  -0.1555
  C  C221  1  0.572000  0.616500  0.695600  1.0  0.0074
  C  C222  1  0.509400  0.585000  0.645600  1.0  -0.1114
  C  C223  1  0.418900  0.586000  0.665200  1.0  0.1426
  C  C224  1  0.533800  0.549900  0.574700  1.0  0.1838
  C  C225  1  0.450100  0.095100  0.203800  1.0  0.1121
  C  C226  1  0.541000  0.093500  0.210500  1.0  -0.1599
  C  C227  1  0.581000  0.123400  0.271300  1.0  -0.05
  C  C228  1  0.526400  0.156800  0.325300  1.0  -0.0836
  C  C229  1  0.434500  0.156700  0.314800  1.0  0.1419
  C  C230  1  0.561400  0.190900  0.393400  1.0  0.1408
  C  C231  1  0.496400  0.296400  0.541900  1.0  0.1947
  C  C232  1  0.555700  0.395000  0.744200  1.0  0.1354
  C  C233  1  0.468000  0.390700  0.723600  1.0  -0.1492
  C  C234  1  0.448800  0.360200  0.657800  1.0  -0.0043
  C  C235  1  0.517300  0.332300  0.612400  1.0  -0.1055
  C  C236  1  0.604300  0.337900  0.638000  1.0  0.1365
  C  C237  1  0.739100  0.955900  0.127400  1.0  0.1033
  C  C238  1  0.735300  0.957700  0.058100  1.0  -0.1745
  C  C239  1  0.733100  0.883600  0.013900  1.0  -0.0172
  C  C240  1  0.733300  0.810000  0.040900  1.0  -0.078
  C  C241  1  0.734500  0.813200  0.110900  1.0  0.118
  C  C242  1  0.730700  0.729400  0.996300  1.0  0.1497
  C  C243  1  0.723200  0.527300  0.997100  1.0  0.1558
  C  C244  1  0.720700  0.300100  0.866700  1.0  0.1195
  C  C245  1  0.718600  0.299000  0.936000  1.0  -0.1665
  C  C246  1  0.717700  0.372600  0.979700  1.0  -0.0087
  C  C247  1  0.718300  0.446500  0.952100  1.0  -0.0797
  C  C248  1  0.716500  0.443000  0.882000  1.0  0.1156
  C  C249  1  0.560500  0.846300  0.230300  1.0  0.1184
  C  C250  1  0.470200  0.845000  0.244400  1.0  -0.1657
  C  C251  1  0.438500  0.876600  0.307700  1.0  -0.0345
  C  C252  1  0.499000  0.911400  0.356700  1.0  -0.0914
  C  C253  1  0.589200  0.911900  0.339100  1.0  0.1357
  C  C254  1  0.469100  0.946600  0.426000  1.0  0.1536
  C  C255  1  0.952600  0.354500  0.725100  1.0  0.125
  C  C256  1  0.043800  0.355200  0.739900  1.0  -0.155
  C  C257  1  0.072000  0.383500  0.804400  1.0  0.0062
  C  C258  1  0.009400  0.415000  0.854400  1.0  -0.1111
  C  C259  1  0.918900  0.414000  0.834800  1.0  0.1426
  C  C260  1  0.033800  0.450100  0.925300  1.0  0.1844
  C  C261  1  0.950100  0.904900  0.296200  1.0  0.1094
  C  C262  1  0.041000  0.906500  0.289500  1.0  -0.1614
  C  C263  1  0.081000  0.876600  0.228700  1.0  -0.0496
  C  C264  1  0.026400  0.843200  0.174700  1.0  -0.0843
  C  C265  1  0.934500  0.843300  0.185200  1.0  0.1414
  C  C266  1  0.061400  0.809100  0.106600  1.0  0.1402
  C  C267  1  0.996400  0.703600  0.958100  1.0  0.1946
  C  C268  1  0.055700  0.605000  0.755800  1.0  0.1348
  C  C269  1  0.968000  0.609300  0.776400  1.0  -0.1481
  C  C270  1  0.948800  0.639800  0.842200  1.0  -0.0047
  C  C271  1  0.017300  0.667700  0.887600  1.0  -0.1039
  C  C272  1  0.104300  0.662100  0.862000  1.0  0.1372
  N  N273  1  0.761300  0.885000  0.654200  1.0  -0.2367
  N  N274  1  0.757400  0.662600  0.521400  1.0  -0.2242
  N  N275  1  0.762200  0.592600  0.471100  1.0  -0.2287
  N  N276  1  0.779800  0.370700  0.339100  1.0  -0.2461
  N  N277  1  0.880900  0.880800  0.777300  1.0  -0.2601
  N  N278  1  0.978800  0.986600  0.967900  1.0  -0.2545
  N  N279  1  0.607900  0.382900  0.271300  1.0  -0.2829
  N  N280  1  0.520000  0.486600  0.468200  1.0  -0.2532
  N  N281  1  0.603700  0.874000  0.744800  1.0  -0.2657
  N  N282  1  0.489000  0.767400  0.563800  1.0  -0.2291
  N  N283  1  0.448200  0.739800  0.499600  1.0  -0.286
  N  N284  1  0.376500  0.631300  0.297500  1.0  -0.2839
  N  N285  1  0.737600  0.747200  0.807900  1.0  0.7626
  N  N286  1  0.720500  0.504500  0.187100  1.0  0.7678
  N  N287  1  0.261300  0.115000  0.845800  1.0  -0.2361
  N  N288  1  0.257400  0.337400  0.978600  1.0  -0.2227
  N  N289  1  0.262200  0.407400  0.028900  1.0  -0.2296
  N  N290  1  0.279800  0.629300  0.160900  1.0  -0.2465
  N  N291  1  0.380900  0.119200  0.722700  1.0  -0.2597
  N  N292  1  0.478800  0.013400  0.532100  1.0  -0.2548
  N  N293  1  0.107900  0.617100  0.228700  1.0  -0.2849
  N  N294  1  0.020000  0.513400  0.031800  1.0  -0.2524
  N  N295  1  0.103700  0.126000  0.755200  1.0  -0.266
  N  N296  1  0.989000  0.232600  0.936200  1.0  -0.23
  N  N297  1  0.948200  0.260200  0.000400  1.0  -0.2847
  N  N298  1  0.876500  0.368700  0.202500  1.0  -0.2837
  N  N299  1  0.237600  0.252800  0.692100  1.0  0.7632
  N  N300  1  0.220500  0.495500  0.312900  1.0  0.7675
  N  N301  1  0.238700  0.115000  0.345800  1.0  -0.2354
  N  N302  1  0.242600  0.337400  0.478600  1.0  -0.2212
  N  N303  1  0.237800  0.407400  0.528900  1.0  -0.2299
  N  N304  1  0.220200  0.629300  0.660900  1.0  -0.2459
  N  N305  1  0.119100  0.119200  0.222700  1.0  -0.2576
  N  N306  1  0.021200  0.013400  0.032100  1.0  -0.253
  N  N307  1  0.392100  0.617100  0.728700  1.0  -0.2852
  N  N308  1  0.480000  0.513400  0.531800  1.0  -0.2523
  N  N309  1  0.396300  0.126000  0.255200  1.0  -0.267
  N  N310  1  0.511000  0.232600  0.436200  1.0  -0.2282
  N  N311  1  0.551800  0.260200  0.500400  1.0  -0.2846
  N  N312  1  0.623500  0.368700  0.702500  1.0  -0.2823
  N  N313  1  0.262400  0.252800  0.192100  1.0  0.7621
  N  N314  1  0.279500  0.495500  0.812900  1.0  0.768
  N  N315  1  0.738700  0.885000  0.154200  1.0  -0.2364
  N  N316  1  0.742600  0.662600  0.021400  1.0  -0.2233
  N  N317  1  0.737800  0.592600  0.971100  1.0  -0.2285
  N  N318  1  0.720200  0.370700  0.839100  1.0  -0.245
  N  N319  1  0.619100  0.880800  0.277300  1.0  -0.2582
  N  N320  1  0.521200  0.986600  0.467900  1.0  -0.2533
  N  N321  1  0.892100  0.382900  0.771300  1.0  -0.2834
  N  N322  1  0.980000  0.486600  0.968200  1.0  -0.2527
  N  N323  1  0.896300  0.874000  0.244800  1.0  -0.2667
  N  N324  1  0.011000  0.767400  0.063800  1.0  -0.2279
  N  N325  1  0.051800  0.739800  0.999600  1.0  -0.2858
  N  N326  1  0.123500  0.631300  0.797500  1.0  -0.2829
  N  N327  1  0.762400  0.747200  0.307900  1.0  0.764
  N  N328  1  0.779500  0.504500  0.687100  1.0  0.7681
  O  O329  1  0.727400  0.817900  0.845240  1.0  -0.5016
  O  O330  1  0.749200  0.749800  0.744120  1.0  -0.4122
  O  O331  1  0.737000  0.682400  0.831500  1.0  -0.4124
  O  O332  1  0.748400  0.504600  0.248000  1.0  -0.4103
  O  O333  1  0.706800  0.433700  0.152740  1.0  -0.4731
  O  O334  1  0.707500  0.569000  0.163200  1.0  -0.4386
  O  O335  1  0.227400  0.182100  0.654760  1.0  -0.4817
  O  O336  1  0.249200  0.250200  0.755880  1.0  -0.4113
  O  O337  1  0.237000  0.317600  0.668500  1.0  -0.4152
  O  O338  1  0.248400  0.495400  0.252000  1.0  -0.4113
  O  O339  1  0.206800  0.566300  0.347260  1.0  -0.4751
  O  O340  1  0.207500  0.431000  0.336800  1.0  -0.4376
  O  O341  1  0.272600  0.182100  0.154760  1.0  -0.4821
  O  O342  1  0.250800  0.250200  0.255880  1.0  -0.4113
  O  O343  1  0.263000  0.317600  0.168500  1.0  -0.4141
  O  O344  1  0.251600  0.495400  0.752000  1.0  -0.4116
  O  O345  1  0.293200  0.566300  0.847260  1.0  -0.4745
  O  O346  1  0.292500  0.431000  0.836800  1.0  -0.4373
  O  O347  1  0.772600  0.817900  0.345240  1.0  -0.5016
  O  O348  1  0.750800  0.749800  0.244120  1.0  -0.4124
  O  O349  1  0.763000  0.682400  0.331500  1.0  -0.4119
  O  O350  1  0.751600  0.504600  0.748000  1.0  -0.4106
  O  O351  1  0.793200  0.433700  0.652740  1.0  -0.4733
  O  O352  1  0.792500  0.569000  0.663200  1.0  -0.4378
