# generated using pymatgen
data_CoH10C12N2O3F
_symmetry_space_group_name_H-M   'P 1'
_cell_length_a   7.32400000
_cell_length_b   9.65030000
_cell_length_c   11.40900000
_cell_angle_alpha   97.09140000
_cell_angle_beta   90.00000000
_cell_angle_gamma   112.30100000
_symmetry_Int_Tables_number   1
_chemical_formula_structural   CoH10C12N2O3F
_chemical_formula_sum   'Co2 H20 C24 N4 O6 F2'
_cell_volume   739.38870737
_cell_formula_units_Z   2
loop_
 _symmetry_equiv_pos_site_id
 _symmetry_equiv_pos_as_xyz
  1  'x, y, z'
loop_
 _atom_site_type_symbol
 _atom_site_label
 _atom_site_symmetry_multiplicity
 _atom_site_fract_x
 _atom_site_fract_y
 _atom_site_fract_z
 _atom_site_occupancy
 _atom_site_charge
  Co  Co1  1  0.595240  0.498080  0.503100  1.0  0.9786
  Co  Co2  1  0.097160  0.501920  0.496900  1.0  0.9783
  H  H3  1  0.867000  0.027400  0.390300  1.0  0.4045
  H  H4  1  0.411400  0.285800  0.269800  1.0  0.0762
  H  H5  1  0.408200  0.280400  0.068100  1.0  0.1193
  H  H6  1  0.778900  0.716800  0.115900  1.0  0.1162
  H  H7  1  0.770400  0.709800  0.315500  1.0  0.0579
  H  H8  1  0.600700  0.703800  0.733200  1.0  0.0819
  H  H9  1  0.612400  0.715200  0.932900  1.0  0.1189
  H  H10  1  0.584900  0.286000  0.889200  1.0  0.1194
  H  H11  1  0.589100  0.294000  0.690000  1.0  0.0698
  H  H12  1  0.208700  0.004400  0.398200  1.0  0.1064
  H  H13  1  0.839600  0.972600  0.609700  1.0  0.4038
  H  H14  1  0.125600  0.714200  0.730200  1.0  0.0766
  H  H15  1  0.127800  0.719600  0.931900  1.0  0.1193
  H  H16  1  0.062100  0.283200  0.884100  1.0  0.1162
  H  H17  1  0.060600  0.290200  0.684500  1.0  0.0575
  H  H18  1  0.896900  0.296200  0.266800  1.0  0.0814
  H  H19  1  0.897200  0.284800  0.067100  1.0  0.1194
  H  H20  1  0.298900  0.714000  0.110800  1.0  0.1199
  H  H21  1  0.295100  0.706000  0.310000  1.0  0.0705
  H  H22  1  0.204300  0.995600  0.601800  1.0  0.1056
  C  C23  1  0.486900  0.372800  0.238000  1.0  0.1721
  C  C24  1  0.483100  0.369000  0.116600  1.0  -0.1819
  C  C25  1  0.593400  0.500200  0.066800  1.0  0.0763
  C  C26  1  0.702800  0.627800  0.144800  1.0  -0.1867
  C  C27  1  0.698400  0.622400  0.265000  1.0  0.1741
  C  C28  1  0.601100  0.620000  0.765700  1.0  0.1501
  C  C29  1  0.603900  0.627000  0.885700  1.0  -0.187
  C  C30  1  0.593700  0.500200  0.937300  1.0  0.0693
  C  C31  1  0.589500  0.372800  0.859600  1.0  -0.1932
  C  C32  1  0.592200  0.378800  0.739700  1.0  0.1608
  C  C33  1  0.199000  0.209200  0.467500  1.0  0.651
  C  C34  1  0.111200  0.035400  0.440700  1.0  0.0541
  C  C35  1  0.114100  0.627200  0.762000  1.0  0.1713
  C  C36  1  0.114100  0.631000  0.883400  1.0  -0.1829
  C  C37  1  0.093200  0.499800  0.933200  1.0  0.0767
  C  C38  1  0.075000  0.372200  0.855200  1.0  -0.1852
  C  C39  1  0.076000  0.377600  0.735000  1.0  0.1736
  C  C40  1  0.981100  0.380000  0.234300  1.0  0.1507
  C  C41  1  0.976900  0.373000  0.114300  1.0  -0.185
  C  C42  1  0.093500  0.499800  0.062700  1.0  0.0699
  C  C43  1  0.216700  0.627200  0.140400  1.0  -0.1928
  C  C44  1  0.213400  0.621200  0.260300  1.0  0.1614
  C  C45  1  0.989800  0.790800  0.532500  1.0  0.6511
  C  C46  1  0.075800  0.964600  0.559300  1.0  0.0538
  N  N47  1  0.598900  0.498800  0.690500  1.0  -0.3264
  N  N48  1  0.595200  0.497200  0.312300  1.0  -0.3536
  N  N49  1  0.100100  0.501200  0.309500  1.0  -0.3294
  N  N50  1  0.098000  0.502800  0.687700  1.0  -0.3546
  O  O51  1  0.385000  0.269600  0.489000  1.0  -0.6075
  O  O52  1  0.081100  0.274000  0.465300  1.0  -0.5775
  O  O53  1  0.936000  0.980000  0.368800  1.0  -0.552
  O  O54  1  0.115400  0.730400  0.511000  1.0  -0.6083
  O  O55  1  0.807100  0.726000  0.534700  1.0  -0.5782
  O  O56  1  0.956000  0.020000  0.631200  1.0  -0.5561
  F  F57  1  0.799790  0.406580  0.489400  1.0  -0.5875
  F  F58  1  0.393210  0.593420  0.510600  1.0  -0.5882
