# generated using pymatgen
data_CoH10C12N2O3F
_symmetry_space_group_name_H-M   'P 1'
_cell_length_a   7.31670000
_cell_length_b   9.62020000
_cell_length_c   11.39570000
_cell_angle_alpha   96.91430000
_cell_angle_beta   90.00000000
_cell_angle_gamma   112.35100000
_symmetry_Int_Tables_number   1
_chemical_formula_structural   CoH10C12N2O3F
_chemical_formula_sum   'Co2 H20 C24 N4 O6 F2'
_cell_volume   735.54838043
_cell_formula_units_Z   2
loop_
 _symmetry_equiv_pos_site_id
 _symmetry_equiv_pos_as_xyz
  1  'x, y, z'
loop_
 _atom_site_type_symbol
 _atom_site_label
 _atom_site_symmetry_multiplicity
 _atom_site_fract_x
 _atom_site_fract_y
 _atom_site_fract_z
 _atom_site_occupancy
 _atom_site_charge
  Co  Co1  1  0.941340  0.502300  0.996500  1.0  0.9909
  Co  Co2  1  0.439040  0.497700  0.003500  1.0  0.9912
  H  H3  1  0.934100  0.293800  0.768500  1.0  0.0857
  H  H4  1  0.928000  0.286400  0.564400  1.0  0.1269
  H  H5  1  0.950000  0.716600  0.608200  1.0  0.1237
  H  H6  1  0.944100  0.709200  0.811300  1.0  0.0841
  H  H7  1  0.126300  0.718400  0.229400  1.0  0.0798
  H  H8  1  0.128500  0.723800  0.432900  1.0  0.1244
  H  H9  1  0.755000  0.282400  0.385800  1.0  0.1253
  H  H10  1  0.766000  0.289200  0.183200  1.0  0.0711
  H  H11  1  0.326200  0.997000  0.102000  1.0  0.0981
  H  H12  1  0.578000  0.978000  0.193700  1.0  0.3789
  H  H13  1  0.640300  0.706200  0.231500  1.0  0.0863
  H  H14  1  0.641600  0.713600  0.435600  1.0  0.1253
  H  H15  1  0.233400  0.283400  0.391800  1.0  0.1231
  H  H16  1  0.234900  0.290800  0.188700  1.0  0.0832
  H  H17  1  0.407900  0.281600  0.770600  1.0  0.0804
  H  H18  1  0.404700  0.276200  0.567100  1.0  0.1249
  H  H19  1  0.472600  0.717600  0.614200  1.0  0.1261
  H  H20  1  0.476800  0.710800  0.816800  1.0  0.0719
  H  H21  1  0.329200  0.003000  0.898000  1.0  0.0991
  H  H22  1  0.600000  0.022000  0.806300  1.0  0.3789
  C  C23  1  0.936030  0.380260  0.735400  1.0  0.1628
  C  C24  1  0.934760  0.375520  0.613400  1.0  -0.2066
  C  C25  1  0.943440  0.502880  0.563400  1.0  0.0589
  C  C26  1  0.946220  0.628240  0.639100  1.0  -0.2067
  C  C27  1  0.943440  0.623080  0.760500  1.0  0.1597
  C  C28  1  0.049780  0.628760  0.261800  1.0  0.1743
  C  C29  1  0.052400  0.632800  0.383600  1.0  -0.2052
  C  C30  1  0.943210  0.503220  0.433600  1.0  0.0815
  C  C31  1  0.833340  0.373480  0.355900  1.0  -0.2056
  C  C32  1  0.839620  0.378840  0.234800  1.0  0.1752
  C  C33  1  0.338040  0.790080  0.032000  1.0  0.6493
  C  C34  1  0.425310  0.965220  0.058300  1.0  0.0633
  C  C35  1  0.555770  0.619740  0.264600  1.0  0.1628
  C  C36  1  0.559240  0.624480  0.386600  1.0  -0.2065
  C  C37  1  0.440560  0.497120  0.436600  1.0  0.0591
  C  C38  1  0.317980  0.371760  0.360900  1.0  -0.2071
  C  C39  1  0.320360  0.376920  0.239500  1.0  0.1608
  C  C40  1  0.421020  0.371240  0.738200  1.0  0.1738
  C  C41  1  0.419600  0.367200  0.616400  1.0  -0.2042
  C  C42  1  0.439990  0.496780  0.566400  1.0  0.0817
  C  C43  1  0.459860  0.626520  0.644100  1.0  -0.2051
  C  C44  1  0.460780  0.621160  0.765200  1.0  0.1756
  C  C45  1  0.547960  0.209920  0.968000  1.0  0.6503
  C  C46  1  0.460090  0.034780  0.941700  1.0  0.0648
  N  N47  1  0.939710  0.501820  0.809160  1.0  -0.3327
  N  N48  1  0.944500  0.504400  0.187080  1.0  -0.352
  N  N49  1  0.437890  0.498180  0.190840  1.0  -0.3313
  N  N50  1  0.440100  0.495600  0.812920  1.0  -0.3528
  O  O51  1  0.152160  0.730120  0.009700  1.0  -0.6004
  O  O52  1  0.455120  0.725240  0.035000  1.0  -0.5884
  O  O53  1  0.601070  0.017540  0.130700  1.0  -0.543
  O  O54  1  0.422040  0.269880  0.990300  1.0  -0.6002
  O  O55  1  0.729880  0.274760  0.965000  1.0  -0.5893
  O  O56  1  0.583530  0.982460  0.869300  1.0  -0.5409
  F  F57  1  0.141900  0.405400  0.990200  1.0  -0.5781
  F  F58  1  0.736500  0.594600  0.009800  1.0  -0.5775
