# generated using pymatgen
data_UCuH2(C5O4)2
_symmetry_space_group_name_H-M   'P 1'
_cell_length_a   7.10700000
_cell_length_b   7.22340000
_cell_length_c   9.20500000
_cell_angle_alpha   95.37700000
_cell_angle_beta   91.25600000
_cell_angle_gamma   114.89300000
_symmetry_Int_Tables_number   1
_chemical_formula_structural   UCuH2(C5O4)2
_chemical_formula_sum   'U1 Cu1 H2 C10 O8'
_cell_volume   425.77938671
_cell_formula_units_Z   1
loop_
 _symmetry_equiv_pos_site_id
 _symmetry_equiv_pos_as_xyz
  1  'x, y, z'
loop_
 _atom_site_type_symbol
 _atom_site_label
 _atom_site_symmetry_multiplicity
 _atom_site_fract_x
 _atom_site_fract_y
 _atom_site_fract_z
 _atom_site_occupancy
 _atom_site_charge
  U  U1  1  0.500000  0.500000  0.500000  1.0  2.0042
  Cu  Cu2  1  0.000000  0.000000  0.500000  1.0  0.333
  H  H3  1  0.288600  0.431400  0.973200  1.0  0.1171
  H  H4  1  0.711400  0.568600  0.026800  1.0  0.1194
  C  C5  1  0.041400  0.432800  0.862390  1.0  -0.0514
  C  C6  1  0.093800  0.355100  0.718160  1.0  0.7229
  C  C7  1  0.867800  0.475300  0.877640  1.0  -0.1036
  C  C8  1  0.172500  0.458500  0.983970  1.0  -0.0178
  C  C9  1  0.729900  0.460900  0.748620  1.0  0.6402
  C  C10  1  0.958600  0.567200  0.137610  1.0  -0.0513
  C  C11  1  0.906200  0.644900  0.281840  1.0  0.7261
  C  C12  1  0.132200  0.524700  0.122360  1.0  -0.1045
  C  C13  1  0.827500  0.541500  0.016030  1.0  -0.0192
  C  C14  1  0.270100  0.539100  0.251380  1.0  0.6399
  O  O15  1  0.222100  0.485180  0.646320  1.0  -0.6691
  O  O16  1  0.760300  0.400700  0.622120  1.0  -0.6036
  O  O17  1  0.010200  0.163130  0.686250  1.0  -0.5417
  O  O18  1  0.584300  0.517300  0.765750  1.0  -0.6582
  O  O19  1  0.777900  0.514820  0.353680  1.0  -0.67
  O  O20  1  0.239700  0.599300  0.377880  1.0  -0.6059
  O  O21  1  0.989800  0.836870  0.313750  1.0  -0.5424
  O  O22  1  0.415700  0.482700  0.234250  1.0  -0.664
