# generated using pymatgen
data_UCuH2(C5O4)2
_symmetry_space_group_name_H-M   'P 1'
_cell_length_a   7.11620000
_cell_length_b   7.23530000
_cell_length_c   9.21390000
_cell_angle_alpha   95.36100000
_cell_angle_beta   91.21900000
_cell_angle_gamma   114.92900000
_symmetry_Int_Tables_number   1
_chemical_formula_structural   UCuH2(C5O4)2
_chemical_formula_sum   'U1 Cu1 H2 C10 O8'
_cell_volume   427.35455854
_cell_formula_units_Z   1
loop_
 _symmetry_equiv_pos_site_id
 _symmetry_equiv_pos_as_xyz
  1  'x, y, z'
loop_
 _atom_site_type_symbol
 _atom_site_label
 _atom_site_symmetry_multiplicity
 _atom_site_fract_x
 _atom_site_fract_y
 _atom_site_fract_z
 _atom_site_occupancy
 _atom_site_charge
  U  U1  1  0.500000  0.000000  0.500000  1.0  2.0011
  Cu  Cu2  1  0.000000  0.500000  0.500000  1.0  0.3692
  H  H3  1  0.288500  0.931600  0.973900  1.0  0.1238
  H  H4  1  0.711500  0.068400  0.026100  1.0  0.125
  C  C5  1  0.271100  0.040100  0.250800  1.0  0.6522
  C  C6  1  0.132300  0.024100  0.122200  1.0  -0.1197
  C  C7  1  0.172400  0.958500  0.984500  1.0  -0.0137
  C  C8  1  0.958400  0.067600  0.137500  1.0  -0.0561
  C  C9  1  0.906300  0.144900  0.282500  1.0  0.7146
  C  C10  1  0.728900  0.959900  0.749200  1.0  0.6529
  C  C11  1  0.867700  0.975900  0.877800  1.0  -0.1186
  C  C12  1  0.827600  0.041500  0.015500  1.0  -0.0153
  C  C13  1  0.041600  0.932400  0.862500  1.0  -0.0567
  C  C14  1  0.093700  0.855100  0.717500  1.0  0.7119
  O  O15  1  0.777700  0.015300  0.354100  1.0  -0.6617
  O  O16  1  0.239600  0.099500  0.378000  1.0  -0.6267
  O  O17  1  0.415700  0.983200  0.234300  1.0  -0.6589
  O  O18  1  0.989500  0.336700  0.313700  1.0  -0.5369
  O  O19  1  0.222300  0.984700  0.645900  1.0  -0.6607
  O  O20  1  0.760400  0.900500  0.622000  1.0  -0.6248
  O  O21  1  0.584300  0.016800  0.765700  1.0  -0.6637
  O  O22  1  0.010500  0.663300  0.686300  1.0  -0.5373
