# generated using pymatgen
data_Cu3H13C8(N3O)2
_symmetry_space_group_name_H-M   'P 1'
_cell_length_a   11.57330000
_cell_length_b   14.60660000
_cell_length_c   14.60660000
_cell_angle_alpha   66.71110000
_cell_angle_beta   74.68580000
_cell_angle_gamma   105.31400000
_symmetry_Int_Tables_number   1
_chemical_formula_structural   Cu3H13C8(N3O)2
_chemical_formula_sum   'Cu9 H39 C24 N18 O6'
_cell_volume   1989.22580722
_cell_formula_units_Z   3
loop_
 _symmetry_equiv_pos_site_id
 _symmetry_equiv_pos_as_xyz
  1  'x, y, z'
loop_
 _atom_site_type_symbol
 _atom_site_label
 _atom_site_symmetry_multiplicity
 _atom_site_fract_x
 _atom_site_fract_y
 _atom_site_fract_z
 _atom_site_occupancy
 _atom_site_charge
  Cu  Cu1  1  0.084420  0.881860  0.516680  1.0  0.7174
  Cu  Cu2  1  0.601100  0.516680  0.601460  1.0  0.7151
  Cu  Cu3  1  0.202560  0.601460  0.881860  1.0  0.7208
  Cu  Cu4  1  0.601100  0.398540  0.483320  1.0  0.7215
  Cu  Cu5  1  0.202560  0.118140  0.398540  1.0  0.7179
  Cu  Cu6  1  0.084420  0.483320  0.118140  1.0  0.7169
  Cu  Cu7  1  0.915860  0.000000  0.404690  1.0  0.2636
  Cu  Cu8  1  0.320550  0.404690  0.595310  1.0  0.264
  Cu  Cu9  1  0.915860  0.595310  0.000000  1.0  0.2725
  H  H10  1  0.661500  0.859400  0.418800  1.0  0.1352
  H  H11  1  0.551100  0.748800  0.527200  1.0  0.1415
  H  H12  1  0.623800  0.745200  0.419800  1.0  0.1441
  H  H13  1  0.826500  0.548500  0.707900  1.0  0.1354
  H  H14  1  0.977100  0.629300  0.624900  1.0  0.134
  H  H15  1  0.889800  0.549100  0.596000  1.0  0.1524
  H  H16  1  0.080300  0.418800  0.721800  1.0  0.1342
  H  H17  1  0.078300  0.527200  0.724000  1.0  0.1396
  H  H18  1  0.043600  0.419800  0.835000  1.0  0.1438
  H  H19  1  0.534400  0.707900  0.743600  1.0  0.1358
  H  H20  1  0.602000  0.624900  0.745800  1.0  0.134
  H  H21  1  0.485800  0.596000  0.854900  1.0  0.1554
  H  H22  1  0.802100  0.721800  0.859400  1.0  0.1338
  H  H23  1  0.802300  0.724000  0.748800  1.0  0.1407
  H  H24  1  0.878600  0.835000  0.745200  1.0  0.1458
  H  H25  1  0.278000  0.743600  0.548500  1.0  0.1359
  H  H26  1  0.347800  0.745800  0.629300  1.0  0.1319
  H  H27  1  0.340700  0.854900  0.549100  1.0  0.1549
  H  H28  1  0.080300  0.278200  0.581200  1.0  0.1341
  H  H29  1  0.078300  0.276000  0.472800  1.0  0.1409
  H  H30  1  0.043600  0.165000  0.580200  1.0  0.1468
  H  H31  1  0.534400  0.256400  0.292100  1.0  0.1346
  H  H32  1  0.602000  0.254200  0.375100  1.0  0.132
  H  H33  1  0.485800  0.145100  0.404000  1.0  0.1577
  H  H34  1  0.802100  0.140600  0.278200  1.0  0.1309
  H  H35  1  0.802300  0.251200  0.276000  1.0  0.1405
  H  H36  1  0.878600  0.254800  0.165000  1.0  0.1448
  H  H37  1  0.278000  0.451500  0.256400  1.0  0.1349
  H  H38  1  0.347800  0.370700  0.254200  1.0  0.1343
  H  H39  1  0.340700  0.450900  0.145100  1.0  0.1531
  H  H40  1  0.661500  0.581200  0.140600  1.0  0.133
  H  H41  1  0.551100  0.472800  0.251200  1.0  0.139
  H  H42  1  0.623800  0.580200  0.254800  1.0  0.1453
  H  H43  1  0.826500  0.292100  0.451500  1.0  0.1375
  H  H44  1  0.977100  0.375100  0.370700  1.0  0.133
  H  H45  1  0.889800  0.404000  0.450900  1.0  0.1567
  H  H46  1  0.132900  0.000000  0.329900  1.0  0.4201
  H  H47  1  0.462800  0.329900  0.670100  1.0  0.4184
  H  H48  1  0.132900  0.670100  0.000000  1.0  0.4197
  C  C49  1  0.634700  0.780400  0.463700  1.0  -0.4315
  C  C50  1  0.738100  0.761900  0.502200  1.0  0.421
  C  C51  1  0.846600  0.681300  0.573400  1.0  0.4468
  C  C52  1  0.888700  0.594600  0.630400  1.0  -0.4508
  C  C53  1  0.098400  0.463700  0.755900  1.0  -0.4278
  C  C54  1  0.240300  0.502200  0.735900  1.0  0.4228
  C  C55  1  0.420000  0.573400  0.745300  1.0  0.4465
  C  C56  1  0.519100  0.630400  0.775000  1.0  -0.4485
  C  C57  1  0.854300  0.755900  0.780400  1.0  -0.4278
  C  C58  1  0.976200  0.735900  0.761900  1.0  0.4191
  C  C59  1  0.165300  0.745300  0.681300  1.0  0.4477
  C  C60  1  0.294100  0.775000  0.594600  1.0  -0.4478
  C  C61  1  0.098400  0.244100  0.536300  1.0  -0.4278
  C  C62  1  0.240300  0.264100  0.497800  1.0  0.4236
  C  C63  1  0.420000  0.254700  0.426600  1.0  0.447
  C  C64  1  0.519100  0.225000  0.369600  1.0  -0.4497
  C  C65  1  0.854300  0.219600  0.244100  1.0  -0.4317
  C  C66  1  0.976200  0.238100  0.264100  1.0  0.4128
  C  C67  1  0.165300  0.318700  0.254700  1.0  0.4471
  C  C68  1  0.294100  0.405400  0.225000  1.0  -0.449
  C  C69  1  0.634700  0.536300  0.219600  1.0  -0.4288
  C  C70  1  0.738100  0.497800  0.238100  1.0  0.4188
  C  C71  1  0.846600  0.426600  0.318700  1.0  0.446
  C  C72  1  0.888700  0.369600  0.405400  1.0  -0.4488
  N  N73  1  0.843900  0.837400  0.484400  1.0  -0.2336
  N  N74  1  0.915100  0.788100  0.530800  1.0  -0.3449
  N  N75  1  0.733200  0.660400  0.558200  1.0  -0.5042
  N  N76  1  0.328300  0.484400  0.678200  1.0  -0.2345
  N  N77  1  0.445900  0.530800  0.681100  1.0  -0.3457
  N  N78  1  0.291400  0.558200  0.781400  1.0  -0.5042
  N  N79  1  0.006500  0.678200  0.837400  1.0  -0.2384
  N  N80  1  0.127000  0.681100  0.788100  1.0  -0.3445
  N  N81  1  0.072800  0.781400  0.660400  1.0  -0.5065
  N  N82  1  0.328300  0.321800  0.515600  1.0  -0.2389
  N  N83  1  0.445900  0.318900  0.469200  1.0  -0.3441
  N  N84  1  0.291400  0.218600  0.441800  1.0  -0.5026
  N  N85  1  0.006500  0.162600  0.321800  1.0  -0.2343
  N  N86  1  0.127000  0.211900  0.318900  1.0  -0.3446
  N  N87  1  0.072800  0.339600  0.218600  1.0  -0.5041
  N  N88  1  0.843900  0.515600  0.162600  1.0  -0.2347
  N  N89  1  0.915100  0.469200  0.211900  1.0  -0.346
  N  N90  1  0.733200  0.441800  0.339600  1.0  -0.5046
  O  O91  1  0.089250  0.000000  0.386450  1.0  -0.7856
  O  O92  1  0.241100  0.000000  0.482600  1.0  -0.8385
  O  O93  1  0.475700  0.386450  0.613550  1.0  -0.7731
  O  O94  1  0.723700  0.482600  0.517400  1.0  -0.8358
  O  O95  1  0.089250  0.613550  0.000000  1.0  -0.791
  O  O96  1  0.241100  0.517400  0.000000  1.0  -0.82
