# generated using pymatgen
data_CdH8C16BrN3O4
_symmetry_space_group_name_H-M   'P 1'
_cell_length_a   16.55980000
_cell_length_b   17.62110000
_cell_length_c   17.62110000
_cell_angle_alpha   77.24440000
_cell_angle_beta   61.97320000
_cell_angle_gamma   61.97310000
_symmetry_Int_Tables_number   1
_chemical_formula_structural   CdH8C16BrN3O4
_chemical_formula_sum   'Cd8 H64 C128 Br8 N24 O32'
_cell_volume   4006.58558299
_cell_formula_units_Z   8
loop_
 _symmetry_equiv_pos_site_id
 _symmetry_equiv_pos_as_xyz
  1  'x, y, z'
loop_
 _atom_site_type_symbol
 _atom_site_label
 _atom_site_symmetry_multiplicity
 _atom_site_fract_x
 _atom_site_fract_y
 _atom_site_fract_z
 _atom_site_occupancy
 _atom_site_charge
  Cd  Cd1  1  0.032230  0.908180  0.431300  1.0  0.9636
  Cd  Cd2  1  0.871710  0.591820  0.068700  1.0  0.9637
  Cd  Cd3  1  0.463520  0.568710  0.408180  1.0  0.963
  Cd  Cd4  1  0.940420  0.931290  0.091820  1.0  0.9635
  Cd  Cd5  1  0.967770  0.091820  0.568700  1.0  0.9635
  Cd  Cd6  1  0.128290  0.408180  0.931300  1.0  0.9634
  Cd  Cd7  1  0.536480  0.431290  0.591820  1.0  0.9636
  Cd  Cd8  1  0.059580  0.068710  0.908180  1.0  0.9628
  H  H9  1  0.254300  0.567400  0.415800  1.0  0.1041
  H  H10  1  0.231200  0.499700  0.332900  1.0  0.1174
  H  H11  1  0.193400  0.704800  0.179000  1.0  0.1197
  H  H12  1  0.212600  0.773800  0.262800  1.0  0.1037
  H  H13  1  0.043700  0.721500  0.511900  1.0  0.0715
  H  H14  1  0.989200  0.659700  0.643100  1.0  0.1294
  H  H15  1  0.760800  0.888500  0.733100  1.0  0.1202
  H  H16  1  0.823000  0.944600  0.598400  1.0  0.0691
  H  H17  1  0.737500  0.932600  0.084200  1.0  0.1021
  H  H18  1  0.563800  0.000300  0.167100  1.0  0.1184
  H  H19  1  0.577200  0.795200  0.321000  1.0  0.119
  H  H20  1  0.749200  0.726200  0.237200  1.0  0.1031
  H  H21  1  0.777100  0.778500  0.988100  1.0  0.0713
  H  H22  1  0.792000  0.840300  0.856900  1.0  0.1279
  H  H23  1  0.882400  0.611500  0.766900  1.0  0.1212
  H  H24  1  0.866000  0.555400  0.901600  1.0  0.0686
  H  H25  1  0.670100  0.584200  0.067400  1.0  0.1024
  H  H26  1  0.564100  0.667100  0.999700  1.0  0.1171
  H  H27  1  0.372400  0.821000  0.204800  1.0  0.1193
  H  H28  1  0.475400  0.737200  0.273800  1.0  0.1031
  H  H29  1  0.555600  0.488100  0.221500  1.0  0.0717
  H  H30  1  0.632300  0.356900  0.159700  1.0  0.1301
  H  H31  1  0.493900  0.266900  0.388500  1.0  0.1201
  H  H32  1  0.421400  0.401600  0.444600  1.0  0.0687
  H  H33  1  0.821700  0.915800  0.432600  1.0  0.1028
  H  H34  1  0.730900  0.832900  0.500300  1.0  0.1175
  H  H35  1  0.898200  0.679000  0.295200  1.0  0.118
  H  H36  1  0.986400  0.762800  0.226200  1.0  0.1034
  H  H37  1  0.765200  0.011900  0.278500  1.0  0.0721
  H  H38  1  0.648900  0.143100  0.340300  1.0  0.1303
  H  H39  1  0.649300  0.233100  0.111500  1.0  0.1213
  H  H40  1  0.767600  0.098400  0.055400  1.0  0.0693
  H  H41  1  0.745700  0.432600  0.584200  1.0  0.1033
  H  H42  1  0.768800  0.500300  0.667100  1.0  0.1179
  H  H43  1  0.806600  0.295200  0.821000  1.0  0.1193
  H  H44  1  0.787400  0.226200  0.737200  1.0  0.1036
  H  H45  1  0.956300  0.278500  0.488100  1.0  0.0716
  H  H46  1  0.010800  0.340300  0.356900  1.0  0.1286
  H  H47  1  0.239200  0.111500  0.266900  1.0  0.1199
  H  H48  1  0.177000  0.055400  0.401600  1.0  0.069
  H  H49  1  0.262500  0.067400  0.915800  1.0  0.1028
  H  H50  1  0.436200  0.999700  0.832900  1.0  0.1186
  H  H51  1  0.422800  0.204800  0.679000  1.0  0.1189
  H  H52  1  0.250800  0.273800  0.762800  1.0  0.1034
  H  H53  1  0.222900  0.221500  0.011900  1.0  0.0726
  H  H54  1  0.208000  0.159700  0.143100  1.0  0.1293
  H  H55  1  0.117600  0.388500  0.233100  1.0  0.1216
  H  H56  1  0.134000  0.444600  0.098400  1.0  0.0686
  H  H57  1  0.329900  0.415800  0.932600  1.0  0.1027
  H  H58  1  0.435900  0.332900  0.000300  1.0  0.1173
  H  H59  1  0.627600  0.179000  0.795200  1.0  0.1189
  H  H60  1  0.524600  0.262800  0.726200  1.0  0.1032
  H  H61  1  0.444400  0.511900  0.778500  1.0  0.0719
  H  H62  1  0.367700  0.643100  0.840300  1.0  0.1305
  H  H63  1  0.506100  0.733100  0.611500  1.0  0.1205
  H  H64  1  0.578600  0.598400  0.555400  1.0  0.0683
  H  H65  1  0.178300  0.084200  0.567400  1.0  0.102
  H  H66  1  0.269100  0.167100  0.499700  1.0  0.1176
  H  H67  1  0.101800  0.321000  0.704800  1.0  0.119
  H  H68  1  0.013600  0.237200  0.773800  1.0  0.1034
  H  H69  1  0.234800  0.988100  0.721500  1.0  0.0721
  H  H70  1  0.351100  0.856900  0.659700  1.0  0.1293
  H  H71  1  0.350700  0.766900  0.888500  1.0  0.1213
  H  H72  1  0.232400  0.901600  0.944600  1.0  0.0691
  C  C73  1  0.169310  0.909620  0.510560  1.0  0.6025
  C  C74  1  0.222590  0.825870  0.468350  1.0  0.0191
  C  C75  1  0.312870  0.756800  0.461260  1.0  0.0187
  C  C76  1  0.390920  0.746460  0.485700  1.0  0.5756
  C  C77  1  0.247760  0.723260  0.399820  1.0  0.4022
  C  C78  1  0.235250  0.677340  0.347760  1.0  -0.0802
  C  C79  1  0.241300  0.595500  0.368700  1.0  -0.0441
  C  C80  1  0.227800  0.554900  0.319100  1.0  -0.1279
  C  C81  1  0.209500  0.597000  0.250000  1.0  0.0907
  C  C82  1  0.204600  0.677800  0.227000  1.0  -0.1208
  C  C83  1  0.216800  0.718400  0.276800  1.0  -0.0528
  C  C84  1  0.987300  0.756100  0.557500  1.0  0.1708
  C  C85  1  0.955100  0.718480  0.636320  1.0  -0.1768
  C  C86  1  0.871490  0.768260  0.706160  1.0  0.1054
  C  C87  1  0.820280  0.853470  0.689770  1.0  -0.1974
  C  C88  1  0.858080  0.886760  0.607880  1.0  0.1906
  C  C89  1  0.089490  0.590380  0.989440  1.0  0.6033
  C  C90  1  0.016810  0.674130  0.031650  1.0  0.0167
  C  C91  1  0.030930  0.743200  0.038740  1.0  0.0186
  C  C92  1  0.123080  0.753540  0.014300  1.0  0.5778
  C  C93  1  0.870840  0.776740  0.100180  1.0  0.4033
  C  C94  1  0.760350  0.822660  0.152240  1.0  -0.0807
  C  C95  1  0.705500  0.904500  0.131300  1.0  -0.0429
  C  C96  1  0.601800  0.945100  0.180900  1.0  -0.1314
  C  C97  1  0.556500  0.903000  0.250000  1.0  0.097
  C  C98  1  0.609400  0.822200  0.273000  1.0  -0.1214
  C  C99  1  0.712000  0.781600  0.223200  1.0  -0.0529
  C  C100  1  0.800900  0.743900  0.942500  1.0  0.1719
  C  C101  1  0.809900  0.781520  0.863680  1.0  -0.1785
  C  C102  1  0.845910  0.731740  0.793840  1.0  0.1053
  C  C103  1  0.863520  0.646530  0.810230  1.0  -0.1943
  C  C104  1  0.852720  0.613240  0.892120  1.0  0.1893
  C  C105  1  0.679870  0.489440  0.409620  1.0  0.6025
  C  C106  1  0.690940  0.531650  0.325870  1.0  0.0175
  C  C107  1  0.774130  0.538740  0.256800  1.0  0.019
  C  C108  1  0.876620  0.514300  0.246460  1.0  0.5751
  C  C109  1  0.647580  0.600180  0.223260  1.0  0.4041
  C  C110  1  0.583010  0.652240  0.177340  1.0  -0.0815
  C  C111  1  0.610000  0.631300  0.095500  1.0  -0.044
  C  C112  1  0.546900  0.680900  0.054900  1.0  -0.1238
  C  C113  1  0.459500  0.750000  0.097000  1.0  0.0985
  C  C114  1  0.431600  0.773000  0.177800  1.0  -0.1247
  C  C115  1  0.493600  0.723200  0.218400  1.0  -0.0522
  C  C116  1  0.544800  0.442500  0.256100  1.0  0.1715
  C  C117  1  0.591420  0.363680  0.218480  1.0  -0.1771
  C  C118  1  0.577650  0.293840  0.268260  1.0  0.1057
  C  C119  1  0.510050  0.310230  0.353470  1.0  -0.1964
  C  C120  1  0.465960  0.392120  0.386760  1.0  0.1895
  C  C121  1  0.078930  0.010560  0.090380  1.0  0.6001
  C  C122  1  0.048460  0.968350  0.174130  1.0  0.0177
  C  C123  1  0.069670  0.961260  0.243200  1.0  0.0173
  C  C124  1  0.137380  0.985700  0.253540  1.0  0.5778
  C  C125  1  0.971020  0.899820  0.276740  1.0  0.4037
  C  C126  1  0.912590  0.847760  0.322660  1.0  -0.0806
  C  C127  1  0.836800  0.868700  0.404500  1.0  -0.0409
  C  C128  1  0.782700  0.819100  0.445100  1.0  -0.128
  C  C129  1  0.806500  0.750000  0.403000  1.0  0.0996
  C  C130  1  0.882400  0.727000  0.322200  1.0  -0.1221
  C  C131  1  0.935200  0.776800  0.281600  1.0  -0.0526
  C  C132  1  0.743400  0.057500  0.243900  1.0  0.1699
  C  C133  1  0.673580  0.136320  0.281520  1.0  -0.1796
  C  C134  1  0.639750  0.206160  0.231740  1.0  0.1055
  C  C135  1  0.673750  0.189770  0.146530  1.0  -0.1944
  C  C136  1  0.744840  0.107880  0.113240  1.0  0.1872
  C  C137  1  0.830690  0.090380  0.489440  1.0  0.6034
  C  C138  1  0.777410  0.174130  0.531650  1.0  0.018
  C  C139  1  0.687130  0.243200  0.538740  1.0  0.0196
  C  C140  1  0.609080  0.253540  0.514300  1.0  0.5742
  C  C141  1  0.752240  0.276740  0.600180  1.0  0.4033
  C  C142  1  0.764750  0.322660  0.652240  1.0  -0.08
  C  C143  1  0.758700  0.404500  0.631300  1.0  -0.0439
  C  C144  1  0.772200  0.445100  0.680900  1.0  -0.1295
  C  C145  1  0.790500  0.403000  0.750000  1.0  0.1014
  C  C146  1  0.795400  0.322200  0.773000  1.0  -0.121
  C  C147  1  0.783200  0.281600  0.723200  1.0  -0.0539
  C  C148  1  0.012700  0.243900  0.442500  1.0  0.1715
  C  C149  1  0.044900  0.281520  0.363680  1.0  -0.1769
  C  C150  1  0.128510  0.231740  0.293840  1.0  0.1062
  C  C151  1  0.179720  0.146530  0.310230  1.0  -0.1969
  C  C152  1  0.141920  0.113240  0.392120  1.0  0.1912
  C  C153  1  0.910510  0.409620  0.010560  1.0  0.6022
  C  C154  1  0.983190  0.325870  0.968350  1.0  0.0169
  C  C155  1  0.969070  0.256800  0.961260  1.0  0.019
  C  C156  1  0.876920  0.246460  0.985700  1.0  0.5738
  C  C157  1  0.129160  0.223260  0.899820  1.0  0.4017
  C  C158  1  0.239650  0.177340  0.847760  1.0  -0.08
  C  C159  1  0.294500  0.095500  0.868700  1.0  -0.0444
  C  C160  1  0.398200  0.054900  0.819100  1.0  -0.129
  C  C161  1  0.443500  0.097000  0.750000  1.0  0.0981
  C  C162  1  0.390600  0.177800  0.727000  1.0  -0.1225
  C  C163  1  0.288000  0.218400  0.776800  1.0  -0.0524
  C  C164  1  0.199100  0.256100  0.057500  1.0  0.1724
  C  C165  1  0.190100  0.218480  0.136320  1.0  -0.1796
  C  C166  1  0.154090  0.268260  0.206160  1.0  0.106
  C  C167  1  0.136480  0.353470  0.189770  1.0  -0.1948
  C  C168  1  0.147280  0.386760  0.107880  1.0  0.1883
  C  C169  1  0.320130  0.510560  0.590380  1.0  0.6023
  C  C170  1  0.309060  0.468350  0.674130  1.0  0.0176
  C  C171  1  0.225870  0.461260  0.743200  1.0  0.0181
  C  C172  1  0.123380  0.485700  0.753540  1.0  0.5722
  C  C173  1  0.352420  0.399820  0.776740  1.0  0.403
  C  C174  1  0.416990  0.347760  0.822660  1.0  -0.08
  C  C175  1  0.390000  0.368700  0.904500  1.0  -0.0448
  C  C176  1  0.453100  0.319100  0.945100  1.0  -0.133
  C  C177  1  0.540500  0.250000  0.903000  1.0  0.1088
  C  C178  1  0.568400  0.227000  0.822200  1.0  -0.1239
  C  C179  1  0.506400  0.276800  0.781600  1.0  -0.0514
  C  C180  1  0.455200  0.557500  0.743900  1.0  0.1714
  C  C181  1  0.408580  0.636320  0.781520  1.0  -0.1768
  C  C182  1  0.422350  0.706160  0.731740  1.0  0.1061
  C  C183  1  0.489950  0.689770  0.646530  1.0  -0.1972
  C  C184  1  0.534040  0.607880  0.613240  1.0  0.1886
  C  C185  1  0.921070  0.989440  0.909620  1.0  0.6008
  C  C186  1  0.951540  0.031650  0.825870  1.0  0.0167
  C  C187  1  0.930330  0.038740  0.756800  1.0  0.0171
  C  C188  1  0.862620  0.014300  0.746460  1.0  0.5779
  C  C189  1  0.028980  0.100180  0.723260  1.0  0.4037
  C  C190  1  0.087410  0.152240  0.677340  1.0  -0.0803
  C  C191  1  0.163200  0.131300  0.595500  1.0  -0.0412
  C  C192  1  0.217300  0.180900  0.554900  1.0  -0.1293
  C  C193  1  0.193500  0.250000  0.597000  1.0  0.0992
  C  C194  1  0.117600  0.273000  0.677800  1.0  -0.1235
  C  C195  1  0.064800  0.223200  0.718400  1.0  -0.0512
  C  C196  1  0.256600  0.942500  0.756100  1.0  0.1698
  C  C197  1  0.326420  0.863680  0.718480  1.0  -0.1808
  C  C198  1  0.360250  0.793840  0.768260  1.0  0.1066
  C  C199  1  0.326250  0.810230  0.853470  1.0  -0.1948
  C  C200  1  0.255160  0.892120  0.886760  1.0  0.1887
  Br  Br201  1  0.188140  0.543030  0.183210  1.0  -0.0735
  Br  Br202  1  0.414380  0.956970  0.316790  1.0  -0.0727
  Br  Br203  1  0.371350  0.816790  0.043030  1.0  -0.0732
  Br  Br204  1  0.731170  0.683210  0.456970  1.0  -0.0718
  Br  Br205  1  0.811860  0.456970  0.816790  1.0  -0.0728
  Br  Br206  1  0.585620  0.043030  0.683210  1.0  -0.0722
  Br  Br207  1  0.628650  0.183210  0.956970  1.0  -0.0734
  Br  Br208  1  0.268830  0.316790  0.543030  1.0  -0.0724
  N  N209  1  0.181970  0.803950  0.428710  1.0  -0.4396
  N  N210  1  0.327870  0.691550  0.418250  1.0  -0.4467
  N  N211  1  0.941300  0.840390  0.543010  1.0  -0.3673
  N  N212  1  0.914630  0.696050  0.071290  1.0  -0.4383
  N  N213  1  0.937670  0.808450  0.081750  1.0  -0.4487
  N  N214  1  0.824700  0.659610  0.956990  1.0  -0.367
  N  N215  1  0.610680  0.571290  0.303950  1.0  -0.4382
  N  N216  1  0.746120  0.581750  0.191550  1.0  -0.446
  N  N217  1  0.484310  0.456990  0.340390  1.0  -0.3673
  N  N218  1  0.985920  0.928710  0.196050  1.0  -0.4384
  N  N219  1  0.019420  0.918250  0.308450  1.0  -0.4472
  N  N220  1  0.781690  0.043010  0.159610  1.0  -0.3662
  N  N221  1  0.818030  0.196050  0.571290  1.0  -0.439
  N  N222  1  0.672130  0.308450  0.581750  1.0  -0.4472
  N  N223  1  0.058700  0.159610  0.456990  1.0  -0.3661
  N  N224  1  0.085370  0.303950  0.928710  1.0  -0.4388
  N  N225  1  0.062330  0.191550  0.918250  1.0  -0.4485
  N  N226  1  0.175300  0.340390  0.043010  1.0  -0.3678
  N  N227  1  0.389320  0.428710  0.696050  1.0  -0.4382
  N  N228  1  0.253880  0.418250  0.808450  1.0  -0.447
  N  N229  1  0.515690  0.543010  0.659610  1.0  -0.368
  N  N230  1  0.014080  0.071290  0.803950  1.0  -0.4371
  N  N231  1  0.980580  0.081750  0.691550  1.0  -0.447
  N  N232  1  0.218310  0.956990  0.840390  1.0  -0.3672
  O  O233  1  0.467610  0.677650  0.470730  1.0  -0.5159
  O  O234  1  0.378020  0.811300  0.520740  1.0  -0.3663
  O  O235  1  0.211990  0.931930  0.538770  1.0  -0.409
  O  O236  1  0.080980  0.956450  0.515490  1.0  -0.5553
  O  O237  1  0.115990  0.822350  0.029270  1.0  -0.5144
  O  O238  1  0.210060  0.688700  0.979260  1.0  -0.3651
  O  O239  1  0.182690  0.568070  0.961230  1.0  -0.4102
  O  O240  1  0.052920  0.543550  0.984510  1.0  -0.5599
  O  O241  1  0.938340  0.529270  0.177650  1.0  -0.5155
  O  O242  1  0.898760  0.479260  0.311300  1.0  -0.3708
  O  O243  1  0.750760  0.461230  0.431930  1.0  -0.4105
  O  O244  1  0.596470  0.484510  0.456450  1.0  -0.558
  O  O245  1  0.145260  0.970730  0.322350  1.0  -0.5136
  O  O246  1  0.189320  0.020740  0.188700  1.0  -0.3675
  O  O247  1  0.143920  0.038770  0.068070  1.0  -0.41
  O  O248  1  0.037430  0.015490  0.043550  1.0  -0.5585
  O  O249  1  0.532390  0.322350  0.529270  1.0  -0.5144
  O  O250  1  0.621980  0.188700  0.479260  1.0  -0.3682
  O  O251  1  0.788010  0.068070  0.461230  1.0  -0.4125
  O  O252  1  0.919020  0.043550  0.484510  1.0  -0.556
  O  O253  1  0.884010  0.177650  0.970730  1.0  -0.5168
  O  O254  1  0.789940  0.311300  0.020740  1.0  -0.3668
  O  O255  1  0.817310  0.431930  0.038770  1.0  -0.4106
  O  O256  1  0.947080  0.456450  0.015490  1.0  -0.5589
  O  O257  1  0.061660  0.470730  0.822350  1.0  -0.5151
  O  O258  1  0.101240  0.520740  0.688700  1.0  -0.3721
  O  O259  1  0.249240  0.538770  0.568070  1.0  -0.412
  O  O260  1  0.403530  0.515490  0.543550  1.0  -0.5588
  O  O261  1  0.854740  0.029270  0.677650  1.0  -0.5157
  O  O262  1  0.810680  0.979260  0.811300  1.0  -0.3681
  O  O263  1  0.856080  0.961230  0.931930  1.0  -0.4111
  O  O264  1  0.962570  0.984510  0.956450  1.0  -0.5584
