# generated using pymatgen
data_CuH5C12N3O4
_symmetry_space_group_name_H-M   'P 1'
_cell_length_a   30.92600000
_cell_length_b   30.92600000
_cell_length_c   31.41300000
_cell_angle_alpha   60.51150000
_cell_angle_beta   60.51150000
_cell_angle_gamma   89.99990000
_symmetry_Int_Tables_number   1
_chemical_formula_structural   CuH5C12N3O4
_chemical_formula_sum   'Cu24 H120 C288 N72 O96'
_cell_volume   21568.59961692
_cell_formula_units_Z   24
loop_
 _symmetry_equiv_pos_site_id
 _symmetry_equiv_pos_as_xyz
  1  'x, y, z'
loop_
 _atom_site_type_symbol
 _atom_site_label
 _atom_site_symmetry_multiplicity
 _atom_site_fract_x
 _atom_site_fract_y
 _atom_site_fract_z
 _atom_site_occupancy
 _atom_site_charge
  Cu  Cu1  1  0.530010  0.193240  0.337840  1.0  0.9006
  Cu  Cu2  1  0.519680  0.270000  0.256080  1.0  0.9166
  Cu  Cu3  1  0.132150  0.468910  0.337850  1.0  0.9001
  Cu  Cu4  1  0.224250  0.473920  0.256070  1.0  0.9152
  Cu  Cu5  1  0.193240  0.132160  0.337840  1.0  0.9009
  Cu  Cu6  1  0.270010  0.224250  0.256070  1.0  0.9143
  Cu  Cu7  1  0.468910  0.530000  0.337850  1.0  0.8999
  Cu  Cu8  1  0.473910  0.519680  0.256080  1.0  0.9139
  Cu  Cu9  1  0.469990  0.806760  0.662160  1.0  0.9015
  Cu  Cu10  1  0.480320  0.730000  0.743920  1.0  0.9169
  Cu  Cu11  1  0.867850  0.531090  0.662150  1.0  0.9006
  Cu  Cu12  1  0.775750  0.526080  0.743930  1.0  0.9159
  Cu  Cu13  1  0.806760  0.867840  0.662160  1.0  0.8995
  Cu  Cu14  1  0.729990  0.775750  0.743930  1.0  0.9125
  Cu  Cu15  1  0.531090  0.470000  0.662150  1.0  0.8981
  Cu  Cu16  1  0.526080  0.480320  0.743930  1.0  0.9158
  Cu  Cu17  1  0.456940  0.749420  0.000000  1.0  0.9222
  Cu  Cu18  1  0.442460  0.834590  0.000000  1.0  0.904
  Cu  Cu19  1  0.543060  0.250580  0.000000  1.0  0.9221
  Cu  Cu20  1  0.557540  0.165410  0.000000  1.0  0.9035
  Cu  Cu21  1  0.749420  0.543060  0.000000  1.0  0.9229
  Cu  Cu22  1  0.834590  0.557540  0.000000  1.0  0.9052
  Cu  Cu23  1  0.250580  0.456940  0.000000  1.0  0.9077
  Cu  Cu24  1  0.165410  0.442460  0.000000  1.0  0.9042
  H  H25  1  0.480100  0.242200  0.459200  1.0  0.1227
  H  H26  1  0.456400  0.372600  0.456600  1.0  0.1239
  H  H27  1  0.483300  0.364000  0.322000  1.0  0.1156
  H  H28  1  0.407800  0.124000  0.662600  1.0  0.1208
  H  H29  1  0.425900  0.073700  0.798800  1.0  0.1137
  H  H30  1  0.447900  0.228100  0.689800  1.0  0.108
  H  H31  1  0.478800  0.244000  0.738000  1.0  0.1168
  H  H32  1  0.440900  0.198900  0.565000  1.0  0.1141
  H  H33  1  0.433400  0.996400  0.800800  1.0  0.1218
  H  H34  1  0.502200  0.302900  0.752800  1.0  0.1241
  H  H35  1  0.533500  0.329600  0.850800  1.0  0.1197
  H  H36  1  0.508300  0.184000  0.884400  1.0  0.1233
  H  H37  1  0.442000  0.781000  0.859000  1.0  0.1195
  H  H38  1  0.427900  0.899200  0.733200  1.0  0.1221
  H  H39  1  0.415800  0.907600  0.864200  1.0  0.125
  H  H40  1  0.060700  0.298600  0.459200  1.0  0.1227
  H  H41  1  0.087000  0.170800  0.456600  1.0  0.1231
  H  H42  1  0.194700  0.314000  0.322000  1.0  0.1148
  H  H43  1  0.929600  0.213400  0.662600  1.0  0.1189
  H  H44  1  0.775300  0.127500  0.798800  1.0  0.1129
  H  H45  1  0.862300  0.082100  0.689800  1.0  0.1086
  H  H46  1  0.783200  0.018000  0.738000  1.0  0.1178
  H  H47  1  0.994100  0.236100  0.565000  1.0  0.1157
  H  H48  1  0.765800  0.202800  0.800800  1.0  0.1225
  H  H49  1  0.745000  0.944300  0.752800  1.0  0.1217
  H  H50  1  0.615700  0.819600  0.850800  1.0  0.1202
  H  H51  1  0.607300  0.931600  0.884400  1.0  0.1223
  H  H52  1  0.699000  0.360000  0.859000  1.0  0.1187
  H  H53  1  0.838900  0.367600  0.733200  1.0  0.1225
  H  H54  1  0.720000  0.228200  0.864200  1.0  0.1256
  H  H55  1  0.242200  0.060700  0.459200  1.0  0.1229
  H  H56  1  0.372600  0.087000  0.456600  1.0  0.1226
  H  H57  1  0.364000  0.194700  0.322000  1.0  0.1164
  H  H58  1  0.124000  0.929600  0.662600  1.0  0.1171
  H  H59  1  0.073700  0.775300  0.798800  1.0  0.1134
  H  H60  1  0.228100  0.862300  0.689800  1.0  0.1085
  H  H61  1  0.244000  0.783200  0.738000  1.0  0.1171
  H  H62  1  0.198900  0.994100  0.565000  1.0  0.1147
  H  H63  1  0.996400  0.765800  0.800800  1.0  0.1236
  H  H64  1  0.302900  0.745000  0.752800  1.0  0.1227
  H  H65  1  0.329600  0.615700  0.850800  1.0  0.1199
  H  H66  1  0.184000  0.607300  0.884400  1.0  0.1237
  H  H67  1  0.781000  0.699000  0.859000  1.0  0.1183
  H  H68  1  0.899200  0.838900  0.733200  1.0  0.1232
  H  H69  1  0.907600  0.720000  0.864200  1.0  0.1245
  H  H70  1  0.298600  0.480100  0.459200  1.0  0.1229
  H  H71  1  0.170800  0.456400  0.456600  1.0  0.1227
  H  H72  1  0.314000  0.483300  0.322000  1.0  0.1152
  H  H73  1  0.213400  0.407800  0.662600  1.0  0.1201
  H  H74  1  0.127500  0.425900  0.798800  1.0  0.1141
  H  H75  1  0.082100  0.447900  0.689800  1.0  0.1088
  H  H76  1  0.018000  0.478800  0.738000  1.0  0.1173
  H  H77  1  0.236100  0.440900  0.565000  1.0  0.1156
  H  H78  1  0.202800  0.433400  0.800800  1.0  0.1221
  H  H79  1  0.944300  0.502200  0.752800  1.0  0.1234
  H  H80  1  0.819600  0.533500  0.850800  1.0  0.1199
  H  H81  1  0.931600  0.508300  0.884400  1.0  0.1219
  H  H82  1  0.360000  0.442000  0.859000  1.0  0.1195
  H  H83  1  0.367600  0.427900  0.733200  1.0  0.1226
  H  H84  1  0.228200  0.415800  0.864200  1.0  0.1239
  H  H85  1  0.519900  0.757800  0.540800  1.0  0.1224
  H  H86  1  0.543600  0.627400  0.543400  1.0  0.1232
  H  H87  1  0.516700  0.636000  0.678000  1.0  0.1151
  H  H88  1  0.592200  0.876000  0.337400  1.0  0.1204
  H  H89  1  0.574100  0.926300  0.201200  1.0  0.1131
  H  H90  1  0.552100  0.771900  0.310200  1.0  0.1089
  H  H91  1  0.521200  0.756000  0.262000  1.0  0.1176
  H  H92  1  0.559100  0.801100  0.435000  1.0  0.1149
  H  H93  1  0.566600  0.003600  0.199200  1.0  0.1227
  H  H94  1  0.497800  0.697100  0.247200  1.0  0.1238
  H  H95  1  0.466500  0.670400  0.149200  1.0  0.12
  H  H96  1  0.491700  0.816000  0.115600  1.0  0.1232
  H  H97  1  0.558000  0.219000  0.141000  1.0  0.1196
  H  H98  1  0.572100  0.100800  0.266800  1.0  0.122
  H  H99  1  0.584200  0.092400  0.135800  1.0  0.1258
  H  H100  1  0.939300  0.701400  0.540800  1.0  0.1227
  H  H101  1  0.913000  0.829200  0.543400  1.0  0.123
  H  H102  1  0.805300  0.686000  0.678000  1.0  0.1144
  H  H103  1  0.070400  0.786600  0.337400  1.0  0.1187
  H  H104  1  0.224700  0.872500  0.201200  1.0  0.1125
  H  H105  1  0.137700  0.917900  0.310200  1.0  0.1087
  H  H106  1  0.216800  0.982000  0.262000  1.0  0.1179
  H  H107  1  0.005900  0.763900  0.435000  1.0  0.1149
  H  H108  1  0.234200  0.797200  0.199200  1.0  0.1218
  H  H109  1  0.255000  0.055700  0.247200  1.0  0.1214
  H  H110  1  0.384300  0.180400  0.149200  1.0  0.121
  H  H111  1  0.392700  0.068400  0.115600  1.0  0.1216
  H  H112  1  0.301000  0.640000  0.141000  1.0  0.1188
  H  H113  1  0.161100  0.632400  0.266800  1.0  0.1229
  H  H114  1  0.280000  0.771800  0.135800  1.0  0.1254
  H  H115  1  0.757800  0.939300  0.540800  1.0  0.1227
  H  H116  1  0.627400  0.913000  0.543400  1.0  0.1229
  H  H117  1  0.636000  0.805300  0.678000  1.0  0.1164
  H  H118  1  0.876000  0.070400  0.337400  1.0  0.116
  H  H119  1  0.926300  0.224700  0.201200  1.0  0.1131
  H  H120  1  0.771900  0.137700  0.310200  1.0  0.1083
  H  H121  1  0.756000  0.216800  0.262000  1.0  0.1162
  H  H122  1  0.801100  0.005900  0.435000  1.0  0.1148
  H  H123  1  0.003600  0.234200  0.199200  1.0  0.1242
  H  H124  1  0.697100  0.255000  0.247200  1.0  0.1231
  H  H125  1  0.670400  0.384300  0.149200  1.0  0.1196
  H  H126  1  0.816000  0.392700  0.115600  1.0  0.1243
  H  H127  1  0.219000  0.301000  0.141000  1.0  0.1183
  H  H128  1  0.100800  0.161100  0.266800  1.0  0.1236
  H  H129  1  0.092400  0.280000  0.135800  1.0  0.1251
  H  H130  1  0.701400  0.519900  0.540800  1.0  0.1226
  H  H131  1  0.829200  0.543600  0.543400  1.0  0.1228
  H  H132  1  0.686000  0.516700  0.678000  1.0  0.1153
  H  H133  1  0.786600  0.592200  0.337400  1.0  0.1194
  H  H134  1  0.872500  0.574100  0.201200  1.0  0.1141
  H  H135  1  0.917900  0.552100  0.310200  1.0  0.1089
  H  H136  1  0.982000  0.521200  0.262000  1.0  0.1162
  H  H137  1  0.763900  0.559100  0.435000  1.0  0.1153
  H  H138  1  0.797200  0.566600  0.199200  1.0  0.1225
  H  H139  1  0.055700  0.497800  0.247200  1.0  0.1239
  H  H140  1  0.180400  0.466500  0.149200  1.0  0.1206
  H  H141  1  0.068400  0.491700  0.115600  1.0  0.1227
  H  H142  1  0.640000  0.558000  0.141000  1.0  0.1192
  H  H143  1  0.632400  0.572100  0.266800  1.0  0.1229
  H  H144  1  0.771800  0.584200  0.135800  1.0  0.1244
  C  C145  1  0.497950  0.271880  0.354600  1.0  0.7034
  C  C146  1  0.484040  0.299570  0.385700  1.0  -0.155
  C  C147  1  0.477450  0.276310  0.440180  1.0  -0.0419
  C  C148  1  0.467080  0.303740  0.466060  1.0  0.088
  C  C149  1  0.463540  0.354140  0.438360  1.0  0.014
  C  C150  1  0.470550  0.376670  0.384180  1.0  -0.151
  C  C151  1  0.479840  0.348900  0.358620  1.0  0.0236
  C  C152  1  0.428290  0.182390  0.669420  1.0  0.094
  C  C153  1  0.415610  0.131010  0.684780  1.0  -0.0753
  C  C154  1  0.414580  0.090080  0.733240  1.0  0.0969
  C  C155  1  0.426450  0.101250  0.766100  1.0  -0.0588
  C  C156  1  0.438850  0.152350  0.750300  1.0  -0.0462
  C  C157  1  0.439560  0.193060  0.700880  1.0  -0.0925
  C  C158  1  0.447500  0.164400  0.785000  1.0  0.0153
  C  C159  1  0.468800  0.210400  0.772200  1.0  0.0211
  C  C160  1  0.439350  0.226750  0.570100  1.0  -0.0425
  C  C161  1  0.432250  0.224750  0.617100  1.0  0.0854
  C  C162  1  0.417680  0.996180  0.781440  1.0  -0.071
  C  C163  1  0.404770  0.036770  0.748860  1.0  0.0233
  C  C164  1  0.503400  0.238420  0.817800  1.0  0.1126
  C  C165  1  0.507660  0.290830  0.783520  1.0  -0.0704
  C  C166  1  0.520100  0.325160  0.795420  1.0  -0.1579
  C  C167  1  0.526750  0.306630  0.841420  1.0  0.0307
  C  C168  1  0.523570  0.254000  0.873840  1.0  -0.1652
  C  C169  1  0.511250  0.219960  0.861920  1.0  0.0119
  C  C170  1  0.524320  0.381030  0.760220  1.0  0.6841
  C  C171  1  0.436850  0.814160  0.842540  1.0  0.0241
  C  C172  1  0.436400  0.835820  0.791920  1.0  -0.1586
  C  C173  1  0.427990  0.884340  0.767740  1.0  -0.0548
  C  C174  1  0.419740  0.910210  0.795580  1.0  0.1567
  C  C175  1  0.420940  0.889250  0.846000  1.0  -0.0843
  C  C176  1  0.429730  0.841360  0.868860  1.0  -0.1465
  C  C177  1  0.448160  0.809160  0.760600  1.0  0.7037
  C  C178  1  0.434590  0.820900  0.919820  1.0  0.683
  C  C179  1  0.533410  0.235540  0.922040  1.0  0.6951
  C  C180  1  0.469560  0.431890  0.352020  1.0  0.6904
  C  C181  1  0.147450  0.373520  0.354600  1.0  0.7033
  C  C182  1  0.130260  0.314730  0.385700  1.0  -0.154
  C  C183  1  0.082370  0.283510  0.440180  1.0  -0.0425
  C  C184  1  0.066860  0.230200  0.466060  1.0  0.0901
  C  C185  1  0.098100  0.207500  0.438360  1.0  0.0159
  C  C186  1  0.145270  0.239150  0.384180  1.0  -0.1503
  C  C187  1  0.161540  0.292480  0.358620  1.0  0.0295
  C  C188  1  0.902290  0.148190  0.669420  1.0  0.0939
  C  C189  1  0.899610  0.184210  0.684780  1.0  -0.0794
  C  C190  1  0.852180  0.176680  0.733240  1.0  0.1021
  C  C191  1  0.807450  0.132650  0.766100  1.0  -0.0648
  C  C192  1  0.810850  0.097350  0.750300  1.0  -0.0469
  C  C193  1  0.859560  0.106060  0.700880  1.0  -0.0937
  C  C194  1  0.767500  0.050600  0.785000  1.0  0.0133
  C  C195  1  0.759000  0.017400  0.772200  1.0  0.0211
  C  C196  1  0.990550  0.203150  0.570100  1.0  -0.0414
  C  C197  1  0.950650  0.158150  0.617100  1.0  0.085
  C  C198  1  0.800880  0.222380  0.781440  1.0  -0.0714
  C  C199  1  0.846370  0.214370  0.748860  1.0  0.0187
  C  C200  1  0.678800  0.943780  0.817800  1.0  0.1164
  C  C201  1  0.708820  0.925650  0.783520  1.0  -0.0734
  C  C202  1  0.684480  0.879420  0.795420  1.0  -0.1588
  C  C203  1  0.631830  0.851950  0.841420  1.0  0.0316
  C  C204  1  0.602590  0.872160  0.873840  1.0  -0.1642
  C  C205  1  0.626830  0.918120  0.861920  1.0  0.0109
  C  C206  1  0.715460  0.858750  0.760220  1.0  0.6845
  C  C207  1  0.720610  0.343300  0.842540  1.0  0.0282
  C  C208  1  0.771680  0.372260  0.791920  1.0  -0.1578
  C  C209  1  0.804270  0.347920  0.767740  1.0  -0.0531
  C  C210  1  0.784680  0.294210  0.795580  1.0  0.156
  C  C211  1  0.733060  0.264750  0.846000  1.0  -0.0834
  C  C212  1  0.701410  0.289780  0.868860  1.0  -0.1434
  C  C213  1  0.791240  0.430240  0.760600  1.0  0.7047
  C  C214  1  0.645590  0.259280  0.919820  1.0  0.6817
  C  C215  1  0.544550  0.842420  0.922040  1.0  0.6955
  C  C216  1  0.178420  0.216090  0.352020  1.0  0.6884
  C  C217  1  0.271880  0.147450  0.354600  1.0  0.7038
  C  C218  1  0.299570  0.130260  0.385700  1.0  -0.1539
  C  C219  1  0.276310  0.082370  0.440180  1.0  -0.0425
  C  C220  1  0.303740  0.066860  0.466060  1.0  0.0873
  C  C221  1  0.354140  0.098100  0.438360  1.0  0.0152
  C  C222  1  0.376670  0.145270  0.384180  1.0  -0.1507
  C  C223  1  0.348900  0.161540  0.358620  1.0  0.0359
  C  C224  1  0.182390  0.902290  0.669420  1.0  0.0945
  C  C225  1  0.131010  0.899610  0.684780  1.0  -0.0799
  C  C226  1  0.090080  0.852180  0.733240  1.0  0.0977
  C  C227  1  0.101250  0.807450  0.766100  1.0  -0.0683
  C  C228  1  0.152350  0.810850  0.750300  1.0  -0.0459
  C  C229  1  0.193060  0.859560  0.700880  1.0  -0.0934
  C  C230  1  0.164400  0.767500  0.785000  1.0  0.0139
  C  C231  1  0.210400  0.759000  0.772200  1.0  0.0214
  C  C232  1  0.226750  0.990550  0.570100  1.0  -0.0413
  C  C233  1  0.224750  0.950650  0.617100  1.0  0.0859
  C  C234  1  0.996180  0.800880  0.781440  1.0  -0.0709
  C  C235  1  0.036770  0.846370  0.748860  1.0  0.0238
  C  C236  1  0.238420  0.678800  0.817800  1.0  0.114
  C  C237  1  0.290830  0.708820  0.783520  1.0  -0.0704
  C  C238  1  0.325160  0.684480  0.795420  1.0  -0.1583
  C  C239  1  0.306630  0.631830  0.841420  1.0  0.0311
  C  C240  1  0.254000  0.602590  0.873840  1.0  -0.1634
  C  C241  1  0.219960  0.626830  0.861920  1.0  0.0111
  C  C242  1  0.381030  0.715460  0.760220  1.0  0.6838
  C  C243  1  0.814160  0.720610  0.842540  1.0  0.0228
  C  C244  1  0.835820  0.771680  0.791920  1.0  -0.1579
  C  C245  1  0.884340  0.804270  0.767740  1.0  -0.0541
  C  C246  1  0.910210  0.784680  0.795580  1.0  0.156
  C  C247  1  0.889250  0.733060  0.846000  1.0  -0.0859
  C  C248  1  0.841360  0.701410  0.868860  1.0  -0.1451
  C  C249  1  0.809160  0.791240  0.760600  1.0  0.7042
  C  C250  1  0.820900  0.645590  0.919820  1.0  0.6831
  C  C251  1  0.235540  0.544550  0.922040  1.0  0.6945
  C  C252  1  0.431890  0.178420  0.352020  1.0  0.6895
  C  C253  1  0.373520  0.497950  0.354600  1.0  0.7032
  C  C254  1  0.314730  0.484040  0.385700  1.0  -0.1537
  C  C255  1  0.283510  0.477450  0.440180  1.0  -0.0419
  C  C256  1  0.230200  0.467080  0.466060  1.0  0.0902
  C  C257  1  0.207500  0.463540  0.438360  1.0  0.0152
  C  C258  1  0.239150  0.470550  0.384180  1.0  -0.1516
  C  C259  1  0.292480  0.479840  0.358620  1.0  0.0301
  C  C260  1  0.148190  0.428290  0.669420  1.0  0.0958
  C  C261  1  0.184210  0.415610  0.684780  1.0  -0.0786
  C  C262  1  0.176680  0.414580  0.733240  1.0  0.0963
  C  C263  1  0.132650  0.426450  0.766100  1.0  -0.0631
  C  C264  1  0.097350  0.438850  0.750300  1.0  -0.0462
  C  C265  1  0.106060  0.439560  0.700880  1.0  -0.0942
  C  C266  1  0.050600  0.447500  0.785000  1.0  0.015
  C  C267  1  0.017400  0.468800  0.772200  1.0  0.0206
  C  C268  1  0.203150  0.439350  0.570100  1.0  -0.0341
  C  C269  1  0.158150  0.432250  0.617100  1.0  0.0846
  C  C270  1  0.222380  0.417680  0.781440  1.0  -0.0711
  C  C271  1  0.214370  0.404770  0.748860  1.0  0.0176
  C  C272  1  0.943780  0.503400  0.817800  1.0  0.1149
  C  C273  1  0.925650  0.507660  0.783520  1.0  -0.0705
  C  C274  1  0.879420  0.520100  0.795420  1.0  -0.1589
  C  C275  1  0.851950  0.526750  0.841420  1.0  0.0287
  C  C276  1  0.872160  0.523570  0.873840  1.0  -0.1615
  C  C277  1  0.918120  0.511250  0.861920  1.0  0.0108
  C  C278  1  0.858750  0.524320  0.760220  1.0  0.6845
  C  C279  1  0.343300  0.436850  0.842540  1.0  0.0229
  C  C280  1  0.372260  0.436400  0.791920  1.0  -0.1574
  C  C281  1  0.347920  0.427990  0.767740  1.0  -0.0544
  C  C282  1  0.294210  0.419740  0.795580  1.0  0.1569
  C  C283  1  0.264750  0.420940  0.846000  1.0  -0.084
  C  C284  1  0.289780  0.429730  0.868860  1.0  -0.1461
  C  C285  1  0.430240  0.448160  0.760600  1.0  0.7037
  C  C286  1  0.259280  0.434590  0.919820  1.0  0.6831
  C  C287  1  0.842420  0.533410  0.922040  1.0  0.6945
  C  C288  1  0.216090  0.469560  0.352020  1.0  0.6906
  C  C289  1  0.502050  0.728120  0.645400  1.0  0.7034
  C  C290  1  0.515960  0.700430  0.614300  1.0  -0.1552
  C  C291  1  0.522550  0.723690  0.559820  1.0  -0.0418
  C  C292  1  0.532920  0.696260  0.533940  1.0  0.089
  C  C293  1  0.536460  0.645860  0.561640  1.0  0.0143
  C  C294  1  0.529450  0.623330  0.615820  1.0  -0.1513
  C  C295  1  0.520160  0.651100  0.641380  1.0  0.0243
  C  C296  1  0.571710  0.817610  0.330580  1.0  0.093
  C  C297  1  0.584390  0.868990  0.315220  1.0  -0.078
  C  C298  1  0.585420  0.909920  0.266760  1.0  0.0972
  C  C299  1  0.573550  0.898750  0.233900  1.0  -0.0607
  C  C300  1  0.561150  0.847650  0.249700  1.0  -0.045
  C  C301  1  0.560440  0.806940  0.299120  1.0  -0.0941
  C  C302  1  0.552500  0.835600  0.215000  1.0  0.0152
  C  C303  1  0.531200  0.789600  0.227800  1.0  0.0212
  C  C304  1  0.560650  0.773250  0.429900  1.0  -0.0432
  C  C305  1  0.567750  0.775250  0.382900  1.0  0.0855
  C  C306  1  0.582320  0.003820  0.218560  1.0  -0.0703
  C  C307  1  0.595230  0.963230  0.251140  1.0  0.024
  C  C308  1  0.496600  0.761580  0.182200  1.0  0.1131
  C  C309  1  0.492340  0.709170  0.216480  1.0  -0.0705
  C  C310  1  0.479900  0.674840  0.204580  1.0  -0.1582
  C  C311  1  0.473250  0.693370  0.158580  1.0  0.0308
  C  C312  1  0.476430  0.746000  0.126160  1.0  -0.1653
  C  C313  1  0.488750  0.780040  0.138080  1.0  0.0112
  C  C314  1  0.475680  0.618970  0.239780  1.0  0.6842
  C  C315  1  0.563150  0.185840  0.157460  1.0  0.0244
  C  C316  1  0.563600  0.164180  0.208080  1.0  -0.159
  C  C317  1  0.572010  0.115660  0.232260  1.0  -0.0529
  C  C318  1  0.580260  0.089790  0.204420  1.0  0.1552
  C  C319  1  0.579060  0.110750  0.154000  1.0  -0.083
  C  C320  1  0.570270  0.158640  0.131140  1.0  -0.1467
  C  C321  1  0.551840  0.190840  0.239400  1.0  0.7044
  C  C322  1  0.565410  0.179100  0.080180  1.0  0.6829
  C  C323  1  0.466590  0.764460  0.077960  1.0  0.6952
  C  C324  1  0.530440  0.568110  0.647980  1.0  0.6898
  C  C325  1  0.852550  0.626480  0.645400  1.0  0.7036
  C  C326  1  0.869740  0.685270  0.614300  1.0  -0.1536
  C  C327  1  0.917630  0.716490  0.559820  1.0  -0.0421
  C  C328  1  0.933140  0.769800  0.533940  1.0  0.09
  C  C329  1  0.901900  0.792500  0.561640  1.0  0.0148
  C  C330  1  0.854730  0.760850  0.615820  1.0  -0.1512
  C  C331  1  0.838460  0.707520  0.641380  1.0  0.0297
  C  C332  1  0.097710  0.851810  0.330580  1.0  0.0941
  C  C333  1  0.100390  0.815790  0.315220  1.0  -0.08
  C  C334  1  0.147820  0.823320  0.266760  1.0  0.1028
  C  C335  1  0.192550  0.867350  0.233900  1.0  -0.0633
  C  C336  1  0.189150  0.902650  0.249700  1.0  -0.0458
  C  C337  1  0.140440  0.893940  0.299120  1.0  -0.0929
  C  C338  1  0.232500  0.949400  0.215000  1.0  0.0147
  C  C339  1  0.241000  0.982600  0.227800  1.0  0.0182
  C  C340  1  0.009450  0.796850  0.429900  1.0  -0.0416
  C  C341  1  0.049350  0.841850  0.382900  1.0  0.0848
  C  C342  1  0.199120  0.777620  0.218560  1.0  -0.0712
  C  C343  1  0.153630  0.785630  0.251140  1.0  0.0197
  C  C344  1  0.321200  0.056220  0.182200  1.0  0.1161
  C  C345  1  0.291180  0.074350  0.216480  1.0  -0.0712
  C  C346  1  0.315520  0.120580  0.204580  1.0  -0.1588
  C  C347  1  0.368170  0.148050  0.158580  1.0  0.0319
  C  C348  1  0.397410  0.127840  0.126160  1.0  -0.1647
  C  C349  1  0.373170  0.081880  0.138080  1.0  0.0115
  C  C350  1  0.284540  0.141250  0.239780  1.0  0.6847
  C  C351  1  0.279390  0.656700  0.157460  1.0  0.0279
  C  C352  1  0.228320  0.627740  0.208080  1.0  -0.1578
  C  C353  1  0.195730  0.652080  0.232260  1.0  -0.0543
  C  C354  1  0.215320  0.705790  0.204420  1.0  0.1555
  C  C355  1  0.266940  0.735250  0.154000  1.0  -0.0838
  C  C356  1  0.298590  0.710220  0.131140  1.0  -0.1426
  C  C357  1  0.208760  0.569760  0.239400  1.0  0.704
  C  C358  1  0.354410  0.740720  0.080180  1.0  0.6815
  C  C359  1  0.455450  0.157580  0.077960  1.0  0.6953
  C  C360  1  0.821580  0.783910  0.647980  1.0  0.6892
  C  C361  1  0.728120  0.852550  0.645400  1.0  0.7038
  C  C362  1  0.700430  0.869740  0.614300  1.0  -0.1538
  C  C363  1  0.723690  0.917630  0.559820  1.0  -0.0427
  C  C364  1  0.696260  0.933140  0.533940  1.0  0.0893
  C  C365  1  0.645860  0.901900  0.561640  1.0  0.0144
  C  C366  1  0.623330  0.854730  0.615820  1.0  -0.1511
  C  C367  1  0.651100  0.838460  0.641380  1.0  0.0364
  C  C368  1  0.817610  0.097710  0.330580  1.0  0.0947
  C  C369  1  0.868990  0.100390  0.315220  1.0  -0.0776
  C  C370  1  0.909920  0.147820  0.266760  1.0  0.0991
  C  C371  1  0.898750  0.192550  0.233900  1.0  -0.0678
  C  C372  1  0.847650  0.189150  0.249700  1.0  -0.0454
  C  C373  1  0.806940  0.140440  0.299120  1.0  -0.0944
  C  C374  1  0.835600  0.232500  0.215000  1.0  0.0146
  C  C375  1  0.789600  0.241000  0.227800  1.0  0.0184
  C  C376  1  0.773250  0.009450  0.429900  1.0  -0.0407
  C  C377  1  0.775250  0.049350  0.382900  1.0  0.0857
  C  C378  1  0.003820  0.199120  0.218560  1.0  -0.0706
  C  C379  1  0.963230  0.153630  0.251140  1.0  0.0239
  C  C380  1  0.761580  0.321200  0.182200  1.0  0.1133
  C  C381  1  0.709170  0.291180  0.216480  1.0  -0.0703
  C  C382  1  0.674840  0.315520  0.204580  1.0  -0.1585
  C  C383  1  0.693370  0.368170  0.158580  1.0  0.0318
  C  C384  1  0.746000  0.397410  0.126160  1.0  -0.1636
  C  C385  1  0.780040  0.373170  0.138080  1.0  0.0124
  C  C386  1  0.618970  0.284540  0.239780  1.0  0.684
  C  C387  1  0.185840  0.279390  0.157460  1.0  0.0228
  C  C388  1  0.164180  0.228320  0.208080  1.0  -0.1587
  C  C389  1  0.115660  0.195730  0.232260  1.0  -0.0541
  C  C390  1  0.089790  0.215320  0.204420  1.0  0.1562
  C  C391  1  0.110750  0.266940  0.154000  1.0  -0.0862
  C  C392  1  0.158640  0.298590  0.131140  1.0  -0.1451
  C  C393  1  0.190840  0.208760  0.239400  1.0  0.7044
  C  C394  1  0.179100  0.354410  0.080180  1.0  0.6835
  C  C395  1  0.764460  0.455450  0.077960  1.0  0.6943
  C  C396  1  0.568110  0.821580  0.647980  1.0  0.6895
  C  C397  1  0.626480  0.502050  0.645400  1.0  0.703
  C  C398  1  0.685270  0.515960  0.614300  1.0  -0.154
  C  C399  1  0.716490  0.522550  0.559820  1.0  -0.0415
  C  C400  1  0.769800  0.532920  0.533940  1.0  0.0887
  C  C401  1  0.792500  0.536460  0.561640  1.0  0.0151
  C  C402  1  0.760850  0.529450  0.615820  1.0  -0.1513
  C  C403  1  0.707520  0.520160  0.641380  1.0  0.0309
  C  C404  1  0.851810  0.571710  0.330580  1.0  0.0956
  C  C405  1  0.815790  0.584390  0.315220  1.0  -0.0798
  C  C406  1  0.823320  0.585420  0.266760  1.0  0.0961
  C  C407  1  0.867350  0.573550  0.233900  1.0  -0.0641
  C  C408  1  0.902650  0.561150  0.249700  1.0  -0.0455
  C  C409  1  0.893940  0.560440  0.299120  1.0  -0.0926
  C  C410  1  0.949400  0.552500  0.215000  1.0  0.0133
  C  C411  1  0.982600  0.531200  0.227800  1.0  0.019
  C  C412  1  0.796850  0.560650  0.429900  1.0  -0.0342
  C  C413  1  0.841850  0.567750  0.382900  1.0  0.0862
  C  C414  1  0.777620  0.582320  0.218560  1.0  -0.0704
  C  C415  1  0.785630  0.595230  0.251140  1.0  0.0192
  C  C416  1  0.056220  0.496600  0.182200  1.0  0.1126
  C  C417  1  0.074350  0.492340  0.216480  1.0  -0.0713
  C  C418  1  0.120580  0.479900  0.204580  1.0  -0.1588
  C  C419  1  0.148050  0.473250  0.158580  1.0  0.0294
  C  C420  1  0.127840  0.476430  0.126160  1.0  -0.1616
  C  C421  1  0.081880  0.488750  0.138080  1.0  0.0104
  C  C422  1  0.141250  0.475680  0.239780  1.0  0.6843
  C  C423  1  0.656700  0.563150  0.157460  1.0  0.024
  C  C424  1  0.627740  0.563600  0.208080  1.0  -0.1574
  C  C425  1  0.652080  0.572010  0.232260  1.0  -0.0548
  C  C426  1  0.705790  0.580260  0.204420  1.0  0.1558
  C  C427  1  0.735250  0.579060  0.154000  1.0  -0.083
  C  C428  1  0.710220  0.570270  0.131140  1.0  -0.1466
  C  C429  1  0.569760  0.551840  0.239400  1.0  0.7031
  C  C430  1  0.740720  0.565410  0.080180  1.0  0.6823
  C  C431  1  0.157580  0.466590  0.077960  1.0  0.6944
  C  C432  1  0.783910  0.530440  0.647980  1.0  0.6903
  N  N433  1  0.439100  0.126600  0.838000  1.0  -0.2121
  N  N434  1  0.454600  0.148700  0.857800  1.0  -0.2647
  N  N435  1  0.473700  0.200800  0.816400  1.0  0.0751
  N  N436  1  0.432300  0.272600  0.606800  1.0  -0.2239
  N  N437  1  0.439160  0.304960  0.553680  1.0  -0.326
  N  N438  1  0.443650  0.276050  0.531700  1.0  0.0486
  N  N439  1  0.403000  0.956400  0.779400  1.0  0.1404
  N  N440  1  0.382200  0.971300  0.747400  1.0  -0.1914
  N  N441  1  0.383330  0.019530  0.729340  1.0  -0.1401
  N  N442  1  0.722900  0.035400  0.838000  1.0  -0.2097
  N  N443  1  0.687600  0.993500  0.857800  1.0  -0.2666
  N  N444  1  0.709900  0.982800  0.816400  1.0  0.059
  N  N445  1  0.960900  0.120600  0.606800  1.0  -0.2219
  N  N446  1  0.007160  0.141360  0.553680  1.0  -0.3267
  N  N447  1  0.024650  0.192250  0.531700  1.0  0.0482
  N  N448  1  0.817600  0.264200  0.779400  1.0  0.1431
  N  N449  1  0.870400  0.281300  0.747400  1.0  -0.19
  N  N450  1  0.887330  0.251130  0.729340  1.0  -0.1428
  N  N451  1  0.126600  0.722900  0.838000  1.0  -0.2126
  N  N452  1  0.148700  0.687600  0.857800  1.0  -0.2581
  N  N453  1  0.200800  0.709900  0.816400  1.0  0.0565
  N  N454  1  0.272600  0.960900  0.606800  1.0  -0.2207
  N  N455  1  0.304960  0.007160  0.553680  1.0  -0.3246
  N  N456  1  0.276050  0.024650  0.531700  1.0  0.0419
  N  N457  1  0.956400  0.817600  0.779400  1.0  0.151
  N  N458  1  0.971300  0.870400  0.747400  1.0  -0.1878
  N  N459  1  0.019530  0.887330  0.729340  1.0  -0.1505
  N  N460  1  0.035400  0.439100  0.838000  1.0  -0.2104
  N  N461  1  0.993500  0.454600  0.857800  1.0  -0.2613
  N  N462  1  0.982800  0.473700  0.816400  1.0  0.0619
  N  N463  1  0.120600  0.432300  0.606800  1.0  -0.2227
  N  N464  1  0.141360  0.439160  0.553680  1.0  -0.3265
  N  N465  1  0.192250  0.443650  0.531700  1.0  0.0435
  N  N466  1  0.264200  0.403000  0.779400  1.0  0.1512
  N  N467  1  0.281300  0.382200  0.747400  1.0  -0.1918
  N  N468  1  0.251130  0.383330  0.729340  1.0  -0.1412
  N  N469  1  0.560900  0.873400  0.162000  1.0  -0.2136
  N  N470  1  0.545400  0.851300  0.142200  1.0  -0.2665
  N  N471  1  0.526300  0.799200  0.183600  1.0  0.074
  N  N472  1  0.567700  0.727400  0.393200  1.0  -0.2242
  N  N473  1  0.560840  0.695040  0.446320  1.0  -0.3264
  N  N474  1  0.556350  0.723950  0.468300  1.0  0.0481
  N  N475  1  0.597000  0.043600  0.220600  1.0  0.1412
  N  N476  1  0.617800  0.028700  0.252600  1.0  -0.1903
  N  N477  1  0.616670  0.980470  0.270660  1.0  -0.1431
  N  N478  1  0.277100  0.964600  0.162000  1.0  -0.213
  N  N479  1  0.312400  0.006500  0.142200  1.0  -0.2678
  N  N480  1  0.290100  0.017200  0.183600  1.0  0.0588
  N  N481  1  0.039100  0.879400  0.393200  1.0  -0.2249
  N  N482  1  0.992840  0.858640  0.446320  1.0  -0.3257
  N  N483  1  0.975350  0.807750  0.468300  1.0  0.0452
  N  N484  1  0.182400  0.735800  0.220600  1.0  0.1421
  N  N485  1  0.129600  0.718700  0.252600  1.0  -0.1908
  N  N486  1  0.112670  0.748870  0.270660  1.0  -0.1405
  N  N487  1  0.873400  0.277100  0.162000  1.0  -0.2182
  N  N488  1  0.851300  0.312400  0.142200  1.0  -0.2583
  N  N489  1  0.799200  0.290100  0.183600  1.0  0.056
  N  N490  1  0.727400  0.039100  0.393200  1.0  -0.2214
  N  N491  1  0.695040  0.992840  0.446320  1.0  -0.3233
  N  N492  1  0.723950  0.975350  0.468300  1.0  0.0404
  N  N493  1  0.043600  0.182400  0.220600  1.0  0.1508
  N  N494  1  0.028700  0.129600  0.252600  1.0  -0.19
  N  N495  1  0.980470  0.112670  0.270660  1.0  -0.1499
  N  N496  1  0.964600  0.560900  0.162000  1.0  -0.2172
  N  N497  1  0.006500  0.545400  0.142200  1.0  -0.264
  N  N498  1  0.017200  0.526300  0.183600  1.0  0.0618
  N  N499  1  0.879400  0.567700  0.393200  1.0  -0.2256
  N  N500  1  0.858640  0.560840  0.446320  1.0  -0.3279
  N  N501  1  0.807750  0.556350  0.468300  1.0  0.045
  N  N502  1  0.735800  0.597000  0.220600  1.0  0.151
  N  N503  1  0.718700  0.617800  0.252600  1.0  -0.1878
  N  N504  1  0.748870  0.616670  0.270660  1.0  -0.1414
  O  O505  1  0.510680  0.232070  0.374980  1.0  -0.5602
  O  O506  1  0.495270  0.291650  0.310740  1.0  -0.5752
  O  O507  1  0.475150  0.449450  0.303960  1.0  -0.5634
  O  O508  1  0.463200  0.455800  0.376960  1.0  -0.575
  O  O509  1  0.452600  0.833250  0.712380  1.0  -0.5646
  O  O510  1  0.454010  0.765030  0.784920  1.0  -0.571
  O  O511  1  0.431620  0.849580  0.938440  1.0  -0.5799
  O  O512  1  0.442550  0.777340  0.939220  1.0  -0.5618
  O  O513  1  0.542130  0.192670  0.939520  1.0  -0.558
  O  O514  1  0.531950  0.264910  0.938680  1.0  -0.5649
  O  O515  1  0.523880  0.397000  0.714940  1.0  -0.5631
  O  O516  1  0.527630  0.407940  0.778760  1.0  -0.5643
  O  O517  1  0.114340  0.392950  0.374980  1.0  -0.5596
  O  O518  1  0.193990  0.397610  0.310740  1.0  -0.575
  O  O519  1  0.220890  0.246590  0.303960  1.0  -0.5651
  O  O520  1  0.159840  0.167240  0.376960  1.0  -0.5753
  O  O521  1  0.835020  0.454370  0.712380  1.0  -0.5641
  O  O522  1  0.761070  0.450050  0.784920  1.0  -0.5702
  O  O523  1  0.629940  0.211980  0.938440  1.0  -0.5744
  O  O524  1  0.618230  0.283440  0.939220  1.0  -0.5622
  O  O525  1  0.518350  0.867810  0.939520  1.0  -0.5588
  O  O526  1  0.529370  0.796410  0.938680  1.0  -0.5586
  O  O527  1  0.761180  0.888060  0.714940  1.0  -0.5655
  O  O528  1  0.693610  0.813300  0.778760  1.0  -0.5658
  O  O529  1  0.232070  0.114340  0.374980  1.0  -0.5611
  O  O530  1  0.291650  0.193990  0.310740  1.0  -0.575
  O  O531  1  0.449450  0.220890  0.303960  1.0  -0.5654
  O  O532  1  0.455800  0.159840  0.376960  1.0  -0.5758
  O  O533  1  0.833250  0.835020  0.712380  1.0  -0.5661
  O  O534  1  0.765030  0.761070  0.784920  1.0  -0.5715
  O  O535  1  0.849580  0.629940  0.938440  1.0  -0.5788
  O  O536  1  0.777340  0.618230  0.939220  1.0  -0.5614
  O  O537  1  0.192670  0.518350  0.939520  1.0  -0.5578
  O  O538  1  0.264910  0.529370  0.938680  1.0  -0.5598
  O  O539  1  0.397000  0.761180  0.714940  1.0  -0.5667
  O  O540  1  0.407940  0.693610  0.778760  1.0  -0.5664
  O  O541  1  0.392950  0.510680  0.374980  1.0  -0.5601
  O  O542  1  0.397610  0.495270  0.310740  1.0  -0.5739
  O  O543  1  0.246590  0.475150  0.303960  1.0  -0.5657
  O  O544  1  0.167240  0.463200  0.376960  1.0  -0.5757
  O  O545  1  0.454370  0.452600  0.712380  1.0  -0.5629
  O  O546  1  0.450050  0.454010  0.784920  1.0  -0.572
  O  O547  1  0.211980  0.431620  0.938440  1.0  -0.5727
  O  O548  1  0.283440  0.442550  0.939220  1.0  -0.5657
  O  O549  1  0.867810  0.542130  0.939520  1.0  -0.558
  O  O550  1  0.796410  0.531950  0.938680  1.0  -0.5594
  O  O551  1  0.888060  0.523880  0.714940  1.0  -0.5661
  O  O552  1  0.813300  0.527630  0.778760  1.0  -0.5656
  O  O553  1  0.489320  0.767930  0.625020  1.0  -0.5594
  O  O554  1  0.504730  0.708350  0.689260  1.0  -0.5765
  O  O555  1  0.524850  0.550550  0.696040  1.0  -0.5646
  O  O556  1  0.536800  0.544200  0.623040  1.0  -0.5755
  O  O557  1  0.547400  0.166750  0.287620  1.0  -0.5653
  O  O558  1  0.545990  0.234970  0.215080  1.0  -0.5703
  O  O559  1  0.568380  0.150420  0.061560  1.0  -0.5806
  O  O560  1  0.557450  0.222660  0.060780  1.0  -0.5611
  O  O561  1  0.457870  0.807330  0.060480  1.0  -0.5582
  O  O562  1  0.468050  0.735090  0.061320  1.0  -0.5654
  O  O563  1  0.476120  0.603000  0.285060  1.0  -0.563
  O  O564  1  0.472370  0.592060  0.221240  1.0  -0.564
  O  O565  1  0.885660  0.607050  0.625020  1.0  -0.5599
  O  O566  1  0.806010  0.602390  0.689260  1.0  -0.5751
  O  O567  1  0.779110  0.753410  0.696040  1.0  -0.5658
  O  O568  1  0.840160  0.832760  0.623040  1.0  -0.5764
  O  O569  1  0.164980  0.545630  0.287620  1.0  -0.5635
  O  O570  1  0.238930  0.549950  0.215080  1.0  -0.5709
  O  O571  1  0.370060  0.788020  0.061560  1.0  -0.5745
  O  O572  1  0.381770  0.716560  0.060780  1.0  -0.5615
  O  O573  1  0.481650  0.132190  0.060480  1.0  -0.5585
  O  O574  1  0.470630  0.203590  0.061320  1.0  -0.5592
  O  O575  1  0.238820  0.111940  0.285060  1.0  -0.5658
  O  O576  1  0.306390  0.186700  0.221240  1.0  -0.5667
  O  O577  1  0.767930  0.885660  0.625020  1.0  -0.5608
  O  O578  1  0.708350  0.806010  0.689260  1.0  -0.5747
  O  O579  1  0.550550  0.779110  0.696040  1.0  -0.5657
  O  O580  1  0.544200  0.840160  0.623040  1.0  -0.5765
  O  O581  1  0.166750  0.164980  0.287620  1.0  -0.565
  O  O582  1  0.234970  0.238930  0.215080  1.0  -0.5723
  O  O583  1  0.150420  0.370060  0.061560  1.0  -0.5777
  O  O584  1  0.222660  0.381770  0.060780  1.0  -0.5612
  O  O585  1  0.807330  0.481650  0.060480  1.0  -0.5571
  O  O586  1  0.735090  0.470630  0.061320  1.0  -0.5603
  O  O587  1  0.603000  0.238820  0.285060  1.0  -0.566
  O  O588  1  0.592060  0.306390  0.221240  1.0  -0.566
  O  O589  1  0.607050  0.489320  0.625020  1.0  -0.5601
  O  O590  1  0.602390  0.504730  0.689260  1.0  -0.5741
  O  O591  1  0.753410  0.524850  0.696040  1.0  -0.5652
  O  O592  1  0.832760  0.536800  0.623040  1.0  -0.575
  O  O593  1  0.545630  0.547400  0.287620  1.0  -0.563
  O  O594  1  0.549950  0.545990  0.215080  1.0  -0.5711
  O  O595  1  0.788020  0.568380  0.061560  1.0  -0.5743
  O  O596  1  0.716560  0.557450  0.060780  1.0  -0.5646
  O  O597  1  0.132190  0.457870  0.060480  1.0  -0.559
  O  O598  1  0.203590  0.468050  0.061320  1.0  -0.5609
  O  O599  1  0.111940  0.476120  0.285060  1.0  -0.5653
  O  O600  1  0.186700  0.472370  0.221240  1.0  -0.5659
