# generated using pymatgen
data_NiH24C26N7
_symmetry_space_group_name_H-M   'P 1'
_cell_length_a   8.63000000
_cell_length_b   13.51450000
_cell_length_c   13.51450000
_cell_angle_alpha   94.88800000
_cell_angle_beta   96.88520000
_cell_angle_gamma   96.88520000
_symmetry_Int_Tables_number   1
_chemical_formula_structural   NiH24C26N7
_chemical_formula_sum   'Ni2 H48 C52 N14'
_cell_volume   1545.59678739
_cell_formula_units_Z   2
loop_
 _symmetry_equiv_pos_site_id
 _symmetry_equiv_pos_as_xyz
  1  'x, y, z'
loop_
 _atom_site_type_symbol
 _atom_site_label
 _atom_site_symmetry_multiplicity
 _atom_site_fract_x
 _atom_site_fract_y
 _atom_site_fract_z
 _atom_site_occupancy
 _atom_site_charge
  Ni  Ni1  1  0.750000  0.675560  0.324440  1.0  0.5454
  Ni  Ni2  1  0.250000  0.324440  0.675560  1.0  0.5456
  H  H3  1  0.503200  0.605200  0.136800  1.0  0.0774
  H  H4  1  0.485000  0.600400  0.963200  1.0  0.1165
  H  H5  1  0.929900  0.745400  0.994800  1.0  0.1202
  H  H6  1  0.938600  0.746100  0.168700  1.0  0.0764
  H  H7  1  0.671500  0.598500  0.819700  1.0  0.1009
  H  H8  1  0.611700  0.702300  0.822700  1.0  0.0845
  H  H9  1  0.902100  0.572200  0.498800  1.0  0.0857
  H  H10  1  0.917400  0.572700  0.672300  1.0  0.1091
  H  H11  1  0.705000  0.826100  0.676500  1.0  0.1151
  H  H12  1  0.677400  0.808900  0.501300  1.0  0.0678
  H  H13  1  0.922600  0.674400  0.831400  1.0  0.0691
  H  H14  1  0.862200  0.778000  0.833600  1.0  0.0747
  H  H15  1  0.996800  0.863200  0.394800  1.0  0.0779
  H  H16  1  0.015000  0.036800  0.399600  1.0  0.1164
  H  H17  1  0.570100  0.005200  0.254600  1.0  0.1198
  H  H18  1  0.561400  0.831300  0.253900  1.0  0.077
  H  H19  1  0.828500  0.180300  0.401500  1.0  0.1018
  H  H20  1  0.888300  0.177300  0.297700  1.0  0.0854
  H  H21  1  0.597900  0.501200  0.427800  1.0  0.0855
  H  H22  1  0.582600  0.327700  0.427300  1.0  0.1097
  H  H23  1  0.795000  0.323500  0.173900  1.0  0.1148
  H  H24  1  0.822600  0.498700  0.191100  1.0  0.0678
  H  H25  1  0.577400  0.168600  0.325600  1.0  0.0684
  H  H26  1  0.637800  0.166400  0.222000  1.0  0.0722
  H  H27  1  0.496800  0.394800  0.863200  1.0  0.0779
  H  H28  1  0.515000  0.399600  0.036800  1.0  0.1168
  H  H29  1  0.070100  0.254600  0.005200  1.0  0.12
  H  H30  1  0.061400  0.253900  0.831300  1.0  0.0771
  H  H31  1  0.328500  0.401500  0.180300  1.0  0.102
  H  H32  1  0.388300  0.297700  0.177300  1.0  0.0855
  H  H33  1  0.097900  0.427800  0.501200  1.0  0.0865
  H  H34  1  0.082600  0.427300  0.327700  1.0  0.1099
  H  H35  1  0.295000  0.173900  0.323500  1.0  0.1141
  H  H36  1  0.322600  0.191100  0.498700  1.0  0.0682
  H  H37  1  0.077400  0.325600  0.168600  1.0  0.0675
  H  H38  1  0.137800  0.222000  0.166400  1.0  0.073
  H  H39  1  0.003200  0.136800  0.605200  1.0  0.0783
  H  H40  1  0.985000  0.963200  0.600400  1.0  0.1158
  H  H41  1  0.429900  0.994800  0.745400  1.0  0.1204
  H  H42  1  0.438600  0.168700  0.746100  1.0  0.077
  H  H43  1  0.171500  0.819700  0.598500  1.0  0.1012
  H  H44  1  0.111700  0.822700  0.702300  1.0  0.0859
  H  H45  1  0.402100  0.498800  0.572200  1.0  0.0852
  H  H46  1  0.417400  0.672300  0.572700  1.0  0.1099
  H  H47  1  0.205000  0.676500  0.826100  1.0  0.1135
  H  H48  1  0.177400  0.501300  0.808900  1.0  0.0674
  H  H49  1  0.422600  0.831400  0.674400  1.0  0.069
  H  H50  1  0.362200  0.833600  0.778000  1.0  0.0725
  C  C51  1  0.592000  0.634100  0.107300  1.0  0.1225
  C  C52  1  0.579000  0.631600  0.004200  1.0  -0.2305
  C  C53  1  0.704000  0.672300  0.959900  1.0  0.1296
  C  C54  1  0.841000  0.714000  0.022800  1.0  -0.2781
  C  C55  1  0.844000  0.714000  0.124800  1.0  0.1331
  C  C56  1  0.694000  0.667800  0.847000  1.0  -0.1705
  C  C57  1  0.855000  0.623200  0.536000  1.0  0.1266
  C  C58  1  0.868000  0.626500  0.638700  1.0  -0.2306
  C  C59  1  0.815000  0.702700  0.693300  1.0  0.1347
  C  C60  1  0.746000  0.771100  0.641900  1.0  -0.2482
  C  C61  1  0.731000  0.760900  0.537900  1.0  0.1342
  C  C62  1  0.833000  0.708900  0.806500  1.0  -0.1442
  C  C63  1  0.383000  0.652700  0.347100  1.0  0.5253
  C  C64  1  0.908000  0.892700  0.365900  1.0  0.1224
  C  C65  1  0.921000  0.995800  0.368400  1.0  -0.229
  C  C66  1  0.796000  0.040100  0.327700  1.0  0.1296
  C  C67  1  0.659000  0.977200  0.286000  1.0  -0.2776
  C  C68  1  0.656000  0.875200  0.286000  1.0  0.1336
  C  C69  1  0.806000  0.153000  0.332200  1.0  -0.1695
  C  C70  1  0.645000  0.464000  0.376800  1.0  0.1269
  C  C71  1  0.632000  0.361300  0.373500  1.0  -0.231
  C  C72  1  0.685000  0.306700  0.297300  1.0  0.1347
  C  C73  1  0.754000  0.358100  0.228900  1.0  -0.2414
  C  C74  1  0.769000  0.462100  0.239100  1.0  0.1332
  C  C75  1  0.667000  0.193500  0.291100  1.0  -0.1455
  C  C76  1  0.117000  0.652900  0.347300  1.0  0.5232
  C  C77  1  0.408000  0.365900  0.892700  1.0  0.1225
  C  C78  1  0.421000  0.368400  0.995800  1.0  -0.2282
  C  C79  1  0.296000  0.327700  0.040100  1.0  0.1296
  C  C80  1  0.159000  0.286000  0.977200  1.0  -0.2776
  C  C81  1  0.156000  0.286000  0.875200  1.0  0.1349
  C  C82  1  0.306000  0.332200  0.153000  1.0  -0.1728
  C  C83  1  0.145000  0.376800  0.464000  1.0  0.1275
  C  C84  1  0.132000  0.373500  0.361300  1.0  -0.236
  C  C85  1  0.185000  0.297300  0.306700  1.0  0.1349
  C  C86  1  0.254000  0.228900  0.358100  1.0  -0.2467
  C  C87  1  0.269000  0.239100  0.462100  1.0  0.1343
  C  C88  1  0.167000  0.291100  0.193500  1.0  -0.1447
  C  C89  1  0.617000  0.347300  0.652900  1.0  0.5239
  C  C90  1  0.092000  0.107300  0.634100  1.0  0.1213
  C  C91  1  0.079000  0.004200  0.631600  1.0  -0.2297
  C  C92  1  0.204000  0.959900  0.672300  1.0  0.1298
  C  C93  1  0.341000  0.022800  0.714000  1.0  -0.2777
  C  C94  1  0.344000  0.124800  0.714000  1.0  0.1341
  C  C95  1  0.194000  0.847000  0.667800  1.0  -0.1723
  C  C96  1  0.355000  0.536000  0.623200  1.0  0.1264
  C  C97  1  0.368000  0.638700  0.626500  1.0  -0.2269
  C  C98  1  0.315000  0.693300  0.702700  1.0  0.1344
  C  C99  1  0.246000  0.641900  0.771100  1.0  -0.243
  C  C100  1  0.231000  0.537900  0.760900  1.0  0.1341
  C  C101  1  0.333000  0.806500  0.708900  1.0  -0.1455
  C  C102  1  0.883000  0.347100  0.652700  1.0  0.522
  N  N103  1  0.724400  0.673200  0.168000  1.0  -0.2805
  N  N104  1  0.783000  0.687900  0.484500  1.0  -0.2721
  N  N105  1  0.510500  0.668400  0.330600  1.0  -0.5819
  N  N106  1  0.775600  0.832000  0.326800  1.0  -0.2815
  N  N107  1  0.717000  0.515500  0.312100  1.0  -0.2717
  N  N108  1  0.989500  0.669400  0.331600  1.0  -0.5795
  N  N109  1  0.250000  0.624300  0.375700  1.0  -0.4943
  N  N110  1  0.275600  0.326800  0.832000  1.0  -0.2799
  N  N111  1  0.217000  0.312100  0.515500  1.0  -0.2707
  N  N112  1  0.489500  0.331600  0.669400  1.0  -0.5807
  N  N113  1  0.224400  0.168000  0.673200  1.0  -0.2811
  N  N114  1  0.283000  0.484500  0.687900  1.0  -0.2731
  N  N115  1  0.010500  0.330600  0.668400  1.0  -0.5796
  N  N116  1  0.750000  0.375700  0.624300  1.0  -0.4752
