# generated using pymatgen
data_NiH24C26N7
_symmetry_space_group_name_H-M   'P 1'
_cell_length_a   8.63200000
_cell_length_b   13.52040000
_cell_length_c   13.52040000
_cell_angle_alpha   95.33570000
_cell_angle_beta   96.97580000
_cell_angle_gamma   96.97580000
_symmetry_Int_Tables_number   1
_chemical_formula_structural   NiH24C26N7
_chemical_formula_sum   'Ni2 H48 C52 N14'
_cell_volume   1545.34172715
_cell_formula_units_Z   2
loop_
 _symmetry_equiv_pos_site_id
 _symmetry_equiv_pos_as_xyz
  1  'x, y, z'
loop_
 _atom_site_type_symbol
 _atom_site_label
 _atom_site_symmetry_multiplicity
 _atom_site_fract_x
 _atom_site_fract_y
 _atom_site_fract_z
 _atom_site_occupancy
 _atom_site_charge
  Ni  Ni1  1  0.750000  0.677310  0.322690  1.0  0.5401
  Ni  Ni2  1  0.250000  0.322690  0.677310  1.0  0.5397
  H  H3  1  0.508700  0.602000  0.133800  1.0  0.0795
  H  H4  1  0.487300  0.601300  0.960500  1.0  0.105
  H  H5  1  0.926500  0.756000  0.996000  1.0  0.1173
  H  H6  1  0.936400  0.751300  0.167700  1.0  0.0788
  H  H7  1  0.612100  0.708500  0.822300  1.0  0.0892
  H  H8  1  0.666300  0.603100  0.817700  1.0  0.0934
  H  H9  1  0.675000  0.812900  0.500100  1.0  0.0843
  H  H10  1  0.707500  0.829800  0.676000  1.0  0.1121
  H  H11  1  0.920800  0.578600  0.671400  1.0  0.1108
  H  H12  1  0.899400  0.573200  0.498200  1.0  0.0815
  H  H13  1  0.865800  0.779700  0.833300  1.0  0.08
  H  H14  1  0.919900  0.674300  0.828500  1.0  0.0704
  H  H15  1  0.991300  0.866200  0.398000  1.0  0.0803
  H  H16  1  0.012700  0.039500  0.398700  1.0  0.105
  H  H17  1  0.573500  0.004000  0.244000  1.0  0.116
  H  H18  1  0.563600  0.832300  0.248700  1.0  0.08
  H  H19  1  0.887900  0.177700  0.291500  1.0  0.089
  H  H20  1  0.833700  0.182300  0.396900  1.0  0.0964
  H  H21  1  0.825000  0.499900  0.187100  1.0  0.0852
  H  H22  1  0.792500  0.324000  0.170200  1.0  0.1113
  H  H23  1  0.579200  0.328600  0.421400  1.0  0.1114
  H  H24  1  0.600600  0.501800  0.426800  1.0  0.0805
  H  H25  1  0.634200  0.166700  0.220300  1.0  0.0817
  H  H26  1  0.580100  0.171500  0.325700  1.0  0.0712
  H  H27  1  0.491300  0.398000  0.866200  1.0  0.0807
  H  H28  1  0.512700  0.398700  0.039500  1.0  0.1053
  H  H29  1  0.073500  0.244000  0.004000  1.0  0.117
  H  H30  1  0.063600  0.248700  0.832300  1.0  0.0789
  H  H31  1  0.387900  0.291500  0.177700  1.0  0.0907
  H  H32  1  0.333700  0.396900  0.182300  1.0  0.0948
  H  H33  1  0.325000  0.187100  0.499900  1.0  0.0843
  H  H34  1  0.292500  0.170200  0.324000  1.0  0.1106
  H  H35  1  0.079200  0.421400  0.328600  1.0  0.1107
  H  H36  1  0.100600  0.426800  0.501800  1.0  0.0817
  H  H37  1  0.134200  0.220300  0.166700  1.0  0.0787
  H  H38  1  0.080100  0.325700  0.171500  1.0  0.0699
  H  H39  1  0.008700  0.133800  0.602000  1.0  0.0799
  H  H40  1  0.987300  0.960500  0.601300  1.0  0.1044
  H  H41  1  0.426500  0.996000  0.756000  1.0  0.1161
  H  H42  1  0.436400  0.167700  0.751300  1.0  0.0793
  H  H43  1  0.112100  0.822300  0.708500  1.0  0.09
  H  H44  1  0.166300  0.817700  0.603100  1.0  0.0963
  H  H45  1  0.175000  0.500100  0.812900  1.0  0.0832
  H  H46  1  0.207500  0.676000  0.829800  1.0  0.1096
  H  H47  1  0.420800  0.671400  0.578600  1.0  0.1118
  H  H48  1  0.399400  0.498200  0.573200  1.0  0.0807
  H  H49  1  0.365800  0.833300  0.779700  1.0  0.0799
  H  H50  1  0.419900  0.828500  0.674300  1.0  0.0709
  C  C51  1  0.595500  0.633100  0.104900  1.0  0.1277
  C  C52  1  0.583600  0.632600  0.002600  1.0  -0.2245
  C  C53  1  0.706200  0.677000  0.958800  1.0  0.1353
  C  C54  1  0.838800  0.722800  0.022600  1.0  -0.2631
  C  C55  1  0.844500  0.719600  0.124800  1.0  0.1387
  C  C56  1  0.695200  0.674200  0.845800  1.0  -0.1668
  C  C57  1  0.855400  0.625500  0.534500  1.0  0.1247
  C  C58  1  0.869300  0.629100  0.638300  1.0  -0.2216
  C  C59  1  0.815800  0.704500  0.693100  1.0  0.1272
  C  C60  1  0.744900  0.773800  0.640200  1.0  -0.2532
  C  C61  1  0.728300  0.764200  0.535600  1.0  0.1292
  C  C62  1  0.833500  0.712200  0.805800  1.0  -0.1452
  C  C63  1  0.384600  0.653500  0.345100  1.0  0.538
  C  C64  1  0.904500  0.895100  0.366900  1.0  0.1265
  C  C65  1  0.916400  0.997400  0.367400  1.0  -0.2248
  C  C66  1  0.793800  0.041200  0.323000  1.0  0.1359
  C  C67  1  0.661200  0.977400  0.277200  1.0  -0.2613
  C  C68  1  0.655500  0.875200  0.280400  1.0  0.1394
  C  C69  1  0.804800  0.154200  0.325800  1.0  -0.1669
  C  C70  1  0.644600  0.465500  0.374500  1.0  0.1241
  C  C71  1  0.630700  0.361700  0.370900  1.0  -0.2195
  C  C72  1  0.684200  0.306900  0.295500  1.0  0.1274
  C  C73  1  0.755100  0.359800  0.226200  1.0  -0.2475
  C  C74  1  0.771700  0.464400  0.235800  1.0  0.1283
  C  C75  1  0.666500  0.194200  0.287800  1.0  -0.1463
  C  C76  1  0.115400  0.654900  0.346500  1.0  0.5371
  C  C77  1  0.404500  0.366900  0.895100  1.0  0.1261
  C  C78  1  0.416400  0.367400  0.997400  1.0  -0.2241
  C  C79  1  0.293800  0.323000  0.041200  1.0  0.1363
  C  C80  1  0.161200  0.277200  0.977400  1.0  -0.2609
  C  C81  1  0.155500  0.280400  0.875200  1.0  0.1399
  C  C82  1  0.304800  0.325800  0.154200  1.0  -0.1693
  C  C83  1  0.144600  0.374500  0.465500  1.0  0.1253
  C  C84  1  0.130700  0.370900  0.361700  1.0  -0.2243
  C  C85  1  0.184200  0.295500  0.306900  1.0  0.1274
  C  C86  1  0.255100  0.226200  0.359800  1.0  -0.2516
  C  C87  1  0.271700  0.235800  0.464400  1.0  0.1305
  C  C88  1  0.166500  0.287800  0.194200  1.0  -0.1446
  C  C89  1  0.615400  0.346500  0.654900  1.0  0.5363
  C  C90  1  0.095500  0.104900  0.633100  1.0  0.1261
  C  C91  1  0.083600  0.002600  0.632600  1.0  -0.2243
  C  C92  1  0.206200  0.958800  0.677000  1.0  0.1358
  C  C93  1  0.338800  0.022600  0.722800  1.0  -0.2624
  C  C94  1  0.344500  0.124800  0.719600  1.0  0.1393
  C  C95  1  0.195200  0.845800  0.674200  1.0  -0.167
  C  C96  1  0.355400  0.534500  0.625500  1.0  0.1248
  C  C97  1  0.369300  0.638300  0.629100  1.0  -0.2138
  C  C98  1  0.315800  0.693100  0.704500  1.0  0.1267
  C  C99  1  0.244900  0.640200  0.773800  1.0  -0.2474
  C  C100  1  0.228300  0.535600  0.764200  1.0  0.1287
  C  C101  1  0.333500  0.805800  0.712200  1.0  -0.1458
  C  C102  1  0.884600  0.345100  0.653500  1.0  0.5361
  N  N103  1  0.725500  0.674600  0.166400  1.0  -0.2893
  N  N104  1  0.783100  0.691000  0.482800  1.0  -0.2758
  N  N105  1  0.509800  0.669700  0.328300  1.0  -0.5781
  N  N106  1  0.774500  0.833600  0.325400  1.0  -0.2903
  N  N107  1  0.716900  0.517200  0.309000  1.0  -0.2775
  N  N108  1  0.990200  0.671700  0.330300  1.0  -0.5752
  N  N109  1  0.250000  0.625600  0.374400  1.0  -0.5673
  N  N110  1  0.274500  0.325400  0.833600  1.0  -0.2892
  N  N111  1  0.216900  0.309000  0.517200  1.0  -0.276
  N  N112  1  0.490200  0.330300  0.671700  1.0  -0.5758
  N  N113  1  0.225500  0.166400  0.674600  1.0  -0.29
  N  N114  1  0.283100  0.482800  0.691000  1.0  -0.2774
  N  N115  1  0.009800  0.328300  0.669700  1.0  -0.5777
  N  N116  1  0.750000  0.374400  0.625600  1.0  -0.5584
