# generated using pymatgen
data_CdH17C17N5O4
_symmetry_space_group_name_H-M   'P 1'
_cell_length_a   16.66200000
_cell_length_b   14.86100000
_cell_length_c   17.97770000
_cell_angle_alpha   90.00000000
_cell_angle_beta   113.11700000
_cell_angle_gamma   90.00000000
_symmetry_Int_Tables_number   1
_chemical_formula_structural   CdH17C17N5O4
_chemical_formula_sum   'Cd8 H136 C136 N40 O32'
_cell_volume   4094.09450613
_cell_formula_units_Z   8
loop_
 _symmetry_equiv_pos_site_id
 _symmetry_equiv_pos_as_xyz
  1  'x, y, z'
loop_
 _atom_site_type_symbol
 _atom_site_label
 _atom_site_symmetry_multiplicity
 _atom_site_fract_x
 _atom_site_fract_y
 _atom_site_fract_z
 _atom_site_occupancy
 _atom_site_charge
  Cd  Cd1  1  0.118050  0.924150  0.249500  1.0  0.9567
  Cd  Cd2  1  0.618050  0.424150  0.749500  1.0  0.9567
  Cd  Cd3  1  0.381950  0.924150  0.750500  1.0  0.9569
  Cd  Cd4  1  0.881950  0.424150  0.250500  1.0  0.9569
  Cd  Cd5  1  0.881950  0.075850  0.750500  1.0  0.957
  Cd  Cd6  1  0.381950  0.575850  0.250500  1.0  0.957
  Cd  Cd7  1  0.618050  0.075850  0.249500  1.0  0.9567
  Cd  Cd8  1  0.118050  0.575850  0.749500  1.0  0.9567
  H  H9  1  0.272500  0.027800  0.401100  1.0  0.1025
  H  H10  1  0.255200  0.766700  0.376200  1.0  0.0949
  H  H11  1  0.376400  0.797900  0.503500  1.0  0.1244
  H  H12  1  0.414600  0.954300  0.593800  1.0  0.082
  H  H13  1  0.389200  0.042700  0.542100  1.0  0.0875
  H  H14  1  0.537100  0.020000  0.582700  1.0  0.0695
  H  H15  1  0.522000  0.922300  0.547800  1.0  0.0834
  H  H16  1  0.131200  0.082300  0.123500  1.0  0.1003
  H  H17  1  0.095300  0.827000  0.068400  1.0  0.104
  H  H18  1  0.097100  0.906500  0.949900  1.0  0.1202
  H  H19  1  0.121800  0.152600  0.994800  1.0  0.0837
  H  H20  1  0.077900  0.095000  0.916000  1.0  0.0761
  H  H21  1  0.214500  0.142600  0.927700  1.0  0.077
  H  H22  1  0.211400  0.037400  0.930100  1.0  0.0638
  H  H23  1  0.921200  0.892800  0.242400  1.0  0.0778
  H  H24  1  0.798600  0.973100  0.231100  1.0  0.1062
  H  H25  1  0.804800  0.129100  0.233100  1.0  0.0996
  H  H26  1  0.772500  0.527800  0.901100  1.0  0.1025
  H  H27  1  0.755200  0.266700  0.876200  1.0  0.0949
  H  H28  1  0.876400  0.297900  0.003500  1.0  0.1244
  H  H29  1  0.914600  0.454300  0.093800  1.0  0.082
  H  H30  1  0.889200  0.542700  0.042100  1.0  0.0875
  H  H31  1  0.037100  0.520000  0.082700  1.0  0.0695
  H  H32  1  0.022000  0.422300  0.047800  1.0  0.0834
  H  H33  1  0.631200  0.582300  0.623500  1.0  0.1003
  H  H34  1  0.595300  0.327000  0.568400  1.0  0.104
  H  H35  1  0.597100  0.406500  0.449900  1.0  0.1202
  H  H36  1  0.621800  0.652600  0.494800  1.0  0.0837
  H  H37  1  0.577900  0.595000  0.416000  1.0  0.0761
  H  H38  1  0.714500  0.642600  0.427700  1.0  0.077
  H  H39  1  0.711400  0.537400  0.430100  1.0  0.0638
  H  H40  1  0.421200  0.392800  0.742400  1.0  0.0778
  H  H41  1  0.298600  0.473100  0.731100  1.0  0.1062
  H  H42  1  0.304800  0.629100  0.733100  1.0  0.0996
  H  H43  1  0.227500  0.027800  0.598900  1.0  0.1029
  H  H44  1  0.244800  0.766700  0.623800  1.0  0.0953
  H  H45  1  0.123600  0.797900  0.496500  1.0  0.1239
  H  H46  1  0.085400  0.954300  0.406200  1.0  0.0825
  H  H47  1  0.110800  0.042700  0.457900  1.0  0.0868
  H  H48  1  0.962900  0.020000  0.417300  1.0  0.0707
  H  H49  1  0.978000  0.922300  0.452200  1.0  0.0829
  H  H50  1  0.368800  0.082300  0.876500  1.0  0.1001
  H  H51  1  0.404700  0.827000  0.931600  1.0  0.1043
  H  H52  1  0.402900  0.906500  0.050100  1.0  0.1205
  H  H53  1  0.378200  0.152600  0.005200  1.0  0.0839
  H  H54  1  0.422100  0.095000  0.084000  1.0  0.0766
  H  H55  1  0.285500  0.142600  0.072300  1.0  0.0756
  H  H56  1  0.288600  0.037400  0.069900  1.0  0.0643
  H  H57  1  0.578800  0.892800  0.757600  1.0  0.0778
  H  H58  1  0.701400  0.973100  0.768900  1.0  0.1056
  H  H59  1  0.695200  0.129100  0.766900  1.0  0.1
  H  H60  1  0.727500  0.527800  0.098900  1.0  0.1029
  H  H61  1  0.744800  0.266700  0.123800  1.0  0.0953
  H  H62  1  0.623600  0.297900  0.996500  1.0  0.1239
  H  H63  1  0.585400  0.454300  0.906200  1.0  0.0825
  H  H64  1  0.610800  0.542700  0.957900  1.0  0.0868
  H  H65  1  0.462900  0.520000  0.917300  1.0  0.0707
  H  H66  1  0.478000  0.422300  0.952200  1.0  0.0829
  H  H67  1  0.868800  0.582300  0.376500  1.0  0.1001
  H  H68  1  0.904700  0.327000  0.431600  1.0  0.1043
  H  H69  1  0.902900  0.406500  0.550100  1.0  0.1205
  H  H70  1  0.878200  0.652600  0.505200  1.0  0.0839
  H  H71  1  0.922100  0.595000  0.584000  1.0  0.0766
  H  H72  1  0.785500  0.642600  0.572300  1.0  0.0756
  H  H73  1  0.788600  0.537400  0.569900  1.0  0.0643
  H  H74  1  0.078800  0.392800  0.257600  1.0  0.0778
  H  H75  1  0.201400  0.473100  0.268900  1.0  0.1056
  H  H76  1  0.195200  0.629100  0.266900  1.0  0.1
  H  H77  1  0.727500  0.972200  0.598900  1.0  0.1029
  H  H78  1  0.744800  0.233300  0.623800  1.0  0.0953
  H  H79  1  0.623600  0.202100  0.496500  1.0  0.1246
  H  H80  1  0.585400  0.045700  0.406200  1.0  0.0824
  H  H81  1  0.610800  0.957300  0.457900  1.0  0.0858
  H  H82  1  0.462900  0.980000  0.417300  1.0  0.07
  H  H83  1  0.478000  0.077700  0.452200  1.0  0.0849
  H  H84  1  0.868800  0.917700  0.876500  1.0  0.1002
  H  H85  1  0.904700  0.173000  0.931600  1.0  0.1044
  H  H86  1  0.902900  0.093500  0.050100  1.0  0.1208
  H  H87  1  0.878200  0.847400  0.005200  1.0  0.085
  H  H88  1  0.922100  0.905000  0.084000  1.0  0.0771
  H  H89  1  0.785500  0.857400  0.072300  1.0  0.0776
  H  H90  1  0.788600  0.962600  0.069900  1.0  0.0629
  H  H91  1  0.078800  0.107200  0.757600  1.0  0.0771
  H  H92  1  0.201400  0.026900  0.768900  1.0  0.1057
  H  H93  1  0.195200  0.870900  0.766900  1.0  0.1001
  H  H94  1  0.227500  0.472200  0.098900  1.0  0.1029
  H  H95  1  0.244800  0.733300  0.123800  1.0  0.0953
  H  H96  1  0.123600  0.702100  0.996500  1.0  0.1246
  H  H97  1  0.085400  0.545700  0.906200  1.0  0.0824
  H  H98  1  0.110800  0.457300  0.957900  1.0  0.0858
  H  H99  1  0.962900  0.480000  0.917300  1.0  0.07
  H  H100  1  0.978000  0.577700  0.952200  1.0  0.0849
  H  H101  1  0.368800  0.417700  0.376500  1.0  0.1002
  H  H102  1  0.404700  0.673000  0.431600  1.0  0.1044
  H  H103  1  0.402900  0.593500  0.550100  1.0  0.1208
  H  H104  1  0.378200  0.347400  0.505200  1.0  0.085
  H  H105  1  0.422100  0.405000  0.584000  1.0  0.0771
  H  H106  1  0.285500  0.357400  0.572300  1.0  0.0776
  H  H107  1  0.288600  0.462600  0.569900  1.0  0.0629
  H  H108  1  0.578800  0.607200  0.257600  1.0  0.0771
  H  H109  1  0.701400  0.526900  0.268900  1.0  0.1057
  H  H110  1  0.695200  0.370900  0.266900  1.0  0.1001
  H  H111  1  0.772500  0.972200  0.401100  1.0  0.1026
  H  H112  1  0.755200  0.233300  0.376200  1.0  0.0952
  H  H113  1  0.876400  0.202100  0.503500  1.0  0.1243
  H  H114  1  0.914600  0.045700  0.593800  1.0  0.0822
  H  H115  1  0.889200  0.957300  0.542100  1.0  0.0853
  H  H116  1  0.037100  0.980000  0.582700  1.0  0.0697
  H  H117  1  0.022000  0.077700  0.547800  1.0  0.0839
  H  H118  1  0.631200  0.917700  0.123500  1.0  0.1003
  H  H119  1  0.595300  0.173000  0.068400  1.0  0.1038
  H  H120  1  0.597100  0.093500  0.949900  1.0  0.1203
  H  H121  1  0.621800  0.847400  0.994800  1.0  0.0849
  H  H122  1  0.577900  0.905000  0.916000  1.0  0.0755
  H  H123  1  0.714500  0.857400  0.927700  1.0  0.0762
  H  H124  1  0.711400  0.962600  0.930100  1.0  0.0627
  H  H125  1  0.421200  0.107200  0.242400  1.0  0.077
  H  H126  1  0.298600  0.026900  0.231100  1.0  0.1057
  H  H127  1  0.304800  0.870900  0.233100  1.0  0.0999
  H  H128  1  0.272500  0.472200  0.901100  1.0  0.1026
  H  H129  1  0.255200  0.733300  0.876200  1.0  0.0952
  H  H130  1  0.376400  0.702100  0.003500  1.0  0.1243
  H  H131  1  0.414600  0.545700  0.093800  1.0  0.0822
  H  H132  1  0.389200  0.457300  0.042100  1.0  0.0853
  H  H133  1  0.537100  0.480000  0.082700  1.0  0.0697
  H  H134  1  0.522000  0.577700  0.047800  1.0  0.0839
  H  H135  1  0.131200  0.417700  0.623500  1.0  0.1003
  H  H136  1  0.095300  0.673000  0.568400  1.0  0.1038
  H  H137  1  0.097100  0.593500  0.449900  1.0  0.1203
  H  H138  1  0.121800  0.347400  0.494800  1.0  0.0849
  H  H139  1  0.077900  0.405000  0.416000  1.0  0.0755
  H  H140  1  0.214500  0.357400  0.427700  1.0  0.0762
  H  H141  1  0.211400  0.462600  0.430100  1.0  0.0627
  H  H142  1  0.921200  0.607200  0.742400  1.0  0.077
  H  H143  1  0.798600  0.526900  0.731100  1.0  0.1057
  H  H144  1  0.804800  0.370900  0.733100  1.0  0.0999
  C  C145  1  0.282500  0.966400  0.410610  1.0  0.1196
  C  C146  1  0.273600  0.823700  0.397310  1.0  0.0351
  C  C147  1  0.340500  0.840100  0.467620  1.0  -0.1721
  C  C148  1  0.409500  0.981400  0.543040  1.0  -0.0282
  C  C149  1  0.498700  0.982900  0.538760  1.0  -0.1416
  C  C150  1  0.122400  0.028300  0.095320  1.0  0.1279
  C  C151  1  0.103000  0.888600  0.064800  1.0  -0.0101
  C  C152  1  0.103400  0.932400  0.999000  1.0  -0.1789
  C  C153  1  0.125200  0.096200  0.969000  1.0  -0.0163
  C  C154  1  0.210300  0.091600  0.959600  1.0  -0.1482
  C  C155  1  0.923600  0.955300  0.244260  1.0  0.1359
  C  C156  1  0.849900  0.002800  0.236830  1.0  -0.1293
  C  C157  1  0.853900  0.095600  0.238100  1.0  -0.0324
  C  C158  1  0.930500  0.139200  0.246710  1.0  -0.1057
  C  C159  1  0.004700  0.087900  0.257900  1.0  0.0378
  C  C160  1  0.095100  0.126500  0.279800  1.0  0.6604
  C  C161  1  0.930600  0.240900  0.242840  1.0  0.6552
  C  C162  1  0.782500  0.466400  0.910610  1.0  0.1196
  C  C163  1  0.773600  0.323700  0.897310  1.0  0.0351
  C  C164  1  0.840500  0.340100  0.967620  1.0  -0.1721
  C  C165  1  0.909500  0.481400  0.043040  1.0  -0.0282
  C  C166  1  0.998700  0.482900  0.038760  1.0  -0.1416
  C  C167  1  0.622400  0.528300  0.595320  1.0  0.1279
  C  C168  1  0.603000  0.388600  0.564800  1.0  -0.0101
  C  C169  1  0.603400  0.432400  0.499000  1.0  -0.1789
  C  C170  1  0.625200  0.596200  0.469000  1.0  -0.0163
  C  C171  1  0.710300  0.591600  0.459600  1.0  -0.1482
  C  C172  1  0.423600  0.455300  0.744260  1.0  0.1359
  C  C173  1  0.349900  0.502800  0.736830  1.0  -0.1293
  C  C174  1  0.353900  0.595600  0.738100  1.0  -0.0324
  C  C175  1  0.430500  0.639200  0.746710  1.0  -0.1057
  C  C176  1  0.504700  0.587900  0.757900  1.0  0.0378
  C  C177  1  0.595100  0.626500  0.779800  1.0  0.6604
  C  C178  1  0.430600  0.740900  0.742840  1.0  0.6552
  C  C179  1  0.217500  0.966400  0.589390  1.0  0.1193
  C  C180  1  0.226400  0.823700  0.602690  1.0  0.0368
  C  C181  1  0.159500  0.840100  0.532380  1.0  -0.1729
  C  C182  1  0.090500  0.981400  0.456960  1.0  -0.0268
  C  C183  1  0.001300  0.982900  0.461240  1.0  -0.1424
  C  C184  1  0.377600  0.028300  0.904680  1.0  0.1274
  C  C185  1  0.397000  0.888600  0.935200  1.0  -0.0094
  C  C186  1  0.396600  0.932400  0.001000  1.0  -0.1778
  C  C187  1  0.374800  0.096200  0.031000  1.0  -0.017
  C  C188  1  0.289700  0.091600  0.040400  1.0  -0.1491
  C  C189  1  0.576400  0.955300  0.755740  1.0  0.1354
  C  C190  1  0.650100  0.002800  0.763170  1.0  -0.129
  C  C191  1  0.646100  0.095600  0.761900  1.0  -0.0331
  C  C192  1  0.569500  0.139200  0.753290  1.0  -0.1056
  C  C193  1  0.495300  0.087900  0.742100  1.0  0.037
  C  C194  1  0.404900  0.126500  0.720200  1.0  0.6593
  C  C195  1  0.569400  0.240900  0.757160  1.0  0.655
  C  C196  1  0.717500  0.466400  0.089390  1.0  0.1193
  C  C197  1  0.726400  0.323700  0.102690  1.0  0.0368
  C  C198  1  0.659500  0.340100  0.032380  1.0  -0.1729
  C  C199  1  0.590500  0.481400  0.956960  1.0  -0.0268
  C  C200  1  0.501300  0.482900  0.961240  1.0  -0.1424
  C  C201  1  0.877600  0.528300  0.404680  1.0  0.1274
  C  C202  1  0.897000  0.388600  0.435200  1.0  -0.0094
  C  C203  1  0.896600  0.432400  0.501000  1.0  -0.1778
  C  C204  1  0.874800  0.596200  0.531000  1.0  -0.017
  C  C205  1  0.789700  0.591600  0.540400  1.0  -0.1491
  C  C206  1  0.076400  0.455300  0.255740  1.0  0.1354
  C  C207  1  0.150100  0.502800  0.263170  1.0  -0.129
  C  C208  1  0.146100  0.595600  0.261900  1.0  -0.0331
  C  C209  1  0.069500  0.639200  0.253290  1.0  -0.1056
  C  C210  1  0.995300  0.587900  0.242100  1.0  0.037
  C  C211  1  0.904900  0.626500  0.220200  1.0  0.6593
  C  C212  1  0.069400  0.740900  0.257160  1.0  0.655
  C  C213  1  0.717500  0.033600  0.589390  1.0  0.1194
  C  C214  1  0.726400  0.176300  0.602690  1.0  0.0367
  C  C215  1  0.659500  0.159900  0.532380  1.0  -0.1733
  C  C216  1  0.590500  0.018600  0.456960  1.0  -0.0261
  C  C217  1  0.501300  0.017100  0.461240  1.0  -0.1419
  C  C218  1  0.877600  0.971700  0.904680  1.0  0.127
  C  C219  1  0.897000  0.111400  0.935200  1.0  -0.0093
  C  C220  1  0.896600  0.067600  0.001000  1.0  -0.1785
  C  C221  1  0.874800  0.903800  0.031000  1.0  -0.0173
  C  C222  1  0.789700  0.908400  0.040400  1.0  -0.1487
  C  C223  1  0.076400  0.044700  0.755740  1.0  0.134
  C  C224  1  0.150100  0.997200  0.763170  1.0  -0.1288
  C  C225  1  0.146100  0.904400  0.761900  1.0  -0.033
  C  C226  1  0.069500  0.860800  0.753290  1.0  -0.1057
  C  C227  1  0.995300  0.912100  0.742100  1.0  0.038
  C  C228  1  0.904900  0.873500  0.720200  1.0  0.6585
  C  C229  1  0.069400  0.759100  0.757160  1.0  0.6552
  C  C230  1  0.217500  0.533600  0.089390  1.0  0.1194
  C  C231  1  0.226400  0.676300  0.102690  1.0  0.0367
  C  C232  1  0.159500  0.659900  0.032380  1.0  -0.1733
  C  C233  1  0.090500  0.518600  0.956960  1.0  -0.0261
  C  C234  1  0.001300  0.517100  0.961240  1.0  -0.1419
  C  C235  1  0.377600  0.471700  0.404680  1.0  0.127
  C  C236  1  0.397000  0.611400  0.435200  1.0  -0.0093
  C  C237  1  0.396600  0.567600  0.501000  1.0  -0.1785
  C  C238  1  0.374800  0.403800  0.531000  1.0  -0.0173
  C  C239  1  0.289700  0.408400  0.540400  1.0  -0.1487
  C  C240  1  0.576400  0.544700  0.255740  1.0  0.134
  C  C241  1  0.650100  0.497200  0.263170  1.0  -0.1288
  C  C242  1  0.646100  0.404400  0.261900  1.0  -0.033
  C  C243  1  0.569500  0.360800  0.253290  1.0  -0.1057
  C  C244  1  0.495300  0.412100  0.242100  1.0  0.038
  C  C245  1  0.404900  0.373500  0.220200  1.0  0.6585
  C  C246  1  0.569400  0.259100  0.257160  1.0  0.6552
  C  C247  1  0.782500  0.033600  0.410610  1.0  0.1197
  C  C248  1  0.773600  0.176300  0.397310  1.0  0.0356
  C  C249  1  0.840500  0.159900  0.467620  1.0  -0.1728
  C  C250  1  0.909500  0.018600  0.543040  1.0  -0.0283
  C  C251  1  0.998700  0.017100  0.538760  1.0  -0.1417
  C  C252  1  0.622400  0.971700  0.095320  1.0  0.128
  C  C253  1  0.603000  0.111400  0.064800  1.0  -0.0099
  C  C254  1  0.603400  0.067600  0.999000  1.0  -0.1798
  C  C255  1  0.625200  0.903800  0.969000  1.0  -0.0166
  C  C256  1  0.710300  0.908400  0.959600  1.0  -0.1474
  C  C257  1  0.423600  0.044700  0.244260  1.0  0.1343
  C  C258  1  0.349900  0.997200  0.236830  1.0  -0.1293
  C  C259  1  0.353900  0.904400  0.238100  1.0  -0.032
  C  C260  1  0.430500  0.860800  0.246710  1.0  -0.1057
  C  C261  1  0.504700  0.912100  0.257900  1.0  0.0382
  C  C262  1  0.595100  0.873500  0.279800  1.0  0.6597
  C  C263  1  0.430600  0.759100  0.242840  1.0  0.6554
  C  C264  1  0.282500  0.533600  0.910610  1.0  0.1197
  C  C265  1  0.273600  0.676300  0.897310  1.0  0.0356
  C  C266  1  0.340500  0.659900  0.967620  1.0  -0.1728
  C  C267  1  0.409500  0.518600  0.043040  1.0  -0.0283
  C  C268  1  0.498700  0.517100  0.038760  1.0  -0.1417
  C  C269  1  0.122400  0.471700  0.595320  1.0  0.128
  C  C270  1  0.103000  0.611400  0.564800  1.0  -0.0099
  C  C271  1  0.103400  0.567600  0.499000  1.0  -0.1798
  C  C272  1  0.125200  0.403800  0.469000  1.0  -0.0166
  C  C273  1  0.210300  0.408400  0.459600  1.0  -0.1474
  C  C274  1  0.923600  0.544700  0.744260  1.0  0.1343
  C  C275  1  0.849900  0.497200  0.736830  1.0  -0.1293
  C  C276  1  0.853900  0.404400  0.738100  1.0  -0.032
  C  C277  1  0.930500  0.360800  0.746710  1.0  -0.1057
  C  C278  1  0.004700  0.412100  0.757900  1.0  0.0382
  C  C279  1  0.095100  0.373500  0.779800  1.0  0.6597
  C  C280  1  0.930600  0.259100  0.742840  1.0  0.6554
  N  N281  1  0.115640  0.949720  0.125450  1.0  -0.3608
  N  N282  1  0.236310  0.901660  0.361190  1.0  -0.3973
  N  N283  1  0.998860  0.996520  0.254100  1.0  -0.3879
  N  N284  1  0.114750  0.020580  0.017820  1.0  0.0397
  N  N285  1  0.345100  0.930920  0.475630  1.0  0.0451
  N  N286  1  0.615640  0.449720  0.625450  1.0  -0.3608
  N  N287  1  0.736310  0.401660  0.861190  1.0  -0.3973
  N  N288  1  0.498860  0.496520  0.754100  1.0  -0.3879
  N  N289  1  0.614750  0.520580  0.517820  1.0  0.0397
  N  N290  1  0.845100  0.430920  0.975630  1.0  0.0451
  N  N291  1  0.384360  0.949720  0.874550  1.0  -0.3601
  N  N292  1  0.263690  0.901660  0.638810  1.0  -0.3988
  N  N293  1  0.501140  0.996520  0.745900  1.0  -0.3884
  N  N294  1  0.385250  0.020580  0.982180  1.0  0.0404
  N  N295  1  0.154900  0.930920  0.524370  1.0  0.0462
  N  N296  1  0.884360  0.449720  0.374550  1.0  -0.3601
  N  N297  1  0.763690  0.401660  0.138810  1.0  -0.3988
  N  N298  1  0.001140  0.496520  0.245900  1.0  -0.3884
  N  N299  1  0.885250  0.520580  0.482180  1.0  0.0404
  N  N300  1  0.654900  0.430920  0.024370  1.0  0.0462
  N  N301  1  0.884360  0.050280  0.874550  1.0  -0.3592
  N  N302  1  0.763690  0.098340  0.638810  1.0  -0.3989
  N  N303  1  0.001140  0.003480  0.745900  1.0  -0.3888
  N  N304  1  0.885250  0.979420  0.982180  1.0  0.0409
  N  N305  1  0.654900  0.069080  0.524370  1.0  0.0461
  N  N306  1  0.384360  0.550280  0.374550  1.0  -0.3592
  N  N307  1  0.263690  0.598340  0.138810  1.0  -0.3989
  N  N308  1  0.501140  0.503480  0.245900  1.0  -0.3888
  N  N309  1  0.385250  0.479420  0.482180  1.0  0.0409
  N  N310  1  0.154900  0.569080  0.024370  1.0  0.0461
  N  N311  1  0.615640  0.050280  0.125450  1.0  -0.3614
  N  N312  1  0.736310  0.098340  0.361190  1.0  -0.3974
  N  N313  1  0.498860  0.003480  0.254100  1.0  -0.3879
  N  N314  1  0.614750  0.979420  0.017820  1.0  0.0399
  N  N315  1  0.845100  0.069080  0.475630  1.0  0.0452
  N  N316  1  0.115640  0.550280  0.625450  1.0  -0.3614
  N  N317  1  0.236310  0.598340  0.861190  1.0  -0.3974
  N  N318  1  0.998860  0.503480  0.754100  1.0  -0.3879
  N  N319  1  0.114750  0.479420  0.517820  1.0  0.0399
  N  N320  1  0.345100  0.569080  0.975630  1.0  0.0452
  O  O321  1  0.913540  0.281400  0.295410  1.0  -0.5974
  O  O322  1  0.939020  0.279820  0.186310  1.0  -0.5475
  O  O323  1  0.152310  0.078450  0.273510  1.0  -0.6136
  O  O324  1  0.105230  0.204630  0.304580  1.0  -0.4974
  O  O325  1  0.413540  0.781400  0.795410  1.0  -0.5974
  O  O326  1  0.439020  0.779820  0.686310  1.0  -0.5475
  O  O327  1  0.652310  0.578450  0.773510  1.0  -0.6136
  O  O328  1  0.605230  0.704630  0.804580  1.0  -0.4974
  O  O329  1  0.586460  0.281400  0.704590  1.0  -0.5984
  O  O330  1  0.560980  0.279820  0.813690  1.0  -0.5459
  O  O331  1  0.347690  0.078450  0.726490  1.0  -0.6141
  O  O332  1  0.394770  0.204630  0.695420  1.0  -0.4979
  O  O333  1  0.086460  0.781400  0.204590  1.0  -0.5984
  O  O334  1  0.060980  0.779820  0.313690  1.0  -0.5459
  O  O335  1  0.847690  0.578450  0.226490  1.0  -0.6141
  O  O336  1  0.894770  0.704630  0.195420  1.0  -0.4979
  O  O337  1  0.086460  0.718600  0.704590  1.0  -0.5991
  O  O338  1  0.060980  0.720180  0.813690  1.0  -0.5472
  O  O339  1  0.847690  0.921550  0.726490  1.0  -0.6135
  O  O340  1  0.894770  0.795370  0.695420  1.0  -0.4978
  O  O341  1  0.586460  0.218600  0.204590  1.0  -0.5991
  O  O342  1  0.560980  0.220180  0.313690  1.0  -0.5472
  O  O343  1  0.347690  0.421550  0.226490  1.0  -0.6135
  O  O344  1  0.394770  0.295370  0.195420  1.0  -0.4978
  O  O345  1  0.413540  0.718600  0.295410  1.0  -0.5972
  O  O346  1  0.439020  0.720180  0.186310  1.0  -0.5481
  O  O347  1  0.652310  0.921550  0.273510  1.0  -0.6139
  O  O348  1  0.605230  0.795370  0.304580  1.0  -0.4982
  O  O349  1  0.913540  0.218600  0.795410  1.0  -0.5972
  O  O350  1  0.939020  0.220180  0.686310  1.0  -0.5481
  O  O351  1  0.152310  0.421550  0.773510  1.0  -0.6139
  O  O352  1  0.105230  0.295370  0.804580  1.0  -0.4982
