# generated using pymatgen
data_CdH17C17N5O4
_symmetry_space_group_name_H-M   'P 1'
_cell_length_a   12.26240000
_cell_length_b   12.26240000
_cell_length_c   16.37500000
_cell_angle_alpha   77.62670000
_cell_angle_beta   70.52710000
_cell_angle_gamma   105.58600000
_symmetry_Int_Tables_number   1
_chemical_formula_structural   CdH17C17N5O4
_chemical_formula_sum   'Cd4 H68 C68 N20 O16'
_cell_volume   2107.17083560
_cell_formula_units_Z   4
loop_
 _symmetry_equiv_pos_site_id
 _symmetry_equiv_pos_as_xyz
  1  'x, y, z'
loop_
 _atom_site_type_symbol
 _atom_site_label
 _atom_site_symmetry_multiplicity
 _atom_site_fract_x
 _atom_site_fract_y
 _atom_site_fract_z
 _atom_site_occupancy
 _atom_site_charge
  Cd  Cd1  1  0.830950  0.456910  0.368560  1.0  0.8929
  Cd  Cd2  1  0.325470  0.199510  0.131440  1.0  0.8934
  Cd  Cd3  1  0.169050  0.543090  0.631440  1.0  0.8928
  Cd  Cd4  1  0.674530  0.800490  0.868560  1.0  0.8925
  H  H5  1  0.145300  0.688100  0.416400  1.0  0.1103
  H  H6  1  0.297100  0.845800  0.426100  1.0  0.1324
  H  H7  1  0.361800  0.040300  0.320500  1.0  0.1018
  H  H8  1  0.552900  0.286600  0.509900  1.0  0.1138
  H  H9  1  0.755500  0.585500  0.517200  1.0  0.1109
  H  H10  1  0.558300  0.515700  0.641400  1.0  0.1196
  H  H11  1  0.358700  0.235500  0.627200  1.0  0.1005
  H  H12  1  0.333600  0.334200  0.669800  1.0  0.0911
  H  H13  1  0.411600  0.271800  0.781000  1.0  0.066
  H  H14  1  0.301500  0.162600  0.790900  1.0  0.1064
  H  H15  1  0.052700  0.944000  0.446300  1.0  0.0735
  H  H16  1  0.123400  0.055600  0.464800  1.0  0.0803
  H  H17  1  0.126900  0.121600  0.317500  1.0  0.0809
  H  H18  1  0.982600  0.060400  0.355800  1.0  0.1064
  H  H19  1  0.867200  0.196100  0.375900  1.0  0.1113
  H  H20  1  0.111600  0.474600  0.374800  1.0  0.0947
  H  H21  1  0.200300  0.320400  0.370500  1.0  0.1369
  H  H22  1  0.604500  0.561700  0.083600  1.0  0.1099
  H  H23  1  0.771900  0.723200  0.073900  1.0  0.1348
  H  H24  1  0.860800  0.682300  0.179500  1.0  0.1023
  H  H25  1  0.296500  0.062800  0.990100  1.0  0.1146
  H  H26  1  0.602700  0.272700  0.982800  1.0  0.11
  H  H27  1  0.657100  0.199700  0.858600  1.0  0.1212
  H  H28  1  0.362700  0.985900  0.872800  1.0  0.1012
  H  H29  1  0.504000  0.003400  0.830200  1.0  0.0938
  H  H30  1  0.552800  0.192600  0.719000  1.0  0.0661
  H  H31  1  0.453500  0.092400  0.709100  1.0  0.1096
  H  H32  1  0.890300  0.499000  0.053700  1.0  0.0733
  H  H33  1  0.020400  0.588200  0.035200  1.0  0.0794
  H  H34  1  0.939100  0.444400  0.182500  1.0  0.0794
  H  H35  1  0.916200  0.338400  0.144200  1.0  0.0998
  H  H36  1  0.072000  0.243100  0.124100  1.0  0.1118
  H  H37  1  0.349400  0.486400  0.125200  1.0  0.0933
  H  H38  1  0.190900  0.570800  0.129500  1.0  0.1353
  H  H39  1  0.854700  0.311900  0.583600  1.0  0.1107
  H  H40  1  0.702900  0.154200  0.573900  1.0  0.1328
  H  H41  1  0.638200  0.959700  0.679500  1.0  0.101
  H  H42  1  0.447100  0.713400  0.490100  1.0  0.1141
  H  H43  1  0.244500  0.414500  0.482800  1.0  0.1112
  H  H44  1  0.441700  0.484300  0.358600  1.0  0.1199
  H  H45  1  0.641300  0.764500  0.372800  1.0  0.1027
  H  H46  1  0.666400  0.665800  0.330200  1.0  0.0923
  H  H47  1  0.588400  0.728200  0.219000  1.0  0.0671
  H  H48  1  0.698500  0.837400  0.209100  1.0  0.1077
  H  H49  1  0.947300  0.056000  0.553700  1.0  0.0739
  H  H50  1  0.876600  0.944400  0.535200  1.0  0.0801
  H  H51  1  0.873100  0.878400  0.682500  1.0  0.0798
  H  H52  1  0.017400  0.939600  0.644200  1.0  0.105
  H  H53  1  0.132800  0.803900  0.624100  1.0  0.1119
  H  H54  1  0.888400  0.525400  0.625200  1.0  0.0952
  H  H55  1  0.799700  0.679600  0.629500  1.0  0.1376
  H  H56  1  0.395500  0.438300  0.916400  1.0  0.1092
  H  H57  1  0.228100  0.276800  0.926100  1.0  0.1353
  H  H58  1  0.139200  0.317700  0.820500  1.0  0.1007
  H  H59  1  0.703500  0.937200  0.009900  1.0  0.1155
  H  H60  1  0.397300  0.727300  0.017200  1.0  0.1099
  H  H61  1  0.342900  0.800300  0.141400  1.0  0.1213
  H  H62  1  0.637300  0.014100  0.127200  1.0  0.1015
  H  H63  1  0.496000  0.996600  0.169800  1.0  0.0939
  H  H64  1  0.447200  0.807400  0.281000  1.0  0.0653
  H  H65  1  0.546500  0.907600  0.290900  1.0  0.1087
  H  H66  1  0.109700  0.501000  0.946300  1.0  0.0759
  H  H67  1  0.979600  0.411800  0.964800  1.0  0.0782
  H  H68  1  0.060900  0.555600  0.817500  1.0  0.0786
  H  H69  1  0.083800  0.661600  0.855800  1.0  0.1008
  H  H70  1  0.928000  0.756900  0.875900  1.0  0.113
  H  H71  1  0.650600  0.513600  0.874800  1.0  0.0937
  H  H72  1  0.809100  0.429200  0.870500  1.0  0.135
  C  C73  1  0.026800  0.689600  0.306800  1.0  0.7231
  C  C74  1  0.122600  0.797200  0.310600  1.0  -0.1421
  C  C75  1  0.172800  0.766900  0.378100  1.0  -0.0412
  C  C76  1  0.263100  0.859400  0.383700  1.0  -0.1617
  C  C77  1  0.300200  0.978200  0.319000  1.0  0.1263
  C  C78  1  0.159100  0.921800  0.247900  1.0  0.0678
  C  C79  1  0.103800  0.966800  0.182400  1.0  0.5792
  C  C80  1  0.577300  0.352200  0.528500  1.0  0.1346
  C  C81  1  0.688800  0.515500  0.532300  1.0  0.0668
  C  C82  1  0.583200  0.478700  0.598300  1.0  -0.1757
  C  C83  1  0.388900  0.290600  0.656300  1.0  -0.0606
  C  C84  1  0.387100  0.215000  0.751300  1.0  -0.1629
  C  C85  1  0.047600  0.016800  0.458800  1.0  -0.1416
  C  C86  1  0.049300  0.104500  0.369000  1.0  -0.0524
  C  C87  1  0.939200  0.247000  0.375200  1.0  0.1155
  C  C88  1  0.072300  0.398300  0.374800  1.0  0.0449
  C  C89  1  0.122400  0.314300  0.372100  1.0  -0.1475
  C  C90  1  0.496400  0.333600  0.193200  1.0  0.7266
  C  C91  1  0.607800  0.433200  0.189400  1.0  -0.1433
  C  C92  1  0.645000  0.550900  0.121900  1.0  -0.0411
  C  C93  1  0.743100  0.646800  0.116300  1.0  -0.1622
  C  C94  1  0.797200  0.619200  0.181000  1.0  0.1256
  C  C95  1  0.669700  0.407000  0.252100  1.0  0.0683
  C  C96  1  0.649200  0.286200  0.317600  1.0  0.5793
  C  C97  1  0.380700  0.105800  0.971500  1.0  0.1334
  C  C98  1  0.547800  0.221100  0.967700  1.0  0.068
  C  C99  1  0.577000  0.181500  0.901700  1.0  -0.1741
  C  C100  1  0.446900  0.045200  0.843700  1.0  -0.0574
  C  C101  1  0.466300  0.138400  0.748700  1.0  -0.1645
  C  C102  1  0.975600  0.506400  0.041200  1.0  -0.1447
  C  C103  1  0.973500  0.418300  0.131000  1.0  -0.0539
  C  C104  1  0.122200  0.314400  0.124800  1.0  0.1148
  C  C105  1  0.273100  0.447100  0.125200  1.0  0.0459
  C  C106  1  0.186400  0.494500  0.127900  1.0  -0.1503
  C  C107  1  0.973200  0.310400  0.693200  1.0  0.7266
  C  C108  1  0.877400  0.202800  0.689400  1.0  -0.1437
  C  C109  1  0.827200  0.233100  0.621900  1.0  -0.0437
  C  C110  1  0.736900  0.140600  0.616300  1.0  -0.1635
  C  C111  1  0.699800  0.021800  0.681000  1.0  0.1255
  C  C112  1  0.840900  0.078200  0.752100  1.0  0.0694
  C  C113  1  0.896200  0.033200  0.817600  1.0  0.5795
  C  C114  1  0.422700  0.647800  0.471500  1.0  0.1347
  C  C115  1  0.311200  0.484500  0.467700  1.0  0.0697
  C  C116  1  0.416800  0.521300  0.401700  1.0  -0.1758
  C  C117  1  0.611100  0.709400  0.343700  1.0  -0.0573
  C  C118  1  0.612900  0.785000  0.248700  1.0  -0.1646
  C  C119  1  0.952400  0.983200  0.541200  1.0  -0.1461
  C  C120  1  0.950700  0.895500  0.631000  1.0  -0.0488
  C  C121  1  0.060800  0.753000  0.624800  1.0  0.1141
  C  C122  1  0.927700  0.601700  0.625200  1.0  0.0446
  C  C123  1  0.877600  0.685700  0.627900  1.0  -0.1481
  C  C124  1  0.503600  0.666400  0.806800  1.0  0.7269
  C  C125  1  0.392200  0.566800  0.810600  1.0  -0.1426
  C  C126  1  0.355000  0.449100  0.878100  1.0  -0.0416
  C  C127  1  0.256900  0.353200  0.883700  1.0  -0.1628
  C  C128  1  0.202800  0.380800  0.819000  1.0  0.1246
  C  C129  1  0.330300  0.593000  0.747900  1.0  0.0715
  C  C130  1  0.350800  0.713800  0.682400  1.0  0.578
  C  C131  1  0.619300  0.894200  0.028500  1.0  0.131
  C  C132  1  0.452200  0.778900  0.032300  1.0  0.067
  C  C133  1  0.423000  0.818500  0.098300  1.0  -0.1744
  C  C134  1  0.553100  0.954800  0.156300  1.0  -0.0578
  C  C135  1  0.533700  0.861600  0.251300  1.0  -0.1639
  C  C136  1  0.024400  0.493600  0.958800  1.0  -0.1452
  C  C137  1  0.026500  0.581700  0.869000  1.0  -0.0522
  C  C138  1  0.877800  0.685600  0.875200  1.0  0.1131
  C  C139  1  0.726900  0.552900  0.874800  1.0  0.0453
  C  C140  1  0.813600  0.505500  0.872100  1.0  -0.149
  N  N141  1  0.687700  0.439000  0.489500  1.0  -0.3887
  N  N142  1  0.511800  0.373700  0.594500  1.0  0.0857
  N  N143  1  0.037100  0.219400  0.372100  1.0  0.0707
  N  N144  1  0.958400  0.357700  0.377500  1.0  -0.3881
  N  N145  1  0.251100  0.008700  0.253200  1.0  -0.3764
  N  N146  1  0.428500  0.177200  0.010500  1.0  -0.3858
  N  N147  1  0.468200  0.106300  0.905500  1.0  0.0858
  N  N148  1  0.091500  0.409200  0.127900  1.0  0.0712
  N  N149  1  0.235200  0.335900  0.122500  1.0  -0.3861
  N  N150  1  0.761900  0.504300  0.246800  1.0  -0.3771
  N  N151  1  0.312300  0.561000  0.510500  1.0  -0.3852
  N  N152  1  0.488200  0.626300  0.405500  1.0  0.0858
  N  N153  1  0.962900  0.780600  0.627900  1.0  0.0714
  N  N154  1  0.041600  0.642300  0.622500  1.0  -0.387
  N  N155  1  0.748900  0.991300  0.746800  1.0  -0.3753
  N  N156  1  0.571500  0.822800  0.989500  1.0  -0.3867
  N  N157  1  0.531800  0.893700  0.094500  1.0  0.0864
  N  N158  1  0.908500  0.590800  0.872100  1.0  0.0699
  N  N159  1  0.764800  0.664100  0.877500  1.0  -0.3876
  N  N160  1  0.238100  0.495700  0.753200  1.0  -0.3773
  O  O161  1  0.932900  0.637700  0.369400  1.0  -0.6115
  O  O162  1  0.053100  0.660300  0.241600  1.0  -0.6085
  O  O163  1  0.153500  0.073300  0.118400  1.0  -0.6186
  O  O164  1  0.003000  0.895300  0.190100  1.0  -0.5726
  O  O165  1  0.507100  0.302300  0.130600  1.0  -0.6116
  O  O166  1  0.401900  0.294700  0.258400  1.0  -0.6077
  O  O167  1  0.691700  0.271900  0.381600  1.0  -0.6205
  O  O168  1  0.585400  0.193100  0.309900  1.0  -0.5671
  O  O169  1  0.067100  0.362300  0.630600  1.0  -0.6103
  O  O170  1  0.946900  0.339700  0.758400  1.0  -0.6081
  O  O171  1  0.846500  0.926700  0.881600  1.0  -0.6184
  O  O172  1  0.997000  0.104700  0.809900  1.0  -0.5712
  O  O173  1  0.492900  0.697700  0.869400  1.0  -0.6089
  O  O174  1  0.598100  0.705300  0.741600  1.0  -0.6097
  O  O175  1  0.308300  0.728100  0.618400  1.0  -0.6197
  O  O176  1  0.414600  0.806900  0.690100  1.0  -0.5685
