# generated using pymatgen
data_Mg2H6C11O8
_symmetry_space_group_name_H-M   'P 1'
_cell_length_a   12.53700000
_cell_length_b   14.97700000
_cell_length_c   15.40400000
_cell_angle_alpha   90.00000000
_cell_angle_beta   90.00000000
_cell_angle_gamma   90.00000000
_symmetry_Int_Tables_number   1
_chemical_formula_structural   Mg2H6C11O8
_chemical_formula_sum   'Mg8 H24 C44 O32'
_cell_volume   2892.35746120
_cell_formula_units_Z   4
loop_
 _symmetry_equiv_pos_site_id
 _symmetry_equiv_pos_as_xyz
  1  'x, y, z'
loop_
 _atom_site_type_symbol
 _atom_site_label
 _atom_site_symmetry_multiplicity
 _atom_site_fract_x
 _atom_site_fract_y
 _atom_site_fract_z
 _atom_site_occupancy
 _atom_site_charge
  Mg  Mg1  1  0.996160  0.530210  0.949900  1.0  1.4942
  Mg  Mg2  1  0.799410  0.675430  0.835460  1.0  1.4917
  Mg  Mg3  1  0.503840  0.469790  0.449900  1.0  1.493
  Mg  Mg4  1  0.700590  0.324570  0.335460  1.0  1.4891
  Mg  Mg5  1  0.003840  0.030210  0.550100  1.0  1.4939
  Mg  Mg6  1  0.200590  0.175430  0.664540  1.0  1.4897
  Mg  Mg7  1  0.496160  0.969790  0.050100  1.0  1.496
  Mg  Mg8  1  0.299410  0.824570  0.164540  1.0  1.4931
  H  H9  1  0.958100  0.322600  0.761400  1.0  0.0862
  H  H10  1  0.805900  0.261200  0.538800  1.0  0.0881
  H  H11  1  0.734000  0.488200  0.666667  1.0  0.0909
  H  H12  1  0.249800  0.436800  0.109700  1.0  0.125
  H  H13  1  0.229500  0.356400  0.045000  1.0  0.1269
  H  H14  1  0.157200  0.367600  0.128600  1.0  0.1357
  H  H15  1  0.541900  0.677400  0.261400  1.0  0.086
  H  H16  1  0.694100  0.738800  0.038800  1.0  0.088
  H  H17  1  0.766000  0.511800  0.166600  1.0  0.0908
  H  H18  1  0.250200  0.563200  0.609700  1.0  0.1212
  H  H19  1  0.270500  0.643600  0.545000  1.0  0.126
  H  H20  1  0.342800  0.632400  0.628600  1.0  0.136
  H  H21  1  0.041900  0.822600  0.738600  1.0  0.0854
  H  H22  1  0.194100  0.761200  0.961200  1.0  0.0888
  H  H23  1  0.266000  0.988200  0.833400  1.0  0.091
  H  H24  1  0.750200  0.936800  0.390300  1.0  0.1225
  H  H25  1  0.770500  0.856400  0.455000  1.0  0.1294
  H  H26  1  0.842800  0.867600  0.371400  1.0  0.1306
  H  H27  1  0.458100  0.177400  0.238600  1.0  0.0859
  H  H28  1  0.305900  0.238800  0.461200  1.0  0.0886
  H  H29  1  0.234000  0.011800  0.333400  1.0  0.0906
  H  H30  1  0.749800  0.063200  0.890300  1.0  0.1239
  H  H31  1  0.729500  0.143600  0.955000  1.0  0.1298
  H  H32  1  0.657200  0.132400  0.871400  1.0  0.1323
  C  C33  1  0.906800  0.336100  0.718900  1.0  -0.0088
  C  C34  1  0.816500  0.300100  0.586000  1.0  -0.0044
  C  C35  1  0.890600  0.278200  0.649800  1.0  -0.1805
  C  C36  1  0.847700  0.413500  0.725200  1.0  -0.1764
  C  C37  1  0.867000  0.478800  0.799300  1.0  0.7165
  C  C38  1  0.757900  0.378600  0.591200  1.0  -0.1783
  C  C39  1  0.773800  0.435100  0.661900  1.0  0.0004
  C  C40  1  0.134700  0.444600  0.042800  1.0  0.2825
  C  C41  1  0.956400  0.194000  0.642900  1.0  0.7009
  C  C42  1  0.674900  0.403100  0.525800  1.0  0.6597
  C  C43  1  0.195700  0.399200  0.083500  1.0  -0.4255
  C  C44  1  0.593200  0.663900  0.218900  1.0  -0.009
  C  C45  1  0.683500  0.699900  0.086000  1.0  -0.0037
  C  C46  1  0.609400  0.721800  0.149800  1.0  -0.1806
  C  C47  1  0.652300  0.586500  0.225200  1.0  -0.1762
  C  C48  1  0.633000  0.521200  0.299300  1.0  0.7167
  C  C49  1  0.742100  0.621400  0.091200  1.0  -0.1792
  C  C50  1  0.726200  0.564900  0.161900  1.0  0.0014
  C  C51  1  0.365300  0.555400  0.542800  1.0  0.2829
  C  C52  1  0.543600  0.806000  0.142900  1.0  0.7003
  C  C53  1  0.825100  0.596900  0.025800  1.0  0.6609
  C  C54  1  0.304300  0.600800  0.583500  1.0  -0.426
  C  C55  1  0.093200  0.836100  0.781100  1.0  -0.009
  C  C56  1  0.183500  0.800100  0.914000  1.0  -0.0034
  C  C57  1  0.109400  0.778200  0.850200  1.0  -0.1808
  C  C58  1  0.152300  0.913500  0.774800  1.0  -0.1749
  C  C59  1  0.133000  0.978800  0.700700  1.0  0.7163
  C  C60  1  0.242100  0.878600  0.908800  1.0  -0.1789
  C  C61  1  0.226200  0.935100  0.838100  1.0  0.0007
  C  C62  1  0.865300  0.944600  0.457200  1.0  0.2849
  C  C63  1  0.043600  0.694000  0.857100  1.0  0.7007
  C  C64  1  0.325100  0.903100  0.974200  1.0  0.6616
  C  C65  1  0.804300  0.899200  0.416500  1.0  -0.4273
  C  C66  1  0.406800  0.163900  0.281100  1.0  -0.0089
  C  C67  1  0.316500  0.199900  0.414000  1.0  -0.004
  C  C68  1  0.390600  0.221800  0.350200  1.0  -0.1805
  C  C69  1  0.347700  0.086500  0.274800  1.0  -0.1757
  C  C70  1  0.367000  0.021200  0.200700  1.0  0.7164
  C  C71  1  0.257900  0.121400  0.408800  1.0  -0.1784
  C  C72  1  0.273800  0.064900  0.338100  1.0  0.0011
  C  C73  1  0.634700  0.055400  0.957200  1.0  0.2786
  C  C74  1  0.456400  0.306000  0.357100  1.0  0.7002
  C  C75  1  0.174900  0.096900  0.474200  1.0  0.6596
  C  C76  1  0.695700  0.100800  0.916500  1.0  -0.4265
  O  O77  1  0.941900  0.461900  0.850700  1.0  -0.6131
  O  O78  1  0.805100  0.543900  0.803900  1.0  -0.6805
  O  O79  1  0.107900  0.520500  0.067500  1.0  -0.6391
  O  O80  1  0.093800  0.422200  0.977600  1.0  -0.5408
  O  O81  1  0.038900  0.189900  0.688100  1.0  -0.6328
  O  O82  1  0.923800  0.134900  0.591400  1.0  -0.607
  O  O83  1  0.658700  0.352500  0.463400  1.0  -0.6811
  O  O84  1  0.622100  0.473400  0.536500  1.0  -0.6214
  O  O85  1  0.558100  0.538100  0.350700  1.0  -0.6149
  O  O86  1  0.694900  0.456100  0.303900  1.0  -0.6803
  O  O87  1  0.392100  0.479500  0.567500  1.0  -0.6422
  O  O88  1  0.406200  0.577800  0.477600  1.0  -0.5427
  O  O89  1  0.461100  0.810100  0.188100  1.0  -0.6323
  O  O90  1  0.576200  0.865100  0.091400  1.0  -0.6066
  O  O91  1  0.841300  0.647500  0.963400  1.0  -0.682
  O  O92  1  0.877900  0.526600  0.036500  1.0  -0.6223
  O  O93  1  0.058100  0.961900  0.649300  1.0  -0.6129
  O  O94  1  0.194900  0.043900  0.696100  1.0  -0.6798
  O  O95  1  0.892100  0.020500  0.432500  1.0  -0.6431
  O  O96  1  0.906200  0.922200  0.522400  1.0  -0.5401
  O  O97  1  0.961100  0.689900  0.811900  1.0  -0.6347
  O  O98  1  0.076200  0.634900  0.908600  1.0  -0.6062
  O  O99  1  0.341300  0.852500  0.036600  1.0  -0.6791
  O  O100  1  0.377900  0.973400  0.963500  1.0  -0.6236
  O  O101  1  0.441900  0.038100  0.149300  1.0  -0.6149
  O  O102  1  0.305100  0.956100  0.196100  1.0  -0.6796
  O  O103  1  0.607900  0.979500  0.932500  1.0  -0.6449
  O  O104  1  0.593800  0.077800  0.022400  1.0  -0.5403
  O  O105  1  0.538900  0.310100  0.311900  1.0  -0.6351
  O  O106  1  0.423800  0.365100  0.408600  1.0  -0.6077
  O  O107  1  0.158700  0.147500  0.536600  1.0  -0.6818
  O  O108  1  0.122100  0.026600  0.463500  1.0  -0.6223
