# generated using pymatgen
data_Cd5H12(C3O2)12
_symmetry_space_group_name_H-M   'P 1'
_cell_length_a   10.22600000
_cell_length_b   10.81400000
_cell_length_c   29.87600000
_cell_angle_alpha   90.00000000
_cell_angle_beta   99.43700000
_cell_angle_gamma   90.00000000
_symmetry_Int_Tables_number   1
_chemical_formula_structural   Cd5H12(C3O2)12
_chemical_formula_sum   'Cd10 H24 C72 O48'
_cell_volume   3259.09439220
_cell_formula_units_Z   2
loop_
 _symmetry_equiv_pos_site_id
 _symmetry_equiv_pos_as_xyz
  1  'x, y, z'
loop_
 _atom_site_type_symbol
 _atom_site_label
 _atom_site_symmetry_multiplicity
 _atom_site_fract_x
 _atom_site_fract_y
 _atom_site_fract_z
 _atom_site_occupancy
 _atom_site_charge
  Cd  Cd1  1  0.029270  0.203370  0.896670  1.0  1.0884
  Cd  Cd2  1  0.728140  0.373720  0.849090  1.0  1.0627
  Cd  Cd3  1  0.970730  0.703370  0.603330  1.0  1.0858
  Cd  Cd4  1  0.271860  0.873720  0.650910  1.0  1.0637
  Cd  Cd5  1  0.970730  0.796630  0.103330  1.0  1.0853
  Cd  Cd6  1  0.271860  0.626280  0.150910  1.0  1.0571
  Cd  Cd7  1  0.029270  0.296630  0.396670  1.0  1.0868
  Cd  Cd8  1  0.728140  0.126280  0.349090  1.0  1.0639
  Cd  Cd9  1  0.500000  0.500000  0.000000  1.0  0.9383
  Cd  Cd10  1  0.500000  0.000000  0.500000  1.0  0.9383
  H  H11  1  0.752900  0.923200  0.953900  1.0  0.1298
  H  H12  1  0.360900  0.886300  0.949500  1.0  0.1291
  H  H13  1  0.508400  0.205500  0.910700  1.0  0.1257
  H  H14  1  0.241500  0.394100  0.847900  1.0  0.1244
  H  H15  1  0.374400  0.560800  0.744500  1.0  0.1277
  H  H16  1  0.985200  0.553600  0.748900  1.0  0.1324
  H  H17  1  0.247100  0.423200  0.546100  1.0  0.1299
  H  H18  1  0.639100  0.386300  0.550500  1.0  0.1294
  H  H19  1  0.491600  0.705500  0.589300  1.0  0.1258
  H  H20  1  0.758500  0.894100  0.652100  1.0  0.1237
  H  H21  1  0.625600  0.060800  0.755500  1.0  0.1274
  H  H22  1  0.014800  0.053600  0.751100  1.0  0.1315
  H  H23  1  0.247100  0.076800  0.046100  1.0  0.1295
  H  H24  1  0.639100  0.113700  0.050500  1.0  0.1291
  H  H25  1  0.491600  0.794500  0.089300  1.0  0.1257
  H  H26  1  0.758500  0.605900  0.152100  1.0  0.1231
  H  H27  1  0.625600  0.439200  0.255500  1.0  0.1274
  H  H28  1  0.014800  0.446400  0.251100  1.0  0.1316
  H  H29  1  0.752900  0.576800  0.453900  1.0  0.1304
  H  H30  1  0.360900  0.613700  0.449500  1.0  0.129
  H  H31  1  0.508400  0.294500  0.410700  1.0  0.1251
  H  H32  1  0.241500  0.105900  0.347900  1.0  0.1239
  H  H33  1  0.374400  0.939200  0.244500  1.0  0.1276
  H  H34  1  0.985200  0.946400  0.248900  1.0  0.1325
  C  C35  1  0.765300  0.149400  0.921440  1.0  0.7246
  C  C36  1  0.649400  0.076500  0.931280  1.0  -0.1375
  C  C37  1  0.667700  0.956000  0.947600  1.0  0.0362
  C  C38  1  0.560900  0.885000  0.954400  1.0  -0.1303
  C  C39  1  0.433200  0.934100  0.944900  1.0  0.039
  C  C40  1  0.413700  0.053600  0.928700  1.0  -0.1312
  C  C41  1  0.521500  0.125200  0.921700  1.0  0.0218
  C  C42  1  0.581100  0.753300  0.970800  1.0  0.7176
  C  C43  1  0.275200  0.104200  0.917000  1.0  0.7126
  C  C44  1  0.981600  0.434500  0.825600  1.0  0.7333
  C  C45  1  0.096200  0.468900  0.802400  1.0  -0.1435
  C  C46  1  0.224600  0.437000  0.820600  1.0  0.0318
  C  C47  1  0.329200  0.468800  0.798100  1.0  -0.174
  C  C48  1  0.304100  0.536300  0.758700  1.0  0.0529
  C  C49  1  0.175700  0.568500  0.739600  1.0  -0.1541
  C  C50  1  0.071900  0.533600  0.761600  1.0  0.0481
  C  C51  1  0.471000  0.433200  0.816700  1.0  0.6992
  C  C52  1  0.149100  0.640200  0.695800  1.0  0.7589
  C  C53  1  0.234700  0.649400  0.578560  1.0  0.7443
  C  C54  1  0.350600  0.576500  0.568720  1.0  -0.1362
  C  C55  1  0.332300  0.456000  0.552400  1.0  0.0347
  C  C56  1  0.439100  0.385000  0.545600  1.0  -0.1305
  C  C57  1  0.566800  0.434100  0.555100  1.0  0.0384
  C  C58  1  0.586300  0.553600  0.571300  1.0  -0.1315
  C  C59  1  0.478500  0.625200  0.578300  1.0  0.024
  C  C60  1  0.418900  0.253300  0.529200  1.0  0.7168
  C  C61  1  0.724800  0.604200  0.583000  1.0  0.7115
  C  C62  1  0.018400  0.934500  0.674400  1.0  0.7308
  C  C63  1  0.903800  0.968900  0.697600  1.0  -0.1433
  C  C64  1  0.775400  0.937000  0.679400  1.0  0.0339
  C  C65  1  0.670800  0.968800  0.701900  1.0  -0.1736
  C  C66  1  0.695900  0.036300  0.741300  1.0  0.0529
  C  C67  1  0.824300  0.068500  0.760400  1.0  -0.1548
  C  C68  1  0.928100  0.033600  0.738400  1.0  0.0502
  C  C69  1  0.529000  0.933200  0.683300  1.0  0.699
  C  C70  1  0.850900  0.140200  0.804200  1.0  0.7575
  C  C71  1  0.234700  0.850600  0.078560  1.0  0.7264
  C  C72  1  0.350600  0.923500  0.068720  1.0  -0.1369
  C  C73  1  0.332300  0.044000  0.052400  1.0  0.0336
  C  C74  1  0.439100  0.115000  0.045600  1.0  -0.1307
  C  C75  1  0.566800  0.065900  0.055100  1.0  0.0385
  C  C76  1  0.586300  0.946400  0.071300  1.0  -0.1316
  C  C77  1  0.478500  0.874800  0.078300  1.0  0.0234
  C  C78  1  0.418900  0.246700  0.029200  1.0  0.7169
  C  C79  1  0.724800  0.895800  0.083000  1.0  0.7122
  C  C80  1  0.018400  0.565500  0.174400  1.0  0.7323
  C  C81  1  0.903800  0.531100  0.197600  1.0  -0.1434
  C  C82  1  0.775400  0.563000  0.179400  1.0  0.033
  C  C83  1  0.670800  0.531200  0.201900  1.0  -0.1735
  C  C84  1  0.695900  0.463700  0.241300  1.0  0.0529
  C  C85  1  0.824300  0.431500  0.260400  1.0  -0.1544
  C  C86  1  0.928100  0.466400  0.238400  1.0  0.0507
  C  C87  1  0.529000  0.566800  0.183300  1.0  0.6993
  C  C88  1  0.850900  0.359800  0.304200  1.0  0.7592
  C  C89  1  0.765300  0.350600  0.421440  1.0  0.7249
  C  C90  1  0.649400  0.423500  0.431280  1.0  -0.1382
  C  C91  1  0.667700  0.544000  0.447600  1.0  0.0359
  C  C92  1  0.560900  0.615000  0.454400  1.0  -0.1289
  C  C93  1  0.433200  0.565900  0.444900  1.0  0.0387
  C  C94  1  0.413700  0.446400  0.428700  1.0  -0.1317
  C  C95  1  0.521500  0.374800  0.421700  1.0  0.0227
  C  C96  1  0.581100  0.746700  0.470800  1.0  0.717
  C  C97  1  0.275200  0.395800  0.417000  1.0  0.7107
  C  C98  1  0.981600  0.065500  0.325600  1.0  0.7329
  C  C99  1  0.096200  0.031100  0.302400  1.0  -0.1434
  C  C100  1  0.224600  0.063000  0.320600  1.0  0.0332
  C  C101  1  0.329200  0.031200  0.298100  1.0  -0.1741
  C  C102  1  0.304100  0.963700  0.258700  1.0  0.0528
  C  C103  1  0.175700  0.931500  0.239600  1.0  -0.1543
  C  C104  1  0.071900  0.966400  0.261600  1.0  0.0479
  C  C105  1  0.471000  0.066800  0.316700  1.0  0.698
  C  C106  1  0.149100  0.859800  0.195800  1.0  0.7607
  O  O107  1  0.752000  0.265700  0.915530  1.0  -0.6601
  O  O108  1  0.869700  0.092200  0.919600  1.0  -0.5549
  O  O109  1  0.478800  0.688400  0.970800  1.0  -0.6055
  O  O110  1  0.693900  0.714200  0.983300  1.0  -0.4762
  O  O111  1  0.180000  0.035000  0.919700  1.0  -0.6469
  O  O112  1  0.259000  0.213800  0.903680  1.0  -0.5783
  O  O113  1  0.003800  0.397600  0.865850  1.0  -0.6579
  O  O114  1  0.867200  0.446700  0.803400  1.0  -0.542
  O  O115  1  0.499200  0.392100  0.856040  1.0  -0.588
  O  O116  1  0.555800  0.446900  0.792400  1.0  -0.5865
  O  O117  1  0.032000  0.644100  0.676130  1.0  -0.5667
  O  O118  1  0.249200  0.686900  0.682570  1.0  -0.6362
  O  O119  1  0.248000  0.765700  0.584470  1.0  -0.6616
  O  O120  1  0.130300  0.592200  0.580400  1.0  -0.555
  O  O121  1  0.521200  0.188400  0.529200  1.0  -0.6044
  O  O122  1  0.306100  0.214200  0.516700  1.0  -0.4775
  O  O123  1  0.820000  0.535000  0.580300  1.0  -0.6493
  O  O124  1  0.741000  0.713800  0.596320  1.0  -0.5783
  O  O125  1  0.996200  0.897600  0.634150  1.0  -0.6547
  O  O126  1  0.132800  0.946700  0.696600  1.0  -0.5439
  O  O127  1  0.500800  0.892100  0.643960  1.0  -0.5852
  O  O128  1  0.444200  0.946900  0.707600  1.0  -0.5854
  O  O129  1  0.968000  0.144100  0.823870  1.0  -0.5659
  O  O130  1  0.750800  0.186900  0.817430  1.0  -0.6356
  O  O131  1  0.248000  0.734300  0.084470  1.0  -0.6608
  O  O132  1  0.130300  0.907800  0.080400  1.0  -0.5541
  O  O133  1  0.521200  0.311600  0.029200  1.0  -0.606
  O  O134  1  0.306100  0.285800  0.016700  1.0  -0.4789
  O  O135  1  0.820000  0.965000  0.080300  1.0  -0.646
  O  O136  1  0.741000  0.786200  0.096320  1.0  -0.5782
  O  O137  1  0.996200  0.602400  0.134150  1.0  -0.6541
  O  O138  1  0.132800  0.553300  0.196600  1.0  -0.5418
  O  O139  1  0.500800  0.607900  0.143960  1.0  -0.5857
  O  O140  1  0.444200  0.553100  0.207600  1.0  -0.5855
  O  O141  1  0.968000  0.355900  0.323870  1.0  -0.5661
  O  O142  1  0.750800  0.313100  0.317430  1.0  -0.6356
  O  O143  1  0.752000  0.234300  0.415530  1.0  -0.6597
  O  O144  1  0.869700  0.407800  0.419600  1.0  -0.5536
  O  O145  1  0.478800  0.811600  0.470800  1.0  -0.606
  O  O146  1  0.693900  0.785800  0.483300  1.0  -0.4757
  O  O147  1  0.180000  0.465000  0.419700  1.0  -0.645
  O  O148  1  0.259000  0.286200  0.403680  1.0  -0.5786
  O  O149  1  0.003800  0.102400  0.365850  1.0  -0.657
  O  O150  1  0.867200  0.053300  0.303400  1.0  -0.5425
  O  O151  1  0.499200  0.107900  0.356040  1.0  -0.5882
  O  O152  1  0.555800  0.053100  0.292400  1.0  -0.5869
  O  O153  1  0.032000  0.855900  0.176130  1.0  -0.5666
  O  O154  1  0.249200  0.813100  0.182570  1.0  -0.6362
