# generated using pymatgen
data_ZnH4(C3O2)3
_symmetry_space_group_name_H-M   'P 1'
_cell_length_a   19.50780000
_cell_length_b   19.50780000
_cell_length_c   13.81500000
_cell_angle_alpha   90.00000000
_cell_angle_beta   90.00000000
_cell_angle_gamma   90.00000000
_symmetry_Int_Tables_number   1
_chemical_formula_structural   ZnH4(C3O2)3
_chemical_formula_sum   'Zn16 H64 C144 O96'
_cell_volume   5257.35711350
_cell_formula_units_Z   16
loop_
 _symmetry_equiv_pos_site_id
 _symmetry_equiv_pos_as_xyz
  1  'x, y, z'
loop_
 _atom_site_type_symbol
 _atom_site_label
 _atom_site_symmetry_multiplicity
 _atom_site_fract_x
 _atom_site_fract_y
 _atom_site_fract_z
 _atom_site_occupancy
 _atom_site_charge
  Zn  Zn1  1  0.987400  0.470070  0.371550  1.0  0.9649
  Zn  Zn2  1  0.012600  0.529930  0.871550  1.0  0.9664
  Zn  Zn3  1  0.029930  0.487400  0.121550  1.0  0.9625
  Zn  Zn4  1  0.970070  0.512600  0.621550  1.0  0.9644
  Zn  Zn5  1  0.512600  0.970070  0.378450  1.0  0.9655
  Zn  Zn6  1  0.487400  0.029930  0.878450  1.0  0.9656
  Zn  Zn7  1  0.470070  0.987400  0.628450  1.0  0.9635
  Zn  Zn8  1  0.529930  0.012600  0.128450  1.0  0.9632
  Zn  Zn9  1  0.486310  0.486310  0.000000  1.0  0.9885
  Zn  Zn10  1  0.513690  0.513690  0.500000  1.0  0.9881
  Zn  Zn11  1  0.013690  0.986310  0.750000  1.0  0.9882
  Zn  Zn12  1  0.986310  0.013690  0.250000  1.0  0.9883
  Zn  Zn13  1  0.529860  0.470140  0.250000  1.0  1.0547
  Zn  Zn14  1  0.470140  0.529860  0.750000  1.0  1.0534
  Zn  Zn15  1  0.029860  0.029860  0.000000  1.0  1.0543
  Zn  Zn16  1  0.970140  0.970140  0.500000  1.0  1.0537
  H  H17  1  0.928400  0.161700  0.582700  1.0  0.127
  H  H18  1  0.913100  0.271300  0.632300  1.0  0.11
  H  H19  1  0.676200  0.410600  0.386200  1.0  0.1381
  H  H20  1  0.671400  0.492200  0.398700  1.0  0.1352
  H  H21  1  0.078240  0.314680  0.282880  1.0  0.1427
  H  H22  1  0.735000  0.484000  0.971900  1.0  0.1281
  H  H23  1  0.839100  0.478800  0.037600  1.0  0.1051
  H  H24  1  0.494570  0.839260  0.549080  1.0  0.1458
  H  H25  1  0.071600  0.838300  0.082700  1.0  0.126
  H  H26  1  0.086900  0.728700  0.132300  1.0  0.1101
  H  H27  1  0.323800  0.589400  0.886200  1.0  0.1371
  H  H28  1  0.328600  0.507800  0.898700  1.0  0.1365
  H  H29  1  0.921760  0.685320  0.782880  1.0  0.1413
  H  H30  1  0.265000  0.516000  0.471900  1.0  0.1276
  H  H31  1  0.160900  0.521200  0.537600  1.0  0.1052
  H  H32  1  0.505430  0.160740  0.049080  1.0  0.1455
  H  H33  1  0.338300  0.428400  0.332700  1.0  0.1266
  H  H34  1  0.228700  0.413100  0.382300  1.0  0.1116
  H  H35  1  0.089400  0.176200  0.136200  1.0  0.1337
  H  H36  1  0.007800  0.171400  0.148700  1.0  0.1347
  H  H37  1  0.185320  0.578240  0.032880  1.0  0.1423
  H  H38  1  0.016000  0.235000  0.721900  1.0  0.1279
  H  H39  1  0.021200  0.339100  0.787600  1.0  0.1054
  H  H40  1  0.660740  0.994570  0.299080  1.0  0.145
  H  H41  1  0.661700  0.571600  0.832700  1.0  0.1263
  H  H42  1  0.771300  0.586900  0.882300  1.0  0.1109
  H  H43  1  0.910600  0.823800  0.636200  1.0  0.1356
  H  H44  1  0.992200  0.828600  0.648700  1.0  0.1345
  H  H45  1  0.814680  0.421760  0.532880  1.0  0.1439
  H  H46  1  0.984000  0.765000  0.221900  1.0  0.1278
  H  H47  1  0.978800  0.660900  0.287600  1.0  0.1052
  H  H48  1  0.339260  0.005430  0.799080  1.0  0.1457
  H  H49  1  0.571600  0.661700  0.167300  1.0  0.1269
  H  H50  1  0.586900  0.771300  0.117700  1.0  0.1113
  H  H51  1  0.823800  0.910600  0.363800  1.0  0.1378
  H  H52  1  0.828600  0.992200  0.351300  1.0  0.1353
  H  H53  1  0.421760  0.814680  0.467120  1.0  0.1416
  H  H54  1  0.765000  0.984000  0.778100  1.0  0.1285
  H  H55  1  0.660900  0.978800  0.712400  1.0  0.1046
  H  H56  1  0.005430  0.339260  0.200920  1.0  0.1447
  H  H57  1  0.428400  0.338300  0.667300  1.0  0.1268
  H  H58  1  0.413100  0.228700  0.617700  1.0  0.1105
  H  H59  1  0.176200  0.089400  0.863800  1.0  0.1376
  H  H60  1  0.171400  0.007800  0.851300  1.0  0.1358
  H  H61  1  0.578240  0.185320  0.967120  1.0  0.1428
  H  H62  1  0.235000  0.016000  0.278100  1.0  0.128
  H  H63  1  0.339100  0.021200  0.212400  1.0  0.1044
  H  H64  1  0.994570  0.660740  0.700920  1.0  0.1453
  H  H65  1  0.161700  0.928400  0.417300  1.0  0.1264
  H  H66  1  0.271300  0.913100  0.367700  1.0  0.1124
  H  H67  1  0.410600  0.676200  0.613800  1.0  0.1362
  H  H68  1  0.492200  0.671400  0.601300  1.0  0.1344
  H  H69  1  0.314680  0.078240  0.717120  1.0  0.1426
  H  H70  1  0.484000  0.735000  0.028100  1.0  0.1279
  H  H71  1  0.478800  0.839100  0.962400  1.0  0.1046
  H  H72  1  0.839260  0.494570  0.450920  1.0  0.1449
  H  H73  1  0.838300  0.071600  0.917300  1.0  0.1265
  H  H74  1  0.728700  0.086900  0.867700  1.0  0.1114
  H  H75  1  0.589400  0.323800  0.113800  1.0  0.1339
  H  H76  1  0.507800  0.328600  0.101300  1.0  0.1343
  H  H77  1  0.685320  0.921760  0.217120  1.0  0.144
  H  H78  1  0.516000  0.265000  0.528100  1.0  0.1276
  H  H79  1  0.521200  0.160900  0.462400  1.0  0.105
  H  H80  1  0.160740  0.505430  0.950920  1.0  0.1447
  C  C81  1  0.956300  0.390600  0.562300  1.0  0.6511
  C  C82  1  0.887800  0.479900  0.216800  1.0  0.7504
  C  C83  1  0.966300  0.112100  0.409700  1.0  0.7676
  C  C84  1  0.973000  0.241500  0.385700  1.0  0.2508
  C  C85  1  0.959300  0.183300  0.442600  1.0  -0.1155
  C  C86  1  0.970400  0.306500  0.423100  1.0  0.2644
  C  C87  1  0.938300  0.198200  0.539400  1.0  -0.0955
  C  C88  1  0.952100  0.320800  0.518700  1.0  -0.0961
  C  C89  1  0.932400  0.264000  0.570100  1.0  -0.0424
  C  C90  1  0.814600  0.477800  0.178800  1.0  -0.1057
  C  C91  1  0.692200  0.470000  0.196100  1.0  0.2158
  C  C92  1  0.685300  0.455000  0.354000  1.0  0.1862
  C  C93  1  0.679700  0.476300  0.099500  1.0  -0.0776
  C  C94  1  0.609800  0.480200  0.057100  1.0  0.6856
  C  C95  1  0.758900  0.470200  0.238000  1.0  0.1827
  C  C96  1  0.020200  0.315400  0.273300  1.0  0.0625
  C  C97  1  0.739400  0.480300  0.040200  1.0  -0.1163
  C  C98  1  0.800800  0.479000  0.080100  1.0  -0.0246
  C  C99  1  0.043700  0.609400  0.062300  1.0  0.65
  C  C100  1  0.112200  0.520100  0.716800  1.0  0.7516
  C  C101  1  0.033700  0.887900  0.909700  1.0  0.7684
  C  C102  1  0.027000  0.758500  0.885700  1.0  0.252
  C  C103  1  0.040700  0.816700  0.942600  1.0  -0.1158
  C  C104  1  0.029600  0.693500  0.923100  1.0  0.2643
  C  C105  1  0.061700  0.801800  0.039400  1.0  -0.0964
  C  C106  1  0.047900  0.679200  0.018700  1.0  -0.0963
  C  C107  1  0.067600  0.736000  0.070100  1.0  -0.0434
  C  C108  1  0.185400  0.522200  0.678800  1.0  -0.1064
  C  C109  1  0.307800  0.530000  0.696100  1.0  0.2153
  C  C110  1  0.314700  0.545000  0.854000  1.0  0.1876
  C  C111  1  0.320300  0.523700  0.599500  1.0  -0.0775
  C  C112  1  0.390200  0.519800  0.557100  1.0  0.6861
  C  C113  1  0.241100  0.529800  0.738000  1.0  0.1826
  C  C114  1  0.979800  0.684600  0.773300  1.0  0.0641
  C  C115  1  0.260600  0.519700  0.540200  1.0  -0.1155
  C  C116  1  0.199200  0.521000  0.580100  1.0  -0.0244
  C  C117  1  0.109400  0.456300  0.312300  1.0  0.6486
  C  C118  1  0.020100  0.387800  0.966800  1.0  0.7529
  C  C119  1  0.387900  0.466300  0.159700  1.0  0.765
  C  C120  1  0.258500  0.473000  0.135700  1.0  0.2514
  C  C121  1  0.316700  0.459300  0.192600  1.0  -0.1156
  C  C122  1  0.193500  0.470400  0.173100  1.0  0.2643
  C  C123  1  0.301800  0.438300  0.289400  1.0  -0.095
  C  C124  1  0.179200  0.452100  0.268700  1.0  -0.0962
  C  C125  1  0.236000  0.432400  0.320100  1.0  -0.0456
  C  C126  1  0.022200  0.314600  0.928800  1.0  -0.1056
  C  C127  1  0.030000  0.192200  0.946100  1.0  0.215
  C  C128  1  0.045000  0.185300  0.104000  1.0  0.1866
  C  C129  1  0.023700  0.179700  0.849500  1.0  -0.079
  C  C130  1  0.019800  0.109800  0.807100  1.0  0.6886
  C  C131  1  0.029800  0.258900  0.988000  1.0  0.1862
  C  C132  1  0.184600  0.520200  0.023300  1.0  0.0628
  C  C133  1  0.019700  0.239400  0.790200  1.0  -0.1161
  C  C134  1  0.021000  0.300800  0.830100  1.0  -0.0258
  C  C135  1  0.890600  0.543700  0.812300  1.0  0.6484
  C  C136  1  0.979900  0.612200  0.466800  1.0  0.7523
  C  C137  1  0.612100  0.533700  0.659700  1.0  0.7646
  C  C138  1  0.741500  0.527000  0.635700  1.0  0.2503
  C  C139  1  0.683300  0.540700  0.692600  1.0  -0.115
  C  C140  1  0.806500  0.529600  0.673100  1.0  0.2638
  C  C141  1  0.698200  0.561700  0.789400  1.0  -0.0963
  C  C142  1  0.820800  0.547900  0.768700  1.0  -0.0944
  C  C143  1  0.764000  0.567600  0.820100  1.0  -0.0468
  C  C144  1  0.977800  0.685400  0.428800  1.0  -0.1056
  C  C145  1  0.970000  0.807800  0.446100  1.0  0.2155
  C  C146  1  0.955000  0.814700  0.604000  1.0  0.1871
  C  C147  1  0.976300  0.820300  0.349500  1.0  -0.079
  C  C148  1  0.980200  0.890200  0.307100  1.0  0.6889
  C  C149  1  0.970200  0.741100  0.488000  1.0  0.1856
  C  C150  1  0.815400  0.479800  0.523300  1.0  0.0629
  C  C151  1  0.980300  0.760600  0.290200  1.0  -0.1159
  C  C152  1  0.979000  0.699200  0.330100  1.0  -0.0264
  C  C153  1  0.543700  0.890600  0.187700  1.0  0.6507
  C  C154  1  0.612200  0.979900  0.533200  1.0  0.7517
  C  C155  1  0.533700  0.612100  0.340300  1.0  0.7674
  C  C156  1  0.527000  0.741500  0.364300  1.0  0.251
  C  C157  1  0.540700  0.683300  0.307400  1.0  -0.117
  C  C158  1  0.529600  0.806500  0.326900  1.0  0.2644
  C  C159  1  0.561700  0.698200  0.210600  1.0  -0.0955
  C  C160  1  0.547900  0.820800  0.231300  1.0  -0.0962
  C  C161  1  0.567600  0.764000  0.179900  1.0  -0.0433
  C  C162  1  0.685400  0.977800  0.571200  1.0  -0.1053
  C  C163  1  0.807800  0.970000  0.553900  1.0  0.2152
  C  C164  1  0.814700  0.955000  0.396000  1.0  0.1891
  C  C165  1  0.820300  0.976300  0.650500  1.0  -0.0763
  C  C166  1  0.890200  0.980200  0.692900  1.0  0.6861
  C  C167  1  0.741100  0.970200  0.512000  1.0  0.1828
  C  C168  1  0.479800  0.815400  0.476700  1.0  0.0647
  C  C169  1  0.760600  0.980300  0.709800  1.0  -0.1159
  C  C170  1  0.699200  0.979000  0.669900  1.0  -0.0228
  C  C171  1  0.456300  0.109400  0.687700  1.0  0.6504
  C  C172  1  0.387800  0.020100  0.033200  1.0  0.7506
  C  C173  1  0.466300  0.387900  0.840300  1.0  0.7684
  C  C174  1  0.473000  0.258500  0.864300  1.0  0.2504
  C  C175  1  0.459300  0.316700  0.807400  1.0  -0.1159
  C  C176  1  0.470400  0.193500  0.826900  1.0  0.2638
  C  C177  1  0.438300  0.301800  0.710600  1.0  -0.0963
  C  C178  1  0.452100  0.179200  0.731300  1.0  -0.0958
  C  C179  1  0.432400  0.236000  0.679900  1.0  -0.0442
  C  C180  1  0.314600  0.022200  0.071200  1.0  -0.1047
  C  C181  1  0.192200  0.030000  0.053900  1.0  0.2151
  C  C182  1  0.185300  0.045000  0.896000  1.0  0.187
  C  C183  1  0.179700  0.023700  0.150500  1.0  -0.0761
  C  C184  1  0.109800  0.019800  0.192900  1.0  0.6854
  C  C185  1  0.258900  0.029800  0.012000  1.0  0.1827
  C  C186  1  0.520200  0.184600  0.976700  1.0  0.0632
  C  C187  1  0.239400  0.019700  0.209800  1.0  -0.1164
  C  C188  1  0.300800  0.021000  0.169900  1.0  -0.0232
  C  C189  1  0.390600  0.956300  0.437700  1.0  0.6485
  C  C190  1  0.479900  0.887800  0.783200  1.0  0.7528
  C  C191  1  0.112100  0.966300  0.590300  1.0  0.7645
  C  C192  1  0.241500  0.973000  0.614300  1.0  0.2496
  C  C193  1  0.183300  0.959300  0.557400  1.0  -0.1167
  C  C194  1  0.306500  0.970400  0.576900  1.0  0.2637
  C  C195  1  0.198200  0.938300  0.460600  1.0  -0.0955
  C  C196  1  0.320800  0.952100  0.481300  1.0  -0.0944
  C  C197  1  0.264000  0.932400  0.429900  1.0  -0.0474
  C  C198  1  0.477800  0.814600  0.821200  1.0  -0.1043
  C  C199  1  0.470000  0.692200  0.803900  1.0  0.2151
  C  C200  1  0.455000  0.685300  0.646000  1.0  0.1877
  C  C201  1  0.476300  0.679700  0.900500  1.0  -0.0777
  C  C202  1  0.480200  0.609800  0.942900  1.0  0.6883
  C  C203  1  0.470200  0.758900  0.762000  1.0  0.1863
  C  C204  1  0.315400  0.020200  0.726700  1.0  0.0631
  C  C205  1  0.480300  0.739400  0.959800  1.0  -0.1164
  C  C206  1  0.479000  0.800800  0.919900  1.0  -0.0258
  C  C207  1  0.609400  0.043700  0.937700  1.0  0.6481
  C  C208  1  0.520100  0.112200  0.283200  1.0  0.7522
  C  C209  1  0.887900  0.033700  0.090300  1.0  0.7646
  C  C210  1  0.758500  0.027000  0.114300  1.0  0.2504
  C  C211  1  0.816700  0.040700  0.057400  1.0  -0.116
  C  C212  1  0.693500  0.029600  0.076900  1.0  0.2642
  C  C213  1  0.801800  0.061700  0.960600  1.0  -0.0956
  C  C214  1  0.679200  0.047900  0.981300  1.0  -0.0957
  C  C215  1  0.736000  0.067600  0.929900  1.0  -0.0466
  C  C216  1  0.522200  0.185400  0.321200  1.0  -0.1047
  C  C217  1  0.530000  0.307800  0.303900  1.0  0.2152
  C  C218  1  0.545000  0.314700  0.146000  1.0  0.1876
  C  C219  1  0.523700  0.320300  0.400500  1.0  -0.0776
  C  C220  1  0.519800  0.390200  0.442900  1.0  0.6886
  C  C221  1  0.529800  0.241100  0.262000  1.0  0.1854
  C  C222  1  0.684600  0.979800  0.226700  1.0  0.0638
  C  C223  1  0.519700  0.260600  0.459800  1.0  -0.1158
  C  C224  1  0.521000  0.199200  0.419900  1.0  -0.0245
  O  O225  1  0.963440  0.443090  0.507800  1.0  -0.6884
  O  O226  1  0.987000  0.353410  0.352200  1.0  -0.434
  O  O227  1  0.898240  0.470100  0.302800  1.0  -0.575
  O  O228  1  0.931750  0.492700  0.154200  1.0  -0.6283
  O  O229  1  0.557710  0.467990  0.110200  1.0  -0.6716
  O  O230  1  0.957000  0.068240  0.470600  1.0  -0.6084
  O  O231  1  0.989900  0.244760  0.290100  1.0  -0.3942
  O  O232  1  0.754930  0.460700  0.332600  1.0  -0.2807
  O  O233  1  0.602900  0.491500  0.969900  1.0  -0.5466
  O  O234  1  0.646930  0.459400  0.267200  1.0  -0.3956
  O  O235  1  0.978300  0.101450  0.320900  1.0  -0.5755
  O  O236  1  0.947100  0.398100  0.648700  1.0  -0.5625
  O  O237  1  0.036560  0.556910  0.007800  1.0  -0.687
  O  O238  1  0.013000  0.646590  0.852200  1.0  -0.4337
  O  O239  1  0.101760  0.529900  0.802800  1.0  -0.5761
  O  O240  1  0.068250  0.507300  0.654200  1.0  -0.6269
  O  O241  1  0.442290  0.532010  0.610200  1.0  -0.6718
  O  O242  1  0.043000  0.931760  0.970600  1.0  -0.6081
  O  O243  1  0.010100  0.755240  0.790100  1.0  -0.3939
  O  O244  1  0.245070  0.539300  0.832600  1.0  -0.2807
  O  O245  1  0.397100  0.508500  0.469900  1.0  -0.5468
  O  O246  1  0.353070  0.540600  0.767200  1.0  -0.3961
  O  O247  1  0.021700  0.898550  0.820900  1.0  -0.5756
  O  O248  1  0.052900  0.601900  0.148700  1.0  -0.5609
  O  O249  1  0.056910  0.463440  0.257800  1.0  -0.6879
  O  O250  1  0.146590  0.487000  0.102200  1.0  -0.4338
  O  O251  1  0.029900  0.398240  0.052800  1.0  -0.5753
  O  O252  1  0.007300  0.431750  0.904200  1.0  -0.6279
  O  O253  1  0.032010  0.057710  0.860200  1.0  -0.6713
  O  O254  1  0.431760  0.457000  0.220600  1.0  -0.6077
  O  O255  1  0.255240  0.489900  0.040100  1.0  -0.3953
  O  O256  1  0.039300  0.254930  0.082600  1.0  -0.2786
  O  O257  1  0.008500  0.102900  0.719900  1.0  -0.5433
  O  O258  1  0.040600  0.146930  0.017200  1.0  -0.3962
  O  O259  1  0.398550  0.478300  0.070900  1.0  -0.5756
  O  O260  1  0.101900  0.447100  0.398700  1.0  -0.5639
  O  O261  1  0.943090  0.536560  0.757800  1.0  -0.6876
  O  O262  1  0.853410  0.513000  0.602200  1.0  -0.4349
  O  O263  1  0.970100  0.601760  0.552800  1.0  -0.5753
  O  O264  1  0.992700  0.568250  0.404200  1.0  -0.6281
  O  O265  1  0.967990  0.942290  0.360200  1.0  -0.6715
  O  O266  1  0.568240  0.543000  0.720600  1.0  -0.6083
  O  O267  1  0.744760  0.510100  0.540100  1.0  -0.3941
  O  O268  1  0.960700  0.745070  0.582600  1.0  -0.2793
  O  O269  1  0.991500  0.897100  0.219900  1.0  -0.5432
  O  O270  1  0.959400  0.853070  0.517200  1.0  -0.394
  O  O271  1  0.601450  0.521700  0.570900  1.0  -0.5758
  O  O272  1  0.898100  0.552900  0.898700  1.0  -0.5647
  O  O273  1  0.536560  0.943090  0.242200  1.0  -0.6869
  O  O274  1  0.513000  0.853410  0.397800  1.0  -0.4329
  O  O275  1  0.601760  0.970100  0.447200  1.0  -0.5758
  O  O276  1  0.568250  0.992700  0.595800  1.0  -0.6289
  O  O277  1  0.942290  0.967990  0.639800  1.0  -0.6722
  O  O278  1  0.543000  0.568240  0.279400  1.0  -0.6067
  O  O279  1  0.510100  0.744760  0.459900  1.0  -0.3957
  O  O280  1  0.745070  0.960700  0.417400  1.0  -0.2797
  O  O281  1  0.897100  0.991500  0.780100  1.0  -0.5488
  O  O282  1  0.853070  0.959400  0.482800  1.0  -0.3959
  O  O283  1  0.521700  0.601450  0.429100  1.0  -0.5754
  O  O284  1  0.552900  0.898100  0.101300  1.0  -0.5611
  O  O285  1  0.463440  0.056910  0.742200  1.0  -0.6881
  O  O286  1  0.487000  0.146590  0.897800  1.0  -0.4347
  O  O287  1  0.398240  0.029900  0.947200  1.0  -0.5751
  O  O288  1  0.431750  0.007300  0.095800  1.0  -0.6286
  O  O289  1  0.057710  0.032010  0.139800  1.0  -0.6715
  O  O290  1  0.457000  0.431760  0.779400  1.0  -0.607
  O  O291  1  0.489900  0.255240  0.959900  1.0  -0.3955
  O  O292  1  0.254930  0.039300  0.917400  1.0  -0.2803
  O  O293  1  0.102900  0.008500  0.280100  1.0  -0.5479
  O  O294  1  0.146930  0.040600  0.982800  1.0  -0.3961
  O  O295  1  0.478300  0.398550  0.929100  1.0  -0.5758
  O  O296  1  0.447100  0.101900  0.601300  1.0  -0.5622
  O  O297  1  0.443090  0.963440  0.492200  1.0  -0.6883
  O  O298  1  0.353410  0.987000  0.647800  1.0  -0.435
  O  O299  1  0.470100  0.898240  0.697200  1.0  -0.5756
  O  O300  1  0.492700  0.931750  0.845800  1.0  -0.6291
  O  O301  1  0.467990  0.557710  0.889800  1.0  -0.6718
  O  O302  1  0.068240  0.957000  0.529400  1.0  -0.6063
  O  O303  1  0.244760  0.989900  0.709900  1.0  -0.3968
  O  O304  1  0.460700  0.754930  0.667400  1.0  -0.2781
  O  O305  1  0.491500  0.602900  0.030100  1.0  -0.5455
  O  O306  1  0.459400  0.646930  0.732800  1.0  -0.3963
  O  O307  1  0.101450  0.978300  0.679100  1.0  -0.5763
  O  O308  1  0.398100  0.947100  0.351300  1.0  -0.5642
  O  O309  1  0.556910  0.036560  0.992200  1.0  -0.6867
  O  O310  1  0.646590  0.013000  0.147800  1.0  -0.4335
  O  O311  1  0.529900  0.101760  0.197200  1.0  -0.5751
  O  O312  1  0.507300  0.068250  0.345800  1.0  -0.6295
  O  O313  1  0.532010  0.442290  0.389800  1.0  -0.6718
  O  O314  1  0.931760  0.043000  0.029400  1.0  -0.6059
  O  O315  1  0.755240  0.010100  0.209900  1.0  -0.396
  O  O316  1  0.539300  0.245070  0.167400  1.0  -0.2786
  O  O317  1  0.508500  0.397100  0.530100  1.0  -0.545
  O  O318  1  0.540600  0.353070  0.232800  1.0  -0.394
  O  O319  1  0.898550  0.021700  0.179100  1.0  -0.5758
  O  O320  1  0.601900  0.052900  0.851300  1.0  -0.5641
