# generated using pymatgen
data_ZnH8C14NO6
_symmetry_space_group_name_H-M   'P 1'
_cell_length_a   10.89470000
_cell_length_b   10.97080000
_cell_length_c   13.98910000
_cell_angle_alpha   81.54000000
_cell_angle_beta   89.01600000
_cell_angle_gamma   87.65800000
_symmetry_Int_Tables_number   1
_chemical_formula_structural   ZnH8C14NO6
_chemical_formula_sum   'Zn4 H32 C56 N4 O24'
_cell_volume   1652.34678206
_cell_formula_units_Z   4
loop_
 _symmetry_equiv_pos_site_id
 _symmetry_equiv_pos_as_xyz
  1  'x, y, z'
loop_
 _atom_site_type_symbol
 _atom_site_label
 _atom_site_symmetry_multiplicity
 _atom_site_fract_x
 _atom_site_fract_y
 _atom_site_fract_z
 _atom_site_occupancy
 _atom_site_charge
  Zn  Zn1  1  0.727000  0.663830  0.607030  1.0  0.9211
  Zn  Zn2  1  0.722960  0.622230  0.819240  1.0  0.9357
  Zn  Zn3  1  0.273000  0.336170  0.392970  1.0  0.9211
  Zn  Zn4  1  0.277040  0.377770  0.180760  1.0  0.9328
  H  H5  1  0.548300  0.648100  0.451500  1.0  0.0794
  H  H6  1  0.542200  0.640800  0.290400  1.0  0.1157
  H  H7  1  0.544300  0.635300  0.981100  1.0  0.0734
  H  H8  1  0.906600  0.626300  0.137400  1.0  0.1236
  H  H9  1  0.901800  0.684100  0.438900  1.0  0.0811
  H  H10  1  0.782400  0.277300  0.583300  1.0  0.096
  H  H11  1  0.539700  0.650600  0.140000  1.0  0.1163
  H  H12  1  0.125200  0.644600  0.571800  1.0  0.1068
  H  H13  1  0.904900  0.681000  0.276800  1.0  0.1193
  H  H14  1  0.781800  0.072700  0.574200  1.0  0.105
  H  H15  1  0.899300  0.608800  0.978300  1.0  0.0739
  H  H16  1  0.331300  0.651500  0.572500  1.0  0.0965
  H  H17  1  0.208900  0.790700  0.945700  1.0  0.0866
  H  H18  1  0.216000  0.657400  0.005900  1.0  0.0849
  H  H19  1  0.630600  0.073000  0.000300  1.0  0.0915
  H  H20  1  0.514400  0.097800  0.933700  1.0  0.1044
  H  H21  1  0.451700  0.351900  0.548500  1.0  0.0801
  H  H22  1  0.457800  0.359200  0.709600  1.0  0.1157
  H  H23  1  0.455700  0.364700  0.018900  1.0  0.0733
  H  H24  1  0.093400  0.373700  0.862600  1.0  0.1244
  H  H25  1  0.098200  0.315900  0.561100  1.0  0.081
  H  H26  1  0.217600  0.722700  0.416700  1.0  0.0954
  H  H27  1  0.460300  0.349400  0.860000  1.0  0.1168
  H  H28  1  0.874800  0.355400  0.428200  1.0  0.1071
  H  H29  1  0.095100  0.319000  0.723200  1.0  0.12
  H  H30  1  0.218200  0.927300  0.425800  1.0  0.1054
  H  H31  1  0.100700  0.391200  0.021700  1.0  0.0736
  H  H32  1  0.668700  0.348500  0.427500  1.0  0.0962
  H  H33  1  0.791100  0.209300  0.054300  1.0  0.0839
  H  H34  1  0.784000  0.342600  0.994100  1.0  0.0855
  H  H35  1  0.369400  0.927000  0.999700  1.0  0.0911
  H  H36  1  0.485600  0.902200  0.066300  1.0  0.0823
  C  C37  1  0.726200  0.406900  0.723400  1.0  0.7015
  C  C38  1  0.725900  0.271500  0.720800  1.0  -0.2103
  C  C39  1  0.957900  0.641900  0.712900  1.0  0.6895
  C  C40  1  0.689400  0.060400  0.791700  1.0  0.1697
  C  C41  1  0.723600  0.645000  0.159100  1.0  0.0909
  C  C42  1  0.156200  0.664000  0.796800  1.0  0.1813
  C  C43  1  0.621200  0.654400  0.415900  1.0  0.1814
  C  C44  1  0.617200  0.649000  0.319100  1.0  -0.171
  C  C45  1  0.724100  0.655700  0.263100  1.0  0.0873
  C  C46  1  0.094100  0.653200  0.713900  1.0  -0.193
  C  C47  1  0.618400  0.634100  0.013300  1.0  0.1826
  C  C48  1  0.831000  0.629500  0.107100  1.0  -0.1959
  C  C49  1  0.828100  0.675900  0.408300  1.0  0.1647
  C  C50  1  0.759000  0.223600  0.637600  1.0  -0.0934
  C  C51  1  0.614900  0.644200  0.108300  1.0  -0.1951
  C  C52  1  0.690000  0.186300  0.798300  1.0  0.1683
  C  C53  1  0.284600  0.668500  0.796200  1.0  0.1716
  C  C54  1  0.164500  0.649800  0.629500  1.0  -0.0714
  C  C55  1  0.489700  0.654900  0.713600  1.0  0.7025
  C  C56  1  0.355600  0.661400  0.714900  1.0  -0.2211
  C  C57  1  0.725200  0.012300  0.708700  1.0  -0.1857
  C  C58  1  0.830900  0.672300  0.310900  1.0  -0.1976
  C  C59  1  0.758500  0.099200  0.632300  1.0  -0.0691
  C  C60  1  0.825800  0.619100  0.011400  1.0  0.1758
  C  C61  1  0.288200  0.653800  0.630200  1.0  -0.0552
  C  C62  1  0.725200  0.877900  0.702600  1.0  0.7266
  C  C63  1  0.214900  0.703300  0.941100  1.0  0.2924
  C  C64  1  0.603500  0.092300  0.933900  1.0  0.2691
  C  C65  1  0.273800  0.593100  0.276600  1.0  0.7013
  C  C66  1  0.274100  0.728500  0.279200  1.0  -0.2102
  C  C67  1  0.042100  0.358100  0.287100  1.0  0.6899
  C  C68  1  0.310600  0.939600  0.208300  1.0  0.1693
  C  C69  1  0.276400  0.355000  0.840900  1.0  0.092
  C  C70  1  0.843800  0.336000  0.203200  1.0  0.1813
  C  C71  1  0.378800  0.345600  0.584100  1.0  0.182
  C  C72  1  0.382800  0.351000  0.680900  1.0  -0.1713
  C  C73  1  0.275900  0.344300  0.736900  1.0  0.0876
  C  C74  1  0.905900  0.346800  0.286100  1.0  -0.1933
  C  C75  1  0.381600  0.365900  0.986700  1.0  0.1813
  C  C76  1  0.169000  0.370500  0.892900  1.0  -0.1942
  C  C77  1  0.171900  0.324100  0.591700  1.0  0.1659
  C  C78  1  0.241000  0.776400  0.362400  1.0  -0.0933
  C  C79  1  0.385100  0.355800  0.891700  1.0  -0.195
  C  C80  1  0.310000  0.813700  0.201700  1.0  0.1681
  C  C81  1  0.715400  0.331500  0.203800  1.0  0.1732
  C  C82  1  0.835500  0.350200  0.370500  1.0  -0.0699
  C  C83  1  0.510300  0.345100  0.286400  1.0  0.6977
  C  C84  1  0.644400  0.338600  0.285100  1.0  -0.2195
  C  C85  1  0.274800  0.987700  0.291300  1.0  -0.185
  C  C86  1  0.169100  0.327700  0.689100  1.0  -0.1961
  C  C87  1  0.241500  0.900800  0.367700  1.0  -0.069
  C  C88  1  0.174200  0.380900  0.988600  1.0  0.176
  C  C89  1  0.711800  0.346200  0.369800  1.0  -0.056
  C  C90  1  0.274800  0.122100  0.297400  1.0  0.7277
  C  C91  1  0.785100  0.296700  0.058900  1.0  0.2949
  C  C92  1  0.396500  0.907700  0.066100  1.0  0.2808
  N  N93  1  0.725200  0.668300  0.461700  1.0  -0.3117
  N  N94  1  0.722300  0.622700  0.962800  1.0  -0.3151
  N  N95  1  0.274800  0.331700  0.538300  1.0  -0.3146
  N  N96  1  0.277700  0.377300  0.037200  1.0  -0.3143
  O  O97  1  0.732600  0.475500  0.644200  1.0  -0.603
  O  O98  1  0.908100  0.660500  0.631800  1.0  -0.5885
  O  O99  1  0.904000  0.615000  0.792600  1.0  -0.5973
  O  O100  1  0.543600  0.664800  0.633200  1.0  -0.6026
  O  O101  1  0.541700  0.640200  0.792300  1.0  -0.5863
  O  O102  1  0.728800  0.807900  0.780000  1.0  -0.6055
  O  O103  1  0.723300  0.847800  0.621000  1.0  -0.5766
  O  O104  1  0.717400  0.441400  0.804600  1.0  -0.5816
  O  O105  1  0.113600  0.668800  0.887700  1.0  -0.2799
  O  O106  1  0.324100  0.674000  0.888000  1.0  -0.2748
  O  O107  1  0.648500  0.998700  0.878500  1.0  -0.2961
  O  O108  1  0.652700  0.206800  0.888800  1.0  -0.2843
  O  O109  1  0.267400  0.524500  0.355800  1.0  -0.6016
  O  O110  1  0.091900  0.339500  0.368200  1.0  -0.5879
  O  O111  1  0.096000  0.385000  0.207400  1.0  -0.597
  O  O112  1  0.456400  0.335200  0.366800  1.0  -0.6019
  O  O113  1  0.458300  0.359800  0.207700  1.0  -0.5861
  O  O114  1  0.271200  0.192100  0.220000  1.0  -0.605
  O  O115  1  0.276700  0.152200  0.379000  1.0  -0.5771
  O  O116  1  0.282600  0.558600  0.195400  1.0  -0.5846
  O  O117  1  0.886400  0.331200  0.112300  1.0  -0.278
  O  O118  1  0.675900  0.326000  0.112000  1.0  -0.2769
  O  O119  1  0.351500  0.001300  0.121500  1.0  -0.2967
  O  O120  1  0.347300  0.793200  0.111200  1.0  -0.2843
