# generated using pymatgen
data_NiH24C26N7
_symmetry_space_group_name_H-M   'P 1'
_cell_length_a   8.63000000
_cell_length_b   13.53300000
_cell_length_c   13.53300000
_cell_angle_alpha   93.41340000
_cell_angle_beta   97.03600000
_cell_angle_gamma   97.03600000
_symmetry_Int_Tables_number   1
_chemical_formula_structural   NiH24C26N7
_chemical_formula_sum   'Ni2 H48 C52 N14'
_cell_volume   1552.33668395
_cell_formula_units_Z   2
loop_
 _symmetry_equiv_pos_site_id
 _symmetry_equiv_pos_as_xyz
  1  'x, y, z'
loop_
 _atom_site_type_symbol
 _atom_site_label
 _atom_site_symmetry_multiplicity
 _atom_site_fract_x
 _atom_site_fract_y
 _atom_site_fract_z
 _atom_site_occupancy
 _atom_site_charge
  Ni  Ni1  1  0.750000  0.677100  0.322900  1.0  0.5026
  Ni  Ni2  1  0.250000  0.322900  0.677100  1.0  0.5023
  H  H3  1  0.944300  0.745600  0.160400  1.0  0.084
  H  H4  1  0.924300  0.735000  0.980600  1.0  0.1149
  H  H5  1  0.467500  0.601700  0.961500  1.0  0.1095
  H  H6  1  0.504600  0.605900  0.140700  1.0  0.071
  H  H7  1  0.596400  0.695800  0.821800  1.0  0.0775
  H  H8  1  0.666800  0.595800  0.822400  1.0  0.1059
  H  H9  1  0.673500  0.814600  0.490000  1.0  0.0884
  H  H10  1  0.701400  0.829200  0.672600  1.0  0.1154
  H  H11  1  0.921700  0.572500  0.666100  1.0  0.1021
  H  H12  1  0.884500  0.558700  0.497100  1.0  0.0874
  H  H13  1  0.833000  0.779900  0.834500  1.0  0.1001
  H  H14  1  0.908400  0.681900  0.842500  1.0  0.0562
  H  H15  1  0.555700  0.839600  0.254400  1.0  0.0828
  H  H16  1  0.575700  0.019400  0.265000  1.0  0.1156
  H  H17  1  0.032500  0.038500  0.398300  1.0  0.11
  H  H18  1  0.995400  0.859300  0.394100  1.0  0.072
  H  H19  1  0.903600  0.178200  0.304200  1.0  0.0797
  H  H20  1  0.833200  0.177600  0.404200  1.0  0.1067
  H  H21  1  0.826500  0.510000  0.185400  1.0  0.0882
  H  H22  1  0.798600  0.327400  0.170800  1.0  0.1125
  H  H23  1  0.578300  0.333900  0.427500  1.0  0.1017
  H  H24  1  0.615500  0.502900  0.441300  1.0  0.0874
  H  H25  1  0.667000  0.165500  0.220100  1.0  0.1004
  H  H26  1  0.591600  0.157500  0.318100  1.0  0.0554
  H  H27  1  0.055700  0.254400  0.839600  1.0  0.0847
  H  H28  1  0.075700  0.265000  0.019400  1.0  0.1147
  H  H29  1  0.532500  0.398300  0.038500  1.0  0.1097
  H  H30  1  0.495400  0.394100  0.859300  1.0  0.0717
  H  H31  1  0.403600  0.304200  0.178200  1.0  0.0782
  H  H32  1  0.333200  0.404200  0.177600  1.0  0.1065
  H  H33  1  0.326500  0.185400  0.510000  1.0  0.0878
  H  H34  1  0.298600  0.170800  0.327400  1.0  0.1141
  H  H35  1  0.078300  0.427500  0.333900  1.0  0.1021
  H  H36  1  0.115500  0.441300  0.502900  1.0  0.0885
  H  H37  1  0.167000  0.220100  0.165500  1.0  0.0973
  H  H38  1  0.091600  0.318100  0.157500  1.0  0.0543
  H  H39  1  0.444300  0.160400  0.745600  1.0  0.0821
  H  H40  1  0.424300  0.980600  0.735000  1.0  0.1146
  H  H41  1  0.967500  0.961500  0.601700  1.0  0.1095
  H  H42  1  0.004600  0.140700  0.605900  1.0  0.0715
  H  H43  1  0.096400  0.821800  0.695800  1.0  0.0797
  H  H44  1  0.166800  0.822400  0.595800  1.0  0.107
  H  H45  1  0.173500  0.490000  0.814600  1.0  0.0877
  H  H46  1  0.201400  0.672600  0.829200  1.0  0.1121
  H  H47  1  0.421700  0.666100  0.572500  1.0  0.1015
  H  H48  1  0.384500  0.497100  0.558700  1.0  0.0882
  H  H49  1  0.333000  0.834500  0.779900  1.0  0.0989
  H  H50  1  0.408400  0.842500  0.681900  1.0  0.0582
  C  C51  1  0.838000  0.713000  0.123000  1.0  0.1184
  C  C52  1  0.832000  0.711100  0.014900  1.0  -0.2687
  C  C53  1  0.696000  0.669000  0.959000  1.0  0.1709
  C  C54  1  0.574000  0.628000  0.004000  1.0  -0.227
  C  C55  1  0.588000  0.636100  0.105900  1.0  0.1225
  C  C56  1  0.688000  0.662000  0.850000  1.0  -0.1707
  C  C57  1  0.726000  0.764000  0.530000  1.0  0.1137
  C  C58  1  0.741000  0.771000  0.639000  1.0  -0.2542
  C  C59  1  0.810000  0.697000  0.689000  1.0  0.1139
  C  C60  1  0.865000  0.624000  0.636000  1.0  -0.1885
  C  C61  1  0.852000  0.620000  0.536000  1.0  0.0988
  C  C62  1  0.816000  0.714000  0.806000  1.0  -0.1523
  C  C63  1  0.109000  0.656100  0.345900  1.0  0.5322
  C  C64  1  0.662000  0.877000  0.287000  1.0  0.117
  C  C65  1  0.668000  0.985100  0.288900  1.0  -0.2663
  C  C66  1  0.804000  0.041000  0.331000  1.0  0.1692
  C  C67  1  0.926000  0.996000  0.372000  1.0  -0.2298
  C  C68  1  0.912000  0.894100  0.363900  1.0  0.123
  C  C69  1  0.812000  0.150000  0.338000  1.0  -0.1698
  C  C70  1  0.774000  0.470000  0.236000  1.0  0.1152
  C  C71  1  0.759000  0.361000  0.229000  1.0  -0.2488
  C  C72  1  0.690000  0.311000  0.303000  1.0  0.1132
  C  C73  1  0.635000  0.364000  0.376000  1.0  -0.1911
  C  C74  1  0.648000  0.464000  0.380000  1.0  0.0971
  C  C75  1  0.684000  0.194000  0.286000  1.0  -0.1484
  C  C76  1  0.391000  0.654100  0.343900  1.0  0.5327
  C  C77  1  0.162000  0.287000  0.877000  1.0  0.119
  C  C78  1  0.168000  0.288900  0.985100  1.0  -0.2615
  C  C79  1  0.304000  0.331000  0.041000  1.0  0.171
  C  C80  1  0.426000  0.372000  0.996000  1.0  -0.2299
  C  C81  1  0.412000  0.363900  0.894100  1.0  0.1226
  C  C82  1  0.312000  0.338000  0.150000  1.0  -0.171
  C  C83  1  0.274000  0.236000  0.470000  1.0  0.1128
  C  C84  1  0.259000  0.229000  0.361000  1.0  -0.2523
  C  C85  1  0.190000  0.303000  0.311000  1.0  0.1119
  C  C86  1  0.135000  0.376000  0.364000  1.0  -0.1917
  C  C87  1  0.148000  0.380000  0.464000  1.0  0.0996
  C  C88  1  0.184000  0.286000  0.194000  1.0  -0.1528
  C  C89  1  0.891000  0.343900  0.654100  1.0  0.5308
  C  C90  1  0.338000  0.123000  0.713000  1.0  0.1152
  C  C91  1  0.332000  0.014900  0.711100  1.0  -0.2676
  C  C92  1  0.196000  0.959000  0.669000  1.0  0.1701
  C  C93  1  0.074000  0.004000  0.628000  1.0  -0.2241
  C  C94  1  0.088000  0.105900  0.636100  1.0  0.1227
  C  C95  1  0.188000  0.850000  0.662000  1.0  -0.1719
  C  C96  1  0.226000  0.530000  0.764000  1.0  0.115
  C  C97  1  0.241000  0.639000  0.771000  1.0  -0.2514
  C  C98  1  0.310000  0.689000  0.697000  1.0  0.1128
  C  C99  1  0.365000  0.636000  0.624000  1.0  -0.1869
  C  C100  1  0.352000  0.536000  0.620000  1.0  0.0983
  C  C101  1  0.316000  0.806000  0.714000  1.0  -0.1479
  C  C102  1  0.609000  0.345900  0.656100  1.0  0.5312
  N  N103  1  0.720000  0.674500  0.165700  1.0  -0.2687
  N  N104  1  0.779000  0.688000  0.483800  1.0  -0.2586
  N  N105  1  0.988000  0.671800  0.330400  1.0  -0.5458
  N  N106  1  0.780000  0.834300  0.325500  1.0  -0.2681
  N  N107  1  0.721000  0.516200  0.312000  1.0  -0.2589
  N  N108  1  0.512000  0.669600  0.328200  1.0  -0.5452
  N  N109  1  0.250000  0.624000  0.376000  1.0  -0.6067
  N  N110  1  0.280000  0.325500  0.834300  1.0  -0.2678
  N  N111  1  0.221000  0.312000  0.516200  1.0  -0.2586
  N  N112  1  0.012000  0.328200  0.669600  1.0  -0.5455
  N  N113  1  0.220000  0.165700  0.674500  1.0  -0.2677
  N  N114  1  0.279000  0.483800  0.688000  1.0  -0.2586
  N  N115  1  0.488000  0.330400  0.671800  1.0  -0.5448
  N  N116  1  0.750000  0.376000  0.624000  1.0  -0.6019
