# generated using pymatgen
data_In12H18C54O49
_symmetry_space_group_name_H-M   'P 1'
_cell_length_a   15.32130000
_cell_length_b   15.32130000
_cell_length_c   32.57100000
_cell_angle_alpha   90.00000000
_cell_angle_beta   90.00000000
_cell_angle_gamma   120.00000000
_symmetry_Int_Tables_number   1
_chemical_formula_structural   In12H18C54O49
_chemical_formula_sum   'In24 H36 C108 O98'
_cell_volume   6621.44776017
_cell_formula_units_Z   2
loop_
 _symmetry_equiv_pos_site_id
 _symmetry_equiv_pos_as_xyz
  1  'x, y, z'
loop_
 _atom_site_type_symbol
 _atom_site_label
 _atom_site_symmetry_multiplicity
 _atom_site_fract_x
 _atom_site_fract_y
 _atom_site_fract_z
 _atom_site_occupancy
 _atom_site_charge
  In  In1  1  0.420350  0.840700  0.407890  1.0  1.3621
  In  In2  1  0.420350  0.579650  0.407890  1.0  1.3621
  In  In3  1  0.159300  0.579650  0.407890  1.0  1.362
  In  In4  1  0.579650  0.159300  0.907890  1.0  1.3611
  In  In5  1  0.579650  0.420350  0.907890  1.0  1.3629
  In  In6  1  0.840700  0.420350  0.907890  1.0  1.3632
  In  In7  1  0.579650  0.159300  0.592110  1.0  1.3617
  In  In8  1  0.840700  0.420350  0.592110  1.0  1.3635
  In  In9  1  0.579650  0.420350  0.592110  1.0  1.3631
  In  In10  1  0.420350  0.840700  0.092110  1.0  1.3622
  In  In11  1  0.159300  0.579650  0.092110  1.0  1.3626
  In  In12  1  0.420350  0.579650  0.092110  1.0  1.3631
  In  In13  1  0.500000  0.000000  0.500000  1.0  1.6562
  In  In14  1  0.500000  0.500000  0.500000  1.0  1.6562
  In  In15  1  0.000000  0.500000  0.500000  1.0  1.6562
  In  In16  1  0.500000  0.000000  0.000000  1.0  1.6562
  In  In17  1  0.500000  0.500000  0.000000  1.0  1.6562
  In  In18  1  0.000000  0.500000  0.000000  1.0  1.6562
  In  In19  1  0.077260  0.154520  0.250000  1.0  1.5308
  In  In20  1  0.077260  0.922740  0.250000  1.0  1.5313
  In  In21  1  0.845480  0.922740  0.250000  1.0  1.5313
  In  In22  1  0.922740  0.845480  0.750000  1.0  1.53
  In  In23  1  0.922740  0.077260  0.750000  1.0  1.5314
  In  In24  1  0.154520  0.077260  0.750000  1.0  1.5314
  H  H25  1  0.282800  0.010200  0.355200  1.0  0.1343
  H  H26  1  0.727400  0.717200  0.355200  1.0  0.1343
  H  H27  1  0.989800  0.272600  0.355200  1.0  0.1343
  H  H28  1  0.717200  0.989800  0.855200  1.0  0.1343
  H  H29  1  0.272600  0.282800  0.855200  1.0  0.1345
  H  H30  1  0.010200  0.727400  0.855200  1.0  0.1338
  H  H31  1  0.272600  0.989800  0.644800  1.0  0.1349
  H  H32  1  0.010200  0.282800  0.644800  1.0  0.1342
  H  H33  1  0.717200  0.727400  0.644800  1.0  0.1342
  H  H34  1  0.727400  0.010200  0.144800  1.0  0.1341
  H  H35  1  0.989800  0.717200  0.144800  1.0  0.1345
  H  H36  1  0.282800  0.272600  0.144800  1.0  0.1343
  H  H37  1  0.717200  0.989800  0.644800  1.0  0.1345
  H  H38  1  0.272600  0.282800  0.644800  1.0  0.1346
  H  H39  1  0.010200  0.727400  0.644800  1.0  0.1339
  H  H40  1  0.282800  0.010200  0.144800  1.0  0.1343
  H  H41  1  0.727400  0.717200  0.144800  1.0  0.1342
  H  H42  1  0.989800  0.272600  0.144800  1.0  0.1346
  H  H43  1  0.727400  0.010200  0.355200  1.0  0.134
  H  H44  1  0.989800  0.717200  0.355200  1.0  0.1344
  H  H45  1  0.282800  0.272600  0.355200  1.0  0.1342
  H  H46  1  0.272600  0.989800  0.855200  1.0  0.1346
  H  H47  1  0.010200  0.282800  0.855200  1.0  0.1343
  H  H48  1  0.717200  0.727400  0.855200  1.0  0.1339
  H  H49  1  0.424600  0.212300  0.445600  1.0  0.1363
  H  H50  1  0.787700  0.575400  0.445600  1.0  0.136
  H  H51  1  0.787700  0.212300  0.445600  1.0  0.1363
  H  H52  1  0.575400  0.787700  0.945600  1.0  0.1363
  H  H53  1  0.212300  0.424600  0.945600  1.0  0.1361
  H  H54  1  0.212300  0.787700  0.945600  1.0  0.1363
  H  H55  1  0.212300  0.787700  0.554400  1.0  0.1363
  H  H56  1  0.212300  0.424600  0.554400  1.0  0.1361
  H  H57  1  0.575400  0.787700  0.554400  1.0  0.136
  H  H58  1  0.787700  0.212300  0.054400  1.0  0.1361
  H  H59  1  0.787700  0.575400  0.054400  1.0  0.1358
  H  H60  1  0.424600  0.212300  0.054400  1.0  0.1363
  C  C61  1  0.391100  0.031800  0.422700  1.0  0.7446
  C  C62  1  0.358800  0.099400  0.403100  1.0  -0.1317
  C  C63  1  0.302000  0.072100  0.367300  1.0  0.0565
  C  C64  1  0.640700  0.608900  0.422700  1.0  0.7456
  C  C65  1  0.740600  0.641200  0.403100  1.0  -0.1322
  C  C66  1  0.770100  0.698000  0.367300  1.0  0.0556
  C  C67  1  0.968200  0.359300  0.422700  1.0  0.7449
  C  C68  1  0.900600  0.259400  0.403100  1.0  -0.1315
  C  C69  1  0.927900  0.229900  0.367300  1.0  0.0566
  C  C70  1  0.608900  0.968200  0.922700  1.0  0.7445
  C  C71  1  0.641200  0.900600  0.903100  1.0  -0.1314
  C  C72  1  0.698000  0.927900  0.867300  1.0  0.0567
  C  C73  1  0.359300  0.391100  0.922700  1.0  0.7458
  C  C74  1  0.259400  0.358800  0.903100  1.0  -0.1326
  C  C75  1  0.229900  0.302000  0.867300  1.0  0.0564
  C  C76  1  0.031800  0.640700  0.922700  1.0  0.7449
  C  C77  1  0.099400  0.740600  0.903100  1.0  -0.1314
  C  C78  1  0.072100  0.770100  0.867300  1.0  0.0563
  C  C79  1  0.359300  0.968200  0.577300  1.0  0.7438
  C  C80  1  0.259400  0.900600  0.596900  1.0  -0.1313
  C  C81  1  0.229900  0.927900  0.632700  1.0  0.0561
  C  C82  1  0.031800  0.391100  0.577300  1.0  0.7456
  C  C83  1  0.099400  0.358800  0.596900  1.0  -0.1322
  C  C84  1  0.072100  0.302000  0.632700  1.0  0.0555
  C  C85  1  0.608900  0.640700  0.577300  1.0  0.7443
  C  C86  1  0.641200  0.740600  0.596900  1.0  -0.1317
  C  C87  1  0.698000  0.770100  0.632700  1.0  0.0567
  C  C88  1  0.640700  0.031800  0.077300  1.0  0.7448
  C  C89  1  0.740600  0.099400  0.096900  1.0  -0.1321
  C  C90  1  0.770100  0.072100  0.132700  1.0  0.0566
  C  C91  1  0.968200  0.608900  0.077300  1.0  0.7447
  C  C92  1  0.900600  0.641200  0.096900  1.0  -0.1325
  C  C93  1  0.927900  0.698000  0.132700  1.0  0.0555
  C  C94  1  0.391100  0.359300  0.077300  1.0  0.7449
  C  C95  1  0.358800  0.259400  0.096900  1.0  -0.1312
  C  C96  1  0.302000  0.229900  0.132700  1.0  0.0555
  C  C97  1  0.608900  0.968200  0.577300  1.0  0.7443
  C  C98  1  0.641200  0.900600  0.596900  1.0  -0.1315
  C  C99  1  0.698000  0.927900  0.632700  1.0  0.0558
  C  C100  1  0.359300  0.391100  0.577300  1.0  0.7453
  C  C101  1  0.259400  0.358800  0.596900  1.0  -0.1326
  C  C102  1  0.229900  0.302000  0.632700  1.0  0.0559
  C  C103  1  0.031800  0.640700  0.577300  1.0  0.7445
  C  C104  1  0.099400  0.740600  0.596900  1.0  -0.1316
  C  C105  1  0.072100  0.770100  0.632700  1.0  0.0566
  C  C106  1  0.391100  0.031800  0.077300  1.0  0.7443
  C  C107  1  0.358800  0.099400  0.096900  1.0  -0.1317
  C  C108  1  0.302000  0.072100  0.132700  1.0  0.0568
  C  C109  1  0.640700  0.608900  0.077300  1.0  0.745
  C  C110  1  0.740600  0.641200  0.096900  1.0  -0.1323
  C  C111  1  0.770100  0.698000  0.132700  1.0  0.055
  C  C112  1  0.968200  0.359300  0.077300  1.0  0.7447
  C  C113  1  0.900600  0.259400  0.096900  1.0  -0.1315
  C  C114  1  0.927900  0.229900  0.132700  1.0  0.056
  C  C115  1  0.640700  0.031800  0.422700  1.0  0.7451
  C  C116  1  0.740600  0.099400  0.403100  1.0  -0.1319
  C  C117  1  0.770100  0.072100  0.367300  1.0  0.0564
  C  C118  1  0.968200  0.608900  0.422700  1.0  0.7452
  C  C119  1  0.900600  0.641200  0.403100  1.0  -0.1325
  C  C120  1  0.927900  0.698000  0.367300  1.0  0.0562
  C  C121  1  0.391100  0.359300  0.422700  1.0  0.7452
  C  C122  1  0.358800  0.259400  0.403100  1.0  -0.1311
  C  C123  1  0.302000  0.229900  0.367300  1.0  0.0561
  C  C124  1  0.359300  0.968200  0.922700  1.0  0.7441
  C  C125  1  0.259400  0.900600  0.903100  1.0  -0.1313
  C  C126  1  0.229900  0.927900  0.867300  1.0  0.0569
  C  C127  1  0.031800  0.391100  0.922700  1.0  0.7462
  C  C128  1  0.099400  0.358800  0.903100  1.0  -0.1321
  C  C129  1  0.072100  0.302000  0.867300  1.0  0.0558
  C  C130  1  0.608900  0.640700  0.922700  1.0  0.7447
  C  C131  1  0.641200  0.740600  0.903100  1.0  -0.1317
  C  C132  1  0.698000  0.770100  0.867300  1.0  0.0565
  C  C133  1  0.206400  0.103200  0.311200  1.0  0.7272
  C  C134  1  0.273600  0.136800  0.349400  1.0  -0.1305
  C  C135  1  0.387200  0.193600  0.421500  1.0  0.0545
  C  C136  1  0.896800  0.793600  0.311200  1.0  0.7276
  C  C137  1  0.863200  0.726400  0.349400  1.0  -0.1292
  C  C138  1  0.806400  0.612800  0.421500  1.0  0.0546
  C  C139  1  0.896800  0.103200  0.311200  1.0  0.7264
  C  C140  1  0.863200  0.136800  0.349400  1.0  -0.1303
  C  C141  1  0.806400  0.193600  0.421500  1.0  0.0539
  C  C142  1  0.793600  0.896800  0.811200  1.0  0.7269
  C  C143  1  0.726400  0.863200  0.849400  1.0  -0.1299
  C  C144  1  0.612800  0.806400  0.921500  1.0  0.0541
  C  C145  1  0.103200  0.206400  0.811200  1.0  0.727
  C  C146  1  0.136800  0.273600  0.849400  1.0  -0.13
  C  C147  1  0.193600  0.387200  0.921500  1.0  0.0546
  C  C148  1  0.103200  0.896800  0.811200  1.0  0.7276
  C  C149  1  0.136800  0.863200  0.849400  1.0  -0.1301
  C  C150  1  0.193600  0.806400  0.921500  1.0  0.0547
  C  C151  1  0.103200  0.896800  0.688800  1.0  0.7279
  C  C152  1  0.136800  0.863200  0.650600  1.0  -0.1308
  C  C153  1  0.193600  0.806400  0.578500  1.0  0.0544
  C  C154  1  0.103200  0.206400  0.688800  1.0  0.727
  C  C155  1  0.136800  0.273600  0.650600  1.0  -0.1302
  C  C156  1  0.193600  0.387200  0.578500  1.0  0.0546
  C  C157  1  0.793600  0.896800  0.688800  1.0  0.7271
  C  C158  1  0.726400  0.863200  0.650600  1.0  -0.1308
  C  C159  1  0.612800  0.806400  0.578500  1.0  0.0535
  C  C160  1  0.896800  0.103200  0.188800  1.0  0.7267
  C  C161  1  0.863200  0.136800  0.150600  1.0  -0.1308
  C  C162  1  0.806400  0.193600  0.078500  1.0  0.0537
  C  C163  1  0.896800  0.793600  0.188800  1.0  0.7276
  C  C164  1  0.863200  0.726400  0.150600  1.0  -0.1304
  C  C165  1  0.806400  0.612800  0.078500  1.0  0.0541
  C  C166  1  0.206400  0.103200  0.188800  1.0  0.7275
  C  C167  1  0.273600  0.136800  0.150600  1.0  -0.1307
  C  C168  1  0.387200  0.193600  0.078500  1.0  0.0545
  O  O169  1  0.183100  0.165000  0.297150  1.0  -0.6262
  O  O170  1  0.379900  0.958300  0.401490  1.0  -0.6436
  O  O171  1  0.427700  0.054100  0.458220  1.0  -0.6051
  O  O172  1  0.981900  0.816900  0.297150  1.0  -0.6276
  O  O173  1  0.578400  0.620100  0.401490  1.0  -0.6457
  O  O174  1  0.626400  0.572300  0.458220  1.0  -0.6026
  O  O175  1  0.835000  0.018100  0.297150  1.0  -0.6307
  O  O176  1  0.041700  0.421600  0.401490  1.0  -0.6468
  O  O177  1  0.945900  0.373600  0.458220  1.0  -0.6007
  O  O178  1  0.816900  0.835000  0.797150  1.0  -0.6284
  O  O179  1  0.620100  0.041700  0.901490  1.0  -0.6427
  O  O180  1  0.572300  0.945900  0.958220  1.0  -0.6042
  O  O181  1  0.018100  0.183100  0.797150  1.0  -0.6272
  O  O182  1  0.421600  0.379900  0.901490  1.0  -0.6462
  O  O183  1  0.373600  0.427700  0.958220  1.0  -0.6024
  O  O184  1  0.165000  0.981900  0.797150  1.0  -0.6296
  O  O185  1  0.958300  0.578400  0.901490  1.0  -0.6458
  O  O186  1  0.054100  0.626400  0.958220  1.0  -0.6017
  O  O187  1  0.018100  0.835000  0.702850  1.0  -0.6272
  O  O188  1  0.421600  0.041700  0.598510  1.0  -0.6431
  O  O189  1  0.373600  0.945900  0.541780  1.0  -0.6052
  O  O190  1  0.165000  0.183100  0.702850  1.0  -0.6269
  O  O191  1  0.958300  0.379900  0.598510  1.0  -0.6455
  O  O192  1  0.054100  0.427700  0.541780  1.0  -0.6023
  O  O193  1  0.816900  0.981900  0.702850  1.0  -0.6303
  O  O194  1  0.620100  0.578400  0.598510  1.0  -0.6474
  O  O195  1  0.572300  0.626400  0.541780  1.0  -0.6011
  O  O196  1  0.981900  0.165000  0.202850  1.0  -0.6259
  O  O197  1  0.578400  0.958300  0.098510  1.0  -0.6438
  O  O198  1  0.626400  0.054100  0.041780  1.0  -0.6043
  O  O199  1  0.835000  0.816900  0.202850  1.0  -0.6267
  O  O200  1  0.041700  0.620100  0.098510  1.0  -0.6467
  O  O201  1  0.945900  0.572300  0.041780  1.0  -0.6028
  O  O202  1  0.183100  0.018100  0.202850  1.0  -0.6287
  O  O203  1  0.379900  0.421600  0.098510  1.0  -0.6465
  O  O204  1  0.427700  0.373600  0.041780  1.0  -0.6015
  O  O205  1  0.816900  0.835000  0.702850  1.0  -0.6273
  O  O206  1  0.620100  0.041700  0.598510  1.0  -0.6432
  O  O207  1  0.572300  0.945900  0.541780  1.0  -0.6045
  O  O208  1  0.018100  0.183100  0.702850  1.0  -0.6271
  O  O209  1  0.421600  0.379900  0.598510  1.0  -0.6461
  O  O210  1  0.373600  0.427700  0.541780  1.0  -0.6026
  O  O211  1  0.165000  0.981900  0.702850  1.0  -0.6288
  O  O212  1  0.958300  0.578400  0.598510  1.0  -0.6466
  O  O213  1  0.054100  0.626400  0.541780  1.0  -0.6018
  O  O214  1  0.183100  0.165000  0.202850  1.0  -0.6252
  O  O215  1  0.379900  0.958300  0.098510  1.0  -0.6439
  O  O216  1  0.427700  0.054100  0.041780  1.0  -0.6051
  O  O217  1  0.981900  0.816900  0.202850  1.0  -0.6267
  O  O218  1  0.578400  0.620100  0.098510  1.0  -0.6463
  O  O219  1  0.626400  0.572300  0.041780  1.0  -0.6026
  O  O220  1  0.835000  0.018100  0.202850  1.0  -0.6295
  O  O221  1  0.041700  0.421600  0.098510  1.0  -0.6468
  O  O222  1  0.945900  0.373600  0.041780  1.0  -0.6011
  O  O223  1  0.981900  0.165000  0.297150  1.0  -0.6272
  O  O224  1  0.578400  0.958300  0.401490  1.0  -0.6437
  O  O225  1  0.626400  0.054100  0.458220  1.0  -0.604
  O  O226  1  0.835000  0.816900  0.297150  1.0  -0.6275
  O  O227  1  0.041700  0.620100  0.401490  1.0  -0.6465
  O  O228  1  0.945900  0.572300  0.458220  1.0  -0.6028
  O  O229  1  0.183100  0.018100  0.297150  1.0  -0.6297
  O  O230  1  0.379900  0.421600  0.401490  1.0  -0.6461
  O  O231  1  0.427700  0.373600  0.458220  1.0  -0.6009
  O  O232  1  0.018100  0.835000  0.797150  1.0  -0.628
  O  O233  1  0.421600  0.041700  0.901490  1.0  -0.6429
  O  O234  1  0.373600  0.945900  0.958220  1.0  -0.605
  O  O235  1  0.165000  0.183100  0.797150  1.0  -0.6274
  O  O236  1  0.958300  0.379900  0.901490  1.0  -0.6453
  O  O237  1  0.054100  0.427700  0.958220  1.0  -0.6022
  O  O238  1  0.816900  0.981900  0.797150  1.0  -0.631
  O  O239  1  0.620100  0.578400  0.901490  1.0  -0.6466
  O  O240  1  0.572300  0.626400  0.958220  1.0  -0.6013
  O  O241  1  0.428700  0.857400  0.472700  1.0  -0.6609
  O  O242  1  0.428700  0.571300  0.472700  1.0  -0.6574
  O  O243  1  0.142600  0.571300  0.472700  1.0  -0.6563
  O  O244  1  0.571300  0.142600  0.972700  1.0  -0.6576
  O  O245  1  0.571300  0.428700  0.972700  1.0  -0.6569
  O  O246  1  0.857400  0.428700  0.972700  1.0  -0.6583
  O  O247  1  0.571300  0.142600  0.527300  1.0  -0.6596
  O  O248  1  0.857400  0.428700  0.527300  1.0  -0.6594
  O  O249  1  0.571300  0.428700  0.527300  1.0  -0.6576
  O  O250  1  0.428700  0.857400  0.027300  1.0  -0.6617
  O  O251  1  0.142600  0.571300  0.027300  1.0  -0.6572
  O  O252  1  0.428700  0.571300  0.027300  1.0  -0.6587
  O  O253  1  0.000000  0.000000  0.250000  1.0  -1.0189
  O  O254  1  0.000000  0.000000  0.750000  1.0  -1.0189
  O  O255  1  0.471100  0.735550  0.406200  1.0  -0.7703
  O  O256  1  0.264450  0.528900  0.406200  1.0  -0.771
  O  O257  1  0.264450  0.735550  0.406200  1.0  -0.7711
  O  O258  1  0.528900  0.264450  0.906200  1.0  -0.7708
  O  O259  1  0.735550  0.471100  0.906200  1.0  -0.7712
  O  O260  1  0.735550  0.264450  0.906200  1.0  -0.7701
  O  O261  1  0.735550  0.264450  0.593800  1.0  -0.7686
  O  O262  1  0.735550  0.471100  0.593800  1.0  -0.7694
  O  O263  1  0.528900  0.264450  0.593800  1.0  -0.7692
  O  O264  1  0.264450  0.735550  0.093800  1.0  -0.7695
  O  O265  1  0.264450  0.528900  0.093800  1.0  -0.7696
  O  O266  1  0.471100  0.735550  0.093800  1.0  -0.7687
