# generated using pymatgen
data_LaH15(C9O2)3
_symmetry_space_group_name_H-M   'P 1'
_cell_length_a   28.76400000
_cell_length_b   28.76400000
_cell_length_c   12.56300000
_cell_angle_alpha   90.00000000
_cell_angle_beta   90.00000000
_cell_angle_gamma   120.00000000
_symmetry_Int_Tables_number   1
_chemical_formula_structural   LaH15(C9O2)3
_chemical_formula_sum   'La9 H135 C243 O54'
_cell_volume   9001.65888849
_cell_formula_units_Z   9
loop_
 _symmetry_equiv_pos_site_id
 _symmetry_equiv_pos_as_xyz
  1  'x, y, z'
loop_
 _atom_site_type_symbol
 _atom_site_label
 _atom_site_symmetry_multiplicity
 _atom_site_fract_x
 _atom_site_fract_y
 _atom_site_fract_z
 _atom_site_occupancy
 _atom_site_charge
  La  La1  1  0.322220  0.000000  0.000000  1.0  2.1703
  La  La2  1  0.988880  0.333333  0.333333  1.0  2.1703
  La  La3  1  0.655550  0.666667  0.666667  1.0  2.1702
  La  La4  1  0.000000  0.322220  0.000000  1.0  2.1697
  La  La5  1  0.666667  0.655550  0.333333  1.0  2.1698
  La  La6  1  0.333333  0.988880  0.666667  1.0  2.1699
  La  La7  1  0.677780  0.677780  0.000000  1.0  2.1701
  La  La8  1  0.344450  0.011120  0.333333  1.0  2.1702
  La  La9  1  0.011120  0.344450  0.666667  1.0  2.1702
  H  H10  1  0.517400  0.086900  0.959100  1.0  0.123
  H  H11  1  0.596600  0.084200  0.941900  1.0  0.1096
  H  H12  1  0.523000  0.953300  0.754900  1.0  0.1254
  H  H13  1  0.441800  0.953200  0.778400  1.0  0.1092
  H  H14  1  0.585800  0.935800  0.847500  1.0  0.1078
  H  H15  1  0.727700  0.937300  0.727700  1.0  0.1014
  H  H16  1  0.725600  0.855900  0.723200  1.0  0.123
  H  H17  1  0.184070  0.420230  0.292430  1.0  0.123
  H  H18  1  0.263270  0.417530  0.275230  1.0  0.1096
  H  H19  1  0.189670  0.286630  0.088230  1.0  0.1255
  H  H20  1  0.108470  0.286530  0.111730  1.0  0.1102
  H  H21  1  0.252470  0.269130  0.180830  1.0  0.1078
  H  H22  1  0.394370  0.270630  0.061030  1.0  0.1014
  H  H23  1  0.392270  0.189230  0.056530  1.0  0.1228
  H  H24  1  0.850730  0.753570  0.625770  1.0  0.122
  H  H25  1  0.929930  0.750870  0.608570  1.0  0.1097
  H  H26  1  0.856330  0.619970  0.421570  1.0  0.1254
  H  H27  1  0.775130  0.619870  0.445070  1.0  0.1092
  H  H28  1  0.919130  0.602470  0.514170  1.0  0.1078
  H  H29  1  0.061030  0.603970  0.394370  1.0  0.1014
  H  H30  1  0.058930  0.522570  0.389870  1.0  0.123
  H  H31  1  0.913100  0.430500  0.959100  1.0  0.1214
  H  H32  1  0.915800  0.512400  0.941900  1.0  0.1102
  H  H33  1  0.046700  0.569700  0.754900  1.0  0.1257
  H  H34  1  0.046800  0.488600  0.778400  1.0  0.1094
  H  H35  1  0.064200  0.650000  0.847500  1.0  0.1081
  H  H36  1  0.062700  0.790400  0.727700  1.0  0.1014
  H  H37  1  0.144100  0.869700  0.723200  1.0  0.1234
  H  H38  1  0.579770  0.763830  0.292430  1.0  0.1214
  H  H39  1  0.582470  0.845730  0.275230  1.0  0.1103
  H  H40  1  0.713370  0.903030  0.088230  1.0  0.1259
  H  H41  1  0.713470  0.821930  0.111730  1.0  0.1097
  H  H42  1  0.730870  0.983330  0.180830  1.0  0.108
  H  H43  1  0.729370  0.123730  0.061030  1.0  0.1014
  H  H44  1  0.810770  0.203030  0.056530  1.0  0.1237
  H  H45  1  0.246430  0.097170  0.625770  1.0  0.1218
  H  H46  1  0.249130  0.179070  0.608570  1.0  0.1102
  H  H47  1  0.380030  0.236370  0.421570  1.0  0.1257
  H  H48  1  0.380130  0.155270  0.445070  1.0  0.1094
  H  H49  1  0.397530  0.316670  0.514170  1.0  0.1081
  H  H50  1  0.396030  0.457070  0.394370  1.0  0.1014
  H  H51  1  0.477430  0.536370  0.389870  1.0  0.1234
  H  H52  1  0.569500  0.482600  0.959100  1.0  0.1212
  H  H53  1  0.487600  0.403400  0.941900  1.0  0.1102
  H  H54  1  0.430300  0.477000  0.754900  1.0  0.1256
  H  H55  1  0.511400  0.558200  0.778400  1.0  0.1109
  H  H56  1  0.350000  0.414200  0.847500  1.0  0.1078
  H  H57  1  0.209600  0.272300  0.727700  1.0  0.101
  H  H58  1  0.130300  0.274400  0.723200  1.0  0.1232
  H  H59  1  0.236170  0.815930  0.292430  1.0  0.1212
  H  H60  1  0.154270  0.736730  0.275230  1.0  0.1102
  H  H61  1  0.096970  0.810330  0.088230  1.0  0.1268
  H  H62  1  0.178070  0.891530  0.111730  1.0  0.1078
  H  H63  1  0.016670  0.747530  0.180830  1.0  0.108
  H  H64  1  0.876270  0.605630  0.061030  1.0  0.101
  H  H65  1  0.796970  0.607730  0.056530  1.0  0.1231
  H  H66  1  0.902830  0.149270  0.625770  1.0  0.1239
  H  H67  1  0.820930  0.070070  0.608570  1.0  0.1102
  H  H68  1  0.763630  0.143670  0.421570  1.0  0.1256
  H  H69  1  0.844730  0.224870  0.445070  1.0  0.1109
  H  H70  1  0.683330  0.080870  0.514170  1.0  0.1078
  H  H71  1  0.542930  0.938970  0.394370  1.0  0.101
  H  H72  1  0.463630  0.941070  0.389870  1.0  0.1232
  H  H73  1  0.086900  0.517400  0.040900  1.0  0.1213
  H  H74  1  0.084200  0.596600  0.058100  1.0  0.1108
  H  H75  1  0.953300  0.523000  0.245100  1.0  0.1257
  H  H76  1  0.953200  0.441800  0.221600  1.0  0.1092
  H  H77  1  0.935800  0.585800  0.152500  1.0  0.1079
  H  H78  1  0.937300  0.727700  0.272300  1.0  0.1018
  H  H79  1  0.855900  0.725600  0.276800  1.0  0.1243
  H  H80  1  0.753570  0.850730  0.374230  1.0  0.1211
  H  H81  1  0.750870  0.929930  0.391430  1.0  0.1109
  H  H82  1  0.619970  0.856330  0.578430  1.0  0.1257
  H  H83  1  0.619870  0.775130  0.554930  1.0  0.1092
  H  H84  1  0.602470  0.919130  0.485830  1.0  0.1079
  H  H85  1  0.603970  0.061030  0.605630  1.0  0.1018
  H  H86  1  0.522570  0.058930  0.610130  1.0  0.1243
  H  H87  1  0.420230  0.184070  0.707570  1.0  0.1213
  H  H88  1  0.417530  0.263270  0.724770  1.0  0.1108
  H  H89  1  0.286630  0.189670  0.911770  1.0  0.1258
  H  H90  1  0.286530  0.108470  0.888270  1.0  0.1104
  H  H91  1  0.269130  0.252470  0.819170  1.0  0.1079
  H  H92  1  0.270630  0.394370  0.938970  1.0  0.1018
  H  H93  1  0.189230  0.392270  0.943470  1.0  0.1241
  H  H94  1  0.430500  0.913100  0.040900  1.0  0.1211
  H  H95  1  0.512400  0.915800  0.058100  1.0  0.1105
  H  H96  1  0.569700  0.046700  0.245100  1.0  0.1259
  H  H97  1  0.488600  0.046800  0.221600  1.0  0.1105
  H  H98  1  0.650000  0.064200  0.152500  1.0  0.1076
  H  H99  1  0.790400  0.062700  0.272300  1.0  0.1016
  H  H100  1  0.869700  0.144100  0.276800  1.0  0.1229
  H  H101  1  0.097170  0.246430  0.374230  1.0  0.1215
  H  H102  1  0.179070  0.249130  0.391430  1.0  0.1105
  H  H103  1  0.236370  0.380030  0.578430  1.0  0.1259
  H  H104  1  0.155270  0.380130  0.554930  1.0  0.1106
  H  H105  1  0.316670  0.397530  0.485830  1.0  0.1076
  H  H106  1  0.457070  0.396030  0.605630  1.0  0.1016
  H  H107  1  0.536370  0.477430  0.610130  1.0  0.1229
  H  H108  1  0.763830  0.579770  0.707570  1.0  0.1211
  H  H109  1  0.845730  0.582470  0.724770  1.0  0.1105
  H  H110  1  0.903030  0.713370  0.911770  1.0  0.1262
  H  H111  1  0.821930  0.713470  0.888270  1.0  0.1112
  H  H112  1  0.983330  0.730870  0.819170  1.0  0.1075
  H  H113  1  0.123730  0.729370  0.938970  1.0  0.1016
  H  H114  1  0.203030  0.810770  0.943470  1.0  0.1233
  H  H115  1  0.482600  0.569500  0.040900  1.0  0.1224
  H  H116  1  0.403400  0.487600  0.058100  1.0  0.1102
  H  H117  1  0.477000  0.430300  0.245100  1.0  0.1252
  H  H118  1  0.558200  0.511400  0.221600  1.0  0.11
  H  H119  1  0.414200  0.350000  0.152500  1.0  0.1078
  H  H120  1  0.272300  0.209600  0.272300  1.0  0.1019
  H  H121  1  0.274400  0.130300  0.276800  1.0  0.1229
  H  H122  1  0.149270  0.902830  0.374230  1.0  0.1252
  H  H123  1  0.070070  0.820930  0.391430  1.0  0.1102
  H  H124  1  0.143670  0.763630  0.578430  1.0  0.1252
  H  H125  1  0.224870  0.844730  0.554930  1.0  0.11
  H  H126  1  0.080870  0.683330  0.485830  1.0  0.1078
  H  H127  1  0.938970  0.542930  0.605630  1.0  0.102
  H  H128  1  0.941070  0.463630  0.610130  1.0  0.1229
  H  H129  1  0.815930  0.236170  0.707570  1.0  0.1224
  H  H130  1  0.736730  0.154270  0.724770  1.0  0.1103
  H  H131  1  0.810330  0.096970  0.911770  1.0  0.1261
  H  H132  1  0.891530  0.178070  0.888270  1.0  0.1062
  H  H133  1  0.747530  0.016670  0.819170  1.0  0.1079
  H  H134  1  0.605630  0.876270  0.938970  1.0  0.102
  H  H135  1  0.607730  0.796970  0.943470  1.0  0.1228
  H  H136  1  0.666667  0.096180  0.833330  1.0  0.1074
  H  H137  1  0.903820  0.570480  0.833330  1.0  0.1062
  H  H138  1  0.429520  0.333333  0.833330  1.0  0.1068
  H  H139  1  0.096180  0.666667  0.166670  1.0  0.1067
  H  H140  1  0.762850  0.000000  0.500000  1.0  0.1067
  H  H141  1  0.570480  0.903820  0.166670  1.0  0.1062
  H  H142  1  0.237150  0.237150  0.500000  1.0  0.1062
  H  H143  1  0.333333  0.429520  0.166670  1.0  0.1074
  H  H144  1  0.000000  0.762850  0.500000  1.0  0.1074
  C  C145  1  0.421500  0.022100  0.880200  1.0  0.6535
  C  C146  1  0.472700  0.021700  0.865800  1.0  -0.1148
  C  C147  1  0.518300  0.060000  0.918100  1.0  -0.1047
  C  C148  1  0.565200  0.057700  0.908700  1.0  -0.1188
  C  C149  1  0.566800  0.017100  0.850900  1.0  0.0366
  C  C150  1  0.521700  0.979300  0.797900  1.0  -0.149
  C  C151  1  0.473500  0.980500  0.809200  1.0  -0.0317
  C  C152  1  0.618300  0.015800  0.840600  1.0  -0.0098
  C  C153  1  0.618600  0.968300  0.841400  1.0  -0.0925
  C  C154  1  0.702700  0.908600  0.769900  1.0  -0.0593
  C  C155  1  0.702200  0.860700  0.768000  1.0  -0.1045
  C  C156  1  0.088170  0.355430  0.213530  1.0  0.6535
  C  C157  1  0.139370  0.355030  0.199130  1.0  -0.1148
  C  C158  1  0.184970  0.393330  0.251430  1.0  -0.1047
  C  C159  1  0.231870  0.391030  0.242030  1.0  -0.119
  C  C160  1  0.233470  0.350430  0.184230  1.0  0.0366
  C  C161  1  0.188370  0.312630  0.131230  1.0  -0.149
  C  C162  1  0.140170  0.313830  0.142530  1.0  -0.0317
  C  C163  1  0.284970  0.349130  0.173930  1.0  -0.01
  C  C164  1  0.285270  0.301630  0.174730  1.0  -0.0925
  C  C165  1  0.369370  0.241930  0.103230  1.0  -0.0591
  C  C166  1  0.368870  0.194030  0.101330  1.0  -0.1022
  C  C167  1  0.754830  0.688770  0.546870  1.0  0.6535
  C  C168  1  0.806030  0.688370  0.532470  1.0  -0.1145
  C  C169  1  0.851630  0.726670  0.584770  1.0  -0.1047
  C  C170  1  0.898530  0.724370  0.575370  1.0  -0.1188
  C  C171  1  0.900130  0.683770  0.517570  1.0  0.0366
  C  C172  1  0.855030  0.645970  0.464570  1.0  -0.149
  C  C173  1  0.806830  0.647170  0.475870  1.0  -0.0317
  C  C174  1  0.951630  0.682470  0.507270  1.0  -0.0092
  C  C175  1  0.951930  0.634970  0.508070  1.0  -0.0926
  C  C176  1  0.036030  0.575270  0.436570  1.0  -0.0585
  C  C177  1  0.035530  0.527370  0.434670  1.0  -0.1043
  C  C178  1  0.977900  0.399400  0.880200  1.0  0.6572
  C  C179  1  0.978300  0.451000  0.865800  1.0  -0.1113
  C  C180  1  0.940000  0.458300  0.918100  1.0  -0.1064
  C  C181  1  0.942300  0.507500  0.908700  1.0  -0.1148
  C  C182  1  0.982900  0.549700  0.850900  1.0  0.0406
  C  C183  1  0.020700  0.542400  0.797900  1.0  -0.1489
  C  C184  1  0.019500  0.493000  0.809200  1.0  -0.0276
  C  C185  1  0.984200  0.602500  0.840600  1.0  -0.0076
  C  C186  1  0.031700  0.650300  0.841400  1.0  -0.0907
  C  C187  1  0.091400  0.794100  0.769900  1.0  -0.0606
  C  C188  1  0.139300  0.841500  0.768000  1.0  -0.1039
  C  C189  1  0.644570  0.732730  0.213530  1.0  0.6572
  C  C190  1  0.644970  0.784330  0.199130  1.0  -0.1113
  C  C191  1  0.606670  0.791630  0.251430  1.0  -0.1064
  C  C192  1  0.608970  0.840830  0.242030  1.0  -0.1146
  C  C193  1  0.649570  0.883030  0.184230  1.0  0.0405
  C  C194  1  0.687370  0.875730  0.131230  1.0  -0.1489
  C  C195  1  0.686170  0.826330  0.142530  1.0  -0.0276
  C  C196  1  0.650870  0.935830  0.173930  1.0  -0.0082
  C  C197  1  0.698370  0.983630  0.174730  1.0  -0.0908
  C  C198  1  0.758070  0.127430  0.103230  1.0  -0.0594
  C  C199  1  0.805970  0.174830  0.101330  1.0  -0.1056
  C  C200  1  0.311230  0.066070  0.546870  1.0  0.6572
  C  C201  1  0.311630  0.117670  0.532470  1.0  -0.1114
  C  C202  1  0.273330  0.124970  0.584770  1.0  -0.1064
  C  C203  1  0.275630  0.174170  0.575370  1.0  -0.1148
  C  C204  1  0.316230  0.216370  0.517570  1.0  0.0406
  C  C205  1  0.354030  0.209070  0.464570  1.0  -0.1489
  C  C206  1  0.352830  0.159670  0.475870  1.0  -0.0276
  C  C207  1  0.317530  0.269170  0.507270  1.0  -0.0076
  C  C208  1  0.365030  0.316970  0.508070  1.0  -0.0907
  C  C209  1  0.424730  0.460770  0.436570  1.0  -0.0601
  C  C210  1  0.472630  0.508170  0.434670  1.0  -0.1057
  C  C211  1  0.600600  0.578500  0.880200  1.0  0.6558
  C  C212  1  0.549000  0.527300  0.865800  1.0  -0.1148
  C  C213  1  0.541700  0.481700  0.918100  1.0  -0.1042
  C  C214  1  0.492500  0.434800  0.908700  1.0  -0.1182
  C  C215  1  0.450300  0.433200  0.850900  1.0  0.0377
  C  C216  1  0.457600  0.478300  0.797900  1.0  -0.1489
  C  C217  1  0.507000  0.526500  0.809200  1.0  -0.032
  C  C218  1  0.397500  0.381700  0.840600  1.0  -0.0093
  C  C219  1  0.349700  0.381400  0.841400  1.0  -0.0913
  C  C220  1  0.205900  0.297300  0.769900  1.0  -0.0619
  C  C221  1  0.158500  0.297800  0.768000  1.0  -0.1033
  C  C222  1  0.267270  0.911830  0.213530  1.0  0.6558
  C  C223  1  0.215670  0.860630  0.199130  1.0  -0.1148
  C  C224  1  0.208370  0.815030  0.251430  1.0  -0.1042
  C  C225  1  0.159170  0.768130  0.242030  1.0  -0.118
  C  C226  1  0.116970  0.766530  0.184230  1.0  0.0377
  C  C227  1  0.124270  0.811630  0.131230  1.0  -0.1485
  C  C228  1  0.173670  0.859830  0.142530  1.0  -0.032
  C  C229  1  0.064170  0.715030  0.173930  1.0  -0.0078
  C  C230  1  0.016370  0.714730  0.174730  1.0  -0.0913
  C  C231  1  0.872570  0.630630  0.103230  1.0  -0.0625
  C  C232  1  0.825170  0.631130  0.101330  1.0  -0.1051
  C  C233  1  0.933930  0.245170  0.546870  1.0  0.6558
  C  C234  1  0.882330  0.193970  0.532470  1.0  -0.1149
  C  C235  1  0.875030  0.148370  0.584770  1.0  -0.1042
  C  C236  1  0.825830  0.101470  0.575370  1.0  -0.1182
  C  C237  1  0.783630  0.099870  0.517570  1.0  0.0377
  C  C238  1  0.790930  0.144970  0.464570  1.0  -0.1489
  C  C239  1  0.840330  0.193170  0.475870  1.0  -0.032
  C  C240  1  0.730830  0.048370  0.507270  1.0  -0.0087
  C  C241  1  0.683030  0.048070  0.508070  1.0  -0.0913
  C  C242  1  0.539230  0.963970  0.436570  1.0  -0.0622
  C  C243  1  0.491830  0.964470  0.434670  1.0  -0.1034
  C  C244  1  0.022100  0.421500  0.119800  1.0  0.6561
  C  C245  1  0.021700  0.472700  0.134200  1.0  -0.1159
  C  C246  1  0.060000  0.518300  0.081900  1.0  -0.1048
  C  C247  1  0.057700  0.565200  0.091300  1.0  -0.1198
  C  C248  1  0.017100  0.566800  0.149100  1.0  0.0382
  C  C249  1  0.979300  0.521700  0.202100  1.0  -0.1485
  C  C250  1  0.980500  0.473500  0.190800  1.0  -0.0313
  C  C251  1  0.015800  0.618300  0.159400  1.0  -0.0083
  C  C252  1  0.968300  0.618600  0.158600  1.0  -0.092
  C  C253  1  0.908600  0.702700  0.230100  1.0  -0.0628
  C  C254  1  0.860700  0.702200  0.232000  1.0  -0.106
  C  C255  1  0.688770  0.754830  0.453130  1.0  0.656
  C  C256  1  0.688370  0.806030  0.467530  1.0  -0.1156
  C  C257  1  0.726670  0.851630  0.415230  1.0  -0.1048
  C  C258  1  0.724370  0.898530  0.424630  1.0  -0.1198
  C  C259  1  0.683770  0.900130  0.482430  1.0  0.0382
  C  C260  1  0.645970  0.855030  0.535430  1.0  -0.1485
  C  C261  1  0.647170  0.806830  0.524130  1.0  -0.0313
  C  C262  1  0.682470  0.951630  0.492730  1.0  -0.0077
  C  C263  1  0.634970  0.951930  0.491930  1.0  -0.0921
  C  C264  1  0.575270  0.036030  0.563430  1.0  -0.0618
  C  C265  1  0.527370  0.035530  0.565330  1.0  -0.1054
  C  C266  1  0.355430  0.088170  0.786470  1.0  0.6561
  C  C267  1  0.355030  0.139370  0.800870  1.0  -0.1159
  C  C268  1  0.393330  0.184970  0.748570  1.0  -0.1048
  C  C269  1  0.391030  0.231870  0.757970  1.0  -0.12
  C  C270  1  0.350430  0.233470  0.815770  1.0  0.0382
  C  C271  1  0.312630  0.188370  0.868770  1.0  -0.1485
  C  C272  1  0.313830  0.140170  0.857470  1.0  -0.0313
  C  C273  1  0.349130  0.284970  0.826070  1.0  -0.0088
  C  C274  1  0.301630  0.285270  0.825270  1.0  -0.0921
  C  C275  1  0.241930  0.369370  0.896770  1.0  -0.0627
  C  C276  1  0.194030  0.368870  0.898670  1.0  -0.1037
  C  C277  1  0.399400  0.977900  0.119800  1.0  0.6529
  C  C278  1  0.451000  0.978300  0.134200  1.0  -0.1158
  C  C279  1  0.458300  0.940000  0.081900  1.0  -0.1035
  C  C280  1  0.507500  0.942300  0.091300  1.0  -0.1194
  C  C281  1  0.549700  0.982900  0.149100  1.0  0.0369
  C  C282  1  0.542400  0.020700  0.202100  1.0  -0.1495
  C  C283  1  0.493000  0.019500  0.190800  1.0  -0.0317
  C  C284  1  0.602500  0.984200  0.159400  1.0  -0.0098
  C  C285  1  0.650300  0.031700  0.158600  1.0  -0.0935
  C  C286  1  0.794100  0.091400  0.230100  1.0  -0.0593
  C  C287  1  0.841500  0.139300  0.232000  1.0  -0.1011
  C  C288  1  0.066070  0.311230  0.453130  1.0  0.6529
  C  C289  1  0.117670  0.311630  0.467530  1.0  -0.1159
  C  C290  1  0.124970  0.273330  0.415230  1.0  -0.1035
  C  C291  1  0.174170  0.275630  0.424630  1.0  -0.1194
  C  C292  1  0.216370  0.316230  0.482430  1.0  0.0369
  C  C293  1  0.209070  0.354030  0.535430  1.0  -0.1495
  C  C294  1  0.159670  0.352830  0.524130  1.0  -0.0317
  C  C295  1  0.269170  0.317530  0.492730  1.0  -0.0098
  C  C296  1  0.316970  0.365030  0.491930  1.0  -0.0937
  C  C297  1  0.460770  0.424730  0.563430  1.0  -0.0585
  C  C298  1  0.508170  0.472630  0.565330  1.0  -0.1028
  C  C299  1  0.732730  0.644570  0.786470  1.0  0.6528
  C  C300  1  0.784330  0.644970  0.800870  1.0  -0.1158
  C  C301  1  0.791630  0.606670  0.748570  1.0  -0.1035
  C  C302  1  0.840830  0.608970  0.757970  1.0  -0.1191
  C  C303  1  0.883030  0.649570  0.815770  1.0  0.0368
  C  C304  1  0.875730  0.687370  0.868770  1.0  -0.1495
  C  C305  1  0.826330  0.686170  0.857470  1.0  -0.0317
  C  C306  1  0.935830  0.650870  0.826070  1.0  -0.0102
  C  C307  1  0.983630  0.698370  0.825270  1.0  -0.0935
  C  C308  1  0.127430  0.758070  0.896770  1.0  -0.058
  C  C309  1  0.174830  0.805970  0.898670  1.0  -0.1028
  C  C310  1  0.578500  0.600600  0.119800  1.0  0.6571
  C  C311  1  0.527300  0.549000  0.134200  1.0  -0.1106
  C  C312  1  0.481700  0.541700  0.081900  1.0  -0.1055
  C  C313  1  0.434800  0.492500  0.091300  1.0  -0.115
  C  C314  1  0.433200  0.450300  0.149100  1.0  0.0402
  C  C315  1  0.478300  0.457600  0.202100  1.0  -0.1485
  C  C316  1  0.526500  0.507000  0.190800  1.0  -0.0269
  C  C317  1  0.381700  0.397500  0.159400  1.0  -0.0096
  C  C318  1  0.381400  0.349700  0.158600  1.0  -0.0911
  C  C319  1  0.297300  0.205900  0.230100  1.0  -0.0597
  C  C320  1  0.297800  0.158500  0.232000  1.0  -0.1038
  C  C321  1  0.245170  0.933930  0.453130  1.0  0.6571
  C  C322  1  0.193970  0.882330  0.467530  1.0  -0.1107
  C  C323  1  0.148370  0.875030  0.415230  1.0  -0.1055
  C  C324  1  0.101470  0.825830  0.424630  1.0  -0.115
  C  C325  1  0.099870  0.783630  0.482430  1.0  0.0402
  C  C326  1  0.144970  0.790930  0.535430  1.0  -0.1485
  C  C327  1  0.193170  0.840330  0.524130  1.0  -0.0269
  C  C328  1  0.048370  0.730830  0.492730  1.0  -0.0089
  C  C329  1  0.048070  0.683030  0.491930  1.0  -0.0911
  C  C330  1  0.963970  0.539230  0.563430  1.0  -0.06
  C  C331  1  0.964470  0.491830  0.565330  1.0  -0.104
  C  C332  1  0.911830  0.267270  0.786470  1.0  0.6571
  C  C333  1  0.860630  0.215670  0.800870  1.0  -0.1106
  C  C334  1  0.815030  0.208370  0.748570  1.0  -0.1055
  C  C335  1  0.768130  0.159170  0.757970  1.0  -0.1148
  C  C336  1  0.766530  0.116970  0.815770  1.0  0.0403
  C  C337  1  0.811630  0.124270  0.868770  1.0  -0.148
  C  C338  1  0.859830  0.173670  0.857470  1.0  -0.0269
  C  C339  1  0.715030  0.064170  0.826070  1.0  -0.0081
  C  C340  1  0.714730  0.016370  0.825270  1.0  -0.0911
  C  C341  1  0.630630  0.872570  0.896770  1.0  -0.0603
  C  C342  1  0.631130  0.825170  0.898670  1.0  -0.1056
  C  C343  1  0.666667  0.063480  0.833330  1.0  -0.1269
  C  C344  1  0.666667  0.966880  0.833330  1.0  0.0465
  C  C345  1  0.666667  0.915780  0.833330  1.0  0.0375
  C  C346  1  0.666667  0.819780  0.833330  1.0  -0.095
  C  C347  1  0.666667  0.766280  0.833330  1.0  0.6977
  C  C348  1  0.936520  0.603180  0.833330  1.0  -0.1296
  C  C349  1  0.033120  0.699780  0.833330  1.0  0.0467
  C  C350  1  0.084220  0.750880  0.833330  1.0  0.0395
  C  C351  1  0.180220  0.846880  0.833330  1.0  -0.0933
  C  C352  1  0.233720  0.900380  0.833330  1.0  0.6979
  C  C353  1  0.396820  0.333333  0.833330  1.0  -0.1243
  C  C354  1  0.300220  0.333333  0.833330  1.0  0.0465
  C  C355  1  0.249120  0.333333  0.833330  1.0  0.0379
  C  C356  1  0.153120  0.333333  0.833330  1.0  -0.0956
  C  C357  1  0.099620  0.333333  0.833330  1.0  0.7016
  C  C358  1  0.063480  0.666667  0.166670  1.0  -0.1242
  C  C359  1  0.966880  0.666667  0.166670  1.0  0.0465
  C  C360  1  0.915780  0.666667  0.166670  1.0  0.0353
  C  C361  1  0.819780  0.666667  0.166670  1.0  -0.0969
  C  C362  1  0.766280  0.666667  0.166670  1.0  0.7018
  C  C363  1  0.730150  0.000000  0.500000  1.0  -0.1267
  C  C364  1  0.633550  0.000000  0.500000  1.0  0.0464
  C  C365  1  0.582450  0.000000  0.500000  1.0  0.0376
  C  C366  1  0.486450  0.000000  0.500000  1.0  -0.0956
  C  C367  1  0.432950  0.000000  0.500000  1.0  0.7018
  C  C368  1  0.603180  0.936520  0.166670  1.0  -0.1296
  C  C369  1  0.699780  0.033120  0.166670  1.0  0.0466
  C  C370  1  0.750880  0.084220  0.166670  1.0  0.0396
  C  C371  1  0.846880  0.180220  0.166670  1.0  -0.093
  C  C372  1  0.900380  0.233720  0.166670  1.0  0.6979
  C  C373  1  0.269850  0.269850  0.500000  1.0  -0.1273
  C  C374  1  0.366450  0.366450  0.500000  1.0  0.0464
  C  C375  1  0.417550  0.417550  0.500000  1.0  0.0376
  C  C376  1  0.513550  0.513550  0.500000  1.0  -0.0937
  C  C377  1  0.567050  0.567050  0.500000  1.0  0.6979
  C  C378  1  0.333333  0.396820  0.166670  1.0  -0.1275
  C  C379  1  0.333333  0.300220  0.166670  1.0  0.0467
  C  C380  1  0.333333  0.249120  0.166670  1.0  0.0401
  C  C381  1  0.333333  0.153120  0.166670  1.0  -0.0937
  C  C382  1  0.333333  0.099620  0.166670  1.0  0.6975
  C  C383  1  0.000000  0.730150  0.500000  1.0  -0.1296
  C  C384  1  0.000000  0.633550  0.500000  1.0  0.0465
  C  C385  1  0.000000  0.582450  0.500000  1.0  0.0398
  C  C386  1  0.000000  0.486450  0.500000  1.0  -0.0937
  C  C387  1  0.000000  0.432950  0.500000  1.0  0.6976
  O  O388  1  0.420930  0.055210  0.946300  1.0  -0.6422
  O  O389  1  0.378710  0.986780  0.833000  1.0  -0.7881
  O  O390  1  0.683000  0.753960  0.750200  1.0  -0.7056
  O  O391  1  0.087600  0.388540  0.279630  1.0  -0.6421
  O  O392  1  0.045380  0.320110  0.166330  1.0  -0.7881
  O  O393  1  0.349670  0.087290  0.083530  1.0  -0.7058
  O  O394  1  0.754260  0.721880  0.612970  1.0  -0.6422
  O  O395  1  0.712040  0.653450  0.499670  1.0  -0.7881
  O  O396  1  0.016330  0.420630  0.416870  1.0  -0.7054
  O  O397  1  0.944790  0.365720  0.946300  1.0  -0.6437
  O  O398  1  0.013220  0.391930  0.833000  1.0  -0.786
  O  O399  1  0.246040  0.929040  0.750200  1.0  -0.7021
  O  O400  1  0.611460  0.699050  0.279630  1.0  -0.6437
  O  O401  1  0.679890  0.725260  0.166330  1.0  -0.786
  O  O402  1  0.912710  0.262370  0.083530  1.0  -0.702
  O  O403  1  0.278120  0.032390  0.612970  1.0  -0.6437
  O  O404  1  0.346550  0.058600  0.499670  1.0  -0.786
  O  O405  1  0.579370  0.595710  0.416870  1.0  -0.7021
  O  O406  1  0.634280  0.579070  0.946300  1.0  -0.6414
  O  O407  1  0.608070  0.621290  0.833000  1.0  -0.7866
  O  O408  1  0.070960  0.317000  0.750200  1.0  -0.7031
  O  O409  1  0.300950  0.912400  0.279630  1.0  -0.6413
  O  O410  1  0.274740  0.954620  0.166330  1.0  -0.7866
  O  O411  1  0.737630  0.650330  0.083530  1.0  -0.7034
  O  O412  1  0.967610  0.245740  0.612970  1.0  -0.6414
  O  O413  1  0.941400  0.287960  0.499670  1.0  -0.7866
  O  O414  1  0.404290  0.983670  0.416870  1.0  -0.7084
  O  O415  1  0.055210  0.420930  0.053700  1.0  -0.6412
  O  O416  1  0.986780  0.378710  0.167000  1.0  -0.7847
  O  O417  1  0.753960  0.683000  0.249800  1.0  -0.7033
  O  O418  1  0.721880  0.754260  0.387030  1.0  -0.6412
  O  O419  1  0.653450  0.712040  0.500330  1.0  -0.7847
  O  O420  1  0.420630  0.016330  0.583130  1.0  -0.7033
  O  O421  1  0.388540  0.087600  0.720370  1.0  -0.6412
  O  O422  1  0.320110  0.045380  0.833670  1.0  -0.7846
  O  O423  1  0.087290  0.349670  0.916470  1.0  -0.7036
  O  O424  1  0.365720  0.944790  0.053700  1.0  -0.6417
  O  O425  1  0.391930  0.013220  0.167000  1.0  -0.7875
  O  O426  1  0.929040  0.246040  0.249800  1.0  -0.7044
  O  O427  1  0.032390  0.278120  0.387030  1.0  -0.6418
  O  O428  1  0.058600  0.346550  0.500330  1.0  -0.7875
  O  O429  1  0.595710  0.579370  0.583130  1.0  -0.7043
  O  O430  1  0.699050  0.611460  0.720370  1.0  -0.6417
  O  O431  1  0.725260  0.679890  0.833670  1.0  -0.7875
  O  O432  1  0.262370  0.912710  0.916470  1.0  -0.7044
  O  O433  1  0.579070  0.634280  0.053700  1.0  -0.6451
  O  O434  1  0.621290  0.608070  0.167000  1.0  -0.7858
  O  O435  1  0.317000  0.070960  0.249800  1.0  -0.7023
  O  O436  1  0.245740  0.967610  0.387030  1.0  -0.6451
  O  O437  1  0.287960  0.941400  0.500330  1.0  -0.7858
  O  O438  1  0.983670  0.404290  0.583130  1.0  -0.7074
  O  O439  1  0.912400  0.300950  0.720370  1.0  -0.645
  O  O440  1  0.954620  0.274740  0.833670  1.0  -0.7858
  O  O441  1  0.650330  0.737630  0.916470  1.0  -0.7024
