# generated using pymatgen
data_EuH12C17O4
_symmetry_space_group_name_H-M   'P 1'
_cell_length_a   10.43850000
_cell_length_b   27.18400000
_cell_length_c   9.34820000
_cell_angle_alpha   90.00000000
_cell_angle_beta   90.00000000
_cell_angle_gamma   90.00000000
_symmetry_Int_Tables_number   1
_chemical_formula_structural   EuH12C17O4
_chemical_formula_sum   'Eu4 H48 C68 O16'
_cell_volume   2652.64695207
_cell_formula_units_Z   4
loop_
 _symmetry_equiv_pos_site_id
 _symmetry_equiv_pos_as_xyz
  1  'x, y, z'
loop_
 _atom_site_type_symbol
 _atom_site_label
 _atom_site_symmetry_multiplicity
 _atom_site_fract_x
 _atom_site_fract_y
 _atom_site_fract_z
 _atom_site_occupancy
 _atom_site_charge
  Eu  Eu1  1  0.750000  0.000000  0.025970  1.0  1.9724
  Eu  Eu2  1  0.750000  0.500000  0.474030  1.0  1.9725
  Eu  Eu3  1  0.250000  0.000000  0.974030  1.0  1.972
  Eu  Eu4  1  0.250000  0.500000  0.525970  1.0  1.972
  H  H5  1  0.656900  0.154300  0.142800  1.0  0.0992
  H  H6  1  0.280400  0.124200  0.118800  1.0  0.0799
  H  H7  1  0.234600  0.202800  0.204700  1.0  0.0926
  H  H8  1  0.752500  0.235900  0.076100  1.0  0.0902
  H  H9  1  0.780000  0.287500  0.144600  1.0  0.1003
  H  H10  1  0.658200  0.279900  0.049100  1.0  0.1099
  H  H11  1  0.843100  0.845700  0.142800  1.0  0.0984
  H  H12  1  0.219600  0.875800  0.118800  1.0  0.0798
  H  H13  1  0.265400  0.797200  0.204700  1.0  0.0935
  H  H14  1  0.747500  0.764100  0.076100  1.0  0.0903
  H  H15  1  0.720000  0.712500  0.144600  1.0  0.1001
  H  H16  1  0.841800  0.720100  0.049100  1.0  0.1093
  H  H17  1  0.843100  0.654300  0.357200  1.0  0.0989
  H  H18  1  0.219600  0.624200  0.381200  1.0  0.0796
  H  H19  1  0.265400  0.702800  0.295300  1.0  0.0945
  H  H20  1  0.747500  0.735900  0.423900  1.0  0.0899
  H  H21  1  0.720000  0.787500  0.355400  1.0  0.1004
  H  H22  1  0.841800  0.779900  0.450900  1.0  0.1106
  H  H23  1  0.656900  0.345700  0.357200  1.0  0.0987
  H  H24  1  0.280400  0.375800  0.381200  1.0  0.0801
  H  H25  1  0.234600  0.297200  0.295300  1.0  0.0934
  H  H26  1  0.752500  0.264100  0.423900  1.0  0.0891
  H  H27  1  0.780000  0.212500  0.355400  1.0  0.1003
  H  H28  1  0.658200  0.220100  0.450900  1.0  0.111
  H  H29  1  0.343100  0.845700  0.857200  1.0  0.0985
  H  H30  1  0.719600  0.875800  0.881200  1.0  0.0798
  H  H31  1  0.765400  0.797200  0.795300  1.0  0.0942
  H  H32  1  0.247500  0.764100  0.923900  1.0  0.0896
  H  H33  1  0.220000  0.712500  0.855400  1.0  0.1008
  H  H34  1  0.341800  0.720100  0.950900  1.0  0.1112
  H  H35  1  0.156900  0.154300  0.857200  1.0  0.099
  H  H36  1  0.780400  0.124200  0.881200  1.0  0.0793
  H  H37  1  0.734600  0.202800  0.795300  1.0  0.0931
  H  H38  1  0.252500  0.235900  0.923900  1.0  0.0901
  H  H39  1  0.280000  0.287500  0.855400  1.0  0.0999
  H  H40  1  0.158200  0.279900  0.950900  1.0  0.1105
  H  H41  1  0.156900  0.345700  0.642800  1.0  0.0987
  H  H42  1  0.780400  0.375800  0.618800  1.0  0.0801
  H  H43  1  0.734600  0.297200  0.704700  1.0  0.0925
  H  H44  1  0.252500  0.264100  0.576100  1.0  0.0899
  H  H45  1  0.280000  0.212500  0.644600  1.0  0.1001
  H  H46  1  0.158200  0.220100  0.549100  1.0  0.1093
  H  H47  1  0.343100  0.654300  0.642800  1.0  0.0991
  H  H48  1  0.719600  0.624200  0.618800  1.0  0.08
  H  H49  1  0.765400  0.702800  0.704700  1.0  0.0939
  H  H50  1  0.247500  0.735900  0.576100  1.0  0.09
  H  H51  1  0.220000  0.787500  0.644600  1.0  0.1
  H  H52  1  0.341800  0.779900  0.549100  1.0  0.1096
  C  C53  1  0.500300  0.078100  0.075600  1.0  0.6858
  C  C54  1  0.472000  0.130300  0.124200  1.0  -0.157
  C  C55  1  0.571900  0.163400  0.156000  1.0  -0.1032
  C  C56  1  0.347000  0.145600  0.141300  1.0  -0.0312
  C  C57  1  0.319000  0.192800  0.192000  1.0  -0.1207
  C  C58  1  0.420800  0.224600  0.223200  1.0  0.0185
  C  C59  1  0.541500  0.209300  0.208000  1.0  0.0213
  C  C60  1  0.714000  0.264700  0.118000  1.0  -0.3763
  C  C61  1  0.999700  0.921900  0.075600  1.0  0.6869
  C  C62  1  0.028000  0.869700  0.124200  1.0  -0.1571
  C  C63  1  0.928100  0.836600  0.156000  1.0  -0.1059
  C  C64  1  0.153000  0.854400  0.141300  1.0  -0.0328
  C  C65  1  0.181000  0.807200  0.192000  1.0  -0.1206
  C  C66  1  0.079200  0.775400  0.223200  1.0  0.0184
  C  C67  1  0.958500  0.790700  0.208000  1.0  0.0217
  C  C68  1  0.786000  0.735300  0.118000  1.0  -0.3761
  C  C69  1  0.999700  0.578100  0.424400  1.0  0.6865
  C  C70  1  0.028000  0.630300  0.375800  1.0  -0.1575
  C  C71  1  0.928100  0.663400  0.344000  1.0  -0.1036
  C  C72  1  0.153000  0.645600  0.358700  1.0  -0.033
  C  C73  1  0.181000  0.692800  0.308000  1.0  -0.1248
  C  C74  1  0.079200  0.724600  0.276800  1.0  0.0182
  C  C75  1  0.958500  0.709300  0.292000  1.0  0.0204
  C  C76  1  0.786000  0.764700  0.382000  1.0  -0.3771
  C  C77  1  0.500300  0.421900  0.424400  1.0  0.6871
  C  C78  1  0.472000  0.369700  0.375800  1.0  -0.1578
  C  C79  1  0.571900  0.336600  0.344000  1.0  -0.1049
  C  C80  1  0.347000  0.354400  0.358700  1.0  -0.0339
  C  C81  1  0.319000  0.307200  0.308000  1.0  -0.1246
  C  C82  1  0.420800  0.275400  0.276800  1.0  0.0194
  C  C83  1  0.541500  0.290700  0.292000  1.0  0.0212
  C  C84  1  0.714000  0.235300  0.382000  1.0  -0.3766
  C  C85  1  0.499700  0.921900  0.924400  1.0  0.687
  C  C86  1  0.528000  0.869700  0.875800  1.0  -0.1573
  C  C87  1  0.428100  0.836600  0.844000  1.0  -0.1055
  C  C88  1  0.653000  0.854400  0.858700  1.0  -0.0337
  C  C89  1  0.681000  0.807200  0.808000  1.0  -0.1203
  C  C90  1  0.579200  0.775400  0.776800  1.0  0.0186
  C  C91  1  0.458500  0.790700  0.792000  1.0  0.0214
  C  C92  1  0.286000  0.735300  0.882000  1.0  -0.3765
  C  C93  1  0.000300  0.078100  0.924400  1.0  0.6863
  C  C94  1  0.972000  0.130300  0.875800  1.0  -0.1573
  C  C95  1  0.071900  0.163400  0.844000  1.0  -0.1033
  C  C96  1  0.847000  0.145600  0.858700  1.0  -0.0325
  C  C97  1  0.819000  0.192800  0.808000  1.0  -0.1206
  C  C98  1  0.920800  0.224600  0.776800  1.0  0.0186
  C  C99  1  0.041500  0.209300  0.792000  1.0  0.0212
  C  C100  1  0.214000  0.264700  0.882000  1.0  -0.3762
  C  C101  1  0.000300  0.421900  0.575600  1.0  0.6871
  C  C102  1  0.972000  0.369700  0.624200  1.0  -0.1575
  C  C103  1  0.071900  0.336600  0.656000  1.0  -0.105
  C  C104  1  0.847000  0.354400  0.641300  1.0  -0.033
  C  C105  1  0.819000  0.307200  0.692000  1.0  -0.1252
  C  C106  1  0.920800  0.275400  0.723200  1.0  0.0192
  C  C107  1  0.041500  0.290700  0.708000  1.0  0.0215
  C  C108  1  0.214000  0.235300  0.618000  1.0  -0.3766
  C  C109  1  0.499700  0.578100  0.575600  1.0  0.6859
  C  C110  1  0.528000  0.630300  0.624200  1.0  -0.1573
  C  C111  1  0.428100  0.663400  0.656000  1.0  -0.1039
  C  C112  1  0.653000  0.645600  0.641300  1.0  -0.032
  C  C113  1  0.681000  0.692800  0.692000  1.0  -0.1249
  C  C114  1  0.579200  0.724600  0.723200  1.0  0.0179
  C  C115  1  0.458500  0.709300  0.708000  1.0  0.0206
  C  C116  1  0.286000  0.764700  0.618000  1.0  -0.3763
  C  C117  1  0.639000  0.250000  0.250000  1.0  -0.0218
  C  C118  1  0.861000  0.750000  0.250000  1.0  -0.0232
  C  C119  1  0.361000  0.750000  0.750000  1.0  -0.0232
  C  C120  1  0.139000  0.250000  0.750000  1.0  -0.0218
  O  O121  1  0.613200  0.066900  0.066400  1.0  -0.7365
  O  O122  1  0.412500  0.051800  0.045200  1.0  -0.7428
  O  O123  1  0.886800  0.933100  0.066400  1.0  -0.737
  O  O124  1  0.087500  0.948200  0.045200  1.0  -0.7432
  O  O125  1  0.886800  0.566900  0.433600  1.0  -0.7381
  O  O126  1  0.087500  0.551800  0.454800  1.0  -0.7422
  O  O127  1  0.613200  0.433100  0.433600  1.0  -0.7364
  O  O128  1  0.412500  0.448200  0.454800  1.0  -0.7433
  O  O129  1  0.386800  0.933100  0.933600  1.0  -0.7372
  O  O130  1  0.587500  0.948200  0.954800  1.0  -0.7428
  O  O131  1  0.113200  0.066900  0.933600  1.0  -0.7369
  O  O132  1  0.912500  0.051800  0.954800  1.0  -0.7422
  O  O133  1  0.113200  0.433100  0.566400  1.0  -0.7366
  O  O134  1  0.912500  0.448200  0.545200  1.0  -0.7439
  O  O135  1  0.386800  0.566900  0.566400  1.0  -0.7381
  O  O136  1  0.587500  0.551800  0.545200  1.0  -0.7425
