# generated using pymatgen
data_ZnH8C16(NO2)2
_symmetry_space_group_name_H-M   'P 1'
_cell_length_a   25.64150000
_cell_length_b   25.64150000
_cell_length_c   25.64150000
_cell_angle_alpha   90.00000000
_cell_angle_beta   90.00000000
_cell_angle_gamma   90.00000000
_symmetry_Int_Tables_number   1
_chemical_formula_structural   ZnH8C16(NO2)2
_chemical_formula_sum   'Zn12 H96 C192 N24 O48'
_cell_volume   16858.94066027
_cell_formula_units_Z   12
loop_
 _symmetry_equiv_pos_site_id
 _symmetry_equiv_pos_as_xyz
  1  'x, y, z'
loop_
 _atom_site_type_symbol
 _atom_site_label
 _atom_site_symmetry_multiplicity
 _atom_site_fract_x
 _atom_site_fract_y
 _atom_site_fract_z
 _atom_site_occupancy
 _atom_site_charge
  Zn  Zn1  1  0.625000  0.375000  0.875000  1.0  1.0007
  Zn  Zn2  1  0.875000  0.625000  0.375000  1.0  1.0007
  Zn  Zn3  1  0.375000  0.875000  0.625000  1.0  1.0007
  Zn  Zn4  1  0.125000  0.125000  0.125000  1.0  1.0007
  Zn  Zn5  1  0.544980  0.455020  0.955020  1.0  0.874
  Zn  Zn6  1  0.955020  0.544980  0.455020  1.0  0.8741
  Zn  Zn7  1  0.455020  0.955020  0.544980  1.0  0.8753
  Zn  Zn8  1  0.044980  0.044980  0.044980  1.0  0.8743
  Zn  Zn9  1  0.705020  0.294980  0.794980  1.0  0.8953
  Zn  Zn10  1  0.794980  0.705020  0.294980  1.0  0.8917
  Zn  Zn11  1  0.205020  0.205020  0.205020  1.0  0.8855
  Zn  Zn12  1  0.294980  0.794980  0.705020  1.0  0.8913
  H  H13  1  0.733500  0.427700  0.134000  1.0  0.1266
  H  H14  1  0.667000  0.450700  0.076400  1.0  0.1333
  H  H15  1  0.687700  0.316500  0.000500  1.0  0.1217
  H  H16  1  0.755200  0.294100  0.056100  1.0  0.1308
  H  H17  1  0.766500  0.572300  0.634000  1.0  0.1251
  H  H18  1  0.833000  0.549300  0.576400  1.0  0.131
  H  H19  1  0.812300  0.683500  0.500500  1.0  0.1229
  H  H20  1  0.744800  0.705900  0.556100  1.0  0.131
  H  H21  1  0.266500  0.927700  0.366000  1.0  0.1253
  H  H22  1  0.333000  0.950700  0.423600  1.0  0.1326
  H  H23  1  0.312300  0.816500  0.499500  1.0  0.1224
  H  H24  1  0.244800  0.794100  0.443900  1.0  0.131
  H  H25  1  0.233500  0.072300  0.866000  1.0  0.1257
  H  H26  1  0.167000  0.049300  0.923600  1.0  0.1313
  H  H27  1  0.187700  0.183500  0.999500  1.0  0.1226
  H  H28  1  0.255200  0.205900  0.943900  1.0  0.1314
  H  H29  1  0.134000  0.733500  0.427700  1.0  0.1271
  H  H30  1  0.076400  0.667000  0.450700  1.0  0.1318
  H  H31  1  0.000500  0.687700  0.316500  1.0  0.1232
  H  H32  1  0.056100  0.755200  0.294100  1.0  0.1325
  H  H33  1  0.634000  0.766500  0.572300  1.0  0.1282
  H  H34  1  0.576400  0.833000  0.549300  1.0  0.1311
  H  H35  1  0.500500  0.812300  0.683500  1.0  0.1231
  H  H36  1  0.556100  0.744800  0.705900  1.0  0.1318
  H  H37  1  0.366000  0.266500  0.927700  1.0  0.1283
  H  H38  1  0.423600  0.333000  0.950700  1.0  0.1318
  H  H39  1  0.499500  0.312300  0.816500  1.0  0.1229
  H  H40  1  0.443900  0.244800  0.794100  1.0  0.1324
  H  H41  1  0.866000  0.233500  0.072300  1.0  0.1271
  H  H42  1  0.923600  0.167000  0.049300  1.0  0.1304
  H  H43  1  0.999500  0.187700  0.183500  1.0  0.1236
  H  H44  1  0.943900  0.255200  0.205900  1.0  0.1322
  H  H45  1  0.427700  0.134000  0.733500  1.0  0.1282
  H  H46  1  0.450700  0.076400  0.667000  1.0  0.1323
  H  H47  1  0.316500  0.000500  0.687700  1.0  0.1231
  H  H48  1  0.294100  0.056100  0.755200  1.0  0.1362
  H  H49  1  0.572300  0.634000  0.766500  1.0  0.1266
  H  H50  1  0.549300  0.576400  0.833000  1.0  0.131
  H  H51  1  0.683500  0.500500  0.812300  1.0  0.1234
  H  H52  1  0.705900  0.556100  0.744800  1.0  0.1316
  H  H53  1  0.927700  0.366000  0.266500  1.0  0.1259
  H  H54  1  0.950700  0.423600  0.333000  1.0  0.1316
  H  H55  1  0.816500  0.499500  0.312300  1.0  0.1232
  H  H56  1  0.794100  0.443900  0.244800  1.0  0.1361
  H  H57  1  0.072300  0.866000  0.233500  1.0  0.1265
  H  H58  1  0.049300  0.923600  0.167000  1.0  0.1306
  H  H59  1  0.183500  0.999500  0.187700  1.0  0.1232
  H  H60  1  0.205900  0.943900  0.255200  1.0  0.1312
  H  H61  1  0.677700  0.483500  0.616000  1.0  0.1263
  H  H62  1  0.700700  0.417000  0.673600  1.0  0.1327
  H  H63  1  0.566500  0.437700  0.749500  1.0  0.1227
  H  H64  1  0.544100  0.505200  0.693900  1.0  0.136
  H  H65  1  0.822300  0.516500  0.116000  1.0  0.1267
  H  H66  1  0.799300  0.583000  0.173600  1.0  0.1335
  H  H67  1  0.933500  0.562300  0.249500  1.0  0.1224
  H  H68  1  0.955900  0.494800  0.193900  1.0  0.1309
  H  H69  1  0.177700  0.016500  0.384000  1.0  0.1285
  H  H70  1  0.200700  0.083000  0.326400  1.0  0.1324
  H  H71  1  0.066500  0.062300  0.250500  1.0  0.1226
  H  H72  1  0.044100  0.994800  0.306100  1.0  0.1349
  H  H73  1  0.322300  0.983500  0.884000  1.0  0.1271
  H  H74  1  0.299300  0.917000  0.826400  1.0  0.1298
  H  H75  1  0.433500  0.937700  0.750500  1.0  0.1227
  H  H76  1  0.455900  0.005200  0.806100  1.0  0.136
  H  H77  1  0.983500  0.884000  0.322300  1.0  0.1255
  H  H78  1  0.917000  0.826400  0.299300  1.0  0.1294
  H  H79  1  0.937700  0.750500  0.433500  1.0  0.1239
  H  H80  1  0.005200  0.806100  0.455900  1.0  0.1373
  H  H81  1  0.016500  0.384000  0.177700  1.0  0.1251
  H  H82  1  0.083000  0.326400  0.200700  1.0  0.1319
  H  H83  1  0.062300  0.250500  0.066500  1.0  0.1242
  H  H84  1  0.994800  0.306100  0.044100  1.0  0.1373
  H  H85  1  0.516500  0.116000  0.822300  1.0  0.1242
  H  H86  1  0.583000  0.173600  0.799300  1.0  0.1329
  H  H87  1  0.562300  0.249500  0.933500  1.0  0.1233
  H  H88  1  0.494800  0.193900  0.955900  1.0  0.1295
  H  H89  1  0.483500  0.616000  0.677700  1.0  0.1256
  H  H90  1  0.417000  0.673600  0.700700  1.0  0.1322
  H  H91  1  0.437700  0.749500  0.566500  1.0  0.1233
  H  H92  1  0.505200  0.693900  0.544100  1.0  0.1329
  H  H93  1  0.384000  0.177700  0.016500  1.0  0.1266
  H  H94  1  0.326400  0.200700  0.083000  1.0  0.1327
  H  H95  1  0.250500  0.066500  0.062300  1.0  0.1221
  H  H96  1  0.306100  0.044100  0.994800  1.0  0.1349
  H  H97  1  0.884000  0.322300  0.983500  1.0  0.1277
  H  H98  1  0.826400  0.299300  0.917000  1.0  0.1295
  H  H99  1  0.750500  0.433500  0.937700  1.0  0.1237
  H  H100  1  0.806100  0.455900  0.005200  1.0  0.1356
  H  H101  1  0.616000  0.677700  0.483500  1.0  0.1285
  H  H102  1  0.673600  0.700700  0.417000  1.0  0.1321
  H  H103  1  0.749500  0.566500  0.437700  1.0  0.1221
  H  H104  1  0.693900  0.544100  0.505200  1.0  0.1313
  H  H105  1  0.116000  0.822300  0.516500  1.0  0.1267
  H  H106  1  0.173600  0.799300  0.583000  1.0  0.1334
  H  H107  1  0.249500  0.933500  0.562300  1.0  0.1229
  H  H108  1  0.193900  0.955900  0.494800  1.0  0.1318
  C  C109  1  0.752960  0.360050  0.099030  1.0  -0.1173
  C  C110  1  0.725160  0.405530  0.106010  1.0  -0.0383
  C  C111  1  0.684960  0.419000  0.072220  1.0  -0.0434
  C  C112  1  0.671870  0.385290  0.032420  1.0  -0.1106
  C  C113  1  0.697560  0.339680  0.027200  1.0  -0.0058
  C  C114  1  0.737990  0.326210  0.060170  1.0  -0.0711
  C  C115  1  0.796230  0.347540  0.133870  1.0  0.2462
  C  C116  1  0.629060  0.399790  0.994580  1.0  0.7259
  C  C117  1  0.747040  0.639950  0.599030  1.0  -0.1178
  C  C118  1  0.774840  0.594470  0.606010  1.0  -0.0377
  C  C119  1  0.815040  0.581000  0.572220  1.0  -0.0453
  C  C120  1  0.828130  0.614710  0.532420  1.0  -0.1085
  C  C121  1  0.802440  0.660320  0.527200  1.0  -0.0065
  C  C122  1  0.762010  0.673790  0.560170  1.0  -0.0686
  C  C123  1  0.703770  0.652460  0.633870  1.0  0.2357
  C  C124  1  0.870940  0.600210  0.494580  1.0  0.725
  C  C125  1  0.247040  0.860050  0.400970  1.0  -0.1178
  C  C126  1  0.274840  0.905530  0.393990  1.0  -0.0385
  C  C127  1  0.315040  0.919000  0.427780  1.0  -0.0447
  C  C128  1  0.328130  0.885290  0.467580  1.0  -0.1088
  C  C129  1  0.302440  0.839680  0.472800  1.0  -0.0079
  C  C130  1  0.262010  0.826210  0.439830  1.0  -0.0697
  C  C131  1  0.203770  0.847540  0.366130  1.0  0.2446
  C  C132  1  0.370940  0.899790  0.505420  1.0  0.7247
  C  C133  1  0.252960  0.139950  0.900970  1.0  -0.1183
  C  C134  1  0.225160  0.094470  0.893990  1.0  -0.0369
  C  C135  1  0.184960  0.081000  0.927780  1.0  -0.0419
  C  C136  1  0.171870  0.114710  0.967580  1.0  -0.1094
  C  C137  1  0.197560  0.160320  0.972800  1.0  -0.0068
  C  C138  1  0.237990  0.173790  0.939830  1.0  -0.0697
  C  C139  1  0.296230  0.152460  0.866130  1.0  0.2462
  C  C140  1  0.129060  0.100210  0.005420  1.0  0.7253
  C  C141  1  0.099030  0.752960  0.360050  1.0  -0.1153
  C  C142  1  0.106010  0.725160  0.405530  1.0  -0.0386
  C  C143  1  0.072220  0.684960  0.419000  1.0  -0.0487
  C  C144  1  0.032420  0.671870  0.385290  1.0  -0.1091
  C  C145  1  0.027200  0.697560  0.339680  1.0  -0.0093
  C  C146  1  0.060170  0.737990  0.326210  1.0  -0.0716
  C  C147  1  0.133870  0.796230  0.347540  1.0  0.2455
  C  C148  1  0.994580  0.629060  0.399790  1.0  0.7234
  C  C149  1  0.599030  0.747040  0.639950  1.0  -0.1149
  C  C150  1  0.606010  0.774840  0.594470  1.0  -0.042
  C  C151  1  0.572220  0.815040  0.581000  1.0  -0.0473
  C  C152  1  0.532420  0.828130  0.614710  1.0  -0.1086
  C  C153  1  0.527200  0.802440  0.660320  1.0  -0.0092
  C  C154  1  0.560170  0.762010  0.673790  1.0  -0.0744
  C  C155  1  0.633870  0.703770  0.652460  1.0  0.2379
  C  C156  1  0.494580  0.870940  0.600210  1.0  0.7228
  C  C157  1  0.400970  0.247040  0.860050  1.0  -0.1177
  C  C158  1  0.393990  0.274840  0.905530  1.0  -0.0394
  C  C159  1  0.427780  0.315040  0.919000  1.0  -0.0459
  C  C160  1  0.467580  0.328130  0.885290  1.0  -0.1082
  C  C161  1  0.472800  0.302440  0.839680  1.0  -0.0087
  C  C162  1  0.439830  0.262010  0.826210  1.0  -0.0722
  C  C163  1  0.366130  0.203770  0.847540  1.0  0.2477
  C  C164  1  0.505420  0.370940  0.899790  1.0  0.7237
  C  C165  1  0.900970  0.252960  0.139950  1.0  -0.1171
  C  C166  1  0.893990  0.225160  0.094470  1.0  -0.0391
  C  C167  1  0.927780  0.184960  0.081000  1.0  -0.0455
  C  C168  1  0.967580  0.171870  0.114710  1.0  -0.1085
  C  C169  1  0.972800  0.197560  0.160320  1.0  -0.0114
  C  C170  1  0.939830  0.237990  0.173790  1.0  -0.0729
  C  C171  1  0.866130  0.296230  0.152460  1.0  0.2473
  C  C172  1  0.005420  0.129060  0.100210  1.0  0.7213
  C  C173  1  0.360050  0.099030  0.752960  1.0  -0.1193
  C  C174  1  0.405530  0.106010  0.725160  1.0  -0.0402
  C  C175  1  0.419000  0.072220  0.684960  1.0  -0.0451
  C  C176  1  0.385290  0.032420  0.671870  1.0  -0.1044
  C  C177  1  0.339680  0.027200  0.697560  1.0  -0.0056
  C  C178  1  0.326210  0.060170  0.737990  1.0  -0.0672
  C  C179  1  0.347540  0.133870  0.796230  1.0  0.2467
  C  C180  1  0.399790  0.994580  0.629060  1.0  0.7269
  C  C181  1  0.639950  0.599030  0.747040  1.0  -0.1199
  C  C182  1  0.594470  0.606010  0.774840  1.0  -0.0424
  C  C183  1  0.581000  0.572220  0.815040  1.0  -0.0449
  C  C184  1  0.614710  0.532420  0.828130  1.0  -0.1001
  C  C185  1  0.660320  0.527200  0.802440  1.0  -0.0063
  C  C186  1  0.673790  0.560170  0.762010  1.0  -0.0677
  C  C187  1  0.652460  0.633870  0.703770  1.0  0.238
  C  C188  1  0.600210  0.494580  0.870940  1.0  0.7261
  C  C189  1  0.860050  0.400970  0.247040  1.0  -0.1199
  C  C190  1  0.905530  0.393990  0.274840  1.0  -0.0432
  C  C191  1  0.919000  0.427780  0.315040  1.0  -0.0467
  C  C192  1  0.885290  0.467580  0.328130  1.0  -0.1023
  C  C193  1  0.839680  0.472800  0.302440  1.0  -0.0067
  C  C194  1  0.826210  0.439830  0.262010  1.0  -0.0683
  C  C195  1  0.847540  0.366130  0.203770  1.0  0.2476
  C  C196  1  0.899790  0.505420  0.370940  1.0  0.7267
  C  C197  1  0.139950  0.900970  0.252960  1.0  -0.1194
  C  C198  1  0.094470  0.893990  0.225160  1.0  -0.0401
  C  C199  1  0.081000  0.927780  0.184960  1.0  -0.0422
  C  C200  1  0.114710  0.967580  0.171870  1.0  -0.1035
  C  C201  1  0.160320  0.972800  0.197560  1.0  -0.0053
  C  C202  1  0.173790  0.939830  0.237990  1.0  -0.0654
  C  C203  1  0.152460  0.866130  0.296230  1.0  0.2458
  C  C204  1  0.100210  0.005420  0.129060  1.0  0.7271
  C  C205  1  0.610050  0.502960  0.650970  1.0  -0.1168
  C  C206  1  0.655530  0.475160  0.643990  1.0  -0.0427
  C  C207  1  0.669000  0.434960  0.677780  1.0  -0.0478
  C  C208  1  0.635290  0.421870  0.717580  1.0  -0.1058
  C  C209  1  0.589680  0.447560  0.722800  1.0  -0.0064
  C  C210  1  0.576210  0.487990  0.689830  1.0  -0.0686
  C  C211  1  0.597540  0.546230  0.616130  1.0  0.2459
  C  C212  1  0.649790  0.379060  0.755420  1.0  0.7227
  C  C213  1  0.889950  0.497040  0.150970  1.0  -0.1162
  C  C214  1  0.844470  0.524840  0.143990  1.0  -0.042
  C  C215  1  0.831000  0.565040  0.177780  1.0  -0.0451
  C  C216  1  0.864710  0.578130  0.217580  1.0  -0.1066
  C  C217  1  0.910320  0.552440  0.222800  1.0  -0.0057
  C  C218  1  0.923790  0.512010  0.189830  1.0  -0.0689
  C  C219  1  0.902460  0.453770  0.116130  1.0  0.2368
  C  C220  1  0.850210  0.620940  0.255420  1.0  0.7244
  C  C221  1  0.110050  0.997040  0.349030  1.0  -0.1159
  C  C222  1  0.155530  0.024840  0.356010  1.0  -0.0418
  C  C223  1  0.169000  0.065040  0.322220  1.0  -0.0451
  C  C224  1  0.135290  0.078130  0.282420  1.0  -0.1055
  C  C225  1  0.089680  0.052440  0.277200  1.0  -0.0056
  C  C226  1  0.076210  0.012010  0.310170  1.0  -0.0691
  C  C227  1  0.097540  0.953770  0.383870  1.0  0.2299
  C  C228  1  0.149790  0.120940  0.244580  1.0  0.7251
  C  C229  1  0.389950  0.002960  0.849030  1.0  -0.1159
  C  C230  1  0.344470  0.975160  0.856010  1.0  -0.0427
  C  C231  1  0.331000  0.934960  0.822220  1.0  -0.0454
  C  C232  1  0.364710  0.921870  0.782420  1.0  -0.1072
  C  C233  1  0.410320  0.947560  0.777200  1.0  -0.0055
  C  C234  1  0.423790  0.987990  0.810170  1.0  -0.0669
  C  C235  1  0.402460  0.046230  0.883870  1.0  0.2404
  C  C236  1  0.350210  0.879060  0.744580  1.0  0.724
  C  C237  1  0.002960  0.849030  0.389950  1.0  -0.1179
  C  C238  1  0.975160  0.856010  0.344470  1.0  -0.0382
  C  C239  1  0.934960  0.822220  0.331000  1.0  -0.0449
  C  C240  1  0.921870  0.782420  0.364710  1.0  -0.1098
  C  C241  1  0.947560  0.777200  0.410320  1.0  -0.0063
  C  C242  1  0.987990  0.810170  0.423790  1.0  -0.071
  C  C243  1  0.046230  0.883870  0.402460  1.0  0.2385
  C  C244  1  0.879060  0.744580  0.350210  1.0  0.7249
  C  C245  1  0.997040  0.349030  0.110050  1.0  -0.1171
  C  C246  1  0.024840  0.356010  0.155530  1.0  -0.0372
  C  C247  1  0.065040  0.322220  0.169000  1.0  -0.0453
  C  C248  1  0.078130  0.282420  0.135290  1.0  -0.1092
  C  C249  1  0.052440  0.277200  0.089680  1.0  -0.0066
  C  C250  1  0.012010  0.310170  0.076210  1.0  -0.0697
  C  C251  1  0.953770  0.383870  0.097540  1.0  0.2296
  C  C252  1  0.120940  0.244580  0.149790  1.0  0.7243
  C  C253  1  0.497040  0.150970  0.889950  1.0  -0.1175
  C  C254  1  0.524840  0.143990  0.844470  1.0  -0.0392
  C  C255  1  0.565040  0.177780  0.831000  1.0  -0.0476
  C  C256  1  0.578130  0.217580  0.864710  1.0  -0.1087
  C  C257  1  0.552440  0.222800  0.910320  1.0  -0.0067
  C  C258  1  0.512010  0.189830  0.923790  1.0  -0.0711
  C  C259  1  0.453770  0.116130  0.902460  1.0  0.2362
  C  C260  1  0.620940  0.255420  0.850210  1.0  0.723
  C  C261  1  0.502960  0.650970  0.610050  1.0  -0.1192
  C  C262  1  0.475160  0.643990  0.655530  1.0  -0.0374
  C  C263  1  0.434960  0.677780  0.669000  1.0  -0.0455
  C  C264  1  0.421870  0.717580  0.635290  1.0  -0.111
  C  C265  1  0.447560  0.722800  0.589680  1.0  -0.0048
  C  C266  1  0.487990  0.689830  0.576210  1.0  -0.0703
  C  C267  1  0.546230  0.616130  0.597540  1.0  0.245
  C  C268  1  0.379060  0.755420  0.649790  1.0  0.7236
  C  C269  1  0.349030  0.110050  0.997040  1.0  -0.1176
  C  C270  1  0.356010  0.155530  0.024840  1.0  -0.041
  C  C271  1  0.322220  0.169000  0.065040  1.0  -0.0422
  C  C272  1  0.282420  0.135290  0.078130  1.0  -0.1038
  C  C273  1  0.277200  0.089680  0.052440  1.0  -0.0092
  C  C274  1  0.310170  0.076210  0.012010  1.0  -0.0725
  C  C275  1  0.383870  0.097540  0.953770  1.0  0.231
  C  C276  1  0.244580  0.149790  0.120940  1.0  0.7279
  C  C277  1  0.849030  0.389950  0.002960  1.0  -0.1169
  C  C278  1  0.856010  0.344470  0.975160  1.0  -0.0395
  C  C279  1  0.822220  0.331000  0.934960  1.0  -0.0429
  C  C280  1  0.782420  0.364710  0.921870  1.0  -0.1069
  C  C281  1  0.777200  0.410320  0.947560  1.0  -0.0097
  C  C282  1  0.810170  0.423790  0.987990  1.0  -0.069
  C  C283  1  0.883870  0.402460  0.046230  1.0  0.2398
  C  C284  1  0.744580  0.350210  0.879060  1.0  0.7283
  C  C285  1  0.650970  0.610050  0.502960  1.0  -0.1194
  C  C286  1  0.643990  0.655530  0.475160  1.0  -0.0391
  C  C287  1  0.677780  0.669000  0.434960  1.0  -0.0427
  C  C288  1  0.717580  0.635290  0.421870  1.0  -0.1044
  C  C289  1  0.722800  0.589680  0.447560  1.0  -0.0115
  C  C290  1  0.689830  0.576210  0.487990  1.0  -0.0701
  C  C291  1  0.616130  0.597540  0.546230  1.0  0.2461
  C  C292  1  0.755420  0.649790  0.379060  1.0  0.7282
  C  C293  1  0.150970  0.889950  0.497040  1.0  -0.1203
  C  C294  1  0.143990  0.844470  0.524840  1.0  -0.0398
  C  C295  1  0.177780  0.831000  0.565040  1.0  -0.0438
  C  C296  1  0.217580  0.864710  0.578130  1.0  -0.1028
  C  C297  1  0.222800  0.910320  0.552440  1.0  -0.0098
  C  C298  1  0.189830  0.923790  0.512010  1.0  -0.0708
  C  C299  1  0.116130  0.902460  0.453770  1.0  0.238
  C  C300  1  0.255420  0.850210  0.620940  1.0  0.7272
  N  N301  1  0.825250  0.305320  0.121660  1.0  -0.3308
  N  N302  1  0.674750  0.694680  0.621660  1.0  -0.3309
  N  N303  1  0.174750  0.805320  0.378340  1.0  -0.3307
  N  N304  1  0.325250  0.194680  0.878340  1.0  -0.3302
  N  N305  1  0.121660  0.825250  0.305320  1.0  -0.3308
  N  N306  1  0.621660  0.674750  0.694680  1.0  -0.3319
  N  N307  1  0.378340  0.174750  0.805320  1.0  -0.3292
  N  N308  1  0.878340  0.325250  0.194680  1.0  -0.3324
  N  N309  1  0.305320  0.121660  0.825250  1.0  -0.3284
  N  N310  1  0.694680  0.621660  0.674750  1.0  -0.3291
  N  N311  1  0.805320  0.378340  0.174750  1.0  -0.3278
  N  N312  1  0.194680  0.878340  0.325250  1.0  -0.3285
  N  N313  1  0.555320  0.575250  0.628340  1.0  -0.3308
  N  N314  1  0.944680  0.424750  0.128340  1.0  -0.3316
  N  N315  1  0.055320  0.924750  0.371660  1.0  -0.3253
  N  N316  1  0.444680  0.075250  0.871660  1.0  -0.3321
  N  N317  1  0.075250  0.871660  0.444680  1.0  -0.329
  N  N318  1  0.924750  0.371660  0.055320  1.0  -0.322
  N  N319  1  0.424750  0.128340  0.944680  1.0  -0.329
  N  N320  1  0.575250  0.628340  0.555320  1.0  -0.3253
  N  N321  1  0.371660  0.055320  0.924750  1.0  -0.3268
  N  N322  1  0.871660  0.444680  0.075250  1.0  -0.333
  N  N323  1  0.628340  0.555320  0.575250  1.0  -0.3314
  N  N324  1  0.128340  0.944680  0.424750  1.0  -0.3305
  O  O325  1  0.622570  0.370800  0.956040  1.0  -0.6201
  O  O326  1  0.601500  0.438870  0.003280  1.0  -0.6036
  O  O327  1  0.877430  0.629200  0.456040  1.0  -0.62
  O  O328  1  0.898500  0.561130  0.503280  1.0  -0.609
  O  O329  1  0.377430  0.870800  0.543960  1.0  -0.6203
  O  O330  1  0.398500  0.938870  0.496720  1.0  -0.6039
  O  O331  1  0.122570  0.129200  0.043960  1.0  -0.6223
  O  O332  1  0.101500  0.061130  0.996720  1.0  -0.6002
  O  O333  1  0.956040  0.622570  0.370800  1.0  -0.6192
  O  O334  1  0.003280  0.601500  0.438870  1.0  -0.6088
  O  O335  1  0.456040  0.877430  0.629200  1.0  -0.6216
  O  O336  1  0.503280  0.898500  0.561130  1.0  -0.6109
  O  O337  1  0.543960  0.377430  0.870800  1.0  -0.6196
  O  O338  1  0.496720  0.398500  0.938870  1.0  -0.6041
  O  O339  1  0.043960  0.122570  0.129200  1.0  -0.6214
  O  O340  1  0.996720  0.101500  0.061130  1.0  -0.6037
  O  O341  1  0.370800  0.956040  0.622570  1.0  -0.6188
  O  O342  1  0.438870  0.003280  0.601500  1.0  -0.6056
  O  O343  1  0.629200  0.456040  0.877430  1.0  -0.62
  O  O344  1  0.561130  0.503280  0.898500  1.0  -0.6077
  O  O345  1  0.870800  0.543960  0.377430  1.0  -0.6196
  O  O346  1  0.938870  0.496720  0.398500  1.0  -0.6042
  O  O347  1  0.129200  0.043960  0.122570  1.0  -0.6186
  O  O348  1  0.061130  0.996720  0.101500  1.0  -0.6023
  O  O349  1  0.620800  0.372570  0.793960  1.0  -0.622
  O  O350  1  0.688870  0.351500  0.746720  1.0  -0.603
  O  O351  1  0.879200  0.627430  0.293960  1.0  -0.6216
  O  O352  1  0.811130  0.648500  0.246720  1.0  -0.605
  O  O353  1  0.120800  0.127430  0.206040  1.0  -0.6201
  O  O354  1  0.188870  0.148500  0.253280  1.0  -0.6035
  O  O355  1  0.379200  0.872570  0.706040  1.0  -0.62
  O  O356  1  0.311130  0.851500  0.753280  1.0  -0.6055
  O  O357  1  0.872570  0.706040  0.379200  1.0  -0.6219
  O  O358  1  0.851500  0.753280  0.311130  1.0  -0.6068
  O  O359  1  0.127430  0.206040  0.120800  1.0  -0.6179
  O  O360  1  0.148500  0.253280  0.188870  1.0  -0.605
  O  O361  1  0.627430  0.293960  0.879200  1.0  -0.6203
  O  O362  1  0.648500  0.246720  0.811130  1.0  -0.6055
  O  O363  1  0.372570  0.793960  0.620800  1.0  -0.62
  O  O364  1  0.351500  0.746720  0.688870  1.0  -0.6097
  O  O365  1  0.206040  0.120800  0.127430  1.0  -0.6188
  O  O366  1  0.253280  0.188870  0.148500  1.0  -0.6046
  O  O367  1  0.706040  0.379200  0.872570  1.0  -0.6188
  O  O368  1  0.753280  0.311130  0.851500  1.0  -0.6031
  O  O369  1  0.793960  0.620800  0.372570  1.0  -0.619
  O  O370  1  0.746720  0.688870  0.351500  1.0  -0.6059
  O  O371  1  0.293960  0.879200  0.627430  1.0  -0.6208
  O  O372  1  0.246720  0.811130  0.648500  1.0  -0.6084
