# generated using pymatgen
data_ZnH8C16(NO2)2
_symmetry_space_group_name_H-M   'P 1'
_cell_length_a   25.63490000
_cell_length_b   25.63490000
_cell_length_c   25.63490000
_cell_angle_alpha   90.00000000
_cell_angle_beta   90.00000000
_cell_angle_gamma   90.00000000
_symmetry_Int_Tables_number   1
_chemical_formula_structural   ZnH8C16(NO2)2
_chemical_formula_sum   'Zn12 H96 C192 N24 O48'
_cell_volume   16845.92577768
_cell_formula_units_Z   12
loop_
 _symmetry_equiv_pos_site_id
 _symmetry_equiv_pos_as_xyz
  1  'x, y, z'
loop_
 _atom_site_type_symbol
 _atom_site_label
 _atom_site_symmetry_multiplicity
 _atom_site_fract_x
 _atom_site_fract_y
 _atom_site_fract_z
 _atom_site_occupancy
 _atom_site_charge
  Zn  Zn1  1  0.125000  0.625000  0.875000  1.0  0.9878
  Zn  Zn2  1  0.375000  0.375000  0.375000  1.0  0.9878
  Zn  Zn3  1  0.875000  0.125000  0.625000  1.0  0.9878
  Zn  Zn4  1  0.625000  0.875000  0.125000  1.0  0.9878
  Zn  Zn5  1  0.044770  0.544770  0.955230  1.0  0.8865
  Zn  Zn6  1  0.455230  0.455230  0.455230  1.0  0.8858
  Zn  Zn7  1  0.955230  0.044770  0.544770  1.0  0.8902
  Zn  Zn8  1  0.544770  0.955230  0.044770  1.0  0.8877
  Zn  Zn9  1  0.294770  0.294770  0.294770  1.0  0.8841
  Zn  Zn10  1  0.205230  0.705230  0.794770  1.0  0.8843
  Zn  Zn11  1  0.794770  0.205230  0.705230  1.0  0.8847
  Zn  Zn12  1  0.705230  0.794770  0.205230  1.0  0.8854
  H  H13  1  0.188300  0.682800  0.999300  1.0  0.1117
  H  H14  1  0.255300  0.706100  0.055100  1.0  0.1308
  H  H15  1  0.233200  0.571500  0.133800  1.0  0.1244
  H  H16  1  0.166900  0.549300  0.076400  1.0  0.1162
  H  H17  1  0.311700  0.317200  0.499300  1.0  0.1108
  H  H18  1  0.244700  0.293900  0.555100  1.0  0.1308
  H  H19  1  0.266800  0.428500  0.633800  1.0  0.1236
  H  H20  1  0.333100  0.450700  0.576400  1.0  0.1165
  H  H21  1  0.811700  0.182800  0.500700  1.0  0.1112
  H  H22  1  0.744700  0.206100  0.444900  1.0  0.1312
  H  H23  1  0.766800  0.071500  0.366200  1.0  0.1237
  H  H24  1  0.833100  0.049300  0.423600  1.0  0.1167
  H  H25  1  0.688300  0.817200  0.000700  1.0  0.1106
  H  H26  1  0.755300  0.793900  0.944900  1.0  0.1309
  H  H27  1  0.733200  0.928500  0.866200  1.0  0.1242
  H  H28  1  0.666900  0.950700  0.923600  1.0  0.1167
  H  H29  1  0.999300  0.188300  0.682800  1.0  0.1117
  H  H30  1  0.055100  0.255300  0.706100  1.0  0.1311
  H  H31  1  0.133800  0.233200  0.571500  1.0  0.1244
  H  H32  1  0.076400  0.166900  0.549300  1.0  0.1156
  H  H33  1  0.499300  0.311700  0.317200  1.0  0.1121
  H  H34  1  0.555100  0.244700  0.293900  1.0  0.1322
  H  H35  1  0.633800  0.266800  0.428500  1.0  0.1269
  H  H36  1  0.576400  0.333100  0.450700  1.0  0.116
  H  H37  1  0.500700  0.811700  0.182800  1.0  0.1122
  H  H38  1  0.444900  0.744700  0.206100  1.0  0.1311
  H  H39  1  0.366200  0.766800  0.071500  1.0  0.1253
  H  H40  1  0.423600  0.833100  0.049300  1.0  0.1164
  H  H41  1  0.000700  0.688300  0.817200  1.0  0.1115
  H  H42  1  0.944900  0.755300  0.793900  1.0  0.1317
  H  H43  1  0.866200  0.733200  0.928500  1.0  0.1257
  H  H44  1  0.923600  0.666900  0.950700  1.0  0.1159
  H  H45  1  0.682800  0.999300  0.188300  1.0  0.1119
  H  H46  1  0.706100  0.055100  0.255300  1.0  0.1311
  H  H47  1  0.571500  0.133800  0.233200  1.0  0.1264
  H  H48  1  0.549300  0.076400  0.166900  1.0  0.1153
  H  H49  1  0.317200  0.499300  0.311700  1.0  0.1111
  H  H50  1  0.293900  0.555100  0.244700  1.0  0.1359
  H  H51  1  0.428500  0.633800  0.266800  1.0  0.1239
  H  H52  1  0.450700  0.576400  0.333100  1.0  0.1156
  H  H53  1  0.182800  0.500700  0.811700  1.0  0.1108
  H  H54  1  0.206100  0.444900  0.744700  1.0  0.1313
  H  H55  1  0.071500  0.366200  0.766800  1.0  0.1242
  H  H56  1  0.049300  0.423600  0.833100  1.0  0.1165
  H  H57  1  0.817200  0.000700  0.688300  1.0  0.111
  H  H58  1  0.793900  0.944900  0.755300  1.0  0.1362
  H  H59  1  0.928500  0.866200  0.733200  1.0  0.1249
  H  H60  1  0.950700  0.923600  0.666900  1.0  0.1149
  H  H61  1  0.432800  0.438300  0.250700  1.0  0.1113
  H  H62  1  0.456100  0.505300  0.194900  1.0  0.1313
  H  H63  1  0.321500  0.483200  0.116200  1.0  0.125
  H  H64  1  0.299300  0.416900  0.173600  1.0  0.1166
  H  H65  1  0.067200  0.561700  0.750700  1.0  0.1108
  H  H66  1  0.043900  0.494700  0.694900  1.0  0.1363
  H  H67  1  0.178500  0.516800  0.616200  1.0  0.1256
  H  H68  1  0.200700  0.583100  0.673600  1.0  0.1167
  H  H69  1  0.932800  0.061700  0.749300  1.0  0.1111
  H  H70  1  0.956100  0.994700  0.805100  1.0  0.1348
  H  H71  1  0.821500  0.016800  0.883800  1.0  0.1249
  H  H72  1  0.799300  0.083100  0.826400  1.0  0.1168
  H  H73  1  0.567200  0.938300  0.249300  1.0  0.1105
  H  H74  1  0.543900  0.005300  0.305100  1.0  0.1344
  H  H75  1  0.678500  0.983200  0.383800  1.0  0.1241
  H  H76  1  0.700700  0.916900  0.326400  1.0  0.1165
  H  H77  1  0.938300  0.249300  0.567200  1.0  0.1119
  H  H78  1  0.005300  0.305100  0.543900  1.0  0.1364
  H  H79  1  0.983200  0.383800  0.678500  1.0  0.124
  H  H80  1  0.916900  0.326400  0.700700  1.0  0.1158
  H  H81  1  0.061700  0.749300  0.932800  1.0  0.1126
  H  H82  1  0.994700  0.805100  0.956100  1.0  0.1364
  H  H83  1  0.016800  0.883800  0.821500  1.0  0.1229
  H  H84  1  0.083100  0.826400  0.799300  1.0  0.1159
  H  H85  1  0.561700  0.750700  0.067200  1.0  0.1118
  H  H86  1  0.494700  0.694900  0.043900  1.0  0.1334
  H  H87  1  0.516800  0.616200  0.178500  1.0  0.1229
  H  H88  1  0.583100  0.673600  0.200700  1.0  0.1153
  H  H89  1  0.438300  0.250700  0.432800  1.0  0.1119
  H  H90  1  0.505300  0.194900  0.456100  1.0  0.1329
  H  H91  1  0.483200  0.116200  0.321500  1.0  0.1227
  H  H92  1  0.416900  0.173600  0.299300  1.0  0.1153
  H  H93  1  0.749300  0.932800  0.061700  1.0  0.1118
  H  H94  1  0.805100  0.956100  0.994700  1.0  0.1357
  H  H95  1  0.883800  0.821500  0.016800  1.0  0.1237
  H  H96  1  0.826400  0.799300  0.083100  1.0  0.1161
  H  H97  1  0.249300  0.567200  0.938300  1.0  0.1108
  H  H98  1  0.305100  0.543900  0.005300  1.0  0.1346
  H  H99  1  0.383800  0.678500  0.983200  1.0  0.1263
  H  H100  1  0.326400  0.700700  0.916900  1.0  0.1162
  H  H101  1  0.250700  0.432800  0.438300  1.0  0.1114
  H  H102  1  0.194900  0.456100  0.505300  1.0  0.1307
  H  H103  1  0.116200  0.321500  0.483200  1.0  0.1255
  H  H104  1  0.173600  0.299300  0.416900  1.0  0.1154
  H  H105  1  0.750700  0.067200  0.561700  1.0  0.1108
  H  H106  1  0.694900  0.043900  0.494700  1.0  0.1307
  H  H107  1  0.616200  0.178500  0.516800  1.0  0.1252
  H  H108  1  0.673600  0.200700  0.583100  1.0  0.116
  C  C109  1  0.296610  0.651920  0.133520  1.0  0.268
  C  C110  1  0.128180  0.600600  0.993770  1.0  0.724
  C  C111  1  0.171110  0.614680  0.032240  1.0  -0.1159
  C  C112  1  0.197590  0.660380  0.026310  1.0  0.0079
  C  C113  1  0.238020  0.674460  0.059290  1.0  -0.0729
  C  C114  1  0.252030  0.640070  0.098720  1.0  -0.1197
  C  C115  1  0.224640  0.593580  0.106300  1.0  -0.0189
  C  C116  1  0.184690  0.580700  0.072390  1.0  -0.0433
  C  C117  1  0.203390  0.348080  0.633520  1.0  0.2674
  C  C118  1  0.371820  0.399400  0.493770  1.0  0.7237
  C  C119  1  0.328890  0.385320  0.532240  1.0  -0.115
  C  C120  1  0.302410  0.339620  0.526310  1.0  0.0092
  C  C121  1  0.261980  0.325540  0.559290  1.0  -0.0707
  C  C122  1  0.247970  0.359930  0.598720  1.0  -0.1187
  C  C123  1  0.275360  0.406420  0.606300  1.0  -0.0189
  C  C124  1  0.315310  0.419300  0.572390  1.0  -0.0434
  C  C125  1  0.703390  0.151920  0.366480  1.0  0.2662
  C  C126  1  0.871820  0.100600  0.506230  1.0  0.724
  C  C127  1  0.828890  0.114680  0.467760  1.0  -0.1139
  C  C128  1  0.802410  0.160380  0.473690  1.0  0.0076
  C  C129  1  0.761980  0.174460  0.440710  1.0  -0.0722
  C  C130  1  0.747970  0.140070  0.401280  1.0  -0.1171
  C  C131  1  0.775360  0.093580  0.393700  1.0  -0.0188
  C  C132  1  0.815310  0.080700  0.427610  1.0  -0.0444
  C  C133  1  0.796610  0.848080  0.866480  1.0  0.2674
  C  C134  1  0.628180  0.899400  0.006230  1.0  0.7235
  C  C135  1  0.671110  0.885320  0.967760  1.0  -0.1147
  C  C136  1  0.697590  0.839620  0.973690  1.0  0.0082
  C  C137  1  0.738020  0.825540  0.940710  1.0  -0.0737
  C  C138  1  0.752030  0.859930  0.901280  1.0  -0.1198
  C  C139  1  0.724640  0.906420  0.893700  1.0  -0.019
  C  C140  1  0.684690  0.919300  0.927610  1.0  -0.0429
  C  C141  1  0.133520  0.296610  0.651920  1.0  0.2681
  C  C142  1  0.993770  0.128180  0.600600  1.0  0.7204
  C  C143  1  0.032240  0.171110  0.614680  1.0  -0.1191
  C  C144  1  0.026310  0.197590  0.660380  1.0  0.0068
  C  C145  1  0.059290  0.238020  0.674460  1.0  -0.0741
  C  C146  1  0.098720  0.252030  0.640070  1.0  -0.1162
  C  C147  1  0.106300  0.224640  0.593580  1.0  -0.0217
  C  C148  1  0.072390  0.184690  0.580700  1.0  -0.0455
  C  C149  1  0.633520  0.203390  0.348080  1.0  0.265
  C  C150  1  0.493770  0.371820  0.399400  1.0  0.7216
  C  C151  1  0.532240  0.328890  0.385320  1.0  -0.1173
  C  C152  1  0.526310  0.302410  0.339620  1.0  0.0063
  C  C153  1  0.559290  0.261980  0.325540  1.0  -0.0717
  C  C154  1  0.598720  0.247970  0.359930  1.0  -0.117
  C  C155  1  0.606300  0.275360  0.406420  1.0  -0.021
  C  C156  1  0.572390  0.315310  0.419300  1.0  -0.0441
  C  C157  1  0.366480  0.703390  0.151920  1.0  0.2663
  C  C158  1  0.506230  0.871820  0.100600  1.0  0.7217
  C  C159  1  0.467760  0.828890  0.114680  1.0  -0.1171
  C  C160  1  0.473690  0.802410  0.160380  1.0  0.0067
  C  C161  1  0.440710  0.761980  0.174460  1.0  -0.0763
  C  C162  1  0.401280  0.747970  0.140070  1.0  -0.1172
  C  C163  1  0.393700  0.775360  0.093580  1.0  -0.023
  C  C164  1  0.427610  0.815310  0.080700  1.0  -0.0445
  C  C165  1  0.866480  0.796610  0.848080  1.0  0.2682
  C  C166  1  0.006230  0.628180  0.899400  1.0  0.7204
  C  C167  1  0.967760  0.671110  0.885320  1.0  -0.1192
  C  C168  1  0.973690  0.697590  0.839620  1.0  0.0061
  C  C169  1  0.940710  0.738020  0.825540  1.0  -0.0701
  C  C170  1  0.901280  0.752030  0.859930  1.0  -0.1185
  C  C171  1  0.893700  0.724640  0.906420  1.0  -0.0211
  C  C172  1  0.927610  0.684690  0.919300  1.0  -0.0462
  C  C173  1  0.651920  0.133520  0.296610  1.0  0.2666
  C  C174  1  0.600600  0.993770  0.128180  1.0  0.7251
  C  C175  1  0.614680  0.032240  0.171110  1.0  -0.1125
  C  C176  1  0.660380  0.026310  0.197590  1.0  0.0115
  C  C177  1  0.674460  0.059290  0.238020  1.0  -0.0658
  C  C178  1  0.640070  0.098720  0.252030  1.0  -0.1171
  C  C179  1  0.593580  0.106300  0.224640  1.0  -0.0208
  C  C180  1  0.580700  0.072390  0.184690  1.0  -0.0398
  C  C181  1  0.348080  0.633520  0.203390  1.0  0.2691
  C  C182  1  0.399400  0.493770  0.371820  1.0  0.724
  C  C183  1  0.385320  0.532240  0.328890  1.0  -0.1084
  C  C184  1  0.339620  0.526310  0.302410  1.0  0.0097
  C  C185  1  0.325540  0.559290  0.261980  1.0  -0.0709
  C  C186  1  0.359930  0.598720  0.247970  1.0  -0.1208
  C  C187  1  0.406420  0.606300  0.275360  1.0  -0.0217
  C  C188  1  0.419300  0.572390  0.315310  1.0  -0.0439
  C  C189  1  0.151920  0.366480  0.703390  1.0  0.2691
  C  C190  1  0.100600  0.506230  0.871820  1.0  0.7236
  C  C191  1  0.114680  0.467760  0.828890  1.0  -0.1092
  C  C192  1  0.160380  0.473690  0.802410  1.0  0.012
  C  C193  1  0.174460  0.440710  0.761980  1.0  -0.0695
  C  C194  1  0.140070  0.401280  0.747970  1.0  -0.1182
  C  C195  1  0.093580  0.393700  0.775360  1.0  -0.0232
  C  C196  1  0.080700  0.427610  0.815310  1.0  -0.0443
  C  C197  1  0.848080  0.866480  0.796610  1.0  0.2682
  C  C198  1  0.899400  0.006230  0.628180  1.0  0.7227
  C  C199  1  0.885320  0.967760  0.671110  1.0  -0.11
  C  C200  1  0.839620  0.973690  0.697590  1.0  0.0092
  C  C201  1  0.825540  0.940710  0.738020  1.0  -0.0698
  C  C202  1  0.859930  0.901280  0.752030  1.0  -0.1188
  C  C203  1  0.906420  0.893700  0.724640  1.0  -0.023
  C  C204  1  0.919300  0.927610  0.684690  1.0  -0.0425
  C  C205  1  0.401920  0.546610  0.116480  1.0  0.2673
  C  C206  1  0.350600  0.378180  0.256230  1.0  0.7207
  C  C207  1  0.364680  0.421110  0.217760  1.0  -0.1158
  C  C208  1  0.410380  0.447590  0.223690  1.0  0.0092
  C  C209  1  0.424460  0.488020  0.190710  1.0  -0.0683
  C  C210  1  0.390070  0.502030  0.151280  1.0  -0.121
  C  C211  1  0.343580  0.474640  0.143700  1.0  -0.0217
  C  C212  1  0.330700  0.434690  0.177610  1.0  -0.044
  C  C213  1  0.098080  0.453390  0.616480  1.0  0.2683
  C  C214  1  0.149400  0.621820  0.756230  1.0  0.7214
  C  C215  1  0.135320  0.578890  0.717760  1.0  -0.1142
  C  C216  1  0.089620  0.552410  0.723690  1.0  0.0081
  C  C217  1  0.075540  0.511980  0.690710  1.0  -0.0716
  C  C218  1  0.109930  0.497970  0.651280  1.0  -0.1225
  C  C219  1  0.156420  0.525360  0.643700  1.0  -0.0224
  C  C220  1  0.169300  0.565310  0.677610  1.0  -0.0449
  C  C221  1  0.901920  0.953390  0.883520  1.0  0.2632
  C  C222  1  0.850600  0.121820  0.743770  1.0  0.7224
  C  C223  1  0.864680  0.078890  0.782240  1.0  -0.1145
  C  C224  1  0.910380  0.052410  0.776310  1.0  0.0109
  C  C225  1  0.924460  0.011980  0.809290  1.0  -0.0705
  C  C226  1  0.890070  0.997970  0.848720  1.0  -0.1224
  C  C227  1  0.843580  0.025360  0.856300  1.0  -0.0229
  C  C228  1  0.830700  0.065310  0.822390  1.0  -0.045
  C  C229  1  0.598080  0.046610  0.383520  1.0  0.2668
  C  C230  1  0.649400  0.878180  0.243770  1.0  0.7216
  C  C231  1  0.635320  0.921110  0.282240  1.0  -0.1168
  C  C232  1  0.589620  0.947590  0.276310  1.0  0.0101
  C  C233  1  0.575540  0.988020  0.309290  1.0  -0.071
  C  C234  1  0.609930  0.002030  0.348720  1.0  -0.12
  C  C235  1  0.656420  0.974640  0.356300  1.0  -0.0243
  C  C236  1  0.669300  0.934690  0.322390  1.0  -0.0469
  C  C237  1  0.046610  0.383520  0.598080  1.0  0.2651
  C  C238  1  0.878180  0.243770  0.649400  1.0  0.7223
  C  C239  1  0.921110  0.282240  0.635320  1.0  -0.1164
  C  C240  1  0.947590  0.276310  0.589620  1.0  0.0117
  C  C241  1  0.988020  0.309290  0.575540  1.0  -0.0701
  C  C242  1  0.002030  0.348720  0.609930  1.0  -0.1192
  C  C243  1  0.974640  0.356300  0.656420  1.0  -0.0182
  C  C244  1  0.934690  0.322390  0.669300  1.0  -0.0434
  C  C245  1  0.953390  0.883520  0.901920  1.0  0.2645
  C  C246  1  0.121820  0.743770  0.850600  1.0  0.7222
  C  C247  1  0.078890  0.782240  0.864680  1.0  -0.116
  C  C248  1  0.052410  0.776310  0.910380  1.0  0.0123
  C  C249  1  0.011980  0.809290  0.924460  1.0  -0.0718
  C  C250  1  0.997970  0.848720  0.890070  1.0  -0.1214
  C  C251  1  0.025360  0.856300  0.843580  1.0  -0.0193
  C  C252  1  0.065310  0.822390  0.830700  1.0  -0.0453
  C  C253  1  0.453390  0.616480  0.098080  1.0  0.2681
  C  C254  1  0.621820  0.756230  0.149400  1.0  0.722
  C  C255  1  0.578890  0.717760  0.135320  1.0  -0.1153
  C  C256  1  0.552410  0.723690  0.089620  1.0  0.0117
  C  C257  1  0.511980  0.690710  0.075540  1.0  -0.0682
  C  C258  1  0.497970  0.651280  0.109930  1.0  -0.1216
  C  C259  1  0.525360  0.643700  0.156420  1.0  -0.0193
  C  C260  1  0.565310  0.677610  0.169300  1.0  -0.0454
  C  C261  1  0.546610  0.116480  0.401920  1.0  0.2684
  C  C262  1  0.378180  0.256230  0.350600  1.0  0.7219
  C  C263  1  0.421110  0.217760  0.364680  1.0  -0.1167
  C  C264  1  0.447590  0.223690  0.410380  1.0  0.0109
  C  C265  1  0.488020  0.190710  0.424460  1.0  -0.0735
  C  C266  1  0.502030  0.151280  0.390070  1.0  -0.1207
  C  C267  1  0.474640  0.143700  0.343580  1.0  -0.0205
  C  C268  1  0.434690  0.177610  0.330700  1.0  -0.0418
  C  C269  1  0.883520  0.901920  0.953390  1.0  0.2657
  C  C270  1  0.743770  0.850600  0.121820  1.0  0.7257
  C  C271  1  0.782240  0.864680  0.078890  1.0  -0.1101
  C  C272  1  0.776310  0.910380  0.052410  1.0  0.0054
  C  C273  1  0.809290  0.924460  0.011980  1.0  -0.0731
  C  C274  1  0.848720  0.890070  0.997970  1.0  -0.1224
  C  C275  1  0.856300  0.843580  0.025360  1.0  -0.0222
  C  C276  1  0.822390  0.830700  0.065310  1.0  -0.044
  C  C277  1  0.383520  0.598080  0.046610  1.0  0.264
  C  C278  1  0.243770  0.649400  0.878180  1.0  0.7261
  C  C279  1  0.282240  0.635320  0.921110  1.0  -0.1137
  C  C280  1  0.276310  0.589620  0.947590  1.0  0.0046
  C  C281  1  0.309290  0.575540  0.988020  1.0  -0.0713
  C  C282  1  0.348720  0.609930  0.002030  1.0  -0.1173
  C  C283  1  0.356300  0.656420  0.974640  1.0  -0.0211
  C  C284  1  0.322390  0.669300  0.934690  1.0  -0.0415
  C  C285  1  0.116480  0.401920  0.546610  1.0  0.2695
  C  C286  1  0.256230  0.350600  0.378180  1.0  0.7259
  C  C287  1  0.217760  0.364680  0.421110  1.0  -0.1135
  C  C288  1  0.223690  0.410380  0.447590  1.0  0.0052
  C  C289  1  0.190710  0.424460  0.488020  1.0  -0.0721
  C  C290  1  0.151280  0.390070  0.502030  1.0  -0.1216
  C  C291  1  0.143700  0.343580  0.474640  1.0  -0.0207
  C  C292  1  0.177610  0.330700  0.434690  1.0  -0.0398
  C  C293  1  0.616480  0.098080  0.453390  1.0  0.2712
  C  C294  1  0.756230  0.149400  0.621820  1.0  0.7253
  C  C295  1  0.717760  0.135320  0.578890  1.0  -0.1116
  C  C296  1  0.723690  0.089620  0.552410  1.0  0.0044
  C  C297  1  0.690710  0.075540  0.511980  1.0  -0.0742
  C  C298  1  0.651280  0.109930  0.497970  1.0  -0.1238
  C  C299  1  0.643700  0.156420  0.525360  1.0  -0.023
  C  C300  1  0.677610  0.169300  0.565310  1.0  -0.0434
  N  N301  1  0.325390  0.694460  0.121660  1.0  -0.344
  N  N302  1  0.174610  0.305540  0.621660  1.0  -0.3425
  N  N303  1  0.674610  0.194460  0.378340  1.0  -0.3439
  N  N304  1  0.825390  0.805540  0.878340  1.0  -0.3434
  N  N305  1  0.121660  0.325390  0.694460  1.0  -0.3451
  N  N306  1  0.621660  0.174610  0.305540  1.0  -0.3426
  N  N307  1  0.378340  0.674610  0.194460  1.0  -0.3452
  N  N308  1  0.878340  0.825390  0.805540  1.0  -0.3428
  N  N309  1  0.694460  0.121660  0.325390  1.0  -0.3407
  N  N310  1  0.305540  0.621660  0.174610  1.0  -0.3417
  N  N311  1  0.194460  0.378340  0.674610  1.0  -0.3415
  N  N312  1  0.805540  0.878340  0.825390  1.0  -0.3399
  N  N313  1  0.444460  0.575390  0.128340  1.0  -0.343
  N  N314  1  0.055540  0.424610  0.628340  1.0  -0.3425
  N  N315  1  0.944460  0.924610  0.871660  1.0  -0.3412
  N  N316  1  0.555540  0.075390  0.371660  1.0  -0.3435
  N  N317  1  0.075390  0.371660  0.555540  1.0  -0.3403
  N  N318  1  0.924610  0.871660  0.944460  1.0  -0.3402
  N  N319  1  0.424610  0.628340  0.055540  1.0  -0.3385
  N  N320  1  0.575390  0.128340  0.444460  1.0  -0.3414
  N  N321  1  0.871660  0.944460  0.924610  1.0  -0.3412
  N  N322  1  0.371660  0.555540  0.075390  1.0  -0.3439
  N  N323  1  0.128340  0.444460  0.575390  1.0  -0.3444
  N  N324  1  0.628340  0.055540  0.424610  1.0  -0.3451
  O  O325  1  0.122630  0.629170  0.955710  1.0  -0.6102
  O  O326  1  0.101130  0.560960  0.003370  1.0  -0.6222
  O  O327  1  0.377370  0.370830  0.455710  1.0  -0.6088
  O  O328  1  0.398870  0.439040  0.503370  1.0  -0.618
  O  O329  1  0.877370  0.129170  0.544290  1.0  -0.6102
  O  O330  1  0.898870  0.060960  0.496630  1.0  -0.6204
  O  O331  1  0.622630  0.870830  0.044290  1.0  -0.6103
  O  O332  1  0.601130  0.939040  0.996630  1.0  -0.6188
  O  O333  1  0.955710  0.122630  0.629170  1.0  -0.611
  O  O334  1  0.003370  0.101130  0.560960  1.0  -0.62
  O  O335  1  0.455710  0.377370  0.370830  1.0  -0.6087
  O  O336  1  0.503370  0.398870  0.439040  1.0  -0.6203
  O  O337  1  0.544290  0.877370  0.129170  1.0  -0.6116
  O  O338  1  0.496630  0.898870  0.060960  1.0  -0.6267
  O  O339  1  0.044290  0.622630  0.870830  1.0  -0.6098
  O  O340  1  0.996630  0.601130  0.939040  1.0  -0.6255
  O  O341  1  0.629170  0.955710  0.122630  1.0  -0.6085
  O  O342  1  0.560960  0.003370  0.101130  1.0  -0.6207
  O  O343  1  0.370830  0.455710  0.377370  1.0  -0.61
  O  O344  1  0.439040  0.503370  0.398870  1.0  -0.6189
  O  O345  1  0.129170  0.544290  0.877370  1.0  -0.6097
  O  O346  1  0.060960  0.496630  0.898870  1.0  -0.6269
  O  O347  1  0.870830  0.044290  0.622630  1.0  -0.6095
  O  O348  1  0.939040  0.996630  0.601130  1.0  -0.6176
  O  O349  1  0.379170  0.372630  0.294290  1.0  -0.6115
  O  O350  1  0.310960  0.351130  0.246630  1.0  -0.6166
  O  O351  1  0.120830  0.627370  0.794290  1.0  -0.6116
  O  O352  1  0.189040  0.648870  0.746630  1.0  -0.6211
  O  O353  1  0.879170  0.127370  0.705710  1.0  -0.6106
  O  O354  1  0.810960  0.148870  0.753370  1.0  -0.6175
  O  O355  1  0.620830  0.872630  0.205710  1.0  -0.6105
  O  O356  1  0.689040  0.851130  0.253370  1.0  -0.6198
  O  O357  1  0.872630  0.205710  0.620830  1.0  -0.609
  O  O358  1  0.851130  0.253370  0.689040  1.0  -0.6208
  O  O359  1  0.127370  0.705710  0.879170  1.0  -0.611
  O  O360  1  0.148870  0.753370  0.810960  1.0  -0.6239
  O  O361  1  0.627370  0.794290  0.120830  1.0  -0.609
  O  O362  1  0.648870  0.746630  0.189040  1.0  -0.6249
  O  O363  1  0.372630  0.294290  0.379170  1.0  -0.6116
  O  O364  1  0.351130  0.246630  0.310960  1.0  -0.6196
  O  O365  1  0.705710  0.879170  0.127370  1.0  -0.6089
  O  O366  1  0.753370  0.810960  0.148870  1.0  -0.6224
  O  O367  1  0.205710  0.620830  0.872630  1.0  -0.6076
  O  O368  1  0.253370  0.689040  0.851130  1.0  -0.6213
  O  O369  1  0.294290  0.379170  0.372630  1.0  -0.6083
  O  O370  1  0.246630  0.310960  0.351130  1.0  -0.619
  O  O371  1  0.794290  0.120830  0.627370  1.0  -0.6087
  O  O372  1  0.746630  0.189040  0.648870  1.0  -0.6212
