# generated using pymatgen
data_CdH8C16(NO2)2
_symmetry_space_group_name_H-M   'P 1'
_cell_length_a   26.00100000
_cell_length_b   26.00100000
_cell_length_c   26.00100000
_cell_angle_alpha   90.00000000
_cell_angle_beta   90.00000000
_cell_angle_gamma   90.00000000
_symmetry_Int_Tables_number   1
_chemical_formula_structural   CdH8C16(NO2)2
_chemical_formula_sum   'Cd12 H96 C192 N24 O48'
_cell_volume   17578.02807800
_cell_formula_units_Z   12
loop_
 _symmetry_equiv_pos_site_id
 _symmetry_equiv_pos_as_xyz
  1  'x, y, z'
loop_
 _atom_site_type_symbol
 _atom_site_label
 _atom_site_symmetry_multiplicity
 _atom_site_fract_x
 _atom_site_fract_y
 _atom_site_fract_z
 _atom_site_occupancy
 _atom_site_charge
  Cd  Cd1  1  0.875000  0.875000  0.875000  1.0  0.9872
  Cd  Cd2  1  0.625000  0.125000  0.375000  1.0  0.9867
  Cd  Cd3  1  0.125000  0.375000  0.625000  1.0  0.9871
  Cd  Cd4  1  0.375000  0.625000  0.125000  1.0  0.9869
  Cd  Cd5  1  0.793750  0.793750  0.793750  1.0  0.8438
  Cd  Cd6  1  0.706250  0.206250  0.293750  1.0  0.8482
  Cd  Cd7  1  0.206250  0.293750  0.706250  1.0  0.8503
  Cd  Cd8  1  0.293750  0.706250  0.206250  1.0  0.8489
  Cd  Cd9  1  0.543750  0.043750  0.456250  1.0  0.8448
  Cd  Cd10  1  0.956250  0.956250  0.956250  1.0  0.843
  Cd  Cd11  1  0.043750  0.456250  0.543750  1.0  0.8477
  Cd  Cd12  1  0.456250  0.543750  0.043750  1.0  0.85
  H  H13  1  0.939300  0.748800  0.939700  1.0  0.1194
  H  H14  1  0.983300  0.614700  0.822800  1.0  0.1208
  H  H15  1  0.005900  0.694800  0.954000  1.0  0.1079
  H  H16  1  0.919500  0.675700  0.802400  1.0  0.1108
  H  H17  1  0.560700  0.251200  0.439700  1.0  0.1191
  H  H18  1  0.516700  0.385300  0.322800  1.0  0.1212
  H  H19  1  0.494100  0.305200  0.454000  1.0  0.1045
  H  H20  1  0.580500  0.324300  0.302400  1.0  0.112
  H  H21  1  0.060700  0.248800  0.560300  1.0  0.1188
  H  H22  1  0.016700  0.114700  0.677200  1.0  0.1205
  H  H23  1  0.994100  0.194800  0.546000  1.0  0.1091
  H  H24  1  0.080500  0.175700  0.697600  1.0  0.1123
  H  H25  1  0.439300  0.751200  0.060300  1.0  0.1186
  H  H26  1  0.483300  0.885300  0.177200  1.0  0.122
  H  H27  1  0.505900  0.805200  0.046000  1.0  0.1076
  H  H28  1  0.419500  0.824300  0.197600  1.0  0.1112
  H  H29  1  0.939700  0.939300  0.748800  1.0  0.1179
  H  H30  1  0.822800  0.983300  0.614700  1.0  0.1223
  H  H31  1  0.954000  0.005900  0.694800  1.0  0.107
  H  H32  1  0.802400  0.919500  0.675700  1.0  0.1127
  H  H33  1  0.439700  0.560700  0.251200  1.0  0.118
  H  H34  1  0.322800  0.516700  0.385300  1.0  0.1234
  H  H35  1  0.454000  0.494100  0.305200  1.0  0.1044
  H  H36  1  0.302400  0.580500  0.324300  1.0  0.1131
  H  H37  1  0.560300  0.060700  0.248800  1.0  0.1176
  H  H38  1  0.677200  0.016700  0.114700  1.0  0.1223
  H  H39  1  0.546000  0.994100  0.194800  1.0  0.1069
  H  H40  1  0.697600  0.080500  0.175700  1.0  0.1135
  H  H41  1  0.060300  0.439300  0.751200  1.0  0.118
  H  H42  1  0.177200  0.483300  0.885300  1.0  0.1223
  H  H43  1  0.046000  0.505900  0.805200  1.0  0.1059
  H  H44  1  0.197600  0.419500  0.824300  1.0  0.1118
  H  H45  1  0.748800  0.939700  0.939300  1.0  0.12
  H  H46  1  0.614700  0.822800  0.983300  1.0  0.1222
  H  H47  1  0.694800  0.954000  0.005900  1.0  0.1059
  H  H48  1  0.675700  0.802400  0.919500  1.0  0.1103
  H  H49  1  0.251200  0.439700  0.560700  1.0  0.12
  H  H50  1  0.385300  0.322800  0.516700  1.0  0.1221
  H  H51  1  0.305200  0.454000  0.494100  1.0  0.1037
  H  H52  1  0.324300  0.302400  0.580500  1.0  0.1109
  H  H53  1  0.248800  0.560300  0.060700  1.0  0.12
  H  H54  1  0.114700  0.677200  0.016700  1.0  0.1225
  H  H55  1  0.194800  0.546000  0.994100  1.0  0.1058
  H  H56  1  0.175700  0.697600  0.080500  1.0  0.1127
  H  H57  1  0.751200  0.060300  0.439300  1.0  0.1197
  H  H58  1  0.885300  0.177200  0.483300  1.0  0.1235
  H  H59  1  0.805200  0.046000  0.505900  1.0  0.1047
  H  H60  1  0.824300  0.197600  0.419500  1.0  0.1105
  H  H61  1  0.498800  0.189300  0.310300  1.0  0.1189
  H  H62  1  0.364700  0.233300  0.427200  1.0  0.1235
  H  H63  1  0.444800  0.255900  0.296000  1.0  0.0967
  H  H64  1  0.425700  0.169500  0.447600  1.0  0.1123
  H  H65  1  0.001200  0.810700  0.810300  1.0  0.119
  H  H66  1  0.135300  0.766700  0.927200  1.0  0.1246
  H  H67  1  0.055200  0.744100  0.796000  1.0  0.1053
  H  H68  1  0.074300  0.830500  0.947600  1.0  0.1117
  H  H69  1  0.998800  0.310700  0.689700  1.0  0.1195
  H  H70  1  0.864700  0.266700  0.572800  1.0  0.1227
  H  H71  1  0.944800  0.244100  0.704000  1.0  0.0983
  H  H72  1  0.925700  0.330500  0.552400  1.0  0.1107
  H  H73  1  0.501200  0.689300  0.189700  1.0  0.1193
  H  H74  1  0.635300  0.733300  0.072800  1.0  0.1218
  H  H75  1  0.555200  0.755900  0.204000  1.0  0.1039
  H  H76  1  0.574300  0.669500  0.052400  1.0  0.1116
  H  H77  1  0.689300  0.189700  0.501200  1.0  0.1194
  H  H78  1  0.733300  0.072800  0.635300  1.0  0.1215
  H  H79  1  0.755900  0.204000  0.555200  1.0  0.1037
  H  H80  1  0.669500  0.052400  0.574300  1.0  0.112
  H  H81  1  0.310700  0.689700  0.998800  1.0  0.1183
  H  H82  1  0.266700  0.572800  0.864700  1.0  0.1207
  H  H83  1  0.244100  0.704000  0.944800  1.0  0.0985
  H  H84  1  0.330500  0.552400  0.925700  1.0  0.112
  H  H85  1  0.810700  0.810300  0.001200  1.0  0.1188
  H  H86  1  0.766700  0.927200  0.135300  1.0  0.1215
  H  H87  1  0.744100  0.796000  0.055200  1.0  0.103
  H  H88  1  0.830500  0.947600  0.074300  1.0  0.112
  H  H89  1  0.189300  0.310300  0.498800  1.0  0.1189
  H  H90  1  0.233300  0.427200  0.364700  1.0  0.1214
  H  H91  1  0.255900  0.296000  0.444800  1.0  0.094
  H  H92  1  0.169500  0.447600  0.425700  1.0  0.1128
  H  H93  1  0.689700  0.998800  0.310700  1.0  0.118
  H  H94  1  0.572800  0.864700  0.266700  1.0  0.1213
  H  H95  1  0.704000  0.944800  0.244100  1.0  0.0996
  H  H96  1  0.552400  0.925700  0.330500  1.0  0.1121
  H  H97  1  0.189700  0.501200  0.689300  1.0  0.1187
  H  H98  1  0.072800  0.635300  0.733300  1.0  0.1225
  H  H99  1  0.204000  0.555200  0.755900  1.0  0.1042
  H  H100  1  0.052400  0.574300  0.669500  1.0  0.1121
  H  H101  1  0.310300  0.498800  0.189300  1.0  0.1192
  H  H102  1  0.427200  0.364700  0.233300  1.0  0.1224
  H  H103  1  0.296000  0.444800  0.255900  1.0  0.1016
  H  H104  1  0.447600  0.425700  0.169500  1.0  0.112
  H  H105  1  0.810300  0.001200  0.810700  1.0  0.1185
  H  H106  1  0.927200  0.135300  0.766700  1.0  0.1224
  H  H107  1  0.796000  0.055200  0.744100  1.0  0.1044
  H  H108  1  0.947600  0.074300  0.830500  1.0  0.1125
  C  C109  1  0.046000  0.615300  0.902000  1.0  0.2376
  C  C110  1  0.949200  0.723900  0.916000  1.0  -0.0878
  C  C111  1  0.976300  0.641900  0.844900  1.0  -0.0758
  C  C112  1  0.987400  0.690600  0.923700  1.0  -0.0346
  C  C113  1  0.003800  0.648500  0.890500  1.0  0.0672
  C  C114  1  0.925600  0.717100  0.867900  1.0  -0.1231
  C  C115  1  0.879500  0.749400  0.845400  1.0  0.7115
  C  C116  1  0.937300  0.678000  0.833300  1.0  -0.105
  C  C117  1  0.454000  0.384700  0.402000  1.0  0.2529
  C  C118  1  0.550800  0.276100  0.416000  1.0  -0.0867
  C  C119  1  0.523700  0.358100  0.344900  1.0  -0.0733
  C  C120  1  0.512600  0.309400  0.423700  1.0  -0.0345
  C  C121  1  0.496200  0.351500  0.390500  1.0  0.0761
  C  C122  1  0.574400  0.282900  0.367900  1.0  -0.12
  C  C123  1  0.620500  0.250600  0.345400  1.0  0.7081
  C  C124  1  0.562700  0.322000  0.333333  1.0  -0.1104
  C  C125  1  0.954000  0.115300  0.598000  1.0  0.235
  C  C126  1  0.050800  0.223900  0.584000  1.0  -0.0851
  C  C127  1  0.023700  0.141900  0.655100  1.0  -0.0736
  C  C128  1  0.012600  0.190600  0.576300  1.0  -0.0373
  C  C129  1  0.996200  0.148500  0.609500  1.0  0.0707
  C  C130  1  0.074400  0.217100  0.632100  1.0  -0.1189
  C  C131  1  0.120500  0.249400  0.654600  1.0  0.7094
  C  C132  1  0.062700  0.178000  0.666667  1.0  -0.1096
  C  C133  1  0.546000  0.884700  0.098000  1.0  0.241
  C  C134  1  0.449200  0.776100  0.084000  1.0  -0.0852
  C  C135  1  0.476300  0.858100  0.155100  1.0  -0.074
  C  C136  1  0.487400  0.809400  0.076300  1.0  -0.0379
  C  C137  1  0.503800  0.851500  0.109500  1.0  0.0704
  C  C138  1  0.425600  0.782900  0.132100  1.0  -0.1239
  C  C139  1  0.379500  0.750600  0.154600  1.0  0.7106
  C  C140  1  0.437300  0.822000  0.166700  1.0  -0.1035
  C  C141  1  0.902000  0.046000  0.615300  1.0  0.2381
  C  C142  1  0.916000  0.949200  0.723900  1.0  -0.0848
  C  C143  1  0.844900  0.976300  0.641900  1.0  -0.0783
  C  C144  1  0.923700  0.987400  0.690600  1.0  -0.0325
  C  C145  1  0.890500  0.003800  0.648500  1.0  0.0708
  C  C146  1  0.867900  0.925600  0.717100  1.0  -0.1228
  C  C147  1  0.845400  0.879500  0.749400  1.0  0.7043
  C  C148  1  0.833300  0.937300  0.678000  1.0  -0.1084
  C  C149  1  0.402000  0.454000  0.384700  1.0  0.2531
  C  C150  1  0.416000  0.550800  0.276100  1.0  -0.0846
  C  C151  1  0.344900  0.523700  0.358100  1.0  -0.0797
  C  C152  1  0.423700  0.512600  0.309400  1.0  -0.0352
  C  C153  1  0.390500  0.496200  0.351500  1.0  0.0764
  C  C154  1  0.367900  0.574400  0.282900  1.0  -0.1154
  C  C155  1  0.345400  0.620500  0.250600  1.0  0.7066
  C  C156  1  0.333333  0.562700  0.322000  1.0  -0.1131
  C  C157  1  0.598000  0.954000  0.115300  1.0  0.2346
  C  C158  1  0.584000  0.050800  0.223900  1.0  -0.0846
  C  C159  1  0.655100  0.023700  0.141900  1.0  -0.0791
  C  C160  1  0.576300  0.012600  0.190600  1.0  -0.0329
  C  C161  1  0.609500  0.996200  0.148500  1.0  0.0722
  C  C162  1  0.632100  0.074400  0.217100  1.0  -0.1161
  C  C163  1  0.654600  0.120500  0.249400  1.0  0.7061
  C  C164  1  0.666667  0.062700  0.178000  1.0  -0.1157
  C  C165  1  0.098000  0.546000  0.884700  1.0  0.2414
  C  C166  1  0.084000  0.449200  0.776100  1.0  -0.0842
  C  C167  1  0.155100  0.476300  0.858100  1.0  -0.0796
  C  C168  1  0.076300  0.487400  0.809400  1.0  -0.0323
  C  C169  1  0.109500  0.503800  0.851500  1.0  0.0687
  C  C170  1  0.132100  0.425600  0.782900  1.0  -0.1221
  C  C171  1  0.154600  0.379500  0.750600  1.0  0.7041
  C  C172  1  0.166700  0.437300  0.822000  1.0  -0.1112
  C  C173  1  0.615300  0.902000  0.046000  1.0  0.2376
  C  C174  1  0.723900  0.916000  0.949200  1.0  -0.0883
  C  C175  1  0.641900  0.844900  0.976300  1.0  -0.0791
  C  C176  1  0.690600  0.923700  0.987400  1.0  -0.0384
  C  C177  1  0.648500  0.890500  0.003800  1.0  0.0712
  C  C178  1  0.717100  0.867900  0.925600  1.0  -0.1215
  C  C179  1  0.749400  0.845400  0.879500  1.0  0.7093
  C  C180  1  0.678000  0.833300  0.937300  1.0  -0.1055
  C  C181  1  0.384700  0.402000  0.454000  1.0  0.2537
  C  C182  1  0.276100  0.416000  0.550800  1.0  -0.0912
  C  C183  1  0.358100  0.344900  0.523700  1.0  -0.0809
  C  C184  1  0.309400  0.423700  0.512600  1.0  -0.0397
  C  C185  1  0.351500  0.390500  0.496200  1.0  0.0786
  C  C186  1  0.282900  0.367900  0.574400  1.0  -0.109
  C  C187  1  0.250600  0.345400  0.620500  1.0  0.7126
  C  C188  1  0.322000  0.333333  0.562700  1.0  -0.1124
  C  C189  1  0.115300  0.598000  0.954000  1.0  0.2348
  C  C190  1  0.223900  0.584000  0.050800  1.0  -0.0915
  C  C191  1  0.141900  0.655100  0.023700  1.0  -0.0802
  C  C192  1  0.190600  0.576300  0.012600  1.0  -0.0396
  C  C193  1  0.148500  0.609500  0.996200  1.0  0.0717
  C  C194  1  0.217100  0.632100  0.074400  1.0  -0.1122
  C  C195  1  0.249400  0.654600  0.120500  1.0  0.7105
  C  C196  1  0.178000  0.666667  0.062700  1.0  -0.1123
  C  C197  1  0.884700  0.098000  0.546000  1.0  0.2412
  C  C198  1  0.776100  0.084000  0.449200  1.0  -0.0909
  C  C199  1  0.858100  0.155100  0.476300  1.0  -0.0812
  C  C200  1  0.809400  0.076300  0.487400  1.0  -0.0369
  C  C201  1  0.851500  0.109500  0.503800  1.0  0.071
  C  C202  1  0.782900  0.132100  0.425600  1.0  -0.1214
  C  C203  1  0.750600  0.154600  0.379500  1.0  0.7128
  C  C204  1  0.822000  0.166700  0.437300  1.0  -0.1094
  C  C205  1  0.365300  0.296000  0.348000  1.0  0.2409
  C  C206  1  0.473900  0.199200  0.334000  1.0  -0.0876
  C  C207  1  0.391900  0.226300  0.405100  1.0  -0.0788
  C  C208  1  0.440600  0.237400  0.326300  1.0  -0.0385
  C  C209  1  0.398500  0.253800  0.359500  1.0  0.07
  C  C210  1  0.467100  0.175600  0.382100  1.0  -0.1239
  C  C211  1  0.499400  0.129500  0.404600  1.0  0.7042
  C  C212  1  0.428000  0.187300  0.416700  1.0  -0.1089
  C  C213  1  0.134700  0.704000  0.848000  1.0  0.2536
  C  C214  1  0.026100  0.800800  0.834000  1.0  -0.0887
  C  C215  1  0.108100  0.773700  0.905100  1.0  -0.0788
  C  C216  1  0.059400  0.762600  0.826300  1.0  -0.04
  C  C217  1  0.101500  0.746200  0.859500  1.0  0.0759
  C  C218  1  0.032900  0.824400  0.882100  1.0  -0.1232
  C  C219  1  0.000600  0.870500  0.904600  1.0  0.7087
  C  C220  1  0.072000  0.812700  0.916700  1.0  -0.1084
  C  C221  1  0.865300  0.204000  0.652000  1.0  0.2517
  C  C222  1  0.973900  0.300800  0.666000  1.0  -0.0894
  C  C223  1  0.891900  0.273700  0.594900  1.0  -0.0785
  C  C224  1  0.940600  0.262600  0.673700  1.0  -0.0358
  C  C225  1  0.898500  0.246200  0.640500  1.0  0.0742
  C  C226  1  0.967100  0.324400  0.617900  1.0  -0.1232
  C  C227  1  0.999400  0.370500  0.595400  1.0  0.7073
  C  C228  1  0.928000  0.312700  0.583300  1.0  -0.109
  C  C229  1  0.634700  0.796000  0.152000  1.0  0.2553
  C  C230  1  0.526100  0.699200  0.166000  1.0  -0.0921
  C  C231  1  0.608100  0.726300  0.094900  1.0  -0.08
  C  C232  1  0.559400  0.737400  0.173700  1.0  -0.0355
  C  C233  1  0.601500  0.753800  0.140500  1.0  0.0757
  C  C234  1  0.532900  0.675600  0.117900  1.0  -0.1228
  C  C235  1  0.500600  0.629500  0.095400  1.0  0.7072
  C  C236  1  0.572000  0.687300  0.083300  1.0  -0.1107
  C  C237  1  0.796000  0.152000  0.634700  1.0  0.2513
  C  C238  1  0.699200  0.166000  0.526100  1.0  -0.0854
  C  C239  1  0.726300  0.094900  0.608100  1.0  -0.0743
  C  C240  1  0.737400  0.173700  0.559400  1.0  -0.0388
  C  C241  1  0.753800  0.140500  0.601500  1.0  0.0747
  C  C242  1  0.675600  0.117900  0.532900  1.0  -0.1252
  C  C243  1  0.629500  0.095400  0.500600  1.0  0.7097
  C  C244  1  0.687300  0.083300  0.572000  1.0  -0.1069
  C  C245  1  0.204000  0.652000  0.865300  1.0  0.2532
  C  C246  1  0.300800  0.666000  0.973900  1.0  -0.0857
  C  C247  1  0.273700  0.594900  0.891900  1.0  -0.0734
  C  C248  1  0.262600  0.673700  0.940600  1.0  -0.0399
  C  C249  1  0.246200  0.640500  0.898500  1.0  0.0764
  C  C250  1  0.324400  0.617900  0.967100  1.0  -0.1282
  C  C251  1  0.370500  0.595400  0.999400  1.0  0.7082
  C  C252  1  0.312700  0.583300  0.928000  1.0  -0.1081
  C  C253  1  0.704000  0.848000  0.134700  1.0  0.2523
  C  C254  1  0.800800  0.834000  0.026100  1.0  -0.0852
  C  C255  1  0.773700  0.905100  0.108100  1.0  -0.0747
  C  C256  1  0.762600  0.826300  0.059400  1.0  -0.0389
  C  C257  1  0.746200  0.859500  0.101500  1.0  0.0759
  C  C258  1  0.824400  0.882100  0.032900  1.0  -0.1263
  C  C259  1  0.870500  0.904600  0.000600  1.0  0.7086
  C  C260  1  0.812700  0.916700  0.072000  1.0  -0.1076
  C  C261  1  0.296000  0.348000  0.365300  1.0  0.2405
  C  C262  1  0.199200  0.334000  0.473900  1.0  -0.0866
  C  C263  1  0.226300  0.405100  0.391900  1.0  -0.076
  C  C264  1  0.237400  0.326300  0.440600  1.0  -0.0387
  C  C265  1  0.253800  0.359500  0.398500  1.0  0.0701
  C  C266  1  0.175600  0.382100  0.467100  1.0  -0.1249
  C  C267  1  0.129500  0.404600  0.499400  1.0  0.7108
  C  C268  1  0.187300  0.416700  0.428000  1.0  -0.1083
  C  C269  1  0.652000  0.865300  0.204000  1.0  0.2534
  C  C270  1  0.666000  0.973900  0.300800  1.0  -0.0862
  C  C271  1  0.594900  0.891900  0.273700  1.0  -0.0787
  C  C272  1  0.673700  0.940600  0.262600  1.0  -0.0333
  C  C273  1  0.640500  0.898500  0.246200  1.0  0.076
  C  C274  1  0.617900  0.967100  0.324400  1.0  -0.1142
  C  C275  1  0.595400  0.999400  0.370500  1.0  0.7101
  C  C276  1  0.583300  0.928000  0.312700  1.0  -0.1079
  C  C277  1  0.152000  0.634700  0.796000  1.0  0.2549
  C  C278  1  0.166000  0.526100  0.699200  1.0  -0.0865
  C  C279  1  0.094900  0.608100  0.726300  1.0  -0.079
  C  C280  1  0.173700  0.559400  0.737400  1.0  -0.0309
  C  C281  1  0.140500  0.601500  0.753800  1.0  0.0771
  C  C282  1  0.117900  0.532900  0.675600  1.0  -0.1209
  C  C283  1  0.095400  0.500600  0.629500  1.0  0.7094
  C  C284  1  0.083300  0.572000  0.687300  1.0  -0.1053
  C  C285  1  0.348000  0.365300  0.296000  1.0  0.2403
  C  C286  1  0.334000  0.473900  0.199200  1.0  -0.0858
  C  C287  1  0.405100  0.391900  0.226300  1.0  -0.0803
  C  C288  1  0.326300  0.440600  0.237400  1.0  -0.0316
  C  C289  1  0.359500  0.398500  0.253800  1.0  0.0703
  C  C290  1  0.382100  0.467100  0.175600  1.0  -0.1186
  C  C291  1  0.404600  0.499400  0.129500  1.0  0.7093
  C  C292  1  0.416700  0.428000  0.187300  1.0  -0.1073
  C  C293  1  0.848000  0.134700  0.704000  1.0  0.2512
  C  C294  1  0.834000  0.026100  0.800800  1.0  -0.0877
  C  C295  1  0.905100  0.108100  0.773700  1.0  -0.077
  C  C296  1  0.826300  0.059400  0.762600  1.0  -0.0321
  C  C297  1  0.859500  0.101500  0.746200  1.0  0.0759
  C  C298  1  0.882100  0.032900  0.824400  1.0  -0.1151
  C  C299  1  0.904600  0.000600  0.870500  1.0  0.7101
  C  C300  1  0.916700  0.072000  0.812700  1.0  -0.1068
  N  N301  1  0.057000  0.574200  0.873300  1.0  -0.3178
  N  N302  1  0.443000  0.425800  0.373300  1.0  -0.3231
  N  N303  1  0.943000  0.074200  0.626700  1.0  -0.3195
  N  N304  1  0.557000  0.925800  0.126700  1.0  -0.3174
  N  N305  1  0.873300  0.057000  0.574200  1.0  -0.3189
  N  N306  1  0.373300  0.443000  0.425800  1.0  -0.3213
  N  N307  1  0.626700  0.943000  0.074200  1.0  -0.3238
  N  N308  1  0.126700  0.557000  0.925800  1.0  -0.3207
  N  N309  1  0.574200  0.873300  0.057000  1.0  -0.3167
  N  N310  1  0.425800  0.373300  0.443000  1.0  -0.3203
  N  N311  1  0.074200  0.626700  0.943000  1.0  -0.3178
  N  N312  1  0.925800  0.126700  0.557000  1.0  -0.3143
  N  N313  1  0.324200  0.307000  0.376700  1.0  -0.3176
  N  N314  1  0.175800  0.693000  0.876700  1.0  -0.3233
  N  N315  1  0.824200  0.193000  0.623300  1.0  -0.3227
  N  N316  1  0.675800  0.807000  0.123300  1.0  -0.3208
  N  N317  1  0.807000  0.123300  0.675800  1.0  -0.3195
  N  N318  1  0.193000  0.623300  0.824200  1.0  -0.3221
  N  N319  1  0.693000  0.876700  0.175800  1.0  -0.3216
  N  N320  1  0.307000  0.376700  0.324200  1.0  -0.3144
  N  N321  1  0.623300  0.824200  0.193000  1.0  -0.3203
  N  N322  1  0.123300  0.675800  0.807000  1.0  -0.3219
  N  N323  1  0.376700  0.324200  0.307000  1.0  -0.3169
  N  N324  1  0.876700  0.175800  0.693000  1.0  -0.3245
  O  O325  1  0.852800  0.740000  0.810600  1.0  -0.506
  O  O326  1  0.872300  0.785800  0.875600  1.0  -0.6747
  O  O327  1  0.647200  0.260000  0.310600  1.0  -0.508
  O  O328  1  0.627700  0.214200  0.375600  1.0  -0.6727
  O  O329  1  0.147200  0.240000  0.689400  1.0  -0.5077
  O  O330  1  0.127700  0.285800  0.624400  1.0  -0.672
  O  O331  1  0.352800  0.760000  0.189400  1.0  -0.5032
  O  O332  1  0.372300  0.714200  0.124400  1.0  -0.6721
  O  O333  1  0.810600  0.852800  0.740000  1.0  -0.5054
  O  O334  1  0.875600  0.872300  0.785800  1.0  -0.6726
  O  O335  1  0.310600  0.647200  0.260000  1.0  -0.5046
  O  O336  1  0.375600  0.627700  0.214200  1.0  -0.6706
  O  O337  1  0.689400  0.147200  0.240000  1.0  -0.5068
  O  O338  1  0.624400  0.127700  0.285800  1.0  -0.6723
  O  O339  1  0.189400  0.352800  0.760000  1.0  -0.5052
  O  O340  1  0.124400  0.372300  0.714200  1.0  -0.6728
  O  O341  1  0.740000  0.810600  0.852800  1.0  -0.5049
  O  O342  1  0.785800  0.875600  0.872300  1.0  -0.6737
  O  O343  1  0.260000  0.310600  0.647200  1.0  -0.5058
  O  O344  1  0.214200  0.375600  0.627700  1.0  -0.6731
  O  O345  1  0.240000  0.689400  0.147200  1.0  -0.5062
  O  O346  1  0.285800  0.624400  0.127700  1.0  -0.6736
  O  O347  1  0.760000  0.189400  0.352800  1.0  -0.505
  O  O348  1  0.714200  0.124400  0.372300  1.0  -0.6735
  O  O349  1  0.490000  0.102800  0.439400  1.0  -0.5116
  O  O350  1  0.535800  0.122300  0.374400  1.0  -0.6731
  O  O351  1  0.010000  0.897200  0.939400  1.0  -0.5123
  O  O352  1  0.964200  0.877700  0.874400  1.0  -0.6707
  O  O353  1  0.990000  0.397200  0.560600  1.0  -0.5087
  O  O354  1  0.035800  0.377700  0.625600  1.0  -0.6729
  O  O355  1  0.510000  0.602800  0.060600  1.0  -0.5136
  O  O356  1  0.464200  0.622300  0.125600  1.0  -0.6736
  O  O357  1  0.602800  0.060600  0.510000  1.0  -0.5089
  O  O358  1  0.622300  0.125600  0.464200  1.0  -0.6748
  O  O359  1  0.397200  0.560600  0.990000  1.0  -0.5064
  O  O360  1  0.377700  0.625600  0.035800  1.0  -0.6738
  O  O361  1  0.897200  0.939400  0.010000  1.0  -0.5107
  O  O362  1  0.877700  0.874400  0.964200  1.0  -0.6734
  O  O363  1  0.102800  0.439400  0.490000  1.0  -0.5129
  O  O364  1  0.122300  0.374400  0.535800  1.0  -0.6753
  O  O365  1  0.560600  0.990000  0.397200  1.0  -0.5045
  O  O366  1  0.625600  0.035800  0.377700  1.0  -0.6711
  O  O367  1  0.060600  0.510000  0.602800  1.0  -0.5139
  O  O368  1  0.125600  0.464200  0.622300  1.0  -0.6697
  O  O369  1  0.439400  0.490000  0.102800  1.0  -0.5132
  O  O370  1  0.374400  0.535800  0.122300  1.0  -0.6728
  O  O371  1  0.939400  0.010000  0.897200  1.0  -0.5116
  O  O372  1  0.874400  0.964200  0.877700  1.0  -0.6719
