# generated using pymatgen
data_Zn3H24C50(N2O5)3
_symmetry_space_group_name_H-M   'P 1'
_cell_length_a   17.99800000
_cell_length_b   17.99800000
_cell_length_c   25.95770000
_cell_angle_alpha   90.00000000
_cell_angle_beta   90.00000000
_cell_angle_gamma   90.00000000
_symmetry_Int_Tables_number   1
_chemical_formula_structural   Zn3H24C50(N2O5)3
_chemical_formula_sum   'Zn12 H96 C200 N24 O60'
_cell_volume   8408.42594943
_cell_formula_units_Z   4
loop_
 _symmetry_equiv_pos_site_id
 _symmetry_equiv_pos_as_xyz
  1  'x, y, z'
loop_
 _atom_site_type_symbol
 _atom_site_label
 _atom_site_symmetry_multiplicity
 _atom_site_fract_x
 _atom_site_fract_y
 _atom_site_fract_z
 _atom_site_occupancy
 _atom_site_charge
  Zn  Zn1  1  0.337060  0.750180  0.075410  1.0  1.0372
  Zn  Zn2  1  0.662940  0.249820  0.575410  1.0  1.0377
  Zn  Zn3  1  0.249820  0.337060  0.325410  1.0  1.0371
  Zn  Zn4  1  0.750180  0.662940  0.825410  1.0  1.0378
  Zn  Zn5  1  0.662940  0.750180  0.924590  1.0  1.0384
  Zn  Zn6  1  0.337060  0.249820  0.424590  1.0  1.0372
  Zn  Zn7  1  0.750180  0.337060  0.674590  1.0  1.0381
  Zn  Zn8  1  0.249820  0.662940  0.174590  1.0  1.0371
  Zn  Zn9  1  0.500000  0.751940  0.000000  1.0  1.0667
  Zn  Zn10  1  0.500000  0.248060  0.500000  1.0  1.0661
  Zn  Zn11  1  0.248060  0.500000  0.250000  1.0  1.0647
  Zn  Zn12  1  0.751940  0.500000  0.750000  1.0  1.0589
  H  H13  1  0.189700  0.553200  0.883500  1.0  0.123
  H  H14  1  0.222100  0.630600  0.951300  1.0  0.1264
  H  H15  1  0.451500  0.417100  0.753600  1.0  0.1154
  H  H16  1  0.539200  0.373400  0.694400  1.0  0.1095
  H  H17  1  0.064500  0.450800  0.829400  1.0  0.1246
  H  H18  1  0.120200  0.348200  0.696000  1.0  0.1151
  H  H19  1  0.996300  0.335000  0.675800  1.0  0.1295
  H  H20  1  0.443000  0.577000  0.933600  1.0  0.1257
  H  H21  1  0.376000  0.247000  0.619600  1.0  0.1278
  H  H22  1  0.424000  0.499000  0.868000  1.0  0.1694
  H  H23  1  0.940000  0.440000  0.813000  1.0  0.1297
  H  H24  1  0.307000  0.294000  0.682000  1.0  0.1782
  H  H25  1  0.810300  0.446800  0.383500  1.0  0.1235
  H  H26  1  0.777900  0.369400  0.451300  1.0  0.1262
  H  H27  1  0.548500  0.582900  0.253600  1.0  0.1153
  H  H28  1  0.460800  0.626600  0.194400  1.0  0.1094
  H  H29  1  0.935500  0.549200  0.329400  1.0  0.1242
  H  H30  1  0.879800  0.651800  0.196000  1.0  0.1171
  H  H31  1  0.003700  0.665000  0.175800  1.0  0.1294
  H  H32  1  0.557000  0.423000  0.433600  1.0  0.1253
  H  H33  1  0.624000  0.753000  0.119600  1.0  0.1249
  H  H34  1  0.576000  0.501000  0.368000  1.0  0.1702
  H  H35  1  0.060000  0.560000  0.313000  1.0  0.13
  H  H36  1  0.693000  0.706000  0.182000  1.0  0.1778
  H  H37  1  0.446800  0.189700  0.133500  1.0  0.1237
  H  H38  1  0.369400  0.222100  0.201300  1.0  0.1277
  H  H39  1  0.582900  0.451500  0.003600  1.0  0.115
  H  H40  1  0.626600  0.539200  0.944400  1.0  0.1093
  H  H41  1  0.549200  0.064500  0.079400  1.0  0.1239
  H  H42  1  0.651800  0.120200  0.946000  1.0  0.1152
  H  H43  1  0.665000  0.996300  0.925800  1.0  0.1299
  H  H44  1  0.423000  0.443000  0.183600  1.0  0.1252
  H  H45  1  0.753000  0.376000  0.869600  1.0  0.1249
  H  H46  1  0.501000  0.424000  0.118000  1.0  0.1685
  H  H47  1  0.560000  0.940000  0.063000  1.0  0.1292
  H  H48  1  0.706000  0.307000  0.932000  1.0  0.1795
  H  H49  1  0.553200  0.810300  0.633500  1.0  0.1243
  H  H50  1  0.630600  0.777900  0.701300  1.0  0.1284
  H  H51  1  0.417100  0.548500  0.503600  1.0  0.1149
  H  H52  1  0.373400  0.460800  0.444400  1.0  0.1092
  H  H53  1  0.450800  0.935500  0.579400  1.0  0.1246
  H  H54  1  0.348200  0.879800  0.446000  1.0  0.1148
  H  H55  1  0.335000  0.003700  0.425800  1.0  0.1294
  H  H56  1  0.577000  0.557000  0.683600  1.0  0.1253
  H  H57  1  0.247000  0.624000  0.369600  1.0  0.1273
  H  H58  1  0.499000  0.576000  0.618000  1.0  0.1689
  H  H59  1  0.440000  0.060000  0.563000  1.0  0.1278
  H  H60  1  0.294000  0.693000  0.432000  1.0  0.1804
  H  H61  1  0.810300  0.553200  0.116500  1.0  0.1234
  H  H62  1  0.777900  0.630600  0.048700  1.0  0.1264
  H  H63  1  0.548500  0.417100  0.246400  1.0  0.115
  H  H64  1  0.460800  0.373400  0.305600  1.0  0.1098
  H  H65  1  0.935500  0.450800  0.170600  1.0  0.1245
  H  H66  1  0.879800  0.348200  0.304000  1.0  0.116
  H  H67  1  0.003700  0.335000  0.324200  1.0  0.1296
  H  H68  1  0.557000  0.577000  0.066400  1.0  0.1252
  H  H69  1  0.624000  0.247000  0.380400  1.0  0.1266
  H  H70  1  0.576000  0.499000  0.132000  1.0  0.1694
  H  H71  1  0.060000  0.440000  0.187000  1.0  0.1287
  H  H72  1  0.693000  0.294000  0.318000  1.0  0.1772
  H  H73  1  0.189700  0.446800  0.616500  1.0  0.1225
  H  H74  1  0.222100  0.369400  0.548700  1.0  0.1258
  H  H75  1  0.451500  0.582900  0.746400  1.0  0.1156
  H  H76  1  0.539200  0.626600  0.805600  1.0  0.1097
  H  H77  1  0.064500  0.549200  0.670600  1.0  0.1246
  H  H78  1  0.120200  0.651800  0.804000  1.0  0.1157
  H  H79  1  0.996300  0.665000  0.824200  1.0  0.1294
  H  H80  1  0.443000  0.423000  0.566400  1.0  0.1259
  H  H81  1  0.376000  0.753000  0.880400  1.0  0.1259
  H  H82  1  0.424000  0.501000  0.632000  1.0  0.1685
  H  H83  1  0.940000  0.560000  0.687000  1.0  0.1291
  H  H84  1  0.307000  0.706000  0.818000  1.0  0.1811
  H  H85  1  0.553200  0.189700  0.866500  1.0  0.1245
  H  H86  1  0.630600  0.222100  0.798700  1.0  0.1269
  H  H87  1  0.417100  0.451500  0.996400  1.0  0.1144
  H  H88  1  0.373400  0.539200  0.055600  1.0  0.1094
  H  H89  1  0.450800  0.064500  0.920600  1.0  0.1245
  H  H90  1  0.348200  0.120200  0.054000  1.0  0.1152
  H  H91  1  0.335000  0.996300  0.074200  1.0  0.1298
  H  H92  1  0.577000  0.443000  0.816400  1.0  0.1253
  H  H93  1  0.247000  0.376000  0.130400  1.0  0.1275
  H  H94  1  0.499000  0.424000  0.882000  1.0  0.1674
  H  H95  1  0.440000  0.940000  0.937000  1.0  0.1276
  H  H96  1  0.294000  0.307000  0.068000  1.0  0.1829
  H  H97  1  0.446800  0.810300  0.366500  1.0  0.1245
  H  H98  1  0.369400  0.777900  0.298700  1.0  0.1296
  H  H99  1  0.582900  0.548500  0.496400  1.0  0.1146
  H  H100  1  0.626600  0.460800  0.555600  1.0  0.1094
  H  H101  1  0.549200  0.935500  0.420600  1.0  0.1248
  H  H102  1  0.651800  0.879800  0.554000  1.0  0.1156
  H  H103  1  0.665000  0.003700  0.574200  1.0  0.1295
  H  H104  1  0.423000  0.557000  0.316400  1.0  0.1255
  H  H105  1  0.753000  0.624000  0.630400  1.0  0.1251
  H  H106  1  0.501000  0.576000  0.382000  1.0  0.1687
  H  H107  1  0.560000  0.060000  0.437000  1.0  0.1278
  H  H108  1  0.706000  0.693000  0.568000  1.0  0.1793
  C  C109  1  0.333600  0.609900  0.948800  1.0  -0.1134
  C  C110  1  0.226900  0.812600  0.140800  1.0  0.3205
  C  C111  1  0.387800  0.570000  0.923410  1.0  -0.0994
  C  C112  1  0.368800  0.522900  0.883580  1.0  0.0812
  C  C113  1  0.294100  0.515000  0.869100  1.0  -0.1152
  C  C114  1  0.240100  0.556700  0.894000  1.0  -0.0311
  C  C115  1  0.259400  0.603100  0.933900  1.0  -0.0205
  C  C116  1  0.354900  0.661000  0.991710  1.0  0.7092
  C  C117  1  0.274000  0.465600  0.825100  1.0  0.358
  C  C118  1  0.468400  0.304100  0.655170  1.0  -0.1435
  C  C119  1  0.395400  0.280100  0.653000  1.0  -0.0927
  C  C120  1  0.344200  0.308400  0.686900  1.0  -0.0282
  C  C121  1  0.363600  0.359700  0.724500  1.0  -0.1171
  C  C122  1  0.437000  0.382900  0.727600  1.0  0.0243
  C  C123  1  0.489300  0.356300  0.692800  1.0  -0.0372
  C  C124  1  0.521700  0.276700  0.615800  1.0  0.6834
  C  C125  1  0.305900  0.391800  0.758100  1.0  0.3834
  C  C126  1  0.957300  0.387100  0.739400  1.0  -0.0995
  C  C127  1  0.977600  0.421200  0.785700  1.0  -0.096
  C  C128  1  0.050600  0.427600  0.797900  1.0  -0.045
  C  C129  1  0.106000  0.400500  0.764700  1.0  -0.1152
  C  C130  1  0.083600  0.366600  0.719100  1.0  -0.0317
  C  C131  1  0.010500  0.359300  0.706800  1.0  -0.0654
  C  C132  1  0.875100  0.384200  0.726440  1.0  0.6851
  C  C133  1  0.185600  0.412000  0.776600  1.0  0.3922
  C  C134  1  0.666400  0.390100  0.448800  1.0  -0.115
  C  C135  1  0.773100  0.187400  0.640800  1.0  0.3269
  C  C136  1  0.612200  0.430000  0.423410  1.0  -0.0989
  C  C137  1  0.631200  0.477100  0.383580  1.0  0.0787
  C  C138  1  0.705900  0.485000  0.369100  1.0  -0.1127
  C  C139  1  0.759900  0.443300  0.394000  1.0  -0.0318
  C  C140  1  0.740600  0.396900  0.433900  1.0  -0.0191
  C  C141  1  0.645100  0.339000  0.491710  1.0  0.71
  C  C142  1  0.726000  0.534400  0.325100  1.0  0.3579
  C  C143  1  0.531600  0.695900  0.155170  1.0  -0.1423
  C  C144  1  0.604600  0.719900  0.153000  1.0  -0.092
  C  C145  1  0.655800  0.691600  0.186900  1.0  -0.0276
  C  C146  1  0.636400  0.640300  0.224500  1.0  -0.1161
  C  C147  1  0.563000  0.617100  0.227600  1.0  0.0239
  C  C148  1  0.510700  0.643700  0.192800  1.0  -0.0367
  C  C149  1  0.478300  0.723300  0.115800  1.0  0.685
  C  C150  1  0.694100  0.608200  0.258100  1.0  0.3818
  C  C151  1  0.042700  0.612900  0.239400  1.0  -0.0986
  C  C152  1  0.022400  0.578800  0.285700  1.0  -0.0926
  C  C153  1  0.949400  0.572400  0.297900  1.0  -0.0479
  C  C154  1  0.894000  0.599500  0.264700  1.0  -0.114
  C  C155  1  0.916400  0.633400  0.219100  1.0  -0.0326
  C  C156  1  0.989500  0.640700  0.206800  1.0  -0.0656
  C  C157  1  0.124900  0.615800  0.226440  1.0  0.6851
  C  C158  1  0.814400  0.588000  0.276600  1.0  0.3878
  C  C159  1  0.390100  0.333600  0.198800  1.0  -0.1132
  C  C160  1  0.187400  0.226900  0.390800  1.0  0.3288
  C  C161  1  0.430000  0.387800  0.173410  1.0  -0.0966
  C  C162  1  0.477100  0.368800  0.133580  1.0  0.086
  C  C163  1  0.485000  0.294100  0.119100  1.0  -0.116
  C  C164  1  0.443300  0.240100  0.144000  1.0  -0.0317
  C  C165  1  0.396900  0.259400  0.183900  1.0  -0.0199
  C  C166  1  0.339000  0.354900  0.241710  1.0  0.7073
  C  C167  1  0.534400  0.274000  0.075100  1.0  0.3604
  C  C168  1  0.695900  0.468400  0.905170  1.0  -0.1455
  C  C169  1  0.719900  0.395400  0.903000  1.0  -0.0867
  C  C170  1  0.691600  0.344200  0.936900  1.0  -0.0261
  C  C171  1  0.640300  0.363600  0.974500  1.0  -0.1159
  C  C172  1  0.617100  0.437000  0.977600  1.0  0.026
  C  C173  1  0.643700  0.489300  0.942800  1.0  -0.0343
  C  C174  1  0.723300  0.521700  0.865800  1.0  0.6888
  C  C175  1  0.608200  0.305900  0.008100  1.0  0.3837
  C  C176  1  0.612900  0.957300  0.989400  1.0  -0.0979
  C  C177  1  0.578800  0.977600  0.035700  1.0  -0.0935
  C  C178  1  0.572400  0.050600  0.047900  1.0  -0.0433
  C  C179  1  0.599500  0.106000  0.014700  1.0  -0.1163
  C  C180  1  0.633400  0.083600  0.969100  1.0  -0.0268
  C  C181  1  0.640700  0.010500  0.956800  1.0  -0.0669
  C  C182  1  0.615800  0.875100  0.976440  1.0  0.6869
  C  C183  1  0.588000  0.185600  0.026600  1.0  0.3927
  C  C184  1  0.609900  0.666400  0.698800  1.0  -0.1133
  C  C185  1  0.812600  0.773100  0.890800  1.0  0.3332
  C  C186  1  0.570000  0.612200  0.673410  1.0  -0.0967
  C  C187  1  0.522900  0.631200  0.633580  1.0  0.087
  C  C188  1  0.515000  0.705900  0.619100  1.0  -0.1147
  C  C189  1  0.556700  0.759900  0.644000  1.0  -0.0313
  C  C190  1  0.603100  0.740600  0.683900  1.0  -0.021
  C  C191  1  0.661000  0.645100  0.741710  1.0  0.7092
  C  C192  1  0.465600  0.726000  0.575100  1.0  0.3605
  C  C193  1  0.304100  0.531600  0.405170  1.0  -0.1446
  C  C194  1  0.280100  0.604600  0.403000  1.0  -0.0899
  C  C195  1  0.308400  0.655800  0.436900  1.0  -0.0287
  C  C196  1  0.359700  0.636400  0.474500  1.0  -0.1146
  C  C197  1  0.382900  0.563000  0.477600  1.0  0.0241
  C  C198  1  0.356300  0.510700  0.442800  1.0  -0.0362
  C  C199  1  0.276700  0.478300  0.365800  1.0  0.6876
  C  C200  1  0.391800  0.694100  0.508100  1.0  0.3844
  C  C201  1  0.387100  0.042700  0.489400  1.0  -0.1009
  C  C202  1  0.421200  0.022400  0.535700  1.0  -0.0933
  C  C203  1  0.427600  0.949400  0.547900  1.0  -0.0424
  C  C204  1  0.400500  0.894000  0.514700  1.0  -0.1159
  C  C205  1  0.366600  0.916400  0.469100  1.0  -0.0283
  C  C206  1  0.359300  0.989500  0.456800  1.0  -0.0645
  C  C207  1  0.384200  0.124900  0.476440  1.0  0.6881
  C  C208  1  0.412000  0.814400  0.526600  1.0  0.3916
  C  C209  1  0.666400  0.609900  0.051200  1.0  -0.114
  C  C210  1  0.773100  0.812600  0.859200  1.0  0.3196
  C  C211  1  0.612200  0.570000  0.076590  1.0  -0.099
  C  C212  1  0.631200  0.522900  0.116420  1.0  0.0791
  C  C213  1  0.705900  0.515000  0.130900  1.0  -0.1144
  C  C214  1  0.759900  0.556700  0.106000  1.0  -0.0321
  C  C215  1  0.740600  0.603100  0.066100  1.0  -0.0194
  C  C216  1  0.645100  0.661000  0.008290  1.0  0.7092
  C  C217  1  0.726000  0.465600  0.174900  1.0  0.3575
  C  C218  1  0.531600  0.304100  0.344830  1.0  -0.1444
  C  C219  1  0.604600  0.280100  0.347000  1.0  -0.0915
  C  C220  1  0.655800  0.308400  0.313100  1.0  -0.0261
  C  C221  1  0.636400  0.359700  0.275500  1.0  -0.1159
  C  C222  1  0.563000  0.382900  0.272400  1.0  0.024
  C  C223  1  0.510700  0.356300  0.307200  1.0  -0.0368
  C  C224  1  0.478300  0.276700  0.384200  1.0  0.684
  C  C225  1  0.694100  0.391800  0.241900  1.0  0.3837
  C  C226  1  0.042700  0.387100  0.260600  1.0  -0.0977
  C  C227  1  0.022400  0.421200  0.214300  1.0  -0.0936
  C  C228  1  0.949400  0.427600  0.202100  1.0  -0.0419
  C  C229  1  0.894000  0.400500  0.235300  1.0  -0.116
  C  C230  1  0.916400  0.366600  0.280900  1.0  -0.0316
  C  C231  1  0.989500  0.359300  0.293200  1.0  -0.0661
  C  C232  1  0.124900  0.384200  0.273560  1.0  0.6842
  C  C233  1  0.814400  0.412000  0.223400  1.0  0.391
  C  C234  1  0.333600  0.390100  0.551200  1.0  -0.1155
  C  C235  1  0.226900  0.187400  0.359200  1.0  0.324
  C  C236  1  0.387800  0.430000  0.576590  1.0  -0.0987
  C  C237  1  0.368800  0.477100  0.616420  1.0  0.0801
  C  C238  1  0.294100  0.485000  0.630900  1.0  -0.1131
  C  C239  1  0.240100  0.443300  0.606000  1.0  -0.0332
  C  C240  1  0.259400  0.396900  0.566100  1.0  -0.019
  C  C241  1  0.354900  0.339000  0.508290  1.0  0.7092
  C  C242  1  0.274000  0.534400  0.674900  1.0  0.3578
  C  C243  1  0.468400  0.695900  0.844830  1.0  -0.1433
  C  C244  1  0.395400  0.719900  0.847000  1.0  -0.0934
  C  C245  1  0.344200  0.691600  0.813100  1.0  -0.028
  C  C246  1  0.363600  0.640300  0.775500  1.0  -0.1161
  C  C247  1  0.437000  0.617100  0.772400  1.0  0.024
  C  C248  1  0.489300  0.643700  0.807200  1.0  -0.037
  C  C249  1  0.521700  0.723300  0.884200  1.0  0.6842
  C  C250  1  0.305900  0.608200  0.741900  1.0  0.3821
  C  C251  1  0.957300  0.612900  0.760600  1.0  -0.1001
  C  C252  1  0.977600  0.578800  0.714300  1.0  -0.0961
  C  C253  1  0.050600  0.572400  0.702100  1.0  -0.0427
  C  C254  1  0.106000  0.599500  0.735300  1.0  -0.1144
  C  C255  1  0.083600  0.633400  0.780900  1.0  -0.0321
  C  C256  1  0.010500  0.640700  0.793200  1.0  -0.0652
  C  C257  1  0.875100  0.615800  0.773560  1.0  0.6845
  C  C258  1  0.185600  0.588000  0.723400  1.0  0.3891
  C  C259  1  0.609900  0.333600  0.801200  1.0  -0.1132
  C  C260  1  0.812600  0.226900  0.609200  1.0  0.3268
  C  C261  1  0.570000  0.387800  0.826590  1.0  -0.0965
  C  C262  1  0.522900  0.368800  0.866420  1.0  0.0853
  C  C263  1  0.515000  0.294100  0.880900  1.0  -0.1165
  C  C264  1  0.556700  0.240100  0.856000  1.0  -0.0332
  C  C265  1  0.603100  0.259400  0.816100  1.0  -0.0211
  C  C266  1  0.661000  0.354900  0.758290  1.0  0.7087
  C  C267  1  0.465600  0.274000  0.924900  1.0  0.36
  C  C268  1  0.304100  0.468400  0.094830  1.0  -0.1439
  C  C269  1  0.280100  0.395400  0.097000  1.0  -0.0888
  C  C270  1  0.308400  0.344200  0.063100  1.0  -0.0263
  C  C271  1  0.359700  0.363600  0.025500  1.0  -0.115
  C  C272  1  0.382900  0.437000  0.022400  1.0  0.0241
  C  C273  1  0.356300  0.489300  0.057200  1.0  -0.0362
  C  C274  1  0.276700  0.521700  0.134200  1.0  0.6873
  C  C275  1  0.391800  0.305900  0.991900  1.0  0.3838
  C  C276  1  0.387100  0.957300  0.010600  1.0  -0.1006
  C  C277  1  0.421200  0.977600  0.964300  1.0  -0.0937
  C  C278  1  0.427600  0.050600  0.952100  1.0  -0.0383
  C  C279  1  0.400500  0.106000  0.985300  1.0  -0.1159
  C  C280  1  0.366600  0.083600  0.030900  1.0  -0.0267
  C  C281  1  0.359300  0.010500  0.043200  1.0  -0.0631
  C  C282  1  0.384200  0.875100  0.023560  1.0  0.6873
  C  C283  1  0.412000  0.185600  0.973400  1.0  0.3915
  C  C284  1  0.390100  0.666400  0.301200  1.0  -0.1134
  C  C285  1  0.187400  0.773100  0.109200  1.0  0.3287
  C  C286  1  0.430000  0.612200  0.326590  1.0  -0.0965
  C  C287  1  0.477100  0.631200  0.366420  1.0  0.0859
  C  C288  1  0.485000  0.705900  0.380900  1.0  -0.1155
  C  C289  1  0.443300  0.759900  0.356000  1.0  -0.0308
  C  C290  1  0.396900  0.740600  0.316100  1.0  -0.0213
  C  C291  1  0.339000  0.645100  0.258290  1.0  0.7088
  C  C292  1  0.534400  0.726000  0.424900  1.0  0.3601
  C  C293  1  0.695900  0.531600  0.594830  1.0  -0.1459
  C  C294  1  0.719900  0.604600  0.597000  1.0  -0.0881
  C  C295  1  0.691600  0.655800  0.563100  1.0  -0.0287
  C  C296  1  0.640300  0.636400  0.525500  1.0  -0.1139
  C  C297  1  0.617100  0.563000  0.522400  1.0  0.0259
  C  C298  1  0.643700  0.510700  0.557200  1.0  -0.0345
  C  C299  1  0.723300  0.478300  0.634200  1.0  0.6901
  C  C300  1  0.608200  0.694100  0.491900  1.0  0.3829
  C  C301  1  0.612900  0.042700  0.510600  1.0  -0.0998
  C  C302  1  0.578800  0.022400  0.464300  1.0  -0.0949
  C  C303  1  0.572400  0.949400  0.452100  1.0  -0.0391
  C  C304  1  0.599500  0.894000  0.485300  1.0  -0.1165
  C  C305  1  0.633400  0.916400  0.530900  1.0  -0.0298
  C  C306  1  0.640700  0.989500  0.543200  1.0  -0.0639
  C  C307  1  0.615800  0.124900  0.523560  1.0  0.686
  C  C308  1  0.588000  0.814400  0.473400  1.0  0.3921
  N  N309  1  0.235600  0.378400  0.746900  1.0  -0.3625
  N  N310  1  0.201900  0.454800  0.816460  1.0  -0.4724
  N  N311  1  0.328900  0.435900  0.797580  1.0  -0.4373
  N  N312  1  0.764400  0.621600  0.246900  1.0  -0.3637
  N  N313  1  0.798100  0.545200  0.316460  1.0  -0.4702
  N  N314  1  0.671100  0.564100  0.297580  1.0  -0.4393
  N  N315  1  0.621600  0.235600  0.996900  1.0  -0.3613
  N  N316  1  0.545200  0.201900  0.066460  1.0  -0.4691
  N  N317  1  0.564100  0.328900  0.047580  1.0  -0.4384
  N  N318  1  0.378400  0.764400  0.496900  1.0  -0.3597
  N  N319  1  0.454800  0.798100  0.566460  1.0  -0.4715
  N  N320  1  0.435900  0.671100  0.547580  1.0  -0.4379
  N  N321  1  0.764400  0.378400  0.253100  1.0  -0.3616
  N  N322  1  0.798100  0.454800  0.183540  1.0  -0.4721
  N  N323  1  0.671100  0.435900  0.202420  1.0  -0.4393
  N  N324  1  0.235600  0.621600  0.753100  1.0  -0.3637
  N  N325  1  0.201900  0.545200  0.683540  1.0  -0.4696
  N  N326  1  0.328900  0.564100  0.702420  1.0  -0.4372
  N  N327  1  0.378400  0.235600  0.003100  1.0  -0.3595
  N  N328  1  0.454800  0.201900  0.933540  1.0  -0.4696
  N  N329  1  0.435900  0.328900  0.952420  1.0  -0.4388
  N  N330  1  0.621600  0.764400  0.503100  1.0  -0.3628
  N  N331  1  0.545200  0.798100  0.433540  1.0  -0.4669
  N  N332  1  0.564100  0.671100  0.452420  1.0  -0.4377
  O  O333  1  0.422650  0.666430  0.002160  1.0  -0.5828
  O  O334  1  0.303320  0.693920  0.015810  1.0  -0.5738
  O  O335  1  0.590670  0.290200  0.623490  1.0  -0.5988
  O  O336  1  0.497120  0.240450  0.579240  1.0  -0.602
  O  O337  1  0.857630  0.346400  0.686190  1.0  -0.5824
  O  O338  1  0.831340  0.416160  0.754940  1.0  -0.5839
  O  O339  1  0.186000  0.823400  0.177700  1.0  -0.4759
  O  O340  1  0.577350  0.333570  0.502160  1.0  -0.5814
  O  O341  1  0.696680  0.306080  0.515810  1.0  -0.5724
  O  O342  1  0.409330  0.709800  0.123490  1.0  -0.5988
  O  O343  1  0.502880  0.759550  0.079240  1.0  -0.6023
  O  O344  1  0.142370  0.653600  0.186190  1.0  -0.5819
  O  O345  1  0.168660  0.583840  0.254940  1.0  -0.5858
  O  O346  1  0.814000  0.176600  0.677700  1.0  -0.476
  O  O347  1  0.333570  0.422650  0.252160  1.0  -0.5843
  O  O348  1  0.306080  0.303320  0.265810  1.0  -0.5732
  O  O349  1  0.709800  0.590670  0.873490  1.0  -0.6001
  O  O350  1  0.759550  0.497120  0.829240  1.0  -0.6013
  O  O351  1  0.653600  0.857630  0.936190  1.0  -0.5836
  O  O352  1  0.583840  0.831340  0.004940  1.0  -0.585
  O  O353  1  0.176600  0.186000  0.427700  1.0  -0.4748
  O  O354  1  0.666430  0.577350  0.752160  1.0  -0.5822
  O  O355  1  0.693920  0.696680  0.765810  1.0  -0.5729
  O  O356  1  0.290200  0.409330  0.373490  1.0  -0.5989
  O  O357  1  0.240450  0.502880  0.329240  1.0  -0.6013
  O  O358  1  0.346400  0.142370  0.436190  1.0  -0.5826
  O  O359  1  0.416160  0.168660  0.504940  1.0  -0.5848
  O  O360  1  0.823400  0.814000  0.927700  1.0  -0.4754
  O  O361  1  0.577350  0.666430  0.997840  1.0  -0.5814
  O  O362  1  0.696680  0.693920  0.984190  1.0  -0.5714
  O  O363  1  0.409330  0.290200  0.376510  1.0  -0.5988
  O  O364  1  0.502880  0.240450  0.420760  1.0  -0.6025
  O  O365  1  0.142370  0.346400  0.313810  1.0  -0.5826
  O  O366  1  0.168660  0.416160  0.245060  1.0  -0.5848
  O  O367  1  0.814000  0.823400  0.822300  1.0  -0.4779
  O  O368  1  0.422650  0.333570  0.497840  1.0  -0.5829
  O  O369  1  0.303320  0.306080  0.484190  1.0  -0.5736
  O  O370  1  0.590670  0.709800  0.876510  1.0  -0.5987
  O  O371  1  0.497120  0.759550  0.920760  1.0  -0.6033
  O  O372  1  0.857630  0.653600  0.813810  1.0  -0.5811
  O  O373  1  0.831340  0.583840  0.745060  1.0  -0.583
  O  O374  1  0.186000  0.176600  0.322300  1.0  -0.4778
  O  O375  1  0.666430  0.422650  0.747840  1.0  -0.5834
  O  O376  1  0.693920  0.303320  0.734190  1.0  -0.5718
  O  O377  1  0.290200  0.590670  0.126510  1.0  -0.5994
  O  O378  1  0.240450  0.497120  0.170760  1.0  -0.6015
  O  O379  1  0.346400  0.857630  0.063810  1.0  -0.5828
  O  O380  1  0.416160  0.831340  0.995060  1.0  -0.5843
  O  O381  1  0.823400  0.186000  0.572300  1.0  -0.4773
  O  O382  1  0.333570  0.577350  0.247840  1.0  -0.5827
  O  O383  1  0.306080  0.696680  0.234190  1.0  -0.5735
  O  O384  1  0.709800  0.409330  0.626510  1.0  -0.6005
  O  O385  1  0.759550  0.502880  0.670760  1.0  -0.6015
  O  O386  1  0.653600  0.142370  0.563810  1.0  -0.5835
  O  O387  1  0.583840  0.168660  0.495060  1.0  -0.5842
  O  O388  1  0.176600  0.814000  0.072300  1.0  -0.478
  O  O389  1  0.251490  0.748510  0.125000  1.0  -0.5623
  O  O390  1  0.748510  0.251490  0.625000  1.0  -0.5648
  O  O391  1  0.251490  0.251490  0.375000  1.0  -0.5634
  O  O392  1  0.748510  0.748510  0.875000  1.0  -0.5636
