# generated using pymatgen
data_Zn3H16(C2O)16
_symmetry_space_group_name_H-M   'P 1'
_cell_length_a   9.76690000
_cell_length_b   17.36050000
_cell_length_c   18.22600000
_cell_angle_alpha   93.53310000
_cell_angle_beta   90.00000000
_cell_angle_gamma   106.33800000
_symmetry_Int_Tables_number   1
_chemical_formula_structural   Zn3H16(C2O)16
_chemical_formula_sum   'Zn6 H32 C64 O32'
_cell_volume   2959.45526038
_cell_formula_units_Z   2
loop_
 _symmetry_equiv_pos_site_id
 _symmetry_equiv_pos_as_xyz
  1  'x, y, z'
loop_
 _atom_site_type_symbol
 _atom_site_label
 _atom_site_symmetry_multiplicity
 _atom_site_fract_x
 _atom_site_fract_y
 _atom_site_fract_z
 _atom_site_occupancy
 _atom_site_charge
  Zn  Zn1  1  0.148310  0.694400  0.516180  1.0  1.0597
  Zn  Zn2  1  0.453910  0.305600  0.983820  1.0  1.0616
  Zn  Zn3  1  0.851690  0.305600  0.483820  1.0  1.0612
  Zn  Zn4  1  0.546090  0.694400  0.016180  1.0  1.0596
  Zn  Zn5  1  0.000000  0.500000  0.500000  1.0  1.1058
  Zn  Zn6  1  0.500000  0.500000  0.000000  1.0  1.1058
  H  H7  1  0.537600  0.578800  0.608900  1.0  0.1149
  H  H8  1  0.856000  0.501400  0.720200  1.0  0.1155
  H  H9  1  0.313100  0.498600  0.421500  1.0  0.1157
  H  H10  1  0.801000  0.742200  0.817000  1.0  0.1178
  H  H11  1  0.751600  0.507400  0.832000  1.0  0.105
  H  H12  1  0.910800  0.736800  0.705900  1.0  0.1202
  H  H13  1  0.321900  0.950400  0.581600  1.0  0.1212
  H  H14  1  0.560900  0.913000  0.413800  1.0  0.1218
  H  H15  1  0.958800  0.421200  0.891100  1.0  0.1143
  H  H16  1  0.354600  0.498600  0.779800  1.0  0.115
  H  H17  1  0.814500  0.501400  0.078500  1.0  0.1159
  H  H18  1  0.058800  0.257800  0.683000  1.0  0.1181
  H  H19  1  0.244200  0.492600  0.668000  1.0  0.1054
  H  H20  1  0.174000  0.263200  0.794100  1.0  0.1193
  H  H21  1  0.371500  0.049600  0.918400  1.0  0.1212
  H  H22  1  0.647900  0.087000  0.086200  1.0  0.1217
  H  H23  1  0.462400  0.421200  0.391100  1.0  0.1142
  H  H24  1  0.144000  0.498600  0.279800  1.0  0.1149
  H  H25  1  0.686900  0.501400  0.578500  1.0  0.1166
  H  H26  1  0.199000  0.257800  0.183000  1.0  0.1181
  H  H27  1  0.248400  0.492600  0.168000  1.0  0.105
  H  H28  1  0.089200  0.263200  0.294100  1.0  0.1191
  H  H29  1  0.678100  0.049600  0.418400  1.0  0.1213
  H  H30  1  0.439100  0.087000  0.586200  1.0  0.1216
  H  H31  1  0.041200  0.578800  0.108900  1.0  0.1148
  H  H32  1  0.645400  0.501400  0.220200  1.0  0.1153
  H  H33  1  0.185500  0.498600  0.921500  1.0  0.116
  H  H34  1  0.941200  0.742200  0.317000  1.0  0.1176
  H  H35  1  0.755800  0.507400  0.332000  1.0  0.1048
  H  H36  1  0.826000  0.736800  0.205900  1.0  0.1204
  H  H37  1  0.628500  0.950400  0.081600  1.0  0.1212
  H  H38  1  0.352100  0.913000  0.913800  1.0  0.1212
  C  C39  1  0.346600  0.831000  0.490400  1.0  0.6864
  C  C40  1  0.522790  0.547180  0.564900  1.0  -0.0214
  C  C41  1  0.411250  0.547900  0.518400  1.0  -0.1357
  C  C42  1  0.764940  0.626080  0.836100  1.0  -0.1272
  C  C43  1  0.845530  0.550060  0.739800  1.0  -0.0323
  C  C44  1  0.894370  0.619140  0.700700  1.0  -0.1462
  C  C45  1  0.692010  0.628420  0.907900  1.0  0.726
  C  C46  1  0.388540  0.499280  0.452900  1.0  -0.0346
  C  C47  1  0.812590  0.693580  0.797800  1.0  -0.0357
  C  C48  1  0.964480  0.614760  0.627900  1.0  0.7231
  C  C49  1  0.782680  0.553560  0.806300  1.0  -0.0248
  C  C50  1  0.877700  0.690200  0.730800  1.0  -0.024
  C  C51  1  0.316830  0.600660  0.538100  1.0  0.6769
  C  C52  1  0.427820  0.917640  0.495600  1.0  -0.1215
  C  C53  1  0.393380  0.970160  0.548200  1.0  -0.0496
  C  C54  1  0.534980  0.947560  0.448500  1.0  -0.0396
  C  C55  1  0.515600  0.169000  0.009600  1.0  0.6859
  C  C56  1  0.975610  0.452820  0.935100  1.0  -0.0207
  C  C57  1  0.863350  0.452100  0.981600  1.0  -0.1368
  C  C58  1  0.138860  0.373920  0.663900  1.0  -0.1282
  C  C59  1  0.295470  0.449940  0.760200  1.0  -0.0322
  C  C60  1  0.275230  0.380860  0.799300  1.0  -0.1466
  C  C61  1  0.063590  0.371580  0.592100  1.0  0.7252
  C  C62  1  0.889260  0.500720  0.047100  1.0  -0.0366
  C  C63  1  0.119010  0.306420  0.702200  1.0  -0.0371
  C  C64  1  0.349720  0.385240  0.872100  1.0  0.7225
  C  C65  1  0.229120  0.446440  0.693700  1.0  -0.0252
  C  C66  1  0.187500  0.309800  0.769200  1.0  -0.0265
  C  C67  1  0.716170  0.399340  0.961900  1.0  0.6759
  C  C68  1  0.510180  0.082360  0.004400  1.0  -0.1218
  C  C69  1  0.423220  0.029840  0.951800  1.0  -0.0479
  C  C70  1  0.587420  0.052440  0.051500  1.0  -0.039
  C  C71  1  0.653400  0.169000  0.509600  1.0  0.6859
  C  C72  1  0.477210  0.452820  0.435100  1.0  -0.02
  C  C73  1  0.588750  0.452100  0.481600  1.0  -0.1366
  C  C74  1  0.235060  0.373920  0.163900  1.0  -0.1287
  C  C75  1  0.154470  0.449940  0.260200  1.0  -0.0318
  C  C76  1  0.105630  0.380860  0.299300  1.0  -0.1455
  C  C77  1  0.307990  0.371580  0.092100  1.0  0.7249
  C  C78  1  0.611460  0.500720  0.547100  1.0  -0.0342
  C  C79  1  0.187410  0.306420  0.202200  1.0  -0.0377
  C  C80  1  0.035520  0.385240  0.372100  1.0  0.7221
  C  C81  1  0.217320  0.446440  0.193700  1.0  -0.025
  C  C82  1  0.122300  0.309800  0.269200  1.0  -0.0266
  C  C83  1  0.683170  0.399340  0.461900  1.0  0.6763
  C  C84  1  0.572180  0.082360  0.504400  1.0  -0.1218
  C  C85  1  0.606620  0.029840  0.451800  1.0  -0.0475
  C  C86  1  0.465020  0.052440  0.551500  1.0  -0.0405
  C  C87  1  0.484400  0.831000  0.990400  1.0  0.6864
  C  C88  1  0.024390  0.547180  0.064900  1.0  -0.0208
  C  C89  1  0.136650  0.547900  0.018400  1.0  -0.1359
  C  C90  1  0.861140  0.626080  0.336100  1.0  -0.128
  C  C91  1  0.704530  0.550060  0.239800  1.0  -0.0323
  C  C92  1  0.724770  0.619140  0.200700  1.0  -0.1462
  C  C93  1  0.936410  0.628420  0.407900  1.0  0.7256
  C  C94  1  0.110740  0.499280  0.952900  1.0  -0.0323
  C  C95  1  0.880990  0.693580  0.297800  1.0  -0.0355
  C  C96  1  0.650280  0.614760  0.127900  1.0  0.7225
  C  C97  1  0.770880  0.553560  0.306300  1.0  -0.0246
  C  C98  1  0.812500  0.690200  0.230800  1.0  -0.0244
  C  C99  1  0.283830  0.600660  0.038100  1.0  0.6778
  C  C100  1  0.489820  0.917640  0.995600  1.0  -0.1214
  C  C101  1  0.576780  0.970160  0.048200  1.0  -0.0478
  C  C102  1  0.412580  0.947560  0.948500  1.0  -0.0393
  O  O103  1  0.021890  0.680980  0.600450  1.0  -0.5857
  O  O104  1  0.963660  0.546920  0.600880  1.0  -0.5905
  O  O105  1  0.667610  0.568020  0.944830  1.0  -0.6002
  O  O106  1  0.345900  0.649600  0.591800  1.0  -0.5335
  O  O107  1  0.658670  0.691740  0.925980  1.0  -0.5747
  O  O108  1  0.209670  0.595740  0.494360  1.0  -0.661
  O  O109  1  0.252840  0.807280  0.537000  1.0  -0.575
  O  O110  1  0.373700  0.785400  0.441900  1.0  -0.4404
  O  O111  1  0.340910  0.319020  0.899550  1.0  -0.587
  O  O112  1  0.416740  0.453080  0.899120  1.0  -0.5921
  O  O113  1  0.099590  0.431980  0.555170  1.0  -0.6004
  O  O114  1  0.696300  0.350400  0.908200  1.0  -0.5323
  O  O115  1  0.966930  0.308260  0.574020  1.0  -0.5762
  O  O116  1  0.613930  0.404260  0.005640  1.0  -0.6607
  O  O117  1  0.445560  0.192720  0.963000  1.0  -0.5737
  O  O118  1  0.588300  0.214600  0.058100  1.0  -0.4392
  O  O119  1  0.978110  0.319020  0.399550  1.0  -0.5872
  O  O120  1  0.036340  0.453080  0.399120  1.0  -0.5934
  O  O121  1  0.332390  0.431980  0.055170  1.0  -0.5997
  O  O122  1  0.654100  0.350400  0.408200  1.0  -0.5328
  O  O123  1  0.341330  0.308260  0.074020  1.0  -0.5762
  O  O124  1  0.790330  0.404260  0.505640  1.0  -0.6614
  O  O125  1  0.747160  0.192720  0.463000  1.0  -0.573
  O  O126  1  0.626300  0.214600  0.558100  1.0  -0.4397
  O  O127  1  0.659090  0.680980  0.100450  1.0  -0.5854
  O  O128  1  0.583260  0.546920  0.100880  1.0  -0.5887
  O  O129  1  0.900410  0.568020  0.444830  1.0  -0.5998
  O  O130  1  0.303700  0.649600  0.091800  1.0  -0.534
  O  O131  1  0.033070  0.691740  0.425980  1.0  -0.5752
  O  O132  1  0.386070  0.595740  0.994360  1.0  -0.6622
  O  O133  1  0.554440  0.807280  0.037000  1.0  -0.574
  O  O134  1  0.411700  0.785400  0.941900  1.0  -0.4415
