# generated using pymatgen
data_Zn3H24C42(NO6)2
_symmetry_space_group_name_H-M   'P 1'
_cell_length_a   14.81120000
_cell_length_b   14.81120000
_cell_length_c   16.55890000
_cell_angle_alpha   102.82600000
_cell_angle_beta   102.82600000
_cell_angle_gamma   115.99400000
_symmetry_Int_Tables_number   1
_chemical_formula_structural   Zn3H24C42(NO6)2
_chemical_formula_sum   'Zn6 H48 C84 N4 O24'
_cell_volume   2964.83254233
_cell_formula_units_Z   2
loop_
 _symmetry_equiv_pos_site_id
 _symmetry_equiv_pos_as_xyz
  1  'x, y, z'
loop_
 _atom_site_type_symbol
 _atom_site_label
 _atom_site_symmetry_multiplicity
 _atom_site_fract_x
 _atom_site_fract_y
 _atom_site_fract_z
 _atom_site_occupancy
 _atom_site_charge
  Zn  Zn1  1  0.047220  0.434380  0.936190  1.0  1.086
  Zn  Zn2  1  0.565620  0.952780  0.563810  1.0  1.0898
  Zn  Zn3  1  0.952780  0.565620  0.063810  1.0  1.0873
  Zn  Zn4  1  0.434380  0.047220  0.436190  1.0  1.0892
  Zn  Zn5  1  0.829300  0.170700  0.750000  1.0  1.041
  Zn  Zn6  1  0.170700  0.829300  0.250000  1.0  1.0412
  H  H7  1  0.995200  0.045000  0.835900  1.0  0.1041
  H  H8  1  0.091900  0.959700  0.849000  1.0  0.1149
  H  H9  1  0.365500  0.242900  0.920400  1.0  0.1278
  H  H10  1  0.266600  0.326400  0.904600  1.0  0.1071
  H  H11  1  0.627700  0.105300  0.913000  1.0  0.0851
  H  H12  1  0.492500  0.077300  0.971100  1.0  0.1174
  H  H13  1  0.305100  0.060900  0.745600  1.0  0.1239
  H  H14  1  0.438000  0.085800  0.687300  1.0  0.1034
  H  H15  1  0.122900  0.836300  0.033900  1.0  0.1006
  H  H16  1  0.206300  0.997300  0.011900  1.0  0.1336
  H  H17  1  0.299300  0.861900  0.834300  1.0  0.113
  H  H18  1  0.222200  0.704400  0.861700  1.0  0.1076
  H  H19  1  0.955000  0.004800  0.664100  1.0  0.103
  H  H20  1  0.040300  0.908100  0.651000  1.0  0.1134
  H  H21  1  0.757100  0.634500  0.579600  1.0  0.128
  H  H22  1  0.673600  0.733400  0.595400  1.0  0.1075
  H  H23  1  0.894700  0.372300  0.587000  1.0  0.0843
  H  H24  1  0.922700  0.507500  0.528900  1.0  0.1182
  H  H25  1  0.939100  0.694900  0.754400  1.0  0.1222
  H  H26  1  0.914200  0.562000  0.812700  1.0  0.1021
  H  H27  1  0.163700  0.877100  0.466100  1.0  0.1015
  H  H28  1  0.002700  0.793700  0.488100  1.0  0.1348
  H  H29  1  0.138100  0.700700  0.665700  1.0  0.1126
  H  H30  1  0.295600  0.777800  0.638300  1.0  0.1071
  H  H31  1  0.004800  0.955000  0.164100  1.0  0.1041
  H  H32  1  0.908100  0.040300  0.151000  1.0  0.1149
  H  H33  1  0.634500  0.757100  0.079600  1.0  0.1268
  H  H34  1  0.733400  0.673600  0.095400  1.0  0.1065
  H  H35  1  0.372300  0.894700  0.087000  1.0  0.0845
  H  H36  1  0.507500  0.922700  0.028900  1.0  0.1178
  H  H37  1  0.694900  0.939100  0.254400  1.0  0.1233
  H  H38  1  0.562000  0.914200  0.312700  1.0  0.1032
  H  H39  1  0.877100  0.163700  0.966100  1.0  0.1009
  H  H40  1  0.793700  0.002700  0.988100  1.0  0.1335
  H  H41  1  0.700700  0.138100  0.165700  1.0  0.1119
  H  H42  1  0.777800  0.295600  0.138300  1.0  0.1072
  H  H43  1  0.045000  0.995200  0.335900  1.0  0.1041
  H  H44  1  0.959700  0.091900  0.349000  1.0  0.1133
  H  H45  1  0.242900  0.365500  0.420400  1.0  0.1265
  H  H46  1  0.326400  0.266600  0.404600  1.0  0.1085
  H  H47  1  0.105300  0.627700  0.413000  1.0  0.0846
  H  H48  1  0.077300  0.492500  0.471100  1.0  0.1178
  H  H49  1  0.060900  0.305100  0.245600  1.0  0.1216
  H  H50  1  0.085800  0.438000  0.187300  1.0  0.1024
  H  H51  1  0.836300  0.122900  0.533900  1.0  0.1012
  H  H52  1  0.997300  0.206300  0.511900  1.0  0.1332
  H  H53  1  0.861900  0.299300  0.334300  1.0  0.1134
  H  H54  1  0.704400  0.222200  0.361700  1.0  0.1069
  C  C55  1  0.054380  0.247020  0.861900  1.0  0.7113
  C  C56  1  0.120640  0.194960  0.869600  1.0  -0.1845
  C  C57  1  0.069780  0.084820  0.852900  1.0  0.0071
  C  C58  1  0.127700  0.033500  0.861100  1.0  -0.2109
  C  C59  1  0.239900  0.091900  0.887600  1.0  0.1863
  C  C60  1  0.290990  0.202810  0.903500  1.0  -0.2131
  C  C61  1  0.231630  0.252970  0.894200  1.0  -0.0067
  C  C62  1  0.631570  0.110230  0.754400  1.0  0.692
  C  C63  1  0.546090  0.096910  0.793800  1.0  -0.1518
  C  C64  1  0.562640  0.095360  0.879100  1.0  0.0
  C  C65  1  0.481460  0.078740  0.914000  1.0  -0.2026
  C  C66  1  0.384710  0.064490  0.863900  1.0  0.1769
  C  C67  1  0.369270  0.068530  0.778900  1.0  -0.1916
  C  C68  1  0.449030  0.083970  0.744300  1.0  -0.0151
  C  C69  1  0.106800  0.649600  0.962500  1.0  0.7354
  C  C70  1  0.162000  0.752800  0.948900  1.0  -0.1993
  C  C71  1  0.158500  0.841500  0.993900  1.0  0.023
  C  C72  1  0.207260  0.937740  0.980100  1.0  -0.2076
  C  C73  1  0.258210  0.944790  0.917700  1.0  0.1643
  C  C74  1  0.263850  0.857150  0.874400  1.0  -0.2009
  C  C75  1  0.216900  0.762300  0.890400  1.0  -0.0041
  C  C76  1  0.752980  0.945620  0.638100  1.0  0.7132
  C  C77  1  0.805040  0.879360  0.630400  1.0  -0.1922
  C  C78  1  0.915180  0.930220  0.647100  1.0  0.0058
  C  C79  1  0.966500  0.872300  0.638900  1.0  -0.2092
  C  C80  1  0.908100  0.760100  0.612400  1.0  0.1871
  C  C81  1  0.797190  0.709010  0.596500  1.0  -0.2139
  C  C82  1  0.747030  0.768370  0.605800  1.0  -0.0091
  C  C83  1  0.889770  0.368430  0.745600  1.0  0.6931
  C  C84  1  0.903090  0.453910  0.706200  1.0  -0.1559
  C  C85  1  0.904640  0.437360  0.620900  1.0  1e-04
  C  C86  1  0.921260  0.518540  0.586000  1.0  -0.2025
  C  C87  1  0.935510  0.615290  0.636100  1.0  0.1768
  C  C88  1  0.931470  0.630730  0.721100  1.0  -0.1874
  C  C89  1  0.916030  0.550970  0.755700  1.0  -0.0149
  C  C90  1  0.350400  0.893200  0.537500  1.0  0.7345
  C  C91  1  0.247200  0.838000  0.551100  1.0  -0.1985
  C  C92  1  0.158500  0.841500  0.506100  1.0  0.0228
  C  C93  1  0.062260  0.792740  0.519900  1.0  -0.2065
  C  C94  1  0.055210  0.741790  0.582300  1.0  0.1637
  C  C95  1  0.142850  0.736150  0.625600  1.0  -0.2027
  C  C96  1  0.237700  0.783100  0.609600  1.0  -0.0035
  C  C97  1  0.945620  0.752980  0.138100  1.0  0.7113
  C  C98  1  0.879360  0.805040  0.130400  1.0  -0.1873
  C  C99  1  0.930220  0.915180  0.147100  1.0  0.0066
  C  C100  1  0.872300  0.966500  0.138900  1.0  -0.2097
  C  C101  1  0.760100  0.908100  0.112400  1.0  0.1867
  C  C102  1  0.709010  0.797190  0.096500  1.0  -0.2132
  C  C103  1  0.768370  0.747030  0.105800  1.0  -0.0083
  C  C104  1  0.368430  0.889770  0.245600  1.0  0.6922
  C  C105  1  0.453910  0.903090  0.206200  1.0  -0.1537
  C  C106  1  0.437360  0.904640  0.120900  1.0  -0.0005
  C  C107  1  0.518540  0.921260  0.086000  1.0  -0.2031
  C  C108  1  0.615290  0.935510  0.136100  1.0  0.1776
  C  C109  1  0.630730  0.931470  0.221100  1.0  -0.193
  C  C110  1  0.550970  0.916030  0.255700  1.0  -0.021
  C  C111  1  0.893200  0.350400  0.037500  1.0  0.7365
  C  C112  1  0.838000  0.247200  0.051100  1.0  -0.1984
  C  C113  1  0.841500  0.158500  0.006100  1.0  0.022
  C  C114  1  0.792740  0.062260  0.019900  1.0  -0.2053
  C  C115  1  0.741790  0.055210  0.082300  1.0  0.1642
  C  C116  1  0.736150  0.142850  0.125600  1.0  -0.2008
  C  C117  1  0.783100  0.237700  0.109600  1.0  -0.0057
  C  C118  1  0.247020  0.054380  0.361900  1.0  0.7133
  C  C119  1  0.194960  0.120640  0.369600  1.0  -0.1898
  C  C120  1  0.084820  0.069780  0.352900  1.0  0.007
  C  C121  1  0.033500  0.127700  0.361100  1.0  -0.2083
  C  C122  1  0.091900  0.239900  0.387600  1.0  0.1873
  C  C123  1  0.202810  0.290990  0.403500  1.0  -0.2129
  C  C124  1  0.252970  0.231630  0.394200  1.0  -0.0093
  C  C125  1  0.110230  0.631570  0.254400  1.0  0.6931
  C  C126  1  0.096910  0.546090  0.293800  1.0  -0.1529
  C  C127  1  0.095360  0.562640  0.379100  1.0  0.0012
  C  C128  1  0.078740  0.481460  0.414000  1.0  -0.2036
  C  C129  1  0.064490  0.384710  0.363900  1.0  0.1772
  C  C130  1  0.068530  0.369270  0.278900  1.0  -0.1903
  C  C131  1  0.083970  0.449030  0.244300  1.0  -0.0106
  C  C132  1  0.649600  0.106800  0.462500  1.0  0.7362
  C  C133  1  0.752800  0.162000  0.448900  1.0  -0.1983
  C  C134  1  0.841500  0.158500  0.493900  1.0  0.0226
  C  C135  1  0.937740  0.207260  0.480100  1.0  -0.2069
  C  C136  1  0.944790  0.258210  0.417700  1.0  0.164
  C  C137  1  0.857150  0.263850  0.374400  1.0  -0.1984
  C  C138  1  0.762300  0.216900  0.390400  1.0  -0.003
  N  N139  1  0.300300  0.041100  0.898600  1.0  -0.1532
  N  N140  1  0.958900  0.699700  0.601400  1.0  -0.1526
  N  N141  1  0.699700  0.958900  0.101400  1.0  -0.153
  N  N142  1  0.041100  0.300300  0.398600  1.0  -0.1524
  O  O143  1  0.954460  0.187740  0.839400  1.0  -0.6139
  O  O144  1  0.102580  0.348220  0.880000  1.0  -0.6151
  O  O145  1  0.722350  0.138050  0.806500  1.0  -0.5726
  O  O146  1  0.609940  0.094460  0.672900  1.0  -0.6598
  O  O147  1  0.047200  0.642200  0.007100  1.0  -0.6458
  O  O148  1  0.120200  0.575000  0.926200  1.0  -0.5864
  O  O149  1  0.812260  0.045540  0.660600  1.0  -0.6144
  O  O150  1  0.651780  0.897420  0.620000  1.0  -0.6164
  O  O151  1  0.861950  0.277650  0.693500  1.0  -0.573
  O  O152  1  0.905540  0.390060  0.827100  1.0  -0.6588
  O  O153  1  0.357800  0.952800  0.492900  1.0  -0.646
  O  O154  1  0.425000  0.879800  0.573800  1.0  -0.5883
  O  O155  1  0.045540  0.812260  0.160600  1.0  -0.6155
  O  O156  1  0.897420  0.651780  0.120000  1.0  -0.6184
  O  O157  1  0.277650  0.861950  0.193500  1.0  -0.5724
  O  O158  1  0.390060  0.905540  0.327100  1.0  -0.6593
  O  O159  1  0.952800  0.357800  0.992900  1.0  -0.6456
  O  O160  1  0.879800  0.425000  0.073800  1.0  -0.5875
  O  O161  1  0.187740  0.954460  0.339400  1.0  -0.6141
  O  O162  1  0.348220  0.102580  0.380000  1.0  -0.6163
  O  O163  1  0.138050  0.722350  0.306500  1.0  -0.5729
  O  O164  1  0.094460  0.609940  0.172900  1.0  -0.6601
  O  O165  1  0.642200  0.047200  0.507100  1.0  -0.648
  O  O166  1  0.575000  0.120200  0.426200  1.0  -0.5882
