# generated using pymatgen
data_Zn3H24C42(NO6)2
_symmetry_space_group_name_H-M   'P 1'
_cell_length_a   14.79170000
_cell_length_b   14.79170000
_cell_length_c   16.81710000
_cell_angle_alpha   102.25700000
_cell_angle_beta   102.25700000
_cell_angle_gamma   115.74100000
_symmetry_Int_Tables_number   1
_chemical_formula_structural   Zn3H24C42(NO6)2
_chemical_formula_sum   'Zn6 H48 C84 N4 O24'
_cell_volume   3038.84644495
_cell_formula_units_Z   2
loop_
 _symmetry_equiv_pos_site_id
 _symmetry_equiv_pos_as_xyz
  1  'x, y, z'
loop_
 _atom_site_type_symbol
 _atom_site_label
 _atom_site_symmetry_multiplicity
 _atom_site_fract_x
 _atom_site_fract_y
 _atom_site_fract_z
 _atom_site_occupancy
 _atom_site_charge
  Zn  Zn1  1  0.541280  0.930960  0.931090  1.0  1.0821
  Zn  Zn2  1  0.069040  0.458720  0.568910  1.0  1.0859
  Zn  Zn3  1  0.458720  0.069040  0.068910  1.0  1.0828
  Zn  Zn4  1  0.930960  0.541280  0.431090  1.0  1.0849
  Zn  Zn5  1  0.329080  0.670920  0.750000  1.0  1.0171
  Zn  Zn6  1  0.670920  0.329080  0.250000  1.0  1.0163
  H  H7  1  0.494000  0.544600  0.835100  1.0  0.1063
  H  H8  1  0.589500  0.459300  0.848300  1.0  0.1145
  H  H9  1  0.862000  0.737800  0.917100  1.0  0.1285
  H  H10  1  0.762300  0.822500  0.901100  1.0  0.1041
  H  H11  1  0.125500  0.608100  0.911200  1.0  0.0824
  H  H12  1  0.990400  0.576400  0.968000  1.0  0.1226
  H  H13  1  0.803800  0.556000  0.745800  1.0  0.1257
  H  H14  1  0.937300  0.582500  0.688900  1.0  0.1019
  H  H15  1  0.623300  0.334700  0.033700  1.0  0.0999
  H  H16  1  0.705200  0.494200  0.009800  1.0  0.1288
  H  H17  1  0.799500  0.360900  0.835400  1.0  0.1139
  H  H18  1  0.722400  0.203600  0.863800  1.0  0.1062
  H  H19  1  0.455400  0.506000  0.664900  1.0  0.1056
  H  H20  1  0.540700  0.410500  0.651700  1.0  0.1137
  H  H21  1  0.262200  0.138000  0.582900  1.0  0.1276
  H  H22  1  0.177500  0.237700  0.598900  1.0  0.1046
  H  H23  1  0.391900  0.874500  0.588800  1.0  0.0824
  H  H24  1  0.423600  0.009600  0.532000  1.0  0.1232
  H  H25  1  0.444000  0.196200  0.754200  1.0  0.1242
  H  H26  1  0.417500  0.062700  0.811100  1.0  0.1016
  H  H27  1  0.665300  0.376700  0.466300  1.0  0.1
  H  H28  1  0.505800  0.294800  0.490200  1.0  0.1302
  H  H29  1  0.639100  0.200500  0.664600  1.0  0.1141
  H  H30  1  0.796400  0.277600  0.636200  1.0  0.1057
  H  H31  1  0.506000  0.455400  0.164900  1.0  0.1065
  H  H32  1  0.410500  0.540700  0.151700  1.0  0.115
  H  H33  1  0.138000  0.262200  0.082900  1.0  0.1268
  H  H34  1  0.237700  0.177500  0.098900  1.0  0.1035
  H  H35  1  0.874500  0.391900  0.088800  1.0  0.0821
  H  H36  1  0.009600  0.423600  0.032000  1.0  0.1229
  H  H37  1  0.196200  0.444000  0.254200  1.0  0.1262
  H  H38  1  0.062700  0.417500  0.311100  1.0  0.1019
  H  H39  1  0.376700  0.665300  0.966300  1.0  0.0994
  H  H40  1  0.294800  0.505800  0.990200  1.0  0.1287
  H  H41  1  0.200500  0.639100  0.164600  1.0  0.1136
  H  H42  1  0.277600  0.796400  0.136200  1.0  0.1065
  H  H43  1  0.544600  0.494000  0.335100  1.0  0.1065
  H  H44  1  0.459300  0.589500  0.348300  1.0  0.1139
  H  H45  1  0.737800  0.862000  0.417100  1.0  0.1274
  H  H46  1  0.822500  0.762300  0.401100  1.0  0.1049
  H  H47  1  0.608100  0.125500  0.411200  1.0  0.0822
  H  H48  1  0.576400  0.990400  0.468000  1.0  0.1229
  H  H49  1  0.556000  0.803800  0.245800  1.0  0.1233
  H  H50  1  0.582500  0.937300  0.188900  1.0  0.1007
  H  H51  1  0.334700  0.623300  0.533700  1.0  0.1006
  H  H52  1  0.494200  0.705200  0.509800  1.0  0.1294
  H  H53  1  0.360900  0.799500  0.335400  1.0  0.1141
  H  H54  1  0.203600  0.722400  0.363800  1.0  0.1057
  C  C55  1  0.552710  0.746090  0.861200  1.0  0.7178
  C  C56  1  0.618150  0.692850  0.868100  1.0  -0.192
  C  C57  1  0.568080  0.583720  0.851900  1.0  0.0034
  C  C58  1  0.625110  0.532690  0.859900  1.0  -0.2139
  C  C59  1  0.736240  0.588760  0.885300  1.0  0.1885
  C  C60  1  0.787910  0.698690  0.900700  1.0  -0.2133
  C  C61  1  0.727880  0.749520  0.891400  1.0  -0.0026
  C  C62  1  0.130590  0.609810  0.754600  1.0  0.7089
  C  C63  1  0.045220  0.596580  0.793800  1.0  -0.1605
  C  C64  1  0.060050  0.595950  0.877400  1.0  0.0076
  C  C65  1  0.979600  0.577800  0.911900  1.0  -0.2126
  C  C66  1  0.882540  0.561660  0.862400  1.0  0.1811
  C  C67  1  0.868030  0.564970  0.778900  1.0  -0.1974
  C  C68  1  0.948130  0.581470  0.745200  1.0  -0.0113
  C  C69  1  0.606100  0.148300  0.963500  1.0  0.7484
  C  C70  1  0.660600  0.251600  0.949000  1.0  -0.1973
  C  C71  1  0.657780  0.339420  0.993300  1.0  0.012
  C  C72  1  0.705800  0.434800  0.978300  1.0  -0.2079
  C  C73  1  0.754930  0.441870  0.916200  1.0  0.1908
  C  C74  1  0.762940  0.355460  0.874500  1.0  -0.2078
  C  C75  1  0.716370  0.261230  0.891300  1.0  -0.0036
  C  C76  1  0.253910  0.447290  0.638800  1.0  0.7196
  C  C77  1  0.307150  0.381850  0.631900  1.0  -0.1967
  C  C78  1  0.416280  0.431920  0.648100  1.0  0.0011
  C  C79  1  0.467310  0.374890  0.640100  1.0  -0.2138
  C  C80  1  0.411240  0.263760  0.614700  1.0  0.1892
  C  C81  1  0.301310  0.212090  0.599300  1.0  -0.214
  C  C82  1  0.250480  0.272120  0.608600  1.0  -0.0051
  C  C83  1  0.390190  0.869410  0.745400  1.0  0.7094
  C  C84  1  0.403420  0.954780  0.706200  1.0  -0.1624
  C  C85  1  0.404050  0.939950  0.622600  1.0  0.0057
  C  C86  1  0.422200  0.020400  0.588100  1.0  -0.2131
  C  C87  1  0.438340  0.117460  0.637600  1.0  0.1822
  C  C88  1  0.435030  0.131970  0.721100  1.0  -0.1981
  C  C89  1  0.418530  0.051870  0.754800  1.0  -0.0075
  C  C90  1  0.851700  0.393900  0.536500  1.0  0.7478
  C  C91  1  0.748400  0.339400  0.551000  1.0  -0.1981
  C  C92  1  0.660580  0.342220  0.506700  1.0  0.013
  C  C93  1  0.565200  0.294200  0.521700  1.0  -0.206
  C  C94  1  0.558130  0.245070  0.583800  1.0  0.1896
  C  C95  1  0.644540  0.237060  0.625500  1.0  -0.2085
  C  C96  1  0.738770  0.283630  0.608700  1.0  -0.001
  C  C97  1  0.447290  0.253910  0.138800  1.0  0.7168
  C  C98  1  0.381850  0.307150  0.131900  1.0  -0.1921
  C  C99  1  0.431920  0.416280  0.148100  1.0  0.0043
  C  C100  1  0.374890  0.467310  0.140100  1.0  -0.2136
  C  C101  1  0.263760  0.411240  0.114700  1.0  0.189
  C  C102  1  0.212090  0.301310  0.099300  1.0  -0.2124
  C  C103  1  0.272120  0.250480  0.108600  1.0  -0.0056
  C  C104  1  0.869410  0.390190  0.245400  1.0  0.7094
  C  C105  1  0.954780  0.403420  0.206200  1.0  -0.1613
  C  C106  1  0.939950  0.404050  0.122600  1.0  0.0064
  C  C107  1  0.020400  0.422200  0.088100  1.0  -0.2138
  C  C108  1  0.117460  0.438340  0.137600  1.0  0.1817
  C  C109  1  0.131970  0.435030  0.221100  1.0  -0.1997
  C  C110  1  0.051870  0.418530  0.254800  1.0  -0.0114
  C  C111  1  0.393900  0.851700  0.036500  1.0  0.7497
  C  C112  1  0.339400  0.748400  0.051000  1.0  -0.1971
  C  C113  1  0.342220  0.660580  0.006700  1.0  0.0106
  C  C114  1  0.294200  0.565200  0.021700  1.0  -0.2065
  C  C115  1  0.245070  0.558130  0.083800  1.0  0.1902
  C  C116  1  0.237060  0.644540  0.125500  1.0  -0.209
  C  C117  1  0.283630  0.738770  0.108700  1.0  -0.0053
  C  C118  1  0.746090  0.552710  0.361200  1.0  0.7192
  C  C119  1  0.692850  0.618150  0.368100  1.0  -0.1951
  C  C120  1  0.583720  0.568080  0.351900  1.0  0.0041
  C  C121  1  0.532690  0.625110  0.359900  1.0  -0.2137
  C  C122  1  0.588760  0.736240  0.385300  1.0  0.1892
  C  C123  1  0.698690  0.787910  0.400700  1.0  -0.2145
  C  C124  1  0.749520  0.727880  0.391400  1.0  -0.0042
  C  C125  1  0.609810  0.130590  0.254600  1.0  0.7097
  C  C126  1  0.596580  0.045220  0.293800  1.0  -0.1598
  C  C127  1  0.595950  0.060050  0.377400  1.0  0.0066
  C  C128  1  0.577800  0.979600  0.411900  1.0  -0.2119
  C  C129  1  0.561660  0.882540  0.362400  1.0  0.182
  C  C130  1  0.564970  0.868030  0.278900  1.0  -0.1977
  C  C131  1  0.581470  0.948130  0.245200  1.0  -0.0091
  C  C132  1  0.148300  0.606100  0.463500  1.0  0.7488
  C  C133  1  0.251600  0.660600  0.449000  1.0  -0.1988
  C  C134  1  0.339420  0.657780  0.493300  1.0  0.013
  C  C135  1  0.434800  0.705800  0.478300  1.0  -0.2068
  C  C136  1  0.441870  0.754930  0.416200  1.0  0.1906
  C  C137  1  0.355460  0.762940  0.374500  1.0  -0.2081
  C  C138  1  0.261230  0.716370  0.391300  1.0  -0.0022
  N  N139  1  0.797140  0.537460  0.896400  1.0  -0.1546
  N  N140  1  0.462540  0.202860  0.603600  1.0  -0.1546
  N  N141  1  0.202860  0.462540  0.103600  1.0  -0.1549
  N  N142  1  0.537460  0.797140  0.396400  1.0  -0.1538
  O  O143  1  0.452900  0.687500  0.837400  1.0  -0.6183
  O  O144  1  0.600560  0.846640  0.881900  1.0  -0.6125
  O  O145  1  0.220970  0.638430  0.805300  1.0  -0.5798
  O  O146  1  0.110260  0.595140  0.675300  1.0  -0.6518
  O  O147  1  0.548130  0.140870  0.008400  1.0  -0.6479
  O  O148  1  0.616800  0.073200  0.925800  1.0  -0.5952
  O  O149  1  0.312500  0.547100  0.662600  1.0  -0.619
  O  O150  1  0.153360  0.399440  0.618100  1.0  -0.6113
  O  O151  1  0.361570  0.779030  0.694700  1.0  -0.5801
  O  O152  1  0.404860  0.889740  0.824700  1.0  -0.6499
  O  O153  1  0.859130  0.451870  0.491600  1.0  -0.6496
  O  O154  1  0.926800  0.383200  0.574200  1.0  -0.5967
  O  O155  1  0.547100  0.312500  0.162600  1.0  -0.6192
  O  O156  1  0.399440  0.153360  0.118100  1.0  -0.6143
  O  O157  1  0.779030  0.361570  0.194700  1.0  -0.5796
  O  O158  1  0.889740  0.404860  0.324700  1.0  -0.6506
  O  O159  1  0.451870  0.859130  0.991600  1.0  -0.6477
  O  O160  1  0.383200  0.926800  0.074200  1.0  -0.5942
  O  O161  1  0.687500  0.452900  0.337400  1.0  -0.6191
  O  O162  1  0.846640  0.600560  0.381900  1.0  -0.6128
  O  O163  1  0.638430  0.220970  0.305300  1.0  -0.58
  O  O164  1  0.595140  0.110260  0.175300  1.0  -0.6513
  O  O165  1  0.140870  0.548130  0.508400  1.0  -0.65
  O  O166  1  0.073200  0.616800  0.425800  1.0  -0.5961
