# generated using pymatgen
data_Cu3H32C48(N3O4)2
_symmetry_space_group_name_H-M   'P 1'
_cell_length_a   19.09490000
_cell_length_b   22.76670000
_cell_length_c   13.39520000
_cell_angle_alpha   90.00000000
_cell_angle_beta   113.18500000
_cell_angle_gamma   90.00000000
_symmetry_Int_Tables_number   1
_chemical_formula_structural   Cu3H32C48(N3O4)2
_chemical_formula_sum   'Cu12 H128 C192 N24 O32'
_cell_volume   5352.97053960
_cell_formula_units_Z   4
loop_
 _symmetry_equiv_pos_site_id
 _symmetry_equiv_pos_as_xyz
  1  'x, y, z'
loop_
 _atom_site_type_symbol
 _atom_site_label
 _atom_site_symmetry_multiplicity
 _atom_site_fract_x
 _atom_site_fract_y
 _atom_site_fract_z
 _atom_site_occupancy
 _atom_site_charge
  Cu  Cu1  1  0.495850  0.763350  0.556960  1.0  0.7985
  Cu  Cu2  1  0.995850  0.263350  0.556960  1.0  0.7985
  Cu  Cu3  1  0.504150  0.763350  0.943040  1.0  0.7998
  Cu  Cu4  1  0.004150  0.263350  0.943040  1.0  0.7998
  Cu  Cu5  1  0.504150  0.236650  0.443040  1.0  0.7998
  Cu  Cu6  1  0.004150  0.736650  0.443040  1.0  0.7998
  Cu  Cu7  1  0.495850  0.236650  0.056960  1.0  0.7983
  Cu  Cu8  1  0.995850  0.736650  0.056960  1.0  0.7983
  Cu  Cu9  1  0.500000  0.868740  0.750000  1.0  0.9042
  Cu  Cu10  1  0.000000  0.368740  0.750000  1.0  0.9042
  Cu  Cu11  1  0.500000  0.131260  0.250000  1.0  0.9042
  Cu  Cu12  1  0.000000  0.631260  0.250000  1.0  0.9042
  H  H13  1  0.541700  0.642000  0.677500  1.0  0.0687
  H  H14  1  0.503300  0.545600  0.635300  1.0  0.0983
  H  H15  1  0.406000  0.523300  0.473100  1.0  0.1154
  H  H16  1  0.305800  0.561500  0.291100  1.0  0.089
  H  H17  1  0.252600  0.636900  0.179600  1.0  0.0862
  H  H18  1  0.246800  0.749900  0.145300  1.0  0.1032
  H  H19  1  0.291800  0.841700  0.211400  1.0  0.1001
  H  H20  1  0.392300  0.850800  0.379800  1.0  0.0627
  H  H21  1  0.673700  0.897200  0.878700  1.0  0.0711
  H  H22  1  0.744800  0.982300  0.936800  1.0  0.088
  H  H23  1  0.687500  0.072500  0.895300  1.0  0.1162
  H  H24  1  0.563700  0.131800  0.799000  1.0  0.0969
  H  H25  1  0.612200  0.958300  0.572900  1.0  0.0799
  H  H26  1  0.455500  0.948200  0.490800  1.0  0.0835
  H  H27  1  0.687100  0.701700  0.851000  1.0  0.0953
  H  H28  1  0.701800  0.800300  0.977700  1.0  0.0826
  H  H29  1  0.041700  0.142000  0.677500  1.0  0.0687
  H  H30  1  0.003300  0.045600  0.635300  1.0  0.0983
  H  H31  1  0.906000  0.023300  0.473100  1.0  0.1154
  H  H32  1  0.805800  0.061500  0.291100  1.0  0.089
  H  H33  1  0.752600  0.136900  0.179600  1.0  0.0862
  H  H34  1  0.746800  0.249900  0.145300  1.0  0.1032
  H  H35  1  0.791800  0.341700  0.211400  1.0  0.1001
  H  H36  1  0.892300  0.350800  0.379800  1.0  0.0627
  H  H37  1  0.173700  0.397200  0.878700  1.0  0.0711
  H  H38  1  0.244800  0.482300  0.936800  1.0  0.088
  H  H39  1  0.187500  0.572500  0.895300  1.0  0.1162
  H  H40  1  0.063700  0.631800  0.799000  1.0  0.0969
  H  H41  1  0.112200  0.458300  0.572900  1.0  0.0799
  H  H42  1  0.955500  0.448200  0.490800  1.0  0.0835
  H  H43  1  0.187100  0.201700  0.851000  1.0  0.0953
  H  H44  1  0.201800  0.300300  0.977700  1.0  0.0826
  H  H45  1  0.458300  0.642000  0.822500  1.0  0.0686
  H  H46  1  0.496700  0.545600  0.864700  1.0  0.0975
  H  H47  1  0.594000  0.523300  0.026900  1.0  0.1158
  H  H48  1  0.694200  0.561500  0.208900  1.0  0.0888
  H  H49  1  0.747400  0.636900  0.320400  1.0  0.0867
  H  H50  1  0.753200  0.749900  0.354700  1.0  0.1033
  H  H51  1  0.708200  0.841700  0.288600  1.0  0.1001
  H  H52  1  0.607700  0.850800  0.120200  1.0  0.0626
  H  H53  1  0.326300  0.897200  0.621300  1.0  0.0711
  H  H54  1  0.255200  0.982300  0.563200  1.0  0.088
  H  H55  1  0.312500  0.072500  0.604700  1.0  0.1166
  H  H56  1  0.436300  0.131800  0.701000  1.0  0.097
  H  H57  1  0.387800  0.958300  0.927100  1.0  0.0803
  H  H58  1  0.544500  0.948200  0.009200  1.0  0.0833
  H  H59  1  0.312900  0.701700  0.649000  1.0  0.0949
  H  H60  1  0.298200  0.800300  0.522300  1.0  0.0828
  H  H61  1  0.958300  0.142000  0.822500  1.0  0.0686
  H  H62  1  0.996700  0.045600  0.864700  1.0  0.0975
  H  H63  1  0.094000  0.023300  0.026900  1.0  0.1158
  H  H64  1  0.194200  0.061500  0.208900  1.0  0.0888
  H  H65  1  0.247400  0.136900  0.320400  1.0  0.0867
  H  H66  1  0.253200  0.249900  0.354700  1.0  0.1033
  H  H67  1  0.208200  0.341700  0.288600  1.0  0.1001
  H  H68  1  0.107700  0.350800  0.120200  1.0  0.0626
  H  H69  1  0.826300  0.397200  0.621300  1.0  0.0711
  H  H70  1  0.755200  0.482300  0.563200  1.0  0.088
  H  H71  1  0.812500  0.572500  0.604700  1.0  0.1166
  H  H72  1  0.936300  0.631800  0.701000  1.0  0.097
  H  H73  1  0.887800  0.458300  0.927100  1.0  0.0803
  H  H74  1  0.044500  0.448200  0.009200  1.0  0.0833
  H  H75  1  0.812900  0.201700  0.649000  1.0  0.0949
  H  H76  1  0.798200  0.300300  0.522300  1.0  0.0828
  H  H77  1  0.458300  0.358000  0.322500  1.0  0.0689
  H  H78  1  0.496700  0.454400  0.364700  1.0  0.0986
  H  H79  1  0.594000  0.476700  0.526900  1.0  0.1162
  H  H80  1  0.694200  0.438500  0.708900  1.0  0.0892
  H  H81  1  0.747400  0.363100  0.820400  1.0  0.0864
  H  H82  1  0.753200  0.250100  0.854700  1.0  0.1034
  H  H83  1  0.708200  0.158300  0.788600  1.0  0.0998
  H  H84  1  0.607700  0.149200  0.620200  1.0  0.0628
  H  H85  1  0.326300  0.102800  0.121300  1.0  0.0712
  H  H86  1  0.255200  0.017700  0.063200  1.0  0.0877
  H  H87  1  0.312500  0.927500  0.104700  1.0  0.1156
  H  H88  1  0.436300  0.868200  0.201000  1.0  0.0968
  H  H89  1  0.387800  0.041700  0.427100  1.0  0.0805
  H  H90  1  0.544500  0.051800  0.509200  1.0  0.0857
  H  H91  1  0.312900  0.298300  0.149000  1.0  0.0943
  H  H92  1  0.298200  0.199700  0.022300  1.0  0.0829
  H  H93  1  0.958300  0.858000  0.322500  1.0  0.0689
  H  H94  1  0.996700  0.954400  0.364700  1.0  0.0986
  H  H95  1  0.094000  0.976700  0.526900  1.0  0.1162
  H  H96  1  0.194200  0.938500  0.708900  1.0  0.0892
  H  H97  1  0.247400  0.863100  0.820400  1.0  0.0864
  H  H98  1  0.253200  0.750100  0.854700  1.0  0.1034
  H  H99  1  0.208200  0.658300  0.788600  1.0  0.0998
  H  H100  1  0.107700  0.649200  0.620200  1.0  0.0628
  H  H101  1  0.826300  0.602800  0.121300  1.0  0.0712
  H  H102  1  0.755200  0.517700  0.063200  1.0  0.0877
  H  H103  1  0.812500  0.427500  0.104700  1.0  0.1156
  H  H104  1  0.936300  0.368200  0.201000  1.0  0.0968
  H  H105  1  0.887800  0.541700  0.427100  1.0  0.0805
  H  H106  1  0.044500  0.551800  0.509200  1.0  0.0857
  H  H107  1  0.812900  0.798300  0.149000  1.0  0.0943
  H  H108  1  0.798200  0.699700  0.022300  1.0  0.0829
  H  H109  1  0.541700  0.358000  0.177500  1.0  0.0683
  H  H110  1  0.503300  0.454400  0.135300  1.0  0.0984
  H  H111  1  0.406000  0.476700  0.973100  1.0  0.116
  H  H112  1  0.305800  0.438500  0.791100  1.0  0.0889
  H  H113  1  0.252600  0.363100  0.679600  1.0  0.0865
  H  H114  1  0.246800  0.250100  0.645300  1.0  0.1032
  H  H115  1  0.291800  0.158300  0.711400  1.0  0.0995
  H  H116  1  0.392300  0.149200  0.879800  1.0  0.0632
  H  H117  1  0.673700  0.102800  0.378700  1.0  0.0708
  H  H118  1  0.744800  0.017700  0.436800  1.0  0.0883
  H  H119  1  0.687500  0.927500  0.395300  1.0  0.1164
  H  H120  1  0.563700  0.868200  0.299000  1.0  0.0971
  H  H121  1  0.612200  0.041700  0.072900  1.0  0.0805
  H  H122  1  0.455500  0.051800  0.990800  1.0  0.0861
  H  H123  1  0.687100  0.298300  0.351000  1.0  0.0949
  H  H124  1  0.701800  0.199700  0.477700  1.0  0.0829
  H  H125  1  0.041700  0.858000  0.177500  1.0  0.0683
  H  H126  1  0.003300  0.954400  0.135300  1.0  0.0984
  H  H127  1  0.906000  0.976700  0.973100  1.0  0.116
  H  H128  1  0.805800  0.938500  0.791100  1.0  0.0889
  H  H129  1  0.752600  0.863100  0.679600  1.0  0.0865
  H  H130  1  0.746800  0.750100  0.645300  1.0  0.1032
  H  H131  1  0.791800  0.658300  0.711400  1.0  0.0995
  H  H132  1  0.892300  0.649200  0.879800  1.0  0.0632
  H  H133  1  0.173700  0.602800  0.378700  1.0  0.0708
  H  H134  1  0.244800  0.517700  0.436800  1.0  0.0883
  H  H135  1  0.187500  0.427500  0.395300  1.0  0.1164
  H  H136  1  0.063700  0.368200  0.299000  1.0  0.0971
  H  H137  1  0.112200  0.541700  0.072900  1.0  0.0805
  H  H138  1  0.955500  0.551800  0.990800  1.0  0.0861
  H  H139  1  0.187100  0.798300  0.351000  1.0  0.0949
  H  H140  1  0.201800  0.699700  0.477700  1.0  0.0829
  C  C141  1  0.501100  0.633650  0.611100  1.0  0.1634
  C  C142  1  0.478700  0.575700  0.585900  1.0  -0.1421
  C  C143  1  0.421300  0.562500  0.490100  1.0  -0.0753
  C  C144  1  0.384700  0.607300  0.416500  1.0  0.0253
  C  C145  1  0.324000  0.599700  0.313400  1.0  -0.0805
  C  C146  1  0.292100  0.644300  0.247400  1.0  -0.1263
  C  C147  1  0.316700  0.703800  0.277400  1.0  -0.0004
  C  C148  1  0.286200  0.753900  0.214400  1.0  -0.0607
  C  C149  1  0.313300  0.808000  0.252700  1.0  -0.1654
  C  C150  1  0.373500  0.813100  0.354200  1.0  0.147
  C  C151  1  0.376800  0.713000  0.378900  1.0  0.1673
  C  C152  1  0.410100  0.664930  0.448600  1.0  0.1685
  C  C153  1  0.649100  0.933750  0.861300  1.0  0.1506
  C  C154  1  0.692000  0.984900  0.896000  1.0  -0.1514
  C  C155  1  0.658500  0.038200  0.871400  1.0  -0.0979
  C  C156  1  0.580100  0.041720  0.809900  1.0  0.0126
  C  C157  1  0.537900  0.095800  0.778800  1.0  -0.1359
  C  C158  1  0.540400  0.988720  0.779500  1.0  0.1386
  C  C159  1  0.567800  0.872880  0.552200  1.0  0.6795
  C  C160  1  0.565700  0.937780  0.547200  1.0  -0.2079
  C  C161  1  0.501700  0.968520  0.508500  1.0  -0.0916
  C  C162  1  0.605500  0.768060  0.786800  1.0  0.657
  C  C163  1  0.673600  0.739140  0.867400  1.0  -0.1725
  C  C164  1  0.716300  0.763310  0.961000  1.0  -0.0828
  C  C165  1  0.001100  0.133650  0.611100  1.0  0.1634
  C  C166  1  0.978700  0.075700  0.585900  1.0  -0.1421
  C  C167  1  0.921300  0.062500  0.490100  1.0  -0.0753
  C  C168  1  0.884700  0.107300  0.416500  1.0  0.0253
  C  C169  1  0.824000  0.099700  0.313400  1.0  -0.0805
  C  C170  1  0.792100  0.144300  0.247400  1.0  -0.1263
  C  C171  1  0.816700  0.203800  0.277400  1.0  -0.0004
  C  C172  1  0.786200  0.253900  0.214400  1.0  -0.0607
  C  C173  1  0.813300  0.308000  0.252700  1.0  -0.1654
  C  C174  1  0.873500  0.313100  0.354200  1.0  0.147
  C  C175  1  0.876800  0.213000  0.378900  1.0  0.1673
  C  C176  1  0.910100  0.164930  0.448600  1.0  0.1685
  C  C177  1  0.149100  0.433750  0.861300  1.0  0.1506
  C  C178  1  0.192000  0.484900  0.896000  1.0  -0.1514
  C  C179  1  0.158500  0.538200  0.871400  1.0  -0.0979
  C  C180  1  0.080100  0.541720  0.809900  1.0  0.0126
  C  C181  1  0.037900  0.595800  0.778800  1.0  -0.1359
  C  C182  1  0.040400  0.488720  0.779500  1.0  0.1386
  C  C183  1  0.067800  0.372880  0.552200  1.0  0.6795
  C  C184  1  0.065700  0.437780  0.547200  1.0  -0.2079
  C  C185  1  0.001700  0.468520  0.508500  1.0  -0.0916
  C  C186  1  0.105500  0.268060  0.786800  1.0  0.657
  C  C187  1  0.173600  0.239140  0.867400  1.0  -0.1725
  C  C188  1  0.216300  0.263310  0.961000  1.0  -0.0828
  C  C189  1  0.498900  0.633650  0.888900  1.0  0.1645
  C  C190  1  0.521300  0.575700  0.914100  1.0  -0.1427
  C  C191  1  0.578700  0.562500  0.009900  1.0  -0.075
  C  C192  1  0.615300  0.607300  0.083500  1.0  0.0253
  C  C193  1  0.676000  0.599700  0.186600  1.0  -0.0806
  C  C194  1  0.707900  0.644300  0.252600  1.0  -0.127
  C  C195  1  0.683300  0.703800  0.222600  1.0  0.003
  C  C196  1  0.713800  0.753900  0.285600  1.0  -0.0644
  C  C197  1  0.686700  0.808000  0.247300  1.0  -0.1641
  C  C198  1  0.626500  0.813100  0.145800  1.0  0.1466
  C  C199  1  0.623200  0.713000  0.121100  1.0  0.1675
  C  C200  1  0.589900  0.664930  0.051400  1.0  0.1679
  C  C201  1  0.350900  0.933750  0.638700  1.0  0.1511
  C  C202  1  0.308000  0.984900  0.604000  1.0  -0.1535
  C  C203  1  0.341500  0.038200  0.628600  1.0  -0.1014
  C  C204  1  0.419900  0.041720  0.690100  1.0  0.0137
  C  C205  1  0.462100  0.095800  0.721200  1.0  -0.1354
  C  C206  1  0.459600  0.988720  0.720500  1.0  0.1387
  C  C207  1  0.432200  0.872880  0.947800  1.0  0.68
  C  C208  1  0.434300  0.937780  0.952800  1.0  -0.2077
  C  C209  1  0.498300  0.968520  0.991500  1.0  -0.0874
  C  C210  1  0.394500  0.768060  0.713200  1.0  0.6584
  C  C211  1  0.326400  0.739140  0.632600  1.0  -0.1722
  C  C212  1  0.283700  0.763310  0.539000  1.0  -0.0785
  C  C213  1  0.998900  0.133650  0.888900  1.0  0.1645
  C  C214  1  0.021300  0.075700  0.914100  1.0  -0.1427
  C  C215  1  0.078700  0.062500  0.009900  1.0  -0.075
  C  C216  1  0.115300  0.107300  0.083500  1.0  0.0253
  C  C217  1  0.176000  0.099700  0.186600  1.0  -0.0806
  C  C218  1  0.207900  0.144300  0.252600  1.0  -0.127
  C  C219  1  0.183300  0.203800  0.222600  1.0  0.003
  C  C220  1  0.213800  0.253900  0.285600  1.0  -0.0644
  C  C221  1  0.186700  0.308000  0.247300  1.0  -0.1641
  C  C222  1  0.126500  0.313100  0.145800  1.0  0.1466
  C  C223  1  0.123200  0.213000  0.121100  1.0  0.1675
  C  C224  1  0.089900  0.164930  0.051400  1.0  0.1679
  C  C225  1  0.850900  0.433750  0.638700  1.0  0.1511
  C  C226  1  0.808000  0.484900  0.604000  1.0  -0.1535
  C  C227  1  0.841500  0.538200  0.628600  1.0  -0.1014
  C  C228  1  0.919900  0.541720  0.690100  1.0  0.0137
  C  C229  1  0.962100  0.595800  0.721200  1.0  -0.1354
  C  C230  1  0.959600  0.488720  0.720500  1.0  0.1387
  C  C231  1  0.932200  0.372880  0.947800  1.0  0.68
  C  C232  1  0.934300  0.437780  0.952800  1.0  -0.2077
  C  C233  1  0.998300  0.468520  0.991500  1.0  -0.0874
  C  C234  1  0.894500  0.268060  0.713200  1.0  0.6584
  C  C235  1  0.826400  0.239140  0.632600  1.0  -0.1722
  C  C236  1  0.783700  0.263310  0.539000  1.0  -0.0785
  C  C237  1  0.498900  0.366350  0.388900  1.0  0.1638
  C  C238  1  0.521300  0.424300  0.414100  1.0  -0.144
  C  C239  1  0.578700  0.437500  0.509900  1.0  -0.0744
  C  C240  1  0.615300  0.392700  0.583500  1.0  0.0259
  C  C241  1  0.676000  0.400300  0.686600  1.0  -0.0809
  C  C242  1  0.707900  0.355700  0.752600  1.0  -0.1269
  C  C243  1  0.683300  0.296200  0.722600  1.0  0.0031
  C  C244  1  0.713800  0.246100  0.785600  1.0  -0.0643
  C  C245  1  0.686700  0.192000  0.747300  1.0  -0.1637
  C  C246  1  0.626500  0.186900  0.645800  1.0  0.1462
  C  C247  1  0.623200  0.287000  0.621100  1.0  0.1677
  C  C248  1  0.589900  0.335070  0.551400  1.0  0.1685
  C  C249  1  0.350900  0.066250  0.138700  1.0  0.1512
  C  C250  1  0.308000  0.015100  0.104000  1.0  -0.1534
  C  C251  1  0.341500  0.961800  0.128600  1.0  -0.1015
  C  C252  1  0.419900  0.958280  0.190100  1.0  0.0133
  C  C253  1  0.462100  0.904200  0.221200  1.0  -0.1348
  C  C254  1  0.459600  0.011280  0.220500  1.0  0.1388
  C  C255  1  0.432200  0.127120  0.447800  1.0  0.6795
  C  C256  1  0.434300  0.062220  0.452800  1.0  -0.2064
  C  C257  1  0.498300  0.031480  0.491500  1.0  -0.0873
  C  C258  1  0.394500  0.231940  0.213200  1.0  0.658
  C  C259  1  0.326400  0.260860  0.132600  1.0  -0.1711
  C  C260  1  0.283700  0.236690  0.039000  1.0  -0.0806
  C  C261  1  0.998900  0.866350  0.388900  1.0  0.1638
  C  C262  1  0.021300  0.924300  0.414100  1.0  -0.144
  C  C263  1  0.078700  0.937500  0.509900  1.0  -0.0744
  C  C264  1  0.115300  0.892700  0.583500  1.0  0.0259
  C  C265  1  0.176000  0.900300  0.686600  1.0  -0.0809
  C  C266  1  0.207900  0.855700  0.752600  1.0  -0.1269
  C  C267  1  0.183300  0.796200  0.722600  1.0  0.0031
  C  C268  1  0.213800  0.746100  0.785600  1.0  -0.0643
  C  C269  1  0.186700  0.692000  0.747300  1.0  -0.1637
  C  C270  1  0.126500  0.686900  0.645800  1.0  0.1462
  C  C271  1  0.123200  0.787000  0.621100  1.0  0.1677
  C  C272  1  0.089900  0.835070  0.551400  1.0  0.1685
  C  C273  1  0.850900  0.566250  0.138700  1.0  0.1512
  C  C274  1  0.808000  0.515100  0.104000  1.0  -0.1534
  C  C275  1  0.841500  0.461800  0.128600  1.0  -0.1015
  C  C276  1  0.919900  0.458280  0.190100  1.0  0.0133
  C  C277  1  0.962100  0.404200  0.221200  1.0  -0.1348
  C  C278  1  0.959600  0.511280  0.220500  1.0  0.1388
  C  C279  1  0.932200  0.627120  0.447800  1.0  0.6795
  C  C280  1  0.934300  0.562220  0.452800  1.0  -0.2064
  C  C281  1  0.998300  0.531480  0.491500  1.0  -0.0873
  C  C282  1  0.894500  0.731940  0.213200  1.0  0.658
  C  C283  1  0.826400  0.760860  0.132600  1.0  -0.1711
  C  C284  1  0.783700  0.736690  0.039000  1.0  -0.0806
  C  C285  1  0.501100  0.366350  0.111100  1.0  0.1636
  C  C286  1  0.478700  0.424300  0.085900  1.0  -0.1439
  C  C287  1  0.421300  0.437500  0.990100  1.0  -0.0746
  C  C288  1  0.384700  0.392700  0.916500  1.0  0.0257
  C  C289  1  0.324000  0.400300  0.813400  1.0  -0.0797
  C  C290  1  0.292100  0.355700  0.747400  1.0  -0.1265
  C  C291  1  0.316700  0.296200  0.777400  1.0  0.001
  C  C292  1  0.286200  0.246100  0.714400  1.0  -0.0603
  C  C293  1  0.313300  0.192000  0.752700  1.0  -0.1649
  C  C294  1  0.373500  0.186900  0.854200  1.0  0.1467
  C  C295  1  0.376800  0.287000  0.878900  1.0  0.1679
  C  C296  1  0.410100  0.335070  0.948600  1.0  0.1687
  C  C297  1  0.649100  0.066250  0.361300  1.0  0.151
  C  C298  1  0.692000  0.015100  0.396000  1.0  -0.1509
  C  C299  1  0.658500  0.961800  0.371400  1.0  -0.0986
  C  C300  1  0.580100  0.958280  0.309900  1.0  0.0118
  C  C301  1  0.537900  0.904200  0.278800  1.0  -0.1342
  C  C302  1  0.540400  0.011280  0.279500  1.0  0.1387
  C  C303  1  0.567800  0.127120  0.052200  1.0  0.6794
  C  C304  1  0.565700  0.062220  0.047200  1.0  -0.2064
  C  C305  1  0.501700  0.031480  0.008500  1.0  -0.0918
  C  C306  1  0.605500  0.231940  0.286800  1.0  0.657
  C  C307  1  0.673600  0.260860  0.367400  1.0  -0.1715
  C  C308  1  0.716300  0.236690  0.461000  1.0  -0.0847
  C  C309  1  0.001100  0.866350  0.111100  1.0  0.1636
  C  C310  1  0.978700  0.924300  0.085900  1.0  -0.1439
  C  C311  1  0.921300  0.937500  0.990100  1.0  -0.0746
  C  C312  1  0.884700  0.892700  0.916500  1.0  0.0257
  C  C313  1  0.824000  0.900300  0.813400  1.0  -0.0797
  C  C314  1  0.792100  0.855700  0.747400  1.0  -0.1265
  C  C315  1  0.816700  0.796200  0.777400  1.0  0.001
  C  C316  1  0.786200  0.746100  0.714400  1.0  -0.0603
  C  C317  1  0.813300  0.692000  0.752700  1.0  -0.1649
  C  C318  1  0.873500  0.686900  0.854200  1.0  0.1467
  C  C319  1  0.876800  0.787000  0.878900  1.0  0.1679
  C  C320  1  0.910100  0.835070  0.948600  1.0  0.1687
  C  C321  1  0.149100  0.566250  0.361300  1.0  0.151
  C  C322  1  0.192000  0.515100  0.396000  1.0  -0.1509
  C  C323  1  0.158500  0.461800  0.371400  1.0  -0.0986
  C  C324  1  0.080100  0.458280  0.309900  1.0  0.0118
  C  C325  1  0.037900  0.404200  0.278800  1.0  -0.1342
  C  C326  1  0.040400  0.511280  0.279500  1.0  0.1387
  C  C327  1  0.067800  0.627120  0.052200  1.0  0.6794
  C  C328  1  0.065700  0.562220  0.047200  1.0  -0.2064
  C  C329  1  0.001700  0.531480  0.008500  1.0  -0.0918
  C  C330  1  0.105500  0.731940  0.286800  1.0  0.657
  C  C331  1  0.173600  0.760860  0.367400  1.0  -0.1715
  C  C332  1  0.216300  0.736690  0.461000  1.0  -0.0847
  N  N333  1  0.467400  0.677550  0.544900  1.0  -0.3495
  N  N334  1  0.405140  0.767130  0.415900  1.0  -0.2526
  N  N335  1  0.574360  0.935340  0.804500  1.0  -0.3319
  N  N336  1  0.967400  0.177550  0.544900  1.0  -0.3495
  N  N337  1  0.905140  0.267130  0.415900  1.0  -0.2526
  N  N338  1  0.074360  0.435340  0.804500  1.0  -0.3319
  N  N339  1  0.532600  0.677550  0.955100  1.0  -0.3502
  N  N340  1  0.594860  0.767130  0.084100  1.0  -0.2532
  N  N341  1  0.425640  0.935340  0.695500  1.0  -0.3287
  N  N342  1  0.032600  0.177550  0.955100  1.0  -0.3502
  N  N343  1  0.094860  0.267130  0.084100  1.0  -0.2532
  N  N344  1  0.925640  0.435340  0.695500  1.0  -0.3287
  N  N345  1  0.532600  0.322450  0.455100  1.0  -0.3506
  N  N346  1  0.594860  0.232870  0.584100  1.0  -0.2536
  N  N347  1  0.425640  0.064660  0.195500  1.0  -0.33
  N  N348  1  0.032600  0.822450  0.455100  1.0  -0.3506
  N  N349  1  0.094860  0.732870  0.584100  1.0  -0.2536
  N  N350  1  0.925640  0.564660  0.195500  1.0  -0.33
  N  N351  1  0.467400  0.322450  0.044900  1.0  -0.3507
  N  N352  1  0.405140  0.232870  0.915900  1.0  -0.2527
  N  N353  1  0.574360  0.064660  0.304500  1.0  -0.3309
  N  N354  1  0.967400  0.822450  0.044900  1.0  -0.3507
  N  N355  1  0.905140  0.732870  0.915900  1.0  -0.2527
  N  N356  1  0.074360  0.564660  0.304500  1.0  -0.3309
  O  O357  1  0.511420  0.847940  0.565200  1.0  -0.6576
  O  O358  1  0.620550  0.847190  0.540700  1.0  -0.5766
  O  O359  1  0.579060  0.746210  0.693700  1.0  -0.6171
  O  O360  1  0.579670  0.811690  0.818500  1.0  -0.6311
  O  O361  1  0.011420  0.347940  0.565200  1.0  -0.6576
  O  O362  1  0.120550  0.347190  0.540700  1.0  -0.5766
  O  O363  1  0.079060  0.246210  0.693700  1.0  -0.6171
  O  O364  1  0.079670  0.311690  0.818500  1.0  -0.6311
  O  O365  1  0.488580  0.847940  0.934800  1.0  -0.6567
  O  O366  1  0.379450  0.847190  0.959300  1.0  -0.5755
  O  O367  1  0.420940  0.746210  0.806300  1.0  -0.6164
  O  O368  1  0.420330  0.811690  0.681500  1.0  -0.6316
  O  O369  1  0.988580  0.347940  0.934800  1.0  -0.6567
  O  O370  1  0.879450  0.347190  0.959300  1.0  -0.5755
  O  O371  1  0.920940  0.246210  0.806300  1.0  -0.6164
  O  O372  1  0.920330  0.311690  0.681500  1.0  -0.6316
  O  O373  1  0.488580  0.152060  0.434800  1.0  -0.6572
  O  O374  1  0.379450  0.152810  0.459300  1.0  -0.5758
  O  O375  1  0.420940  0.253790  0.306300  1.0  -0.6165
  O  O376  1  0.420330  0.188310  0.181500  1.0  -0.6307
  O  O377  1  0.988580  0.652060  0.434800  1.0  -0.6572
  O  O378  1  0.879450  0.652810  0.459300  1.0  -0.5758
  O  O379  1  0.920940  0.753790  0.306300  1.0  -0.6165
  O  O380  1  0.920330  0.688310  0.181500  1.0  -0.6307
  O  O381  1  0.511420  0.152060  0.065200  1.0  -0.6573
  O  O382  1  0.620550  0.152810  0.040700  1.0  -0.5759
  O  O383  1  0.579060  0.253790  0.193700  1.0  -0.6161
  O  O384  1  0.579670  0.188310  0.318500  1.0  -0.6305
  O  O385  1  0.011420  0.652060  0.065200  1.0  -0.6573
  O  O386  1  0.120550  0.652810  0.040700  1.0  -0.5759
  O  O387  1  0.079060  0.753790  0.193700  1.0  -0.6161
  O  O388  1  0.079670  0.688310  0.318500  1.0  -0.6305
