# generated using pymatgen
data_Cu3H32C48(N3O4)2
_symmetry_space_group_name_H-M   'P 1'
_cell_length_a   13.33300000
_cell_length_b   22.71040000
_cell_length_c   18.46810000
_cell_angle_alpha   90.00000000
_cell_angle_beta   109.12700000
_cell_angle_gamma   90.00000000
_symmetry_Int_Tables_number   1
_chemical_formula_structural   Cu3H32C48(N3O4)2
_chemical_formula_sum   'Cu12 H128 C192 N24 O32'
_cell_volume   5283.38534076
_cell_formula_units_Z   4
loop_
 _symmetry_equiv_pos_site_id
 _symmetry_equiv_pos_as_xyz
  1  'x, y, z'
loop_
 _atom_site_type_symbol
 _atom_site_label
 _atom_site_symmetry_multiplicity
 _atom_site_fract_x
 _atom_site_fract_y
 _atom_site_fract_z
 _atom_site_occupancy
 _atom_site_charge
  Cu  Cu1  1  0.442280  0.262600  0.506710  1.0  0.8035
  Cu  Cu2  1  0.250660  0.369170  0.507280  1.0  0.8739
  Cu  Cu3  1  0.062780  0.237270  0.014930  1.0  0.8108
  Cu  Cu4  1  0.557720  0.762600  0.993290  1.0  0.8036
  Cu  Cu5  1  0.749340  0.869170  0.992720  1.0  0.8741
  Cu  Cu6  1  0.937220  0.737270  0.485070  1.0  0.8106
  Cu  Cu7  1  0.557720  0.737400  0.493290  1.0  0.8036
  Cu  Cu8  1  0.749340  0.630830  0.492720  1.0  0.874
  Cu  Cu9  1  0.937220  0.762730  0.985070  1.0  0.811
  Cu  Cu10  1  0.442280  0.237400  0.006710  1.0  0.8031
  Cu  Cu11  1  0.250660  0.130830  0.007280  1.0  0.8737
  Cu  Cu12  1  0.062780  0.262730  0.514930  1.0  0.8106
  H  H13  1  0.520300  0.345400  0.399800  1.0  0.071
  H  H14  1  0.587000  0.330500  0.299500  1.0  0.0999
  H  H15  1  0.601200  0.237300  0.256700  1.0  0.1103
  H  H16  1  0.416800  0.019900  0.420300  1.0  0.1083
  H  H17  1  0.353600  0.046500  0.518100  1.0  0.0991
  H  H18  1  0.359000  0.144700  0.555200  1.0  0.0717
  H  H19  1  0.565800  0.125700  0.264900  1.0  0.0868
  H  H20  1  0.502100  0.052200  0.320600  1.0  0.0926
  H  H21  1  0.205200  0.391900  0.331800  1.0  0.0616
  H  H22  1  0.191000  0.474100  0.255700  1.0  0.0865
  H  H23  1  0.207000  0.566700  0.307600  1.0  0.1119
  H  H24  1  0.292200  0.579300  0.685700  1.0  0.1127
  H  H25  1  0.307000  0.490200  0.747200  1.0  0.0896
  H  H26  1  0.292700  0.403100  0.679900  1.0  0.0708
  H  H27  1  0.235800  0.630400  0.430100  1.0  0.0921
  H  H28  1  0.265300  0.634500  0.557800  1.0  0.0944
  H  H29  1  0.133900  0.361600  0.974000  1.0  0.0722
  H  H30  1  0.118300  0.457400  0.012500  1.0  0.1017
  H  H31  1  0.048300  0.475600  0.108300  1.0  0.1071
  H  H32  1  0.897900  0.240000  0.263100  1.0  0.1114
  H  H33  1  0.925500  0.150000  0.216300  1.0  0.0957
  H  H34  1  0.996100  0.144800  0.117100  1.0  0.0608
  H  H35  1  0.971200  0.432300  0.209500  1.0  0.0903
  H  H36  1  0.917200  0.352800  0.260000  1.0  0.0859
  H  H37  1  0.337400  0.204200  0.698600  1.0  0.097
  H  H38  1  0.228600  0.304800  0.714000  1.0  0.0798
  H  H39  1  0.538000  0.461900  0.615100  1.0  0.0778
  H  H40  1  0.466500  0.446800  0.457800  1.0  0.0827
  H  H41  1  0.165100  0.302400  0.824800  1.0  0.0944
  H  H42  1  0.277300  0.203100  0.809900  1.0  0.0785
  H  H43  1  0.959900  0.045500  0.888600  1.0  0.0837
  H  H44  1  0.035800  0.050500  0.047000  1.0  0.086
  H  H45  1  0.479700  0.845400  0.100200  1.0  0.0715
  H  H46  1  0.413000  0.830500  0.200500  1.0  0.1
  H  H47  1  0.398800  0.737300  0.243300  1.0  0.11
  H  H48  1  0.583200  0.519900  0.079700  1.0  0.1085
  H  H49  1  0.646400  0.546500  0.981900  1.0  0.099
  H  H50  1  0.641000  0.644700  0.944800  1.0  0.0722
  H  H51  1  0.434200  0.625700  0.235100  1.0  0.087
  H  H52  1  0.497900  0.552200  0.179400  1.0  0.0926
  H  H53  1  0.794800  0.891900  0.168200  1.0  0.0614
  H  H54  1  0.809000  0.974100  0.244300  1.0  0.087
  H  H55  1  0.793000  0.066700  0.192400  1.0  0.1122
  H  H56  1  0.707800  0.079300  0.814300  1.0  0.113
  H  H57  1  0.693000  0.990200  0.752800  1.0  0.0901
  H  H58  1  0.707300  0.903100  0.820100  1.0  0.0708
  H  H59  1  0.764200  0.130400  0.069900  1.0  0.0915
  H  H60  1  0.734700  0.134500  0.942200  1.0  0.0945
  H  H61  1  0.866100  0.861600  0.526000  1.0  0.0719
  H  H62  1  0.881700  0.957400  0.487500  1.0  0.102
  H  H63  1  0.951700  0.975600  0.391700  1.0  0.1069
  H  H64  1  0.102100  0.740000  0.236900  1.0  0.1113
  H  H65  1  0.074500  0.650000  0.283700  1.0  0.0953
  H  H66  1  0.003900  0.644800  0.382900  1.0  0.0611
  H  H67  1  0.028800  0.932300  0.290500  1.0  0.0898
  H  H68  1  0.082800  0.852800  0.240000  1.0  0.0856
  H  H69  1  0.662600  0.704200  0.801400  1.0  0.0974
  H  H70  1  0.771400  0.804800  0.786000  1.0  0.0802
  H  H71  1  0.462000  0.961900  0.884900  1.0  0.0789
  H  H72  1  0.533500  0.946800  0.042200  1.0  0.0823
  H  H73  1  0.834900  0.802400  0.675200  1.0  0.0937
  H  H74  1  0.722700  0.703100  0.690100  1.0  0.0785
  H  H75  1  0.040100  0.545500  0.611400  1.0  0.0826
  H  H76  1  0.964200  0.550500  0.453000  1.0  0.0873
  H  H77  1  0.479700  0.654600  0.600200  1.0  0.0721
  H  H78  1  0.413000  0.669500  0.700500  1.0  0.1001
  H  H79  1  0.398800  0.762700  0.743300  1.0  0.1099
  H  H80  1  0.583200  0.980100  0.579700  1.0  0.1084
  H  H81  1  0.646400  0.953500  0.481900  1.0  0.0995
  H  H82  1  0.641000  0.855300  0.444800  1.0  0.0722
  H  H83  1  0.434200  0.874300  0.735100  1.0  0.0866
  H  H84  1  0.497900  0.947800  0.679400  1.0  0.0924
  H  H85  1  0.794800  0.608100  0.668200  1.0  0.0615
  H  H86  1  0.809000  0.525900  0.744300  1.0  0.0873
  H  H87  1  0.793000  0.433300  0.692400  1.0  0.1127
  H  H88  1  0.707800  0.420700  0.314300  1.0  0.1127
  H  H89  1  0.693000  0.509800  0.252800  1.0  0.0901
  H  H90  1  0.707300  0.596900  0.320100  1.0  0.0709
  H  H91  1  0.764200  0.369600  0.569900  1.0  0.0916
  H  H92  1  0.734700  0.365500  0.442200  1.0  0.094
  H  H93  1  0.866100  0.638400  0.026000  1.0  0.072
  H  H94  1  0.881700  0.542600  0.987500  1.0  0.1019
  H  H95  1  0.951700  0.524400  0.891700  1.0  0.1067
  H  H96  1  0.102100  0.760000  0.736900  1.0  0.1112
  H  H97  1  0.074500  0.850000  0.783700  1.0  0.0955
  H  H98  1  0.003900  0.855200  0.882900  1.0  0.061
  H  H99  1  0.028800  0.567700  0.790500  1.0  0.0896
  H  H100  1  0.082800  0.647200  0.740000  1.0  0.0855
  H  H101  1  0.662600  0.795800  0.301400  1.0  0.0973
  H  H102  1  0.771400  0.695200  0.286000  1.0  0.08
  H  H103  1  0.462000  0.538100  0.384900  1.0  0.0784
  H  H104  1  0.533500  0.553200  0.542200  1.0  0.0845
  H  H105  1  0.834900  0.697600  0.175200  1.0  0.094
  H  H106  1  0.722700  0.796900  0.190100  1.0  0.0785
  H  H107  1  0.040100  0.954500  0.111400  1.0  0.0825
  H  H108  1  0.964200  0.949500  0.953000  1.0  0.0892
  H  H109  1  0.520300  0.154600  0.899800  1.0  0.0713
  H  H110  1  0.587000  0.169500  0.799500  1.0  0.0996
  H  H111  1  0.601200  0.262700  0.756700  1.0  0.1103
  H  H112  1  0.416800  0.480100  0.920300  1.0  0.1083
  H  H113  1  0.353600  0.453500  0.018100  1.0  0.0993
  H  H114  1  0.359000  0.355300  0.055200  1.0  0.0719
  H  H115  1  0.565800  0.374300  0.764900  1.0  0.087
  H  H116  1  0.502100  0.447800  0.820600  1.0  0.0918
  H  H117  1  0.205200  0.108100  0.831800  1.0  0.0616
  H  H118  1  0.191000  0.025900  0.755700  1.0  0.0867
  H  H119  1  0.207000  0.933300  0.807600  1.0  0.1119
  H  H120  1  0.292200  0.920700  0.185700  1.0  0.1129
  H  H121  1  0.307000  0.009800  0.247200  1.0  0.0897
  H  H122  1  0.292700  0.096900  0.179900  1.0  0.0706
  H  H123  1  0.235800  0.869600  0.930100  1.0  0.0917
  H  H124  1  0.265300  0.865500  0.057800  1.0  0.094
  H  H125  1  0.133900  0.138400  0.474000  1.0  0.0724
  H  H126  1  0.118300  0.042600  0.512500  1.0  0.1016
  H  H127  1  0.048300  0.024400  0.608300  1.0  0.1069
  H  H128  1  0.897900  0.260000  0.763100  1.0  0.1114
  H  H129  1  0.925500  0.350000  0.716300  1.0  0.0953
  H  H130  1  0.996100  0.355200  0.617100  1.0  0.0607
  H  H131  1  0.971200  0.067700  0.709500  1.0  0.0897
  H  H132  1  0.917200  0.147200  0.760000  1.0  0.0859
  H  H133  1  0.337400  0.295800  0.198600  1.0  0.0966
  H  H134  1  0.228600  0.195200  0.214000  1.0  0.0797
  H  H135  1  0.538000  0.038100  0.115100  1.0  0.0776
  H  H136  1  0.466500  0.053200  0.957800  1.0  0.0855
  H  H137  1  0.165100  0.197600  0.324800  1.0  0.0944
  H  H138  1  0.277300  0.296900  0.309900  1.0  0.079
  H  H139  1  0.959900  0.454500  0.388600  1.0  0.0836
  H  H140  1  0.035800  0.449500  0.547000  1.0  0.0884
  C  C141  1  0.524400  0.306890  0.382200  1.0  0.1254
  C  C142  1  0.565000  0.298100  0.322100  1.0  -0.1453
  C  C143  1  0.572500  0.243100  0.296400  1.0  -0.0585
  C  C144  1  0.537800  0.194700  0.328700  1.0  0.0198
  C  C145  1  0.496900  0.206980  0.388220  1.0  0.1746
  C  C146  1  0.457600  0.160770  0.423000  1.0  0.1685
  C  C147  1  0.460100  0.102450  0.398700  1.0  0.0241
  C  C148  1  0.418700  0.059520  0.435300  1.0  -0.0752
  C  C149  1  0.381100  0.075260  0.493000  1.0  -0.147
  C  C150  1  0.383700  0.134410  0.514700  1.0  0.1512
  C  C151  1  0.538600  0.134600  0.304600  1.0  -0.1246
  C  C152  1  0.501100  0.091000  0.337900  1.0  -0.0993
  C  C153  1  0.212000  0.429380  0.354500  1.0  0.1697
  C  C154  1  0.203300  0.478750  0.308500  1.0  -0.1375
  C  C155  1  0.212400  0.533470  0.339000  1.0  -0.0729
  C  C156  1  0.230000  0.540180  0.418000  1.0  0.0069
  C  C157  1  0.239500  0.488050  0.460740  1.0  0.1208
  C  C158  1  0.260400  0.490890  0.541840  1.0  0.1202
  C  C159  1  0.270000  0.545040  0.578800  1.0  -0.0173
  C  C160  1  0.286900  0.543960  0.658100  1.0  -0.0853
  C  C161  1  0.295300  0.491290  0.694200  1.0  -0.1385
  C  C162  1  0.286700  0.439030  0.653560  1.0  0.1469
  C  C163  1  0.241300  0.595160  0.457800  1.0  -0.1165
  C  C164  1  0.259400  0.597580  0.533700  1.0  -0.1357
  C  C165  1  0.105600  0.368270  0.013700  1.0  0.1421
  C  C166  1  0.096100  0.425880  0.036500  1.0  -0.1399
  C  C167  1  0.054900  0.436620  0.093200  1.0  -0.0851
  C  C168  1  0.021900  0.389620  0.129400  1.0  0.0252
  C  C169  1  0.034900  0.333010  0.103300  1.0  0.1385
  C  C170  1  0.001200  0.282690  0.135500  1.0  0.1487
  C  C171  1  0.957300  0.289100  0.194300  1.0  0.021
  C  C172  1  0.928100  0.237700  0.223800  1.0  -0.0496
  C  C173  1  0.943500  0.184800  0.195800  1.0  -0.1432
  C  C174  1  0.986300  0.181920  0.136300  1.0  0.1444
  C  C175  1  0.978100  0.394800  0.190300  1.0  -0.1189
  C  C176  1  0.946800  0.347500  0.220600  1.0  -0.1114
  C  C177  1  0.322200  0.270600  0.617110  1.0  0.6339
  C  C178  1  0.308800  0.242010  0.685120  1.0  -0.1523
  C  C179  1  0.258300  0.267290  0.728230  1.0  -0.1069
  C  C180  1  0.516800  0.374930  0.575300  1.0  0.6818
  C  C181  1  0.518500  0.439800  0.569500  1.0  -0.1979
  C  C182  1  0.493800  0.468670  0.503300  1.0  -0.0973
  C  C183  1  0.183600  0.235390  0.905870  1.0  0.6721
  C  C184  1  0.195200  0.264840  0.838220  1.0  -0.1543
  C  C185  1  0.246600  0.240400  0.795380  1.0  -0.0806
  C  C186  1  0.983100  0.129320  0.938200  1.0  0.6855
  C  C187  1  0.980700  0.064470  0.936500  1.0  -0.1887
  C  C188  1  0.006700  0.031390  0.999600  1.0  -0.0837
  C  C189  1  0.475600  0.806890  0.117800  1.0  0.1266
  C  C190  1  0.435000  0.798100  0.177900  1.0  -0.147
  C  C191  1  0.427500  0.743100  0.203600  1.0  -0.0593
  C  C192  1  0.462200  0.694700  0.171300  1.0  0.0206
  C  C193  1  0.503100  0.706980  0.111780  1.0  0.1769
  C  C194  1  0.542400  0.660770  0.077000  1.0  0.1701
  C  C195  1  0.539900  0.602450  0.101300  1.0  0.0244
  C  C196  1  0.581300  0.559520  0.064700  1.0  -0.0757
  C  C197  1  0.618900  0.575260  0.007000  1.0  -0.1452
  C  C198  1  0.616300  0.634410  0.985300  1.0  0.152
  C  C199  1  0.461400  0.634600  0.195400  1.0  -0.1235
  C  C200  1  0.498900  0.591000  0.162100  1.0  -0.0988
  C  C201  1  0.788000  0.929380  0.145500  1.0  0.1688
  C  C202  1  0.796700  0.978750  0.191500  1.0  -0.1386
  C  C203  1  0.787600  0.033470  0.161000  1.0  -0.0747
  C  C204  1  0.770000  0.040180  0.082000  1.0  0.0066
  C  C205  1  0.760500  0.988050  0.039260  1.0  0.1215
  C  C206  1  0.739600  0.990890  0.958160  1.0  0.1198
  C  C207  1  0.730000  0.045040  0.921200  1.0  -0.0164
  C  C208  1  0.713100  0.043960  0.841900  1.0  -0.0846
  C  C209  1  0.704700  0.991290  0.805800  1.0  -0.1395
  C  C210  1  0.713300  0.939030  0.846440  1.0  0.1478
  C  C211  1  0.758700  0.095160  0.042200  1.0  -0.1156
  C  C212  1  0.740600  0.097580  0.966300  1.0  -0.1366
  C  C213  1  0.894400  0.868270  0.486300  1.0  0.1413
  C  C214  1  0.903900  0.925880  0.463500  1.0  -0.1409
  C  C215  1  0.945100  0.936620  0.406800  1.0  -0.0836
  C  C216  1  0.978100  0.889620  0.370600  1.0  0.024
  C  C217  1  0.965100  0.833010  0.396700  1.0  0.1402
  C  C218  1  0.998800  0.782690  0.364500  1.0  0.1461
  C  C219  1  0.042700  0.789100  0.305700  1.0  0.0199
  C  C220  1  0.071900  0.737700  0.276200  1.0  -0.0505
  C  C221  1  0.056500  0.684800  0.304200  1.0  -0.1421
  C  C222  1  0.013700  0.681920  0.363700  1.0  0.1446
  C  C223  1  0.021900  0.894800  0.309700  1.0  -0.1178
  C  C224  1  0.053200  0.847500  0.279400  1.0  -0.1098
  C  C225  1  0.677800  0.770600  0.882890  1.0  0.6326
  C  C226  1  0.691200  0.742010  0.814880  1.0  -0.1521
  C  C227  1  0.741700  0.767290  0.771770  1.0  -0.1029
  C  C228  1  0.483200  0.874930  0.924700  1.0  0.6809
  C  C229  1  0.481500  0.939800  0.930500  1.0  -0.1987
  C  C230  1  0.506200  0.968670  0.996700  1.0  -0.092
  C  C231  1  0.816400  0.735390  0.594130  1.0  0.6725
  C  C232  1  0.804800  0.764840  0.661780  1.0  -0.1558
  C  C233  1  0.753400  0.740400  0.704620  1.0  -0.0853
  C  C234  1  0.016900  0.629320  0.561800  1.0  0.6851
  C  C235  1  0.019300  0.564470  0.563500  1.0  -0.1869
  C  C236  1  0.993300  0.531390  0.500400  1.0  -0.0886
  C  C237  1  0.475600  0.693110  0.617800  1.0  0.1258
  C  C238  1  0.435000  0.701900  0.677900  1.0  -0.1463
  C  C239  1  0.427500  0.756900  0.703600  1.0  -0.059
  C  C240  1  0.462200  0.805300  0.671300  1.0  0.0213
  C  C241  1  0.503100  0.793020  0.611780  1.0  0.1774
  C  C242  1  0.542400  0.839230  0.577000  1.0  0.1704
  C  C243  1  0.539900  0.897550  0.601300  1.0  0.0248
  C  C244  1  0.581300  0.940480  0.564700  1.0  -0.0744
  C  C245  1  0.618900  0.924740  0.507000  1.0  -0.1464
  C  C246  1  0.616300  0.865590  0.485300  1.0  0.1522
  C  C247  1  0.461400  0.865400  0.695400  1.0  -0.124
  C  C248  1  0.498900  0.909000  0.662100  1.0  -0.0995
  C  C249  1  0.788000  0.570620  0.645500  1.0  0.1688
  C  C250  1  0.796700  0.521250  0.691500  1.0  -0.138
  C  C251  1  0.787600  0.466530  0.661000  1.0  -0.0752
  C  C252  1  0.770000  0.459820  0.582000  1.0  0.0062
  C  C253  1  0.760500  0.511950  0.539260  1.0  0.1219
  C  C254  1  0.739600  0.509110  0.458160  1.0  0.1195
  C  C255  1  0.730000  0.454960  0.421200  1.0  -0.0167
  C  C256  1  0.713100  0.456040  0.341900  1.0  -0.0859
  C  C257  1  0.704700  0.508710  0.305800  1.0  -0.1393
  C  C258  1  0.713300  0.560970  0.346440  1.0  0.1479
  C  C259  1  0.758700  0.404840  0.542200  1.0  -0.115
  C  C260  1  0.740600  0.402420  0.466300  1.0  -0.1354
  C  C261  1  0.894400  0.631730  0.986300  1.0  0.1411
  C  C262  1  0.903900  0.574120  0.963500  1.0  -0.1406
  C  C263  1  0.945100  0.563380  0.906800  1.0  -0.0835
  C  C264  1  0.978100  0.610380  0.870600  1.0  0.0242
  C  C265  1  0.965100  0.666990  0.896700  1.0  0.14
  C  C266  1  0.998800  0.717310  0.864500  1.0  0.1458
  C  C267  1  0.042700  0.710900  0.805700  1.0  0.0196
  C  C268  1  0.071900  0.762300  0.776200  1.0  -0.0502
  C  C269  1  0.056500  0.815200  0.804200  1.0  -0.1427
  C  C270  1  0.013700  0.818080  0.863700  1.0  0.1448
  C  C271  1  0.021900  0.605200  0.809700  1.0  -0.1188
  C  C272  1  0.053200  0.652500  0.779400  1.0  -0.1093
  C  C273  1  0.677800  0.729400  0.382890  1.0  0.6322
  C  C274  1  0.691200  0.757990  0.314880  1.0  -0.1512
  C  C275  1  0.741700  0.732710  0.271770  1.0  -0.1043
  C  C276  1  0.483200  0.625070  0.424700  1.0  0.6811
  C  C277  1  0.481500  0.560200  0.430500  1.0  -0.1978
  C  C278  1  0.506200  0.531330  0.496700  1.0  -0.092
  C  C279  1  0.816400  0.764610  0.094130  1.0  0.6729
  C  C280  1  0.804800  0.735160  0.161780  1.0  -0.1558
  C  C281  1  0.753400  0.759600  0.204620  1.0  -0.0846
  C  C282  1  0.016900  0.870680  0.061800  1.0  0.6859
  C  C283  1  0.019300  0.935530  0.063500  1.0  -0.1833
  C  C284  1  0.993300  0.968610  0.000400  1.0  -0.0885
  C  C285  1  0.524400  0.193110  0.882200  1.0  0.1258
  C  C286  1  0.565000  0.201900  0.822100  1.0  -0.145
  C  C287  1  0.572500  0.256900  0.796400  1.0  -0.057
  C  C288  1  0.537800  0.305300  0.828700  1.0  0.0204
  C  C289  1  0.496900  0.293020  0.888220  1.0  0.1747
  C  C290  1  0.457600  0.339230  0.923000  1.0  0.1689
  C  C291  1  0.460100  0.397550  0.898700  1.0  0.0245
  C  C292  1  0.418700  0.440480  0.935300  1.0  -0.074
  C  C293  1  0.381100  0.424740  0.993000  1.0  -0.1484
  C  C294  1  0.383700  0.365590  0.014700  1.0  0.1511
  C  C295  1  0.538600  0.365400  0.804600  1.0  -0.1238
  C  C296  1  0.501100  0.409000  0.837900  1.0  -0.0991
  C  C297  1  0.212000  0.070620  0.854500  1.0  0.1694
  C  C298  1  0.203300  0.021250  0.808500  1.0  -0.1365
  C  C299  1  0.212400  0.966530  0.839000  1.0  -0.0741
  C  C300  1  0.230000  0.959820  0.918000  1.0  0.0066
  C  C301  1  0.239500  0.011950  0.960740  1.0  0.1212
  C  C302  1  0.260400  0.009110  0.041840  1.0  0.1198
  C  C303  1  0.270000  0.954960  0.078800  1.0  -0.0175
  C  C304  1  0.286900  0.956040  0.158100  1.0  -0.0864
  C  C305  1  0.295300  0.008710  0.194200  1.0  -0.1388
  C  C306  1  0.286700  0.060970  0.153560  1.0  0.1474
  C  C307  1  0.241300  0.904840  0.957800  1.0  -0.1152
  C  C308  1  0.259400  0.902420  0.033700  1.0  -0.1355
  C  C309  1  0.105600  0.131730  0.513700  1.0  0.1421
  C  C310  1  0.096100  0.074120  0.536500  1.0  -0.1387
  C  C311  1  0.054900  0.063380  0.593200  1.0  -0.0844
  C  C312  1  0.021900  0.110380  0.629400  1.0  0.0252
  C  C313  1  0.034900  0.166990  0.603300  1.0  0.1386
  C  C314  1  0.001200  0.217310  0.635500  1.0  0.148
  C  C315  1  0.957300  0.210900  0.694300  1.0  0.0204
  C  C316  1  0.928100  0.262300  0.723800  1.0  -0.0495
  C  C317  1  0.943500  0.315200  0.695800  1.0  -0.1437
  C  C318  1  0.986300  0.318080  0.636300  1.0  0.1457
  C  C319  1  0.978100  0.105200  0.690300  1.0  -0.118
  C  C320  1  0.946800  0.152500  0.720600  1.0  -0.1106
  C  C321  1  0.322200  0.229400  0.117110  1.0  0.6333
  C  C322  1  0.308800  0.257990  0.185120  1.0  -0.1516
  C  C323  1  0.258300  0.232710  0.228230  1.0  -0.1081
  C  C324  1  0.516800  0.125070  0.075300  1.0  0.6805
  C  C325  1  0.518500  0.060200  0.069500  1.0  -0.1975
  C  C326  1  0.493800  0.031330  0.003300  1.0  -0.0975
  C  C327  1  0.183600  0.264610  0.405870  1.0  0.6724
  C  C328  1  0.195200  0.235160  0.338220  1.0  -0.1549
  C  C329  1  0.246600  0.259600  0.295380  1.0  -0.0799
  C  C330  1  0.983100  0.370680  0.438200  1.0  0.6857
  C  C331  1  0.980700  0.435530  0.436500  1.0  -0.1854
  C  C332  1  0.006700  0.468610  0.499600  1.0  -0.0838
  N  N333  1  0.491800  0.262590  0.414900  1.0  -0.2785
  N  N334  1  0.419700  0.176290  0.480160  1.0  -0.3396
  N  N335  1  0.229600  0.433220  0.429180  1.0  -0.3362
  N  N336  1  0.270200  0.438200  0.578590  1.0  -0.3305
  N  N337  1  0.075900  0.322810  0.046510  1.0  -0.3492
  N  N338  1  0.013500  0.229160  0.105870  1.0  -0.2629
  N  N339  1  0.508200  0.762590  0.085100  1.0  -0.2782
  N  N340  1  0.580300  0.676290  0.019840  1.0  -0.3386
  N  N341  1  0.770400  0.933220  0.070820  1.0  -0.3346
  N  N342  1  0.729800  0.938200  0.921410  1.0  -0.3326
  N  N343  1  0.924100  0.822810  0.453490  1.0  -0.3484
  N  N344  1  0.986500  0.729160  0.394130  1.0  -0.2605
  N  N345  1  0.508200  0.737410  0.585100  1.0  -0.2787
  N  N346  1  0.580300  0.823710  0.519840  1.0  -0.339
  N  N347  1  0.770400  0.566780  0.570820  1.0  -0.335
  N  N348  1  0.729800  0.561800  0.421410  1.0  -0.3333
  N  N349  1  0.924100  0.677190  0.953490  1.0  -0.3481
  N  N350  1  0.986500  0.770840  0.894130  1.0  -0.2604
  N  N351  1  0.491800  0.237410  0.914900  1.0  -0.2784
  N  N352  1  0.419700  0.323710  0.980160  1.0  -0.34
  N  N353  1  0.229600  0.066780  0.929180  1.0  -0.3365
  N  N354  1  0.270200  0.061800  0.078590  1.0  -0.3314
  N  N355  1  0.075900  0.177190  0.546510  1.0  -0.3489
  N  N356  1  0.013500  0.270840  0.605870  1.0  -0.2627
  O  O357  1  0.389000  0.248100  0.591100  1.0  -0.6139
  O  O358  1  0.264570  0.314670  0.590350  1.0  -0.6307
  O  O359  1  0.450100  0.347800  0.518460  1.0  -0.651
  O  O360  1  0.580600  0.350640  0.631780  1.0  -0.5795
  O  O361  1  0.239750  0.190430  0.930120  1.0  -0.624
  O  O362  1  0.117000  0.257450  0.933080  1.0  -0.6193
  O  O363  1  0.055090  0.153000  0.994650  1.0  -0.655
  O  O364  1  0.915100  0.156510  0.887270  1.0  -0.5491
  O  O365  1  0.611000  0.748100  0.908900  1.0  -0.6178
  O  O366  1  0.735430  0.814670  0.909650  1.0  -0.6302
  O  O367  1  0.549900  0.847800  0.981540  1.0  -0.6505
  O  O368  1  0.419400  0.850640  0.868220  1.0  -0.5799
  O  O369  1  0.760250  0.690430  0.569880  1.0  -0.6243
  O  O370  1  0.883000  0.757450  0.566920  1.0  -0.6172
  O  O371  1  0.944910  0.653000  0.505350  1.0  -0.6544
  O  O372  1  0.084900  0.656510  0.612730  1.0  -0.5485
  O  O373  1  0.611000  0.751900  0.408900  1.0  -0.6171
  O  O374  1  0.735430  0.685330  0.409650  1.0  -0.6297
  O  O375  1  0.549900  0.652200  0.481540  1.0  -0.6505
  O  O376  1  0.419400  0.649360  0.368220  1.0  -0.5789
  O  O377  1  0.760250  0.809570  0.069880  1.0  -0.6243
  O  O378  1  0.883000  0.742550  0.066920  1.0  -0.6169
  O  O379  1  0.944910  0.847000  0.005350  1.0  -0.655
  O  O380  1  0.084900  0.843490  0.112730  1.0  -0.5481
  O  O381  1  0.389000  0.251900  0.091100  1.0  -0.6136
  O  O382  1  0.264570  0.185330  0.090350  1.0  -0.6303
  O  O383  1  0.450100  0.152200  0.018460  1.0  -0.651
  O  O384  1  0.580600  0.149360  0.131780  1.0  -0.5795
  O  O385  1  0.239750  0.309570  0.430120  1.0  -0.624
  O  O386  1  0.117000  0.242550  0.433080  1.0  -0.6194
  O  O387  1  0.055090  0.347000  0.494650  1.0  -0.6549
  O  O388  1  0.915100  0.343490  0.387270  1.0  -0.5494
