# generated using pymatgen
data_Cd3(CO2)8
_symmetry_space_group_name_H-M   'P 1'
_cell_length_a   16.03710000
_cell_length_b   16.03710000
_cell_length_c   16.03710000
_cell_angle_alpha   109.47100000
_cell_angle_beta   109.47100000
_cell_angle_gamma   109.47100000
_symmetry_Int_Tables_number   1
_chemical_formula_structural   Cd3(CO2)8
_chemical_formula_sum   'Cd18 C48 O96'
_cell_volume   3175.11287235
_cell_formula_units_Z   6
loop_
 _symmetry_equiv_pos_site_id
 _symmetry_equiv_pos_as_xyz
  1  'x, y, z'
loop_
 _atom_site_type_symbol
 _atom_site_label
 _atom_site_symmetry_multiplicity
 _atom_site_fract_x
 _atom_site_fract_y
 _atom_site_fract_z
 _atom_site_occupancy
 _atom_site_charge
  Cd  Cd1  1  0.375000  0.625000  0.750000  1.0  1.0062
  Cd  Cd2  1  0.125000  0.875000  0.250000  1.0  1.0062
  Cd  Cd3  1  0.750000  0.125000  0.375000  1.0  1.0062
  Cd  Cd4  1  0.250000  0.375000  0.125000  1.0  1.0062
  Cd  Cd5  1  0.625000  0.250000  0.875000  1.0  1.0062
  Cd  Cd6  1  0.875000  0.750000  0.625000  1.0  1.0062
  Cd  Cd7  1  0.167600  0.417600  0.750000  1.0  1.071
  Cd  Cd8  1  0.332400  0.082400  0.250000  1.0  1.0705
  Cd  Cd9  1  0.750000  0.332400  0.582400  1.0  1.0707
  Cd  Cd10  1  0.250000  0.167600  0.917600  1.0  1.0706
  Cd  Cd11  1  0.417600  0.250000  0.667600  1.0  1.0701
  Cd  Cd12  1  0.082400  0.750000  0.832400  1.0  1.0704
  Cd  Cd13  1  0.917600  0.667600  0.250000  1.0  1.071
  Cd  Cd14  1  0.582400  0.832400  0.750000  1.0  1.0705
  Cd  Cd15  1  0.667600  0.750000  0.417600  1.0  1.0701
  Cd  Cd16  1  0.832400  0.250000  0.082400  1.0  1.0704
  Cd  Cd17  1  0.250000  0.582400  0.332400  1.0  1.0707
  Cd  Cd18  1  0.750000  0.917600  0.167600  1.0  1.0706
  C  C19  1  0.348100  0.405300  0.710800  1.0  0.6439
  C  C20  1  0.442500  0.456200  0.703300  1.0  0.6146
  C  C21  1  0.194500  0.637300  0.789200  1.0  0.6452
  C  C22  1  0.252900  0.739200  0.796700  1.0  0.613
  C  C23  1  0.305500  0.094700  0.442800  1.0  0.6299
  C  C24  1  0.247100  0.043800  0.486300  1.0  0.6153
  C  C25  1  0.151900  0.862700  0.057200  1.0  0.6255
  C  C26  1  0.057500  0.760800  0.013700  1.0  0.6146
  C  C27  1  0.942800  0.305500  0.594700  1.0  0.6284
  C  C28  1  0.986300  0.247100  0.543800  1.0  0.614
  C  C29  1  0.557200  0.151900  0.362700  1.0  0.6248
  C  C30  1  0.513700  0.057500  0.260800  1.0  0.6119
  C  C31  1  0.210800  0.348100  0.905300  1.0  0.6419
  C  C32  1  0.203300  0.442500  0.956200  1.0  0.6137
  C  C33  1  0.289200  0.194500  0.137300  1.0  0.6441
  C  C34  1  0.296700  0.252900  0.239200  1.0  0.6151
  C  C35  1  0.637300  0.289200  0.694500  1.0  0.6432
  C  C36  1  0.739200  0.296700  0.752900  1.0  0.6159
  C  C37  1  0.405300  0.210800  0.848100  1.0  0.6442
  C  C38  1  0.456200  0.203300  0.942500  1.0  0.6154
  C  C39  1  0.862700  0.557200  0.651900  1.0  0.6247
  C  C40  1  0.760800  0.513700  0.557500  1.0  0.6134
  C  C41  1  0.094700  0.942800  0.805500  1.0  0.6285
  C  C42  1  0.043800  0.986300  0.747100  1.0  0.6134
  C  C43  1  0.137300  0.694500  0.289200  1.0  0.6444
  C  C44  1  0.239200  0.752900  0.296700  1.0  0.6146
  C  C45  1  0.905300  0.848100  0.210800  1.0  0.6444
  C  C46  1  0.956200  0.942500  0.203300  1.0  0.6132
  C  C47  1  0.362700  0.651900  0.557200  1.0  0.6239
  C  C48  1  0.260800  0.557500  0.513700  1.0  0.6144
  C  C49  1  0.594700  0.805500  0.942800  1.0  0.6301
  C  C50  1  0.543800  0.747100  0.986300  1.0  0.6155
  C  C51  1  0.848100  0.710800  0.405300  1.0  0.6428
  C  C52  1  0.942500  0.703300  0.456200  1.0  0.616
  C  C53  1  0.694500  0.789200  0.637300  1.0  0.6447
  C  C54  1  0.752900  0.796700  0.739200  1.0  0.6154
  C  C55  1  0.805500  0.442800  0.094700  1.0  0.6281
  C  C56  1  0.747100  0.486300  0.043800  1.0  0.6137
  C  C57  1  0.651900  0.057200  0.862700  1.0  0.6252
  C  C58  1  0.557500  0.013700  0.760800  1.0  0.6129
  C  C59  1  0.442800  0.594700  0.305500  1.0  0.6281
  C  C60  1  0.486300  0.543800  0.247100  1.0  0.6141
  C  C61  1  0.057200  0.362700  0.151900  1.0  0.6256
  C  C62  1  0.013700  0.260800  0.057500  1.0  0.6123
  C  C63  1  0.710800  0.905300  0.348100  1.0  0.6437
  C  C64  1  0.703300  0.956200  0.442500  1.0  0.6149
  C  C65  1  0.789200  0.137300  0.194500  1.0  0.6436
  C  C66  1  0.796700  0.239200  0.252900  1.0  0.6139
  O  O67  1  0.307900  0.458500  0.733000  1.0  -0.5895
  O  O68  1  0.471100  0.545600  0.719100  1.0  -0.4878
  O  O69  1  0.484000  0.404100  0.681100  1.0  -0.4716
  O  O70  1  0.315200  0.314500  0.691500  1.0  -0.4706
  O  O71  1  0.225500  0.574900  0.767000  1.0  -0.5927
  O  O72  1  0.326500  0.752000  0.780900  1.0  -0.4858
  O  O73  1  0.223000  0.802900  0.818900  1.0  -0.4862
  O  O74  1  0.123000  0.623700  0.808500  1.0  -0.4658
  O  O75  1  0.274500  0.041500  0.349400  1.0  -0.5909
  O  O76  1  0.173500  0.954400  0.425500  1.0  -0.5162
  O  O77  1  0.277000  0.095900  0.579900  1.0  -0.4918
  O  O78  1  0.377000  0.185500  0.500700  1.0  -0.4658
  O  O79  1  0.192100  0.925100  0.150600  1.0  -0.5924
  O  O80  1  0.028900  0.748000  0.074500  1.0  -0.49
  O  O81  1  0.016000  0.697100  0.920100  1.0  -0.466
  O  O82  1  0.184800  0.876300  0.999300  1.0  -0.4767
  O  O83  1  0.849400  0.274500  0.541500  1.0  -0.5898
  O  O84  1  0.925500  0.173500  0.454400  1.0  -0.5157
  O  O85  1  0.079900  0.277000  0.595900  1.0  -0.4892
  O  O86  1  0.000700  0.377000  0.685500  1.0  -0.4648
  O  O87  1  0.650600  0.192100  0.425100  1.0  -0.5908
  O  O88  1  0.574500  0.028900  0.248000  1.0  -0.4884
  O  O89  1  0.420100  0.016000  0.197100  1.0  -0.4676
  O  O90  1  0.499300  0.184800  0.376300  1.0  -0.4758
  O  O91  1  0.233000  0.307900  0.958500  1.0  -0.5919
  O  O92  1  0.219100  0.471100  0.045600  1.0  -0.4926
  O  O93  1  0.181100  0.484000  0.904100  1.0  -0.4713
  O  O94  1  0.191500  0.315200  0.814500  1.0  -0.4725
  O  O95  1  0.267000  0.225500  0.074900  1.0  -0.5913
  O  O96  1  0.280900  0.326500  0.252000  1.0  -0.4844
  O  O97  1  0.318900  0.223000  0.302900  1.0  -0.4876
  O  O98  1  0.308500  0.123000  0.123700  1.0  -0.4703
  O  O99  1  0.574900  0.267000  0.725500  1.0  -0.5913
  O  O100  1  0.752000  0.280900  0.826500  1.0  -0.4883
  O  O101  1  0.802900  0.318900  0.723000  1.0  -0.487
  O  O102  1  0.623700  0.308500  0.623000  1.0  -0.4698
  O  O103  1  0.458500  0.233000  0.807900  1.0  -0.5915
  O  O104  1  0.545600  0.219100  0.971100  1.0  -0.4905
  O  O105  1  0.404100  0.181100  0.984000  1.0  -0.4749
  O  O106  1  0.314500  0.191500  0.815200  1.0  -0.4729
  O  O107  1  0.925100  0.650600  0.692100  1.0  -0.59
  O  O108  1  0.748000  0.574500  0.528900  1.0  -0.4889
  O  O109  1  0.697100  0.420100  0.516000  1.0  -0.4695
  O  O110  1  0.876300  0.499300  0.684800  1.0  -0.4752
  O  O111  1  0.041500  0.849400  0.774500  1.0  -0.592
  O  O112  1  0.954400  0.925500  0.673500  1.0  -0.5124
  O  O113  1  0.095900  0.079900  0.777000  1.0  -0.4895
  O  O114  1  0.185500  0.000700  0.877000  1.0  -0.4695
  O  O115  1  0.074900  0.725500  0.267000  1.0  -0.59
  O  O116  1  0.252000  0.826500  0.280900  1.0  -0.4849
  O  O117  1  0.302900  0.723000  0.318900  1.0  -0.4875
  O  O118  1  0.123700  0.623000  0.308500  1.0  -0.4656
  O  O119  1  0.958500  0.807900  0.233000  1.0  -0.591
  O  O120  1  0.045600  0.971100  0.219100  1.0  -0.4897
  O  O121  1  0.904100  0.984000  0.181100  1.0  -0.4725
  O  O122  1  0.814500  0.815200  0.191500  1.0  -0.473
  O  O123  1  0.425100  0.692100  0.650600  1.0  -0.5915
  O  O124  1  0.248000  0.528900  0.574500  1.0  -0.4908
  O  O125  1  0.197100  0.516000  0.420100  1.0  -0.4687
  O  O126  1  0.376300  0.684800  0.499300  1.0  -0.4752
  O  O127  1  0.541500  0.774500  0.849400  1.0  -0.5913
  O  O128  1  0.454400  0.673500  0.925500  1.0  -0.5159
  O  O129  1  0.595900  0.777000  0.079900  1.0  -0.4913
  O  O130  1  0.685500  0.877000  0.000700  1.0  -0.468
  O  O131  1  0.807900  0.733000  0.458500  1.0  -0.5908
  O  O132  1  0.971100  0.719100  0.545600  1.0  -0.4928
  O  O133  1  0.984000  0.681100  0.404100  1.0  -0.4724
  O  O134  1  0.815200  0.691500  0.314500  1.0  -0.4737
  O  O135  1  0.725500  0.767000  0.574900  1.0  -0.5923
  O  O136  1  0.826500  0.780900  0.752000  1.0  -0.4853
  O  O137  1  0.723000  0.818900  0.802900  1.0  -0.4911
  O  O138  1  0.623000  0.808500  0.623700  1.0  -0.4692
  O  O139  1  0.774500  0.349400  0.041500  1.0  -0.5913
  O  O140  1  0.673500  0.425500  0.954400  1.0  -0.5147
  O  O141  1  0.777000  0.579900  0.095900  1.0  -0.489
  O  O142  1  0.877000  0.500700  0.185500  1.0  -0.4671
  O  O143  1  0.692100  0.150600  0.925100  1.0  -0.5904
  O  O144  1  0.528900  0.074500  0.748000  1.0  -0.4866
  O  O145  1  0.516000  0.920100  0.697100  1.0  -0.4689
  O  O146  1  0.684800  0.999300  0.876300  1.0  -0.4779
  O  O147  1  0.349400  0.541500  0.274500  1.0  -0.59
  O  O148  1  0.425500  0.454400  0.173500  1.0  -0.5135
  O  O149  1  0.579900  0.595900  0.277000  1.0  -0.4892
  O  O150  1  0.500700  0.685500  0.377000  1.0  -0.4653
  O  O151  1  0.150600  0.425100  0.192100  1.0  -0.5923
  O  O152  1  0.074500  0.248000  0.028900  1.0  -0.4896
  O  O153  1  0.920100  0.197100  0.016000  1.0  -0.4668
  O  O154  1  0.999300  0.376300  0.184800  1.0  -0.4727
  O  O155  1  0.733000  0.958500  0.307900  1.0  -0.5902
  O  O156  1  0.719100  0.045600  0.471100  1.0  -0.4901
  O  O157  1  0.681100  0.904100  0.484000  1.0  -0.4729
  O  O158  1  0.691500  0.814500  0.315200  1.0  -0.4707
  O  O159  1  0.767000  0.074900  0.225500  1.0  -0.5927
  O  O160  1  0.780900  0.252000  0.326500  1.0  -0.4874
  O  O161  1  0.818900  0.302900  0.223000  1.0  -0.482
  O  O162  1  0.808500  0.123700  0.123000  1.0  -0.4708
