# generated using pymatgen
data_Co2H23C34(NO2)5
_symmetry_space_group_name_H-M   'P 1'
_cell_length_a   13.84000000
_cell_length_b   15.65270000
_cell_length_c   20.32820000
_cell_angle_alpha   73.33680000
_cell_angle_beta   70.09790000
_cell_angle_gamma   63.76240000
_symmetry_Int_Tables_number   1
_chemical_formula_structural   Co2H23C34(NO2)5
_chemical_formula_sum   'Co8 H92 C136 N20 O40'
_cell_volume   3665.33975223
_cell_formula_units_Z   4
loop_
 _symmetry_equiv_pos_site_id
 _symmetry_equiv_pos_as_xyz
  1  'x, y, z'
loop_
 _atom_site_type_symbol
 _atom_site_label
 _atom_site_symmetry_multiplicity
 _atom_site_fract_x
 _atom_site_fract_y
 _atom_site_fract_z
 _atom_site_occupancy
 _atom_site_charge
  Co  Co1  1  0.025020  0.085190  0.505050  1.0  1.0759
  Co  Co2  1  0.769540  0.145440  0.556640  1.0  0.9319
  Co  Co3  1  0.615260  0.414810  0.994950  1.0  1.0743
  Co  Co4  1  0.471620  0.354560  0.943360  1.0  0.9287
  Co  Co5  1  0.974980  0.914810  0.494950  1.0  1.0741
  Co  Co6  1  0.230460  0.854560  0.443360  1.0  0.929
  Co  Co7  1  0.384740  0.585190  0.005050  1.0  1.0759
  Co  Co8  1  0.528380  0.645440  0.056640  1.0  0.932
  H  H9  1  0.659200  0.187100  0.440300  1.0  0.0872
  H  H10  1  0.507000  0.179800  0.425200  1.0  0.1175
  H  H11  1  0.394700  0.134900  0.636700  1.0  0.1261
  H  H12  1  0.552900  0.138600  0.646200  1.0  0.0913
  H  H13  1  0.233500  0.173100  0.618300  1.0  0.1312
  H  H14  1  0.092200  0.143500  0.607700  1.0  0.086
  H  H15  1  0.259100  0.070700  0.421100  1.0  0.0873
  H  H16  1  0.406100  0.098100  0.425900  1.0  0.1132
  H  H17  1  0.180000  0.215600  0.307800  1.0  0.0976
  H  H18  1  0.236300  0.324400  0.216800  1.0  0.1125
  H  H19  1  0.107600  0.449600  0.160200  1.0  0.0951
  H  H20  1  0.926900  0.463200  0.191600  1.0  0.0958
  H  H21  1  0.447800  0.385300  0.388700  1.0  0.0982
  H  H22  1  0.280500  0.368400  0.416400  1.0  0.1006
  H  H23  1  0.180300  0.421700  0.330700  1.0  0.127
  H  H24  1  0.244400  0.499100  0.221300  1.0  0.0992
  H  H25  1  0.006000  0.361300  0.465500  1.0  0.1092
  H  H26  1  0.007800  0.513800  0.415800  1.0  0.1222
  H  H27  1  0.844000  0.642200  0.405200  1.0  0.1021
  H  H28  1  0.680800  0.620200  0.437200  1.0  0.1085
  H  H29  1  0.812000  0.322400  0.331400  1.0  0.3312
  H  H30  1  0.571800  0.488400  0.229400  1.0  0.3294
  H  H31  1  0.648100  0.403800  0.513000  1.0  0.3246
  H  H32  1  0.286600  0.312900  0.059700  1.0  0.0889
  H  H33  1  0.112000  0.320200  0.074800  1.0  0.1163
  H  H34  1  0.166300  0.365100  0.863300  1.0  0.1272
  H  H35  1  0.337700  0.361400  0.853800  1.0  0.0904
  H  H36  1  0.024900  0.326900  0.881700  1.0  0.1306
  H  H37  1  0.843400  0.356500  0.892300  1.0  0.0886
  H  H38  1  0.750900  0.429300  0.078900  1.0  0.0863
  H  H39  1  0.930100  0.401900  0.074100  1.0  0.1145
  H  H40  1  0.703400  0.284400  0.192200  1.0  0.0976
  H  H41  1  0.777500  0.175600  0.283200  1.0  0.1093
  H  H42  1  0.717400  0.050400  0.339800  1.0  0.0952
  H  H43  1  0.581700  0.036800  0.308400  1.0  0.0954
  H  H44  1  0.221800  0.114700  0.111300  1.0  0.0977
  H  H45  1  0.065300  0.131600  0.083600  1.0  0.1006
  H  H46  1  0.932700  0.078300  0.169300  1.0  0.1242
  H  H47  1  0.964800  0.000900  0.278700  1.0  0.0983
  H  H48  1  0.832800  0.138700  0.034500  1.0  0.1084
  H  H49  1  0.937400  0.986200  0.084200  1.0  0.1199
  H  H50  1  0.891400  0.857800  0.094800  1.0  0.1027
  H  H51  1  0.738200  0.879800  0.062800  1.0  0.1084
  H  H52  1  0.465800  0.177600  0.168600  1.0  0.3313
  H  H53  1  0.289600  0.011600  0.270600  1.0  0.3306
  H  H54  1  0.564900  0.096200  0.987000  1.0  0.3244
  H  H55  1  0.340800  0.812900  0.559700  1.0  0.0877
  H  H56  1  0.493000  0.820200  0.574800  1.0  0.1171
  H  H57  1  0.605300  0.865100  0.363300  1.0  0.1263
  H  H58  1  0.447100  0.861400  0.353800  1.0  0.0918
  H  H59  1  0.766500  0.826900  0.381700  1.0  0.1305
  H  H60  1  0.907800  0.856500  0.392300  1.0  0.0852
  H  H61  1  0.740900  0.929300  0.578900  1.0  0.087
  H  H62  1  0.593900  0.901900  0.574100  1.0  0.1135
  H  H63  1  0.820000  0.784400  0.692200  1.0  0.0976
  H  H64  1  0.763700  0.675600  0.783200  1.0  0.1121
  H  H65  1  0.892400  0.550400  0.839800  1.0  0.0952
  H  H66  1  0.073100  0.536800  0.808400  1.0  0.0957
  H  H67  1  0.552200  0.614700  0.611300  1.0  0.0977
  H  H68  1  0.719500  0.631600  0.583600  1.0  0.1004
  H  H69  1  0.819700  0.578300  0.669300  1.0  0.1267
  H  H70  1  0.755600  0.500900  0.778700  1.0  0.0992
  H  H71  1  0.994000  0.638700  0.534500  1.0  0.1088
  H  H72  1  0.992200  0.486200  0.584200  1.0  0.1225
  H  H73  1  0.156000  0.357800  0.594800  1.0  0.1016
  H  H74  1  0.319200  0.379800  0.562800  1.0  0.1087
  H  H75  1  0.188000  0.677600  0.668600  1.0  0.3325
  H  H76  1  0.428200  0.511600  0.770600  1.0  0.3307
  H  H77  1  0.351900  0.596200  0.487000  1.0  0.3251
  H  H78  1  0.713400  0.687100  0.940300  1.0  0.0893
  H  H79  1  0.888000  0.679800  0.925200  1.0  0.1162
  H  H80  1  0.833700  0.634900  0.136700  1.0  0.1273
  H  H81  1  0.662300  0.638600  0.146200  1.0  0.0907
  H  H82  1  0.975100  0.673100  0.118300  1.0  0.1316
  H  H83  1  0.156600  0.643500  0.107700  1.0  0.0879
  H  H84  1  0.249100  0.570700  0.921100  1.0  0.086
  H  H85  1  0.069900  0.598100  0.925900  1.0  0.1141
  H  H86  1  0.296600  0.715600  0.807800  1.0  0.0976
  H  H87  1  0.222500  0.824400  0.716800  1.0  0.1086
  H  H88  1  0.282600  0.949600  0.660200  1.0  0.095
  H  H89  1  0.418300  0.963200  0.691600  1.0  0.0954
  H  H90  1  0.778200  0.885300  0.888700  1.0  0.0977
  H  H91  1  0.934700  0.868400  0.916400  1.0  0.1011
  H  H92  1  0.067300  0.921700  0.830700  1.0  0.1247
  H  H93  1  0.035200  0.999100  0.721300  1.0  0.0992
  H  H94  1  0.167200  0.861300  0.965500  1.0  0.1085
  H  H95  1  0.062600  0.013800  0.915800  1.0  0.1192
  H  H96  1  0.108600  0.142200  0.905200  1.0  0.1023
  H  H97  1  0.261800  0.120200  0.937200  1.0  0.1087
  H  H98  1  0.534200  0.822400  0.831400  1.0  0.3325
  H  H99  1  0.710400  0.988400  0.729400  1.0  0.3277
  H  H100  1  0.435100  0.903800  0.013000  1.0  0.3249
  C  C101  1  0.606440  0.174120  0.480200  1.0  0.177
  C  C102  1  0.515050  0.170200  0.470700  1.0  -0.1942
  C  C103  1  0.434220  0.151740  0.529620  1.0  0.083
  C  C104  1  0.448940  0.142940  0.595980  1.0  -0.171
  C  C105  1  0.543820  0.146260  0.601300  1.0  0.1726
  C  C106  1  0.338740  0.137830  0.523090  1.0  0.0816
  C  C107  1  0.241060  0.151780  0.577900  1.0  -0.1966
  C  C108  1  0.156520  0.133760  0.571000  1.0  0.1802
  C  C109  1  0.254640  0.090920  0.461200  1.0  0.1875
  C  C110  1  0.343460  0.107380  0.463700  1.0  -0.1535
  C  C111  1  0.989700  0.195190  0.363210  1.0  0.6884
  C  C112  1  0.019670  0.270620  0.304440  1.0  -0.2291
  C  C113  1  0.128520  0.264860  0.284300  1.0  -0.0221
  C  C114  1  0.162500  0.330400  0.230200  1.0  -0.0713
  C  C115  1  0.085700  0.404800  0.196200  1.0  -0.0704
  C  C116  1  0.977500  0.412900  0.215100  1.0  -0.1399
  C  C117  1  0.941930  0.346740  0.269200  1.0  0.1254
  C  C118  1  0.747230  0.413140  0.260000  1.0  0.5229
  C  C119  1  0.636920  0.403560  0.303400  1.0  0.5426
  C  C120  1  0.450400  0.448100  0.286900  1.0  0.1854
  C  C121  1  0.408100  0.406800  0.354400  1.0  -0.1526
  C  C122  1  0.307600  0.397100  0.371100  1.0  -0.0828
  C  C123  1  0.246700  0.430200  0.320200  1.0  -0.1371
  C  C124  1  0.286300  0.475200  0.254600  1.0  -0.03
  C  C125  1  0.386730  0.486410  0.236130  1.0  -0.1869
  C  C126  1  0.418090  0.540550  0.163870  1.0  0.6872
  C  C127  1  0.849010  0.296080  0.510300  1.0  0.6836
  C  C128  1  0.840850  0.397400  0.481300  1.0  -0.1966
  C  C129  1  0.940000  0.413100  0.459900  1.0  -0.046
  C  C130  1  0.941300  0.504400  0.430600  1.0  -0.089
  C  C131  1  0.843600  0.580600  0.423600  1.0  -0.0956
  C  C132  1  0.745800  0.567800  0.443200  1.0  -0.163
  C  C133  1  0.742360  0.476680  0.472200  1.0  0.1906
  C  C134  1  0.541810  0.524480  0.485500  1.0  0.5037
  C  C135  1  0.260760  0.325880  0.019800  1.0  0.1761
  C  C136  1  0.155950  0.329800  0.029300  1.0  -0.1957
  C  C137  1  0.115580  0.348260  0.970380  1.0  0.0836
  C  C138  1  0.187860  0.357060  0.904020  1.0  -0.173
  C  C139  1  0.291380  0.353740  0.898700  1.0  0.1708
  C  C140  1  0.999660  0.362170  0.976910  1.0  0.0817
  C  C141  1  0.970740  0.348220  0.922100  1.0  -0.1979
  C  C142  1  0.861280  0.366240  0.929000  1.0  0.1798
  C  C143  1  0.806760  0.409080  0.038800  1.0  0.1876
  C  C144  1  0.914540  0.392620  0.036300  1.0  -0.1535
  C  C145  1  0.548100  0.304810  0.136790  1.0  0.6884
  C  C146  1  0.594730  0.229380  0.195560  1.0  -0.2292
  C  C147  1  0.677680  0.235140  0.215700  1.0  -0.0235
  C  C148  1  0.723100  0.169600  0.269800  1.0  -0.0712
  C  C149  1  0.686700  0.095200  0.303800  1.0  -0.0739
  C  C150  1  0.605500  0.087100  0.284900  1.0  -0.1387
  C  C151  1  0.557870  0.153260  0.230800  1.0  0.125
  C  C152  1  0.420370  0.086860  0.240000  1.0  0.5245
  C  C153  1  0.343880  0.096440  0.196600  1.0  0.5452
  C  C154  1  0.185400  0.051900  0.213100  1.0  0.1845
  C  C155  1  0.169300  0.093200  0.145600  1.0  -0.1528
  C  C156  1  0.075800  0.102900  0.128900  1.0  -0.0825
  C  C157  1  0.997100  0.069800  0.179800  1.0  -0.1358
  C  C158  1  0.016100  0.024800  0.245400  1.0  -0.0294
  C  C159  1  0.109270  0.013590  0.263870  1.0  -0.1854
  C  C160  1  0.122510  0.959450  0.336130  1.0  0.6848
  C  C161  1  0.655390  0.203920  0.989700  1.0  0.6849
  C  C162  1  0.719550  0.102600  0.018700  1.0  -0.1979
  C  C163  1  0.813000  0.086900  0.040100  1.0  -0.0459
  C  C164  1  0.876300  0.995600  0.069400  1.0  -0.0865
  C  C165  1  0.847800  0.919400  0.076400  1.0  -0.0958
  C  C166  1  0.756800  0.932200  0.056800  1.0  -0.1647
  C  C167  1  0.691240  0.023320  0.027800  1.0  0.1903
  C  C168  1  0.551790  0.975520  0.014500  1.0  0.5039
  C  C169  1  0.393560  0.825880  0.519800  1.0  0.1764
  C  C170  1  0.484950  0.829800  0.529300  1.0  -0.1958
  C  C171  1  0.565780  0.848260  0.470380  1.0  0.0823
  C  C172  1  0.551060  0.857060  0.404020  1.0  -0.1741
  C  C173  1  0.456180  0.853740  0.398700  1.0  0.1724
  C  C174  1  0.661260  0.862170  0.476910  1.0  0.0817
  C  C175  1  0.758940  0.848220  0.422100  1.0  -0.1952
  C  C176  1  0.843480  0.866240  0.429000  1.0  0.1806
  C  C177  1  0.745360  0.909080  0.538800  1.0  0.1869
  C  C178  1  0.656540  0.892620  0.536300  1.0  -0.1527
  C  C179  1  0.010300  0.804810  0.636790  1.0  0.6881
  C  C180  1  0.980330  0.729380  0.695560  1.0  -0.2295
  C  C181  1  0.871480  0.735140  0.715700  1.0  -0.0219
  C  C182  1  0.837500  0.669600  0.769800  1.0  -0.0704
  C  C183  1  0.914300  0.595200  0.803800  1.0  -0.0732
  C  C184  1  0.022500  0.587100  0.784900  1.0  -0.1385
  C  C185  1  0.058070  0.653260  0.730800  1.0  0.1252
  C  C186  1  0.252770  0.586860  0.740000  1.0  0.5218
  C  C187  1  0.363080  0.596440  0.696600  1.0  0.546
  C  C188  1  0.549600  0.551900  0.713100  1.0  0.1845
  C  C189  1  0.591900  0.593200  0.645600  1.0  -0.1526
  C  C190  1  0.692400  0.602900  0.628900  1.0  -0.0826
  C  C191  1  0.753300  0.569800  0.679800  1.0  -0.1368
  C  C192  1  0.713700  0.524800  0.745400  1.0  -0.0302
  C  C193  1  0.613270  0.513590  0.763870  1.0  -0.1867
  C  C194  1  0.581910  0.459450  0.836130  1.0  0.6847
  C  C195  1  0.150990  0.703920  0.489700  1.0  0.6848
  C  C196  1  0.159150  0.602600  0.518700  1.0  -0.1966
  C  C197  1  0.060000  0.586900  0.540100  1.0  -0.0445
  C  C198  1  0.058700  0.495600  0.569400  1.0  -0.0872
  C  C199  1  0.156400  0.419400  0.576400  1.0  -0.0967
  C  C200  1  0.254200  0.432200  0.556800  1.0  -0.1648
  C  C201  1  0.257640  0.523320  0.527800  1.0  0.1901
  C  C202  1  0.458190  0.475520  0.514500  1.0  0.5046
  C  C203  1  0.739240  0.674120  0.980200  1.0  0.1756
  C  C204  1  0.844050  0.670200  0.970700  1.0  -0.1957
  C  C205  1  0.884420  0.651740  0.029620  1.0  0.0844
  C  C206  1  0.812140  0.642940  0.095980  1.0  -0.1716
  C  C207  1  0.708620  0.646260  0.101300  1.0  0.1709
  C  C208  1  0.000340  0.637830  0.023090  1.0  0.0828
  C  C209  1  0.029260  0.651780  0.077900  1.0  -0.1964
  C  C210  1  0.138720  0.633760  0.071000  1.0  0.1804
  C  C211  1  0.193240  0.590920  0.961200  1.0  0.187
  C  C212  1  0.085460  0.607380  0.963700  1.0  -0.1542
  C  C213  1  0.451900  0.695190  0.863210  1.0  0.6884
  C  C214  1  0.405270  0.770620  0.804440  1.0  -0.2291
  C  C215  1  0.322320  0.764860  0.784300  1.0  -0.0231
  C  C216  1  0.276900  0.830400  0.730200  1.0  -0.0699
  C  C217  1  0.313300  0.904800  0.696200  1.0  -0.0723
  C  C218  1  0.394500  0.912900  0.715100  1.0  -0.1398
  C  C219  1  0.442130  0.846740  0.769200  1.0  0.1254
  C  C220  1  0.579630  0.913140  0.760000  1.0  0.524
  C  C221  1  0.656120  0.903560  0.803400  1.0  0.5443
  C  C222  1  0.814600  0.948100  0.786900  1.0  0.1856
  C  C223  1  0.830700  0.906800  0.854400  1.0  -0.1523
  C  C224  1  0.924200  0.897100  0.871100  1.0  -0.0806
  C  C225  1  0.002900  0.930200  0.820200  1.0  -0.1365
  C  C226  1  0.983900  0.975200  0.754600  1.0  -0.0293
  C  C227  1  0.890730  0.986410  0.736130  1.0  -0.1857
  C  C228  1  0.877490  0.040550  0.663870  1.0  0.6876
  C  C229  1  0.344610  0.796080  0.010300  1.0  0.684
  C  C230  1  0.280450  0.897400  0.981300  1.0  -0.1978
  C  C231  1  0.187000  0.913100  0.959900  1.0  -0.0448
  C  C232  1  0.123700  0.004400  0.930600  1.0  -0.0871
  C  C233  1  0.152200  0.080600  0.923600  1.0  -0.0949
  C  C234  1  0.243200  0.067800  0.943200  1.0  -0.1666
  C  C235  1  0.308760  0.976680  0.972200  1.0  0.1901
  C  C236  1  0.448210  0.024480  0.985500  1.0  0.5025
  N  N237  1  0.623310  0.160010  0.544530  1.0  -0.3444
  N  N238  1  0.161890  0.103000  0.514540  1.0  -0.3242
  N  N239  1  0.829830  0.357100  0.291640  1.0  -0.3806
  N  N240  1  0.556370  0.451200  0.268260  1.0  -0.3823
  N  N241  1  0.643400  0.461300  0.492900  1.0  -0.3907
  N  N242  1  0.327850  0.339990  0.955470  1.0  -0.3451
  N  N243  1  0.779430  0.397000  0.985460  1.0  -0.3227
  N  N244  1  0.478570  0.142900  0.208360  1.0  -0.3815
  N  N245  1  0.275830  0.048800  0.231740  1.0  -0.384
  N  N246  1  0.597600  0.038700  0.007100  1.0  -0.3897
  N  N247  1  0.376690  0.839990  0.455470  1.0  -0.3463
  N  N248  1  0.838110  0.897000  0.485460  1.0  -0.3216
  N  N249  1  0.170170  0.642900  0.708360  1.0  -0.3794
  N  N250  1  0.443630  0.548800  0.731740  1.0  -0.3841
  N  N251  1  0.356600  0.538700  0.507100  1.0  -0.3899
  N  N252  1  0.672150  0.660010  0.044530  1.0  -0.3452
  N  N253  1  0.220570  0.603000  0.014540  1.0  -0.3217
  N  N254  1  0.521430  0.857100  0.791640  1.0  -0.3813
  N  N255  1  0.724170  0.951200  0.768260  1.0  -0.3832
  N  N256  1  0.402400  0.961300  0.992900  1.0  -0.3901
  O  O257  1  0.107120  0.937590  0.506870  1.0  -0.6776
  O  O258  1  0.064970  0.135630  0.394730  1.0  -0.5854
  O  O259  1  0.894130  0.195050  0.378210  1.0  -0.5832
  O  O260  1  0.494950  0.571720  0.151560  1.0  -0.5964
  O  O261  1  0.366050  0.555500  0.119120  1.0  -0.6232
  O  O262  1  0.628830  0.356920  0.363020  1.0  -0.5164
  O  O263  1  0.754120  0.464340  0.202020  1.0  -0.5208
  O  O264  1  0.759910  0.279390  0.530710  1.0  -0.6576
  O  O265  1  0.942160  0.232480  0.513520  1.0  -0.5835
  O  O266  1  0.514570  0.609760  0.460300  1.0  -0.5118
  O  O267  1  0.551580  0.562410  0.993130  1.0  -0.6775
  O  O268  1  0.595330  0.364370  0.105270  1.0  -0.5846
  O  O269  1  0.467390  0.304950  0.121790  1.0  -0.5817
  O  O270  1  0.218230  0.928280  0.348440  1.0  -0.6003
  O  O271  1  0.040670  0.944500  0.380880  1.0  -0.6227
  O  O272  1  0.348770  0.143080  0.136980  1.0  -0.5183
  O  O273  1  0.420480  0.035660  0.297980  1.0  -0.5217
  O  O274  1  0.570010  0.220610  0.969290  1.0  -0.6572
  O  O275  1  0.688160  0.267520  0.986480  1.0  -0.5793
  O  O276  1  0.584630  0.890240  0.039700  1.0  -0.5099
  O  O277  1  0.892880  0.062410  0.493130  1.0  -0.6776
  O  O278  1  0.935030  0.864370  0.605270  1.0  -0.5862
  O  O279  1  0.105870  0.804950  0.621790  1.0  -0.5823
  O  O280  1  0.505050  0.428280  0.848440  1.0  -0.5988
  O  O281  1  0.633950  0.444500  0.880880  1.0  -0.6239
  O  O282  1  0.371170  0.643080  0.636980  1.0  -0.5175
  O  O283  1  0.245880  0.535660  0.797980  1.0  -0.5204
  O  O284  1  0.240090  0.720610  0.469290  1.0  -0.6577
  O  O285  1  0.057840  0.767520  0.486480  1.0  -0.5821
  O  O286  1  0.485430  0.390240  0.539700  1.0  -0.5094
  O  O287  1  0.448420  0.437590  0.006870  1.0  -0.678
  O  O288  1  0.404670  0.635630  0.894730  1.0  -0.5859
  O  O289  1  0.532610  0.695050  0.878210  1.0  -0.5814
  O  O290  1  0.781770  0.071720  0.651560  1.0  -0.599
  O  O291  1  0.959330  0.055500  0.619120  1.0  -0.6225
  O  O292  1  0.651230  0.856920  0.863020  1.0  -0.5177
  O  O293  1  0.579520  0.964340  0.702020  1.0  -0.5218
  O  O294  1  0.429990  0.779390  0.030710  1.0  -0.6576
  O  O295  1  0.311840  0.732480  0.013520  1.0  -0.5803
  O  O296  1  0.415370  0.109760  0.960300  1.0  -0.511
