# generated using pymatgen
data_ZnH12C15NO5
_symmetry_space_group_name_H-M   'P 1'
_cell_length_a   10.36300000
_cell_length_b   12.74280000
_cell_length_c   12.74280000
_cell_angle_alpha   107.82200000
_cell_angle_beta   93.20490000
_cell_angle_gamma   86.79510000
_symmetry_Int_Tables_number   1
_chemical_formula_structural   ZnH12C15NO5
_chemical_formula_sum   'Zn4 H48 C60 N4 O20'
_cell_volume   1598.14363039
_cell_formula_units_Z   4
loop_
 _symmetry_equiv_pos_site_id
 _symmetry_equiv_pos_as_xyz
  1  'x, y, z'
loop_
 _atom_site_type_symbol
 _atom_site_label
 _atom_site_symmetry_multiplicity
 _atom_site_fract_x
 _atom_site_fract_y
 _atom_site_fract_z
 _atom_site_occupancy
 _atom_site_charge
  Zn  Zn1  1  0.899710  0.579950  0.978150  1.0  0.9371
  Zn  Zn2  1  0.600290  0.978150  0.579950  1.0  0.9373
  Zn  Zn3  1  0.100290  0.420050  0.021850  1.0  0.9371
  Zn  Zn4  1  0.399710  0.021850  0.420050  1.0  0.9374
  H  H5  1  0.778200  0.382100  0.647700  1.0  0.0951
  H  H6  1  0.738300  0.259300  0.475900  1.0  0.1255
  H  H7  1  0.072300  0.093000  0.507200  1.0  0.121
  H  H8  1  0.106800  0.213100  0.681700  1.0  0.0907
  H  H9  1  0.743100  0.153800  0.306400  1.0  0.0921
  H  H10  1  0.772200  0.029300  0.242900  1.0  0.1118
  H  H11  1  0.734900  0.668400  0.820200  1.0  0.0871
  H  H12  1  0.581600  0.805800  0.824400  1.0  0.133
  H  H13  1  0.563400  0.861900  0.147900  1.0  0.1318
  H  H14  1  0.718400  0.723500  0.136300  1.0  0.0744
  H  H15  1  0.408500  0.932100  0.926700  1.0  0.0991
  H  H16  1  0.408700  0.959400  0.055600  1.0  0.0994
  H  H17  1  0.721800  0.647700  0.382100  1.0  0.0953
  H  H18  1  0.761700  0.475900  0.259300  1.0  0.1271
  H  H19  1  0.427700  0.507200  0.093000  1.0  0.1205
  H  H20  1  0.393200  0.681700  0.213100  1.0  0.0907
  H  H21  1  0.756900  0.306400  0.153800  1.0  0.0932
  H  H22  1  0.727800  0.242900  0.029300  1.0  0.1128
  H  H23  1  0.765100  0.820200  0.668400  1.0  0.0878
  H  H24  1  0.918400  0.824400  0.805800  1.0  0.1341
  H  H25  1  0.936600  0.147900  0.861900  1.0  0.1314
  H  H26  1  0.781600  0.136300  0.723500  1.0  0.0739
  H  H27  1  0.091500  0.926700  0.932100  1.0  0.0987
  H  H28  1  0.091300  0.055600  0.959400  1.0  0.0998
  H  H29  1  0.221800  0.617900  0.352300  1.0  0.0941
  H  H30  1  0.261700  0.740700  0.524100  1.0  0.126
  H  H31  1  0.927700  0.907000  0.492800  1.0  0.1208
  H  H32  1  0.893200  0.786900  0.318300  1.0  0.0907
  H  H33  1  0.256900  0.846200  0.693600  1.0  0.0925
  H  H34  1  0.227800  0.970700  0.757100  1.0  0.1123
  H  H35  1  0.265100  0.331600  0.179800  1.0  0.0872
  H  H36  1  0.418400  0.194200  0.175600  1.0  0.1327
  H  H37  1  0.436600  0.138100  0.852100  1.0  0.1326
  H  H38  1  0.281600  0.276500  0.863700  1.0  0.0751
  H  H39  1  0.591500  0.067900  0.073300  1.0  0.0974
  H  H40  1  0.591300  0.040600  0.944400  1.0  0.0992
  H  H41  1  0.278200  0.352300  0.617900  1.0  0.0951
  H  H42  1  0.238300  0.524100  0.740700  1.0  0.1267
  H  H43  1  0.572300  0.492800  0.907000  1.0  0.1203
  H  H44  1  0.606800  0.318300  0.786900  1.0  0.0902
  H  H45  1  0.243100  0.693600  0.846200  1.0  0.0914
  H  H46  1  0.272200  0.757100  0.970700  1.0  0.112
  H  H47  1  0.234900  0.179800  0.331600  1.0  0.0863
  H  H48  1  0.081600  0.175600  0.194200  1.0  0.135
  H  H49  1  0.063400  0.852100  0.138100  1.0  0.1315
  H  H50  1  0.218400  0.863700  0.276500  1.0  0.0742
  H  H51  1  0.908500  0.073300  0.067900  1.0  0.0978
  H  H52  1  0.908700  0.944400  0.040600  1.0  0.1001
  C  C53  1  0.967600  0.388000  0.796800  1.0  0.691
  C  C54  1  0.946300  0.311300  0.684100  1.0  -0.2201
  C  C55  1  0.836800  0.323300  0.620100  1.0  0.0209
  C  C56  1  0.812900  0.250300  0.516900  1.0  -0.2632
  C  C57  1  0.901100  0.162800  0.474400  1.0  0.2925
  C  C58  1  0.012200  0.150200  0.535800  1.0  -0.2393
  C  C59  1  0.033200  0.223100  0.640100  1.0  0.0025
  C  C60  1  0.765400  0.082200  0.315800  1.0  -0.0624
  C  C61  1  0.657000  0.049900  0.374100  1.0  0.6657
  C  C62  1  0.701700  0.709000  0.887600  1.0  0.1684
  C  C63  1  0.609100  0.791300  0.889500  1.0  -0.2225
  C  C64  1  0.557600  0.851600  0.987200  1.0  0.1523
  C  C65  1  0.598400  0.824500  0.080300  1.0  -0.2229
  C  C66  1  0.691800  0.741300  0.072700  1.0  0.1845
  C  C67  1  0.463400  0.948000  0.993400  1.0  -0.1926
  C  C68  1  0.532400  0.796800  0.388000  1.0  0.6908
  C  C69  1  0.553700  0.684100  0.311300  1.0  -0.2199
  C  C70  1  0.663200  0.620100  0.323300  1.0  0.0247
  C  C71  1  0.687100  0.516900  0.250300  1.0  -0.2617
  C  C72  1  0.598900  0.474400  0.162800  1.0  0.2939
  C  C73  1  0.487800  0.535800  0.150200  1.0  -0.2367
  C  C74  1  0.466800  0.640100  0.223100  1.0  0.0061
  C  C75  1  0.734600  0.315800  0.082200  1.0  -0.0589
  C  C76  1  0.843000  0.374100  0.049900  1.0  0.6641
  C  C77  1  0.798300  0.887600  0.709000  1.0  0.1705
  C  C78  1  0.890900  0.889500  0.791300  1.0  -0.2245
  C  C79  1  0.942400  0.987200  0.851600  1.0  0.1549
  C  C80  1  0.901600  0.080300  0.824500  1.0  -0.2235
  C  C81  1  0.808200  0.072700  0.741300  1.0  0.1845
  C  C82  1  0.036600  0.993400  0.948000  1.0  -0.197
  C  C83  1  0.032400  0.612000  0.203200  1.0  0.6909
  C  C84  1  0.053700  0.688700  0.315900  1.0  -0.2201
  C  C85  1  0.163200  0.676700  0.379900  1.0  0.0216
  C  C86  1  0.187100  0.749700  0.483100  1.0  -0.265
  C  C87  1  0.098900  0.837200  0.525600  1.0  0.293
  C  C88  1  0.987800  0.849800  0.464200  1.0  -0.2382
  C  C89  1  0.966800  0.776900  0.359900  1.0  0.0042
  C  C90  1  0.234600  0.917800  0.684200  1.0  -0.0658
  C  C91  1  0.343000  0.950100  0.625900  1.0  0.665
  C  C92  1  0.298300  0.291000  0.112400  1.0  0.1688
  C  C93  1  0.390900  0.208700  0.110500  1.0  -0.2206
  C  C94  1  0.442400  0.148400  0.012800  1.0  0.153
  C  C95  1  0.401600  0.175500  0.919700  1.0  -0.2235
  C  C96  1  0.308200  0.258700  0.927300  1.0  0.1844
  C  C97  1  0.536600  0.052000  0.006600  1.0  -0.195
  C  C98  1  0.467600  0.203200  0.612000  1.0  0.6915
  C  C99  1  0.446300  0.315900  0.688700  1.0  -0.2191
  C  C100  1  0.336800  0.379900  0.676700  1.0  0.0273
  C  C101  1  0.312900  0.483100  0.749700  1.0  -0.2626
  C  C102  1  0.401100  0.525600  0.837200  1.0  0.2921
  C  C103  1  0.512200  0.464200  0.849800  1.0  -0.2386
  C  C104  1  0.533200  0.359900  0.776900  1.0  0.0038
  C  C105  1  0.265400  0.684200  0.917800  1.0  -0.0576
  C  C106  1  0.157000  0.625900  0.950100  1.0  0.665
  C  C107  1  0.201700  0.112400  0.291000  1.0  0.1696
  C  C108  1  0.109100  0.110500  0.208700  1.0  -0.227
  C  C109  1  0.057600  0.012800  0.148400  1.0  0.1541
  C  C110  1  0.098400  0.919700  0.175500  1.0  -0.2227
  C  C111  1  0.191800  0.927300  0.258700  1.0  0.1844
  C  C112  1  0.963400  0.006600  0.052000  1.0  -0.195
  N  N113  1  0.745700  0.685090  0.978310  1.0  -0.328
  N  N114  1  0.754300  0.978310  0.685090  1.0  -0.3307
  N  N115  1  0.254300  0.314910  0.021690  1.0  -0.33
  N  N116  1  0.245700  0.021690  0.314910  1.0  -0.3283
  O  O117  1  0.903900  0.478640  0.822640  1.0  -0.5869
  O  O118  1  0.048200  0.356370  0.860330  1.0  -0.6115
  O  O119  1  0.887300  0.086790  0.372830  1.0  -0.2492
  O  O120  1  0.544900  0.057960  0.332840  1.0  -0.6035
  O  O121  1  0.687800  0.016420  0.454300  1.0  -0.5793
  O  O122  1  0.596100  0.822640  0.478640  1.0  -0.5876
  O  O123  1  0.451800  0.860330  0.356370  1.0  -0.6121
  O  O124  1  0.612700  0.372830  0.086790  1.0  -0.2495
  O  O125  1  0.955100  0.332840  0.057960  1.0  -0.6026
  O  O126  1  0.812200  0.454300  0.016420  1.0  -0.5778
  O  O127  1  0.096100  0.521360  0.177360  1.0  -0.5863
  O  O128  1  0.951800  0.643630  0.139670  1.0  -0.6119
  O  O129  1  0.112700  0.913210  0.627170  1.0  -0.2488
  O  O130  1  0.455100  0.942040  0.667160  1.0  -0.6022
  O  O131  1  0.312200  0.983580  0.545700  1.0  -0.5782
  O  O132  1  0.403900  0.177360  0.521360  1.0  -0.5871
  O  O133  1  0.548200  0.139670  0.643630  1.0  -0.6119
  O  O134  1  0.387300  0.627170  0.913210  1.0  -0.2493
  O  O135  1  0.044900  0.667160  0.942040  1.0  -0.6036
  O  O136  1  0.187800  0.545700  0.983580  1.0  -0.58
