# generated using pymatgen
data_Zn2P3(HO4)3
_symmetry_space_group_name_H-M   'P 1'
_cell_length_a   16.23870000
_cell_length_b   9.37080000
_cell_length_c   10.50070000
_cell_angle_alpha   90.00000000
_cell_angle_beta   93.89800000
_cell_angle_gamma   90.00000000
_symmetry_Int_Tables_number   1
_chemical_formula_structural   Zn2P3(HO4)3
_chemical_formula_sum   'Zn8 P12 H12 O48'
_cell_volume   1594.19095429
_cell_formula_units_Z   4
loop_
 _symmetry_equiv_pos_site_id
 _symmetry_equiv_pos_as_xyz
  1  'x, y, z'
loop_
 _atom_site_type_symbol
 _atom_site_label
 _atom_site_symmetry_multiplicity
 _atom_site_fract_x
 _atom_site_fract_y
 _atom_site_fract_z
 _atom_site_occupancy
 _atom_site_charge
  Zn  Zn1  1  0.047480  0.429010  0.838360  1.0  1.17
  Zn  Zn2  1  0.414870  0.626090  0.861530  1.0  1.0919
  Zn  Zn3  1  0.952520  0.929010  0.661640  1.0  1.1689
  Zn  Zn4  1  0.585130  0.126090  0.638470  1.0  1.0921
  Zn  Zn5  1  0.952520  0.570990  0.161640  1.0  1.1689
  Zn  Zn6  1  0.585130  0.373910  0.138470  1.0  1.0913
  Zn  Zn7  1  0.047480  0.070990  0.338360  1.0  1.1697
  Zn  Zn8  1  0.414870  0.873910  0.361530  1.0  1.0895
  P  P9  1  0.938420  0.707170  0.888430  1.0  1.7748
  P  P10  1  0.246120  0.477250  0.881730  1.0  1.8032
  P  P11  1  0.460480  0.613250  0.159080  1.0  1.7974
  P  P12  1  0.061580  0.207170  0.611570  1.0  1.773
  P  P13  1  0.753880  0.977250  0.618270  1.0  1.8035
  P  P14  1  0.539520  0.113250  0.340920  1.0  1.7963
  P  P15  1  0.061580  0.292830  0.111570  1.0  1.7734
  P  P16  1  0.753880  0.522750  0.118270  1.0  1.8037
  P  P17  1  0.539520  0.386750  0.840920  1.0  1.7952
  P  P18  1  0.938420  0.792830  0.388430  1.0  1.7753
  P  P19  1  0.246120  0.022750  0.381730  1.0  1.8033
  P  P20  1  0.460480  0.886750  0.659080  1.0  1.7959
  H  H21  1  0.818300  0.672400  0.917800  1.0  0.3998
  H  H22  1  0.226500  0.335100  0.739200  1.0  0.3908
  H  H23  1  0.421100  0.418500  0.103500  1.0  0.4242
  H  H24  1  0.181700  0.172400  0.582200  1.0  0.3996
  H  H25  1  0.773500  0.835100  0.760800  1.0  0.3918
  H  H26  1  0.578900  0.918500  0.396500  1.0  0.4245
  H  H27  1  0.181700  0.327600  0.082200  1.0  0.3998
  H  H28  1  0.773500  0.664900  0.260800  1.0  0.3912
  H  H29  1  0.578900  0.581500  0.896500  1.0  0.4249
  H  H30  1  0.818300  0.827600  0.417800  1.0  0.3999
  H  H31  1  0.226500  0.164900  0.239200  1.0  0.3913
  H  H32  1  0.421100  0.081500  0.603500  1.0  0.424
  O  O33  1  0.840670  0.719300  0.863900  1.0  -0.6245
  O  O34  1  0.961410  0.567600  0.829800  1.0  -0.8171
  O  O35  1  0.971090  0.836800  0.824230  1.0  -0.7834
  O  O36  1  0.960880  0.712800  0.030320  1.0  -0.7353
  O  O37  1  0.156150  0.514000  0.866700  1.0  -0.7796
  O  O38  1  0.270160  0.399600  0.005900  1.0  -0.7311
  O  O39  1  0.268520  0.374400  0.769400  1.0  -0.6389
  O  O40  1  0.298640  0.609700  0.870700  1.0  -0.7382
  O  O41  1  0.429810  0.713200  0.254500  1.0  -0.8681
  O  O42  1  0.542530  0.549500  0.207400  1.0  -0.7353
  O  O43  1  0.464790  0.681800  0.028460  1.0  -0.7442
  O  O44  1  0.400620  0.480400  0.146600  1.0  -0.6506
  O  O45  1  0.159330  0.219300  0.636100  1.0  -0.6227
  O  O46  1  0.038590  0.067600  0.670200  1.0  -0.8171
  O  O47  1  0.028910  0.336800  0.675770  1.0  -0.785
  O  O48  1  0.039120  0.212800  0.469680  1.0  -0.7378
  O  O49  1  0.843850  0.014000  0.633300  1.0  -0.7789
  O  O50  1  0.729840  0.899600  0.494100  1.0  -0.7311
  O  O51  1  0.731480  0.874400  0.730600  1.0  -0.6438
  O  O52  1  0.701360  0.109700  0.629300  1.0  -0.7378
  O  O53  1  0.570190  0.213200  0.245500  1.0  -0.869
  O  O54  1  0.457470  0.049500  0.292600  1.0  -0.737
  O  O55  1  0.535210  0.181800  0.471540  1.0  -0.7437
  O  O56  1  0.599380  0.980400  0.353400  1.0  -0.6504
  O  O57  1  0.159330  0.280700  0.136100  1.0  -0.6236
  O  O58  1  0.038590  0.432400  0.170200  1.0  -0.8182
  O  O59  1  0.028910  0.163200  0.175770  1.0  -0.7844
  O  O60  1  0.039120  0.287200  0.969680  1.0  -0.7389
  O  O61  1  0.843850  0.486000  0.133300  1.0  -0.7767
  O  O62  1  0.729840  0.600400  0.994100  1.0  -0.7304
  O  O63  1  0.731480  0.625600  0.230600  1.0  -0.6437
  O  O64  1  0.701360  0.390300  0.129300  1.0  -0.7384
  O  O65  1  0.570190  0.286800  0.745500  1.0  -0.8689
  O  O66  1  0.457470  0.450500  0.792600  1.0  -0.7376
  O  O67  1  0.535210  0.318200  0.971540  1.0  -0.7438
  O  O68  1  0.599380  0.519600  0.853400  1.0  -0.6503
  O  O69  1  0.840670  0.780700  0.363900  1.0  -0.6243
  O  O70  1  0.961410  0.932400  0.329800  1.0  -0.8181
  O  O71  1  0.971090  0.663200  0.324230  1.0  -0.7815
  O  O72  1  0.960880  0.787200  0.530320  1.0  -0.7362
  O  O73  1  0.156150  0.986000  0.366700  1.0  -0.7769
  O  O74  1  0.270160  0.100400  0.505900  1.0  -0.7308
  O  O75  1  0.268520  0.125600  0.269400  1.0  -0.6385
  O  O76  1  0.298640  0.890300  0.370700  1.0  -0.7393
  O  O77  1  0.429810  0.786800  0.754500  1.0  -0.8674
  O  O78  1  0.542530  0.950500  0.707400  1.0  -0.7354
  O  O79  1  0.464790  0.818200  0.528460  1.0  -0.7447
  O  O80  1  0.400620  0.019600  0.646600  1.0  -0.6505
