# generated using pymatgen
data_LaH9C21(SO2)3
_symmetry_space_group_name_H-M   'P 1'
_cell_length_a   8.20600000
_cell_length_b   14.18330000
_cell_length_c   14.18330000
_cell_angle_alpha   110.03100000
_cell_angle_beta   91.26500000
_cell_angle_gamma   88.73500000
_symmetry_Int_Tables_number   1
_chemical_formula_structural   LaH9C21(SO2)3
_chemical_formula_sum   'La2 H18 C42 S6 O12'
_cell_volume   1550.34585333
_cell_formula_units_Z   2
loop_
 _symmetry_equiv_pos_site_id
 _symmetry_equiv_pos_as_xyz
  1  'x, y, z'
loop_
 _atom_site_type_symbol
 _atom_site_label
 _atom_site_symmetry_multiplicity
 _atom_site_fract_x
 _atom_site_fract_y
 _atom_site_fract_z
 _atom_site_occupancy
 _atom_site_charge
  La  La1  1  0.003450  0.748780  0.218000  1.0  2.165
  La  La2  1  0.503450  0.782000  0.251220  1.0  2.1655
  H  H3  1  0.497300  0.563200  0.602200  1.0  0.1068
  H  H4  1  0.428700  0.281800  0.408200  1.0  0.1061
  H  H5  1  0.277100  0.357400  0.694800  1.0  0.1106
  H  H6  1  0.463900  0.742900  0.953700  1.0  0.1184
  H  H7  1  0.526700  0.660300  0.775100  1.0  0.1185
  H  H8  1  0.784600  0.395600  0.217200  1.0  0.1176
  H  H9  1  0.626700  0.313500  0.314300  1.0  0.1091
  H  H10  1  0.050900  0.039500  0.570700  1.0  0.123
  H  H11  1  0.131700  0.214600  0.647800  1.0  0.12
  H  H12  1  0.997300  0.397800  0.436800  1.0  0.1075
  H  H13  1  0.928700  0.591800  0.718200  1.0  0.106
  H  H14  1  0.777100  0.305200  0.642600  1.0  0.1123
  H  H15  1  0.963900  0.046300  0.257100  1.0  0.1171
  H  H16  1  0.026700  0.224900  0.339700  1.0  0.1184
  H  H17  1  0.284600  0.782800  0.604400  1.0  0.1199
  H  H18  1  0.126700  0.685700  0.686500  1.0  0.1092
  H  H19  1  0.550900  0.429300  0.960500  1.0  0.1229
  H  H20  1  0.631700  0.352200  0.785400  1.0  0.1185
  C  C21  1  0.385100  0.473900  0.665500  1.0  0.051
  C  C22  1  0.459400  0.497000  0.588800  1.0  -0.1123
  C  C23  1  0.480200  0.426000  0.492800  1.0  0.0571
  C  C24  1  0.418600  0.330200  0.473600  1.0  -0.1248
  C  C25  1  0.342500  0.303400  0.547800  1.0  0.066
  C  C26  1  0.327100  0.375100  0.643500  1.0  -0.1135
  C  C27  1  0.367200  0.547800  0.767400  1.0  -0.0322
  C  C28  1  0.300000  0.632400  0.945400  1.0  -0.2142
  C  C29  1  0.414700  0.682400  0.912200  1.0  -0.0487
  C  C30  1  0.451700  0.634900  0.810300  1.0  -0.1064
  C  C31  1  0.229000  0.659500  0.046300  1.0  0.7289
  C  C32  1  0.568300  0.448900  0.414700  1.0  -0.065
  C  C33  1  0.716700  0.534300  0.316700  1.0  -0.2058
  C  C34  1  0.725900  0.431300  0.276100  1.0  -0.0595
  C  C35  1  0.636500  0.384200  0.333000  1.0  -0.1322
  C  C36  1  0.794800  0.607700  0.279700  1.0  0.6821
  C  C37  1  0.274900  0.202600  0.526800  1.0  -0.0369
  C  C38  1  0.194000  0.024200  0.450200  1.0  -0.19
  C  C39  1  0.123800  0.071400  0.540400  1.0  -0.0385
  C  C40  1  0.169600  0.171900  0.584500  1.0  -0.1196
  C  C41  1  0.158300  0.922800  0.378600  1.0  0.6979
  C  C42  1  0.885100  0.334500  0.526100  1.0  0.0513
  C  C43  1  0.959400  0.411200  0.503000  1.0  -0.1091
  C  C44  1  0.980200  0.507200  0.574000  1.0  0.0587
  C  C45  1  0.918600  0.526400  0.669800  1.0  -0.1265
  C  C46  1  0.842500  0.452200  0.696600  1.0  0.0686
  C  C47  1  0.827100  0.356500  0.624900  1.0  -0.1135
  C  C48  1  0.867200  0.232600  0.452200  1.0  -0.0322
  C  C49  1  0.800000  0.054600  0.367600  1.0  -0.2131
  C  C50  1  0.914700  0.087800  0.317600  1.0  -0.0511
  C  C51  1  0.951700  0.189700  0.365100  1.0  -0.1115
  C  C52  1  0.729000  0.953700  0.340500  1.0  0.7296
  C  C53  1  0.068300  0.585300  0.551100  1.0  -0.0609
  C  C54  1  0.216700  0.683300  0.465700  1.0  -0.2063
  C  C55  1  0.225900  0.723900  0.568700  1.0  -0.0576
  C  C56  1  0.136500  0.667000  0.615800  1.0  -0.1324
  C  C57  1  0.294800  0.720300  0.392300  1.0  0.682
  C  C58  1  0.774900  0.473200  0.797400  1.0  -0.0391
  C  C59  1  0.694000  0.549800  0.975800  1.0  -0.1886
  C  C60  1  0.623800  0.459600  0.928600  1.0  -0.0374
  C  C61  1  0.669600  0.415500  0.828100  1.0  -0.1277
  C  C62  1  0.658300  0.621400  0.077200  1.0  0.6985
  S  S63  1  0.235900  0.526820  0.850640  1.0  0.1213
  S  S64  1  0.599900  0.571770  0.423670  1.0  0.145
  S  S65  1  0.321300  0.104080  0.418640  1.0  0.1153
  S  S66  1  0.735900  0.149360  0.473180  1.0  0.1215
  S  S67  1  0.099900  0.576330  0.428230  1.0  0.1454
  S  S68  1  0.821300  0.581360  0.895920  1.0  0.1188
  O  O69  1  0.290300  0.732300  0.116700  1.0  -0.8153
  O  O70  1  0.109500  0.612300  0.059300  1.0  -0.6244
  O  O71  1  0.906100  0.579200  0.218200  1.0  -0.6068
  O  O72  1  0.747500  0.699600  0.315400  1.0  -0.7699
  O  O73  1  0.053200  0.871100  0.398500  1.0  -0.6118
  O  O74  1  0.236300  0.891200  0.295800  1.0  -0.8345
  O  O75  1  0.790300  0.883300  0.267700  1.0  -0.8206
  O  O76  1  0.609500  0.940700  0.387700  1.0  -0.6255
  O  O77  1  0.406100  0.781800  0.420800  1.0  -0.6069
  O  O78  1  0.247500  0.684600  0.300400  1.0  -0.7717
  O  O79  1  0.553200  0.601500  0.128900  1.0  -0.6133
  O  O80  1  0.736300  0.704200  0.108800  1.0  -0.8238
