# generated using pymatgen
data_Zn3P4(HO3)4
_symmetry_space_group_name_H-M   'P 1'
_cell_length_a   9.74120000
_cell_length_b   13.09550000
_cell_length_c   15.69220000
_cell_angle_alpha   90.00000000
_cell_angle_beta   95.09200000
_cell_angle_gamma   90.00000000
_symmetry_Int_Tables_number   1
_chemical_formula_structural   Zn3P4(HO3)4
_chemical_formula_sum   'Zn12 P16 H16 O48'
_cell_volume   1993.88924787
_cell_formula_units_Z   4
loop_
 _symmetry_equiv_pos_site_id
 _symmetry_equiv_pos_as_xyz
  1  'x, y, z'
loop_
 _atom_site_type_symbol
 _atom_site_label
 _atom_site_symmetry_multiplicity
 _atom_site_fract_x
 _atom_site_fract_y
 _atom_site_fract_z
 _atom_site_occupancy
 _atom_site_charge
  Zn  Zn1  1  0.288450  0.137520  0.250160  1.0  1.1458
  Zn  Zn2  1  0.810710  0.029080  0.434100  1.0  1.1495
  Zn  Zn3  1  0.597000  0.868560  0.090050  1.0  1.1339
  Zn  Zn4  1  0.711550  0.637520  0.249840  1.0  1.1452
  Zn  Zn5  1  0.189290  0.529080  0.065900  1.0  1.1492
  Zn  Zn6  1  0.403000  0.368560  0.409950  1.0  1.1337
  Zn  Zn7  1  0.711550  0.862480  0.749840  1.0  1.1448
  Zn  Zn8  1  0.189290  0.970920  0.565900  1.0  1.1487
  Zn  Zn9  1  0.403000  0.131440  0.909950  1.0  1.1336
  Zn  Zn10  1  0.288450  0.362480  0.750160  1.0  1.1454
  Zn  Zn11  1  0.810710  0.470920  0.934100  1.0  1.1487
  Zn  Zn12  1  0.597000  0.631440  0.590050  1.0  1.1338
  P  P13  1  0.359340  0.039170  0.085590  1.0  1.5688
  P  P14  1  0.101950  0.112970  0.406180  1.0  1.6521
  P  P15  1  0.497340  0.127270  0.407270  1.0  1.5621
  P  P16  1  0.697070  0.879130  0.286340  1.0  1.6458
  P  P17  1  0.640660  0.539170  0.414410  1.0  1.57
  P  P18  1  0.898050  0.612970  0.093820  1.0  1.6526
  P  P19  1  0.502660  0.627270  0.092730  1.0  1.5584
  P  P20  1  0.302930  0.379130  0.213660  1.0  1.646
  P  P21  1  0.640660  0.960830  0.914410  1.0  1.5694
  P  P22  1  0.898050  0.887030  0.593820  1.0  1.6482
  P  P23  1  0.502660  0.872730  0.592730  1.0  1.5555
  P  P24  1  0.302930  0.120870  0.713660  1.0  1.6458
  P  P25  1  0.359340  0.460830  0.585590  1.0  1.5681
  P  P26  1  0.101950  0.387030  0.906180  1.0  1.6474
  P  P27  1  0.497340  0.372730  0.907270  1.0  1.5587
  P  P28  1  0.697070  0.620870  0.786340  1.0  1.646
  H  H29  1  0.460200  0.113000  0.113800  1.0  -0.0713
  H  H30  1  0.170700  0.196300  0.455500  1.0  -0.0695
  H  H31  1  0.436700  0.060500  0.445300  1.0  -0.036
  H  H32  1  0.562300  0.907200  0.311500  1.0  -0.0693
  H  H33  1  0.539800  0.613000  0.386200  1.0  -0.0707
  H  H34  1  0.829300  0.696300  0.044500  1.0  -0.0669
  H  H35  1  0.563300  0.560500  0.054700  1.0  -0.0331
  H  H36  1  0.437700  0.407200  0.188500  1.0  -0.0696
  H  H37  1  0.539800  0.887000  0.886200  1.0  -0.0708
  H  H38  1  0.829300  0.803700  0.544500  1.0  -0.067
  H  H39  1  0.563300  0.939500  0.554700  1.0  -0.0322
  H  H40  1  0.437700  0.092800  0.688500  1.0  -0.0694
  H  H41  1  0.460200  0.387000  0.613800  1.0  -0.0715
  H  H42  1  0.170700  0.303700  0.955500  1.0  -0.0696
  H  H43  1  0.436700  0.439500  0.945300  1.0  -0.035
  H  H44  1  0.562300  0.592800  0.811500  1.0  -0.0691
  O  O45  1  0.253500  0.050700  0.150290  1.0  -0.7517
  O  O46  1  0.460700  0.106700  0.314000  1.0  -0.8332
  O  O47  1  0.694100  0.767200  0.304600  1.0  -0.8529
  O  O48  1  0.130400  0.118300  0.313200  1.0  -0.8107
  O  O49  1  0.950300  0.132400  0.415900  1.0  -0.7388
  O  O50  1  0.648700  0.113100  0.430730  1.0  -0.8618
  O  O51  1  0.153700  0.014200  0.447910  1.0  -0.754
  O  O52  1  0.809000  0.934200  0.341680  1.0  -0.7906
  O  O53  1  0.707200  0.902500  0.193540  1.0  -0.7899
  O  O54  1  0.299800  0.070400  0.997080  1.0  -0.745
  O  O55  1  0.446700  0.228500  0.435700  1.0  -0.8956
  O  O56  1  0.417800  0.932900  0.086400  1.0  -0.7845
  O  O57  1  0.746500  0.550700  0.349710  1.0  -0.7503
  O  O58  1  0.539300  0.606700  0.186000  1.0  -0.8328
  O  O59  1  0.305900  0.267200  0.195400  1.0  -0.8538
  O  O60  1  0.869600  0.618300  0.186800  1.0  -0.8121
  O  O61  1  0.049700  0.632400  0.084100  1.0  -0.7392
  O  O62  1  0.351300  0.613100  0.069270  1.0  -0.8635
  O  O63  1  0.846300  0.514200  0.052090  1.0  -0.7527
  O  O64  1  0.191000  0.434200  0.158320  1.0  -0.7889
  O  O65  1  0.292800  0.402500  0.306460  1.0  -0.7921
  O  O66  1  0.700200  0.570400  0.502920  1.0  -0.7447
  O  O67  1  0.553300  0.728500  0.064300  1.0  -0.8964
  O  O68  1  0.582200  0.432900  0.413600  1.0  -0.7845
  O  O69  1  0.746500  0.949300  0.849710  1.0  -0.7496
  O  O70  1  0.539300  0.893300  0.686000  1.0  -0.8325
  O  O71  1  0.305900  0.232800  0.695400  1.0  -0.8539
  O  O72  1  0.869600  0.881700  0.686800  1.0  -0.8116
  O  O73  1  0.049700  0.867600  0.584100  1.0  -0.74
  O  O74  1  0.351300  0.886900  0.569270  1.0  -0.8633
  O  O75  1  0.846300  0.985800  0.552090  1.0  -0.7528
  O  O76  1  0.191000  0.065800  0.658320  1.0  -0.7892
  O  O77  1  0.292800  0.097500  0.806460  1.0  -0.7928
  O  O78  1  0.700200  0.929600  0.002920  1.0  -0.7453
  O  O79  1  0.553300  0.771500  0.564300  1.0  -0.8939
  O  O80  1  0.582200  0.067100  0.913600  1.0  -0.7823
  O  O81  1  0.253500  0.449300  0.650290  1.0  -0.751
  O  O82  1  0.460700  0.393300  0.814000  1.0  -0.8331
  O  O83  1  0.694100  0.732800  0.804600  1.0  -0.8533
  O  O84  1  0.130400  0.381700  0.813200  1.0  -0.8111
  O  O85  1  0.950300  0.367600  0.915900  1.0  -0.7397
  O  O86  1  0.648700  0.386900  0.930730  1.0  -0.8626
  O  O87  1  0.153700  0.485800  0.947910  1.0  -0.7549
  O  O88  1  0.809000  0.565800  0.841680  1.0  -0.7909
  O  O89  1  0.707200  0.597500  0.693540  1.0  -0.791
  O  O90  1  0.299800  0.429600  0.497080  1.0  -0.7453
  O  O91  1  0.446700  0.271500  0.935700  1.0  -0.8932
  O  O92  1  0.417800  0.567100  0.586400  1.0  -0.7834
