# generated using pymatgen
data_ZnH18C18(NO)4
_symmetry_space_group_name_H-M   'P 1'
_cell_length_a   16.20450000
_cell_length_b   17.60220000
_cell_length_c   17.90250000
_cell_angle_alpha   90.00000000
_cell_angle_beta   90.00000000
_cell_angle_gamma   90.00000000
_symmetry_Int_Tables_number   1
_chemical_formula_structural   ZnH18C18(NO)4
_chemical_formula_sum   'Zn8 H144 C144 N32 O32'
_cell_volume   5106.41690033
_cell_formula_units_Z   8
loop_
 _symmetry_equiv_pos_site_id
 _symmetry_equiv_pos_as_xyz
  1  'x, y, z'
loop_
 _atom_site_type_symbol
 _atom_site_label
 _atom_site_symmetry_multiplicity
 _atom_site_fract_x
 _atom_site_fract_y
 _atom_site_fract_z
 _atom_site_occupancy
 _atom_site_charge
  Zn  Zn1  1  0.274790  0.899170  0.617030  1.0  0.9037
  Zn  Zn2  1  0.774790  0.600830  0.382970  1.0  0.9041
  Zn  Zn3  1  0.774790  0.399170  0.882970  1.0  0.9038
  Zn  Zn4  1  0.274790  0.100830  0.117030  1.0  0.904
  Zn  Zn5  1  0.225210  0.600830  0.117030  1.0  0.9042
  Zn  Zn6  1  0.725210  0.899170  0.882970  1.0  0.9038
  Zn  Zn7  1  0.725210  0.100830  0.382970  1.0  0.9041
  Zn  Zn8  1  0.225210  0.399170  0.617030  1.0  0.9039
  H  H9  1  0.286700  0.075600  0.578500  1.0  0.3052
  H  H10  1  0.150000  0.008600  0.195000  1.0  0.2789
  H  H11  1  0.225200  0.852200  0.445300  1.0  0.1392
  H  H12  1  0.321500  0.851300  0.453500  1.0  0.1432
  H  H13  1  0.281000  0.877900  0.378400  1.0  0.1373
  H  H14  1  0.261600  0.190000  0.510800  1.0  0.1412
  H  H15  1  0.209300  0.178800  0.437900  1.0  0.148
  H  H16  1  0.305700  0.184800  0.433000  1.0  0.1351
  H  H17  1  0.096000  0.913600  0.308700  1.0  0.1371
  H  H18  1  0.051400  0.992200  0.317000  1.0  0.1388
  H  H19  1  0.102700  0.959000  0.383700  1.0  0.1387
  H  H20  1  0.409300  0.091000  0.253000  1.0  0.1396
  H  H21  1  0.396300  0.094700  0.339700  1.0  0.1358
  H  H22  1  0.362200  0.159800  0.288700  1.0  0.1477
  H  H23  1  0.084000  0.739000  0.552100  1.0  0.1031
  H  H24  1  0.989700  0.678300  0.476100  1.0  0.1003
  H  H25  1  0.896000  0.878800  0.415300  1.0  0.0906
  H  H26  1  0.985000  0.939200  0.496400  1.0  0.0909
  H  H27  1  0.786700  0.424400  0.421500  1.0  0.3082
  H  H28  1  0.650000  0.491400  0.805000  1.0  0.2778
  H  H29  1  0.725200  0.647800  0.554700  1.0  0.1397
  H  H30  1  0.821500  0.648700  0.546500  1.0  0.1432
  H  H31  1  0.781000  0.622100  0.621600  1.0  0.1361
  H  H32  1  0.761600  0.310000  0.489200  1.0  0.1418
  H  H33  1  0.709300  0.321200  0.562100  1.0  0.1477
  H  H34  1  0.805700  0.315200  0.567000  1.0  0.1349
  H  H35  1  0.596000  0.586400  0.691300  1.0  0.1372
  H  H36  1  0.551400  0.507800  0.683000  1.0  0.1394
  H  H37  1  0.602700  0.541000  0.616300  1.0  0.1393
  H  H38  1  0.909300  0.409000  0.747000  1.0  0.1394
  H  H39  1  0.896300  0.405300  0.660300  1.0  0.1351
  H  H40  1  0.862200  0.340200  0.711300  1.0  0.1476
  H  H41  1  0.584000  0.761000  0.447900  1.0  0.103
  H  H42  1  0.489700  0.821700  0.523900  1.0  0.0993
  H  H43  1  0.396000  0.621200  0.584700  1.0  0.0912
  H  H44  1  0.485000  0.560800  0.503600  1.0  0.0902
  H  H45  1  0.786700  0.575600  0.921500  1.0  0.3058
  H  H46  1  0.650000  0.508600  0.305000  1.0  0.2782
  H  H47  1  0.725200  0.352200  0.054700  1.0  0.1396
  H  H48  1  0.821500  0.351300  0.046500  1.0  0.1433
  H  H49  1  0.781000  0.377900  0.121600  1.0  0.136
  H  H50  1  0.761600  0.690000  0.989200  1.0  0.1419
  H  H51  1  0.709300  0.678800  0.062100  1.0  0.1475
  H  H52  1  0.805700  0.684800  0.067000  1.0  0.1348
  H  H53  1  0.596000  0.413600  0.191300  1.0  0.1378
  H  H54  1  0.551400  0.492200  0.183000  1.0  0.1389
  H  H55  1  0.602700  0.459000  0.116300  1.0  0.1391
  H  H56  1  0.909300  0.591000  0.247000  1.0  0.1396
  H  H57  1  0.896300  0.594700  0.160300  1.0  0.1352
  H  H58  1  0.862200  0.659800  0.211300  1.0  0.1475
  H  H59  1  0.584000  0.239000  0.947900  1.0  0.103
  H  H60  1  0.489700  0.178300  0.023900  1.0  0.1001
  H  H61  1  0.396000  0.378800  0.084700  1.0  0.091
  H  H62  1  0.485000  0.439200  0.003600  1.0  0.0909
  H  H63  1  0.286700  0.924400  0.078500  1.0  0.3077
  H  H64  1  0.150000  0.991400  0.695000  1.0  0.2788
  H  H65  1  0.225200  0.147800  0.945300  1.0  0.1376
  H  H66  1  0.321500  0.148700  0.953500  1.0  0.1433
  H  H67  1  0.281000  0.122100  0.878400  1.0  0.1377
  H  H68  1  0.261600  0.810000  0.010800  1.0  0.1416
  H  H69  1  0.209300  0.821200  0.937900  1.0  0.1478
  H  H70  1  0.305700  0.815200  0.933000  1.0  0.1345
  H  H71  1  0.096000  0.086400  0.808700  1.0  0.138
  H  H72  1  0.051400  0.007800  0.817000  1.0  0.139
  H  H73  1  0.102700  0.041000  0.883700  1.0  0.1389
  H  H74  1  0.409300  0.909000  0.753000  1.0  0.1397
  H  H75  1  0.396300  0.905300  0.839700  1.0  0.1355
  H  H76  1  0.362200  0.840200  0.788700  1.0  0.1476
  H  H77  1  0.084000  0.261000  0.052100  1.0  0.103
  H  H78  1  0.989700  0.321700  0.976100  1.0  0.0994
  H  H79  1  0.896000  0.121200  0.915300  1.0  0.0908
  H  H80  1  0.985000  0.060800  0.996400  1.0  0.0904
  H  H81  1  0.213300  0.424400  0.078500  1.0  0.3082
  H  H82  1  0.350000  0.491400  0.695000  1.0  0.2785
  H  H83  1  0.274800  0.647800  0.945300  1.0  0.1376
  H  H84  1  0.178500  0.648700  0.953500  1.0  0.142
  H  H85  1  0.219000  0.622100  0.878400  1.0  0.1369
  H  H86  1  0.238400  0.310000  0.010800  1.0  0.143
  H  H87  1  0.290700  0.321200  0.937900  1.0  0.1469
  H  H88  1  0.194300  0.315200  0.933000  1.0  0.134
  H  H89  1  0.404000  0.586400  0.808700  1.0  0.1378
  H  H90  1  0.448600  0.507800  0.817000  1.0  0.139
  H  H91  1  0.397300  0.541000  0.883700  1.0  0.1389
  H  H92  1  0.090700  0.409000  0.753000  1.0  0.1398
  H  H93  1  0.103700  0.405300  0.839700  1.0  0.1347
  H  H94  1  0.137800  0.340200  0.788700  1.0  0.1476
  H  H95  1  0.416000  0.761000  0.052100  1.0  0.1034
  H  H96  1  0.510300  0.821700  0.976100  1.0  0.0996
  H  H97  1  0.604000  0.621200  0.915300  1.0  0.091
  H  H98  1  0.515000  0.560800  0.996400  1.0  0.0902
  H  H99  1  0.713300  0.075600  0.921500  1.0  0.3049
  H  H100  1  0.850000  0.008600  0.305000  1.0  0.2783
  H  H101  1  0.774800  0.852200  0.054700  1.0  0.1383
  H  H102  1  0.678500  0.851300  0.046500  1.0  0.1428
  H  H103  1  0.719000  0.877900  0.121600  1.0  0.1371
  H  H104  1  0.738400  0.190000  0.989200  1.0  0.1425
  H  H105  1  0.790700  0.178800  0.062100  1.0  0.1463
  H  H106  1  0.694300  0.184800  0.067000  1.0  0.1342
  H  H107  1  0.904000  0.913600  0.191300  1.0  0.1374
  H  H108  1  0.948600  0.992200  0.183000  1.0  0.1391
  H  H109  1  0.897300  0.959000  0.116300  1.0  0.1392
  H  H110  1  0.590700  0.091000  0.247000  1.0  0.1403
  H  H111  1  0.603700  0.094700  0.160300  1.0  0.1349
  H  H112  1  0.637800  0.159800  0.211300  1.0  0.1478
  H  H113  1  0.916000  0.739000  0.947900  1.0  0.1034
  H  H114  1  0.010300  0.678300  0.023900  1.0  0.1
  H  H115  1  0.104000  0.878800  0.084700  1.0  0.091
  H  H116  1  0.015000  0.939200  0.003600  1.0  0.0909
  H  H117  1  0.713300  0.924400  0.421500  1.0  0.3079
  H  H118  1  0.850000  0.991400  0.805000  1.0  0.2778
  H  H119  1  0.774800  0.147800  0.554700  1.0  0.1379
  H  H120  1  0.678500  0.148700  0.546500  1.0  0.1428
  H  H121  1  0.719000  0.122100  0.621600  1.0  0.1369
  H  H122  1  0.738400  0.810000  0.489200  1.0  0.1427
  H  H123  1  0.790700  0.821200  0.562100  1.0  0.1469
  H  H124  1  0.694300  0.815200  0.567000  1.0  0.1343
  H  H125  1  0.904000  0.086400  0.691300  1.0  0.137
  H  H126  1  0.948600  0.007800  0.683000  1.0  0.1394
  H  H127  1  0.897300  0.041000  0.616300  1.0  0.1395
  H  H128  1  0.590700  0.909000  0.747000  1.0  0.1399
  H  H129  1  0.603700  0.905300  0.660300  1.0  0.1347
  H  H130  1  0.637800  0.840200  0.711300  1.0  0.1477
  H  H131  1  0.916000  0.261000  0.447900  1.0  0.1036
  H  H132  1  0.010300  0.321700  0.523900  1.0  0.0993
  H  H133  1  0.104000  0.121200  0.584700  1.0  0.0913
  H  H134  1  0.015000  0.060800  0.503600  1.0  0.0905
  H  H135  1  0.213300  0.575600  0.578500  1.0  0.3056
  H  H136  1  0.350000  0.508600  0.195000  1.0  0.2787
  H  H137  1  0.274800  0.352200  0.445300  1.0  0.1382
  H  H138  1  0.178500  0.351300  0.453500  1.0  0.1422
  H  H139  1  0.219000  0.377900  0.378400  1.0  0.1367
  H  H140  1  0.238400  0.690000  0.510800  1.0  0.1424
  H  H141  1  0.290700  0.678800  0.437900  1.0  0.1468
  H  H142  1  0.194300  0.684800  0.433000  1.0  0.1347
  H  H143  1  0.404000  0.413600  0.308700  1.0  0.1372
  H  H144  1  0.448600  0.492200  0.317000  1.0  0.1391
  H  H145  1  0.397300  0.459000  0.383700  1.0  0.1387
  H  H146  1  0.090700  0.591000  0.253000  1.0  0.14
  H  H147  1  0.103700  0.594700  0.339700  1.0  0.135
  H  H148  1  0.137800  0.659800  0.288700  1.0  0.1479
  H  H149  1  0.416000  0.239000  0.552100  1.0  0.1034
  H  H150  1  0.510300  0.178300  0.476100  1.0  0.1003
  H  H151  1  0.604000  0.378800  0.415300  1.0  0.0908
  H  H152  1  0.515000  0.439200  0.496400  1.0  0.0909
  C  C153  1  0.275500  0.877570  0.431790  1.0  -0.3949
  C  C154  1  0.273500  0.957400  0.459980  1.0  0.2622
  C  C155  1  0.261130  0.024320  0.419410  1.0  -0.1769
  C  C156  1  0.266960  0.082660  0.470890  1.0  0.1945
  C  C157  1  0.260300  0.166510  0.462370  1.0  -0.3895
  C  C158  1  0.099500  0.963400  0.330360  1.0  -0.3765
  C  C159  1  0.174920  0.002800  0.301780  1.0  0.1821
  C  C160  1  0.243650  0.030530  0.339020  1.0  -0.1826
  C  C161  1  0.292720  0.064430  0.284140  1.0  0.2682
  C  C162  1  0.372200  0.106200  0.292110  1.0  -0.393
  C  C163  1  0.107520  0.885220  0.579570  1.0  0.6567
  C  C164  1  0.044540  0.845440  0.531720  1.0  -0.1275
  C  C165  1  0.045670  0.767300  0.525260  1.0  -0.0685
  C  C166  1  0.989880  0.731060  0.478830  1.0  -0.0687
  C  C167  1  0.933310  0.850380  0.443250  1.0  -0.052
  C  C168  1  0.987230  0.886690  0.491250  1.0  -0.0644
  C  C169  1  0.872280  0.731990  0.388170  1.0  0.6787
  C  C170  1  0.934360  0.772370  0.436490  1.0  -0.1363
  C  C171  1  0.775500  0.622430  0.568210  1.0  -0.3951
  C  C172  1  0.773500  0.542600  0.540020  1.0  0.2641
  C  C173  1  0.761130  0.475680  0.580590  1.0  -0.1771
  C  C174  1  0.766960  0.417340  0.529110  1.0  0.1955
  C  C175  1  0.760300  0.333490  0.537630  1.0  -0.3903
  C  C176  1  0.599500  0.536600  0.669640  1.0  -0.3747
  C  C177  1  0.674920  0.497200  0.698220  1.0  0.1821
  C  C178  1  0.743650  0.469470  0.660980  1.0  -0.1813
  C  C179  1  0.792720  0.435570  0.715860  1.0  0.2666
  C  C180  1  0.872200  0.393800  0.707890  1.0  -0.3932
  C  C181  1  0.607520  0.614780  0.420430  1.0  0.6573
  C  C182  1  0.544540  0.654560  0.468280  1.0  -0.127
  C  C183  1  0.545670  0.732700  0.474740  1.0  -0.0671
  C  C184  1  0.489880  0.768940  0.521170  1.0  -0.0689
  C  C185  1  0.433310  0.649620  0.556750  1.0  -0.0479
  C  C186  1  0.487230  0.613310  0.508750  1.0  -0.0646
  C  C187  1  0.372280  0.768010  0.611830  1.0  0.6774
  C  C188  1  0.434360  0.727630  0.563510  1.0  -0.1349
  C  C189  1  0.775500  0.377570  0.068210  1.0  -0.3967
  C  C190  1  0.773500  0.457400  0.040020  1.0  0.264
  C  C191  1  0.761130  0.524320  0.080590  1.0  -0.1772
  C  C192  1  0.766960  0.582660  0.029110  1.0  0.1952
  C  C193  1  0.760300  0.666510  0.037630  1.0  -0.3895
  C  C194  1  0.599500  0.463400  0.169640  1.0  -0.3748
  C  C195  1  0.674920  0.502800  0.198220  1.0  0.1823
  C  C196  1  0.743650  0.530530  0.160980  1.0  -0.1812
  C  C197  1  0.792720  0.564430  0.215860  1.0  0.2671
  C  C198  1  0.872200  0.606200  0.207890  1.0  -0.3932
  C  C199  1  0.607520  0.385220  0.920430  1.0  0.6575
  C  C200  1  0.544540  0.345440  0.968280  1.0  -0.1264
  C  C201  1  0.545670  0.267300  0.974740  1.0  -0.0674
  C  C202  1  0.489880  0.231060  0.021170  1.0  -0.069
  C  C203  1  0.433310  0.350380  0.056750  1.0  -0.0566
  C  C204  1  0.487230  0.386690  0.008750  1.0  -0.0652
  C  C205  1  0.372280  0.231990  0.111830  1.0  0.6773
  C  C206  1  0.434360  0.272370  0.063510  1.0  -0.1355
  C  C207  1  0.275500  0.122430  0.931790  1.0  -0.3948
  C  C208  1  0.273500  0.042600  0.959980  1.0  0.2601
  C  C209  1  0.261130  0.975680  0.919410  1.0  -0.1768
  C  C210  1  0.266960  0.917340  0.970890  1.0  0.1949
  C  C211  1  0.260300  0.833490  0.962370  1.0  -0.3904
  C  C212  1  0.099500  0.036600  0.830360  1.0  -0.3767
  C  C213  1  0.174920  0.997200  0.801780  1.0  0.1819
  C  C214  1  0.243650  0.969470  0.839020  1.0  -0.1827
  C  C215  1  0.292720  0.935570  0.784140  1.0  0.2679
  C  C216  1  0.372200  0.893800  0.792110  1.0  -0.3933
  C  C217  1  0.107520  0.114780  0.079570  1.0  0.6561
  C  C218  1  0.044540  0.154560  0.031720  1.0  -0.1266
  C  C219  1  0.045670  0.232700  0.025260  1.0  -0.069
  C  C220  1  0.989880  0.268940  0.978830  1.0  -0.0693
  C  C221  1  0.933310  0.149620  0.943250  1.0  -0.047
  C  C222  1  0.987230  0.113310  0.991250  1.0  -0.064
  C  C223  1  0.872280  0.268010  0.888170  1.0  0.6788
  C  C224  1  0.934360  0.227630  0.936490  1.0  -0.1354
  C  C225  1  0.224500  0.622430  0.931790  1.0  -0.3959
  C  C226  1  0.226500  0.542600  0.959980  1.0  0.2705
  C  C227  1  0.238870  0.475680  0.919410  1.0  -0.177
  C  C228  1  0.233040  0.417340  0.970890  1.0  0.1941
  C  C229  1  0.239700  0.333490  0.962370  1.0  -0.3911
  C  C230  1  0.400500  0.536600  0.830360  1.0  -0.3774
  C  C231  1  0.325080  0.497200  0.801780  1.0  0.1819
  C  C232  1  0.256350  0.469470  0.839020  1.0  -0.1825
  C  C233  1  0.207280  0.435570  0.784140  1.0  0.2658
  C  C234  1  0.127800  0.393800  0.792110  1.0  -0.3918
  C  C235  1  0.392480  0.614780  0.079570  1.0  0.6557
  C  C236  1  0.455460  0.654560  0.031720  1.0  -0.1267
  C  C237  1  0.454330  0.732700  0.025260  1.0  -0.0679
  C  C238  1  0.510120  0.768940  0.978830  1.0  -0.0693
  C  C239  1  0.566690  0.649620  0.943250  1.0  -0.0492
  C  C240  1  0.512770  0.613310  0.991250  1.0  -0.0601
  C  C241  1  0.627720  0.768010  0.888170  1.0  0.6784
  C  C242  1  0.565640  0.727630  0.936490  1.0  -0.1356
  C  C243  1  0.724500  0.877570  0.068210  1.0  -0.396
  C  C244  1  0.726500  0.957400  0.040020  1.0  0.271
  C  C245  1  0.738870  0.024320  0.080590  1.0  -0.1769
  C  C246  1  0.733040  0.082660  0.029110  1.0  0.1946
  C  C247  1  0.739700  0.166510  0.037630  1.0  -0.3898
  C  C248  1  0.900500  0.963400  0.169640  1.0  -0.3758
  C  C249  1  0.825080  0.002800  0.198220  1.0  0.1821
  C  C250  1  0.756350  0.030530  0.160980  1.0  -0.1809
  C  C251  1  0.707280  0.064430  0.215860  1.0  0.2655
  C  C252  1  0.627800  0.106200  0.207890  1.0  -0.3912
  C  C253  1  0.892480  0.885220  0.920430  1.0  0.657
  C  C254  1  0.955460  0.845440  0.968280  1.0  -0.1271
  C  C255  1  0.954330  0.767300  0.974740  1.0  -0.0677
  C  C256  1  0.010120  0.731060  0.021170  1.0  -0.0689
  C  C257  1  0.066690  0.850380  0.056750  1.0  -0.0488
  C  C258  1  0.012770  0.886690  0.008750  1.0  -0.0618
  C  C259  1  0.127720  0.731990  0.111830  1.0  0.6775
  C  C260  1  0.065640  0.772370  0.063510  1.0  -0.1359
  C  C261  1  0.724500  0.122430  0.568210  1.0  -0.3953
  C  C262  1  0.726500  0.042600  0.540020  1.0  0.271
  C  C263  1  0.738870  0.975680  0.580590  1.0  -0.177
  C  C264  1  0.733040  0.917340  0.529110  1.0  0.1949
  C  C265  1  0.739700  0.833490  0.537630  1.0  -0.3909
  C  C266  1  0.900500  0.036600  0.669640  1.0  -0.3757
  C  C267  1  0.825080  0.997200  0.698220  1.0  0.182
  C  C268  1  0.756350  0.969470  0.660980  1.0  -0.181
  C  C269  1  0.707280  0.935570  0.715860  1.0  0.2652
  C  C270  1  0.627800  0.893800  0.707890  1.0  -0.3916
  C  C271  1  0.892480  0.114780  0.420430  1.0  0.6567
  C  C272  1  0.955460  0.154560  0.468280  1.0  -0.1278
  C  C273  1  0.954330  0.232700  0.474740  1.0  -0.0667
  C  C274  1  0.010120  0.268940  0.521170  1.0  -0.0689
  C  C275  1  0.066690  0.149620  0.556750  1.0  -0.0495
  C  C276  1  0.012770  0.113310  0.508750  1.0  -0.0608
  C  C277  1  0.127720  0.268010  0.611830  1.0  0.6775
  C  C278  1  0.065640  0.227630  0.563510  1.0  -0.1355
  C  C279  1  0.224500  0.377570  0.431790  1.0  -0.3961
  C  C280  1  0.226500  0.457400  0.459980  1.0  0.2649
  C  C281  1  0.238870  0.524320  0.419410  1.0  -0.177
  C  C282  1  0.233040  0.582660  0.470890  1.0  0.1937
  C  C283  1  0.239700  0.666510  0.462370  1.0  -0.3899
  C  C284  1  0.400500  0.463400  0.330360  1.0  -0.3775
  C  C285  1  0.325080  0.502800  0.301780  1.0  0.1821
  C  C286  1  0.256350  0.530530  0.339020  1.0  -0.1825
  C  C287  1  0.207280  0.564430  0.284140  1.0  0.2658
  C  C288  1  0.127800  0.606200  0.292110  1.0  -0.3915
  C  C289  1  0.392480  0.385220  0.579570  1.0  0.6562
  C  C290  1  0.455460  0.345440  0.531720  1.0  -0.1277
  C  C291  1  0.454330  0.267300  0.525260  1.0  -0.0678
  C  C292  1  0.510120  0.231060  0.478830  1.0  -0.0687
  C  C293  1  0.566690  0.350380  0.443250  1.0  -0.0489
  C  C294  1  0.512770  0.386690  0.491250  1.0  -0.0609
  C  C295  1  0.627720  0.231990  0.388170  1.0  0.6782
  C  C296  1  0.565640  0.272370  0.436490  1.0  -0.1362
  N  N297  1  0.286200  0.973960  0.532430  1.0  -0.3585
  N  N298  1  0.281270  0.050560  0.537490  1.0  -0.1039
  N  N299  1  0.256020  0.057790  0.217490  1.0  -0.3686
  N  N300  1  0.184780  0.020110  0.229460  1.0  -0.0684
  N  N301  1  0.786200  0.526040  0.467570  1.0  -0.356
  N  N302  1  0.781270  0.449440  0.462510  1.0  -0.1032
  N  N303  1  0.756020  0.442210  0.782510  1.0  -0.3694
  N  N304  1  0.684780  0.479890  0.770540  1.0  -0.0679
  N  N305  1  0.786200  0.473960  0.967570  1.0  -0.3568
  N  N306  1  0.781270  0.550560  0.962510  1.0  -0.1041
  N  N307  1  0.756020  0.557790  0.282510  1.0  -0.3696
  N  N308  1  0.684780  0.520110  0.270540  1.0  -0.0678
  N  N309  1  0.286200  0.026040  0.032430  1.0  -0.3583
  N  N310  1  0.281270  0.949440  0.037490  1.0  -0.1043
  N  N311  1  0.256020  0.942210  0.717490  1.0  -0.369
  N  N312  1  0.184780  0.979890  0.729460  1.0  -0.0684
  N  N313  1  0.213800  0.526040  0.032430  1.0  -0.3562
  N  N314  1  0.218730  0.449440  0.037490  1.0  -0.1053
  N  N315  1  0.243980  0.442210  0.717490  1.0  -0.37
  N  N316  1  0.315220  0.479890  0.729460  1.0  -0.0687
  N  N317  1  0.713800  0.973960  0.967570  1.0  -0.357
  N  N318  1  0.718730  0.050560  0.962510  1.0  -0.1049
  N  N319  1  0.743980  0.057790  0.282510  1.0  -0.3696
  N  N320  1  0.815220  0.020110  0.270540  1.0  -0.0678
  N  N321  1  0.713800  0.026040  0.467570  1.0  -0.3554
  N  N322  1  0.718730  0.949440  0.462510  1.0  -0.1041
  N  N323  1  0.743980  0.942210  0.782510  1.0  -0.3696
  N  N324  1  0.815220  0.979890  0.770540  1.0  -0.0678
  N  N325  1  0.213800  0.473960  0.532430  1.0  -0.356
  N  N326  1  0.218730  0.550560  0.537490  1.0  -0.1048
  N  N327  1  0.243980  0.557790  0.217490  1.0  -0.3692
  N  N328  1  0.315220  0.520110  0.229460  1.0  -0.0688
  O  O329  1  0.172800  0.846350  0.591990  1.0  -0.6207
  O  O330  1  0.094810  0.950850  0.601740  1.0  -0.6042
  O  O331  1  0.872170  0.660210  0.394930  1.0  -0.6351
  O  O332  1  0.825630  0.768790  0.348260  1.0  -0.6144
  O  O333  1  0.672800  0.653650  0.408010  1.0  -0.6194
  O  O334  1  0.594810  0.549150  0.398260  1.0  -0.6036
  O  O335  1  0.372170  0.839790  0.605070  1.0  -0.6365
  O  O336  1  0.325630  0.731210  0.651740  1.0  -0.6121
  O  O337  1  0.672800  0.346350  0.908010  1.0  -0.6194
  O  O338  1  0.594810  0.450850  0.898260  1.0  -0.6045
  O  O339  1  0.372170  0.160210  0.105070  1.0  -0.636
  O  O340  1  0.325630  0.268790  0.151740  1.0  -0.6146
  O  O341  1  0.172800  0.153650  0.091990  1.0  -0.6211
  O  O342  1  0.094810  0.049150  0.101740  1.0  -0.6037
  O  O343  1  0.872170  0.339790  0.894930  1.0  -0.6356
  O  O344  1  0.825630  0.231210  0.848260  1.0  -0.6127
  O  O345  1  0.327200  0.653650  0.091990  1.0  -0.6196
  O  O346  1  0.405190  0.549150  0.101740  1.0  -0.6039
  O  O347  1  0.627830  0.839790  0.894930  1.0  -0.6363
  O  O348  1  0.674370  0.731210  0.848260  1.0  -0.6132
  O  O349  1  0.827200  0.846350  0.908010  1.0  -0.6193
  O  O350  1  0.905190  0.950850  0.898260  1.0  -0.6049
  O  O351  1  0.127830  0.660210  0.105070  1.0  -0.6364
  O  O352  1  0.174370  0.768790  0.151740  1.0  -0.6155
  O  O353  1  0.827200  0.153650  0.408010  1.0  -0.6185
  O  O354  1  0.905190  0.049150  0.398260  1.0  -0.604
  O  O355  1  0.127830  0.339790  0.605070  1.0  -0.637
  O  O356  1  0.174370  0.231210  0.651740  1.0  -0.613
  O  O357  1  0.327200  0.346350  0.591990  1.0  -0.6201
  O  O358  1  0.405190  0.450850  0.601740  1.0  -0.6041
  O  O359  1  0.627830  0.160210  0.394930  1.0  -0.6357
  O  O360  1  0.674370  0.268790  0.348260  1.0  -0.615
