# generated using pymatgen
data_CeH9C21(SO2)3
_symmetry_space_group_name_H-M   'P 1'
_cell_length_a   8.17200000
_cell_length_b   14.19690000
_cell_length_c   14.19690000
_cell_angle_alpha   110.24100000
_cell_angle_beta   91.04760000
_cell_angle_gamma   88.95240000
_symmetry_Int_Tables_number   1
_chemical_formula_structural   CeH9C21(SO2)3
_chemical_formula_sum   'Ce2 H18 C42 S6 O12'
_cell_volume   1544.98440604
_cell_formula_units_Z   2
loop_
 _symmetry_equiv_pos_site_id
 _symmetry_equiv_pos_as_xyz
  1  'x, y, z'
loop_
 _atom_site_type_symbol
 _atom_site_label
 _atom_site_symmetry_multiplicity
 _atom_site_fract_x
 _atom_site_fract_y
 _atom_site_fract_z
 _atom_site_occupancy
 _atom_site_charge
  Ce  Ce1  1  0.398880  0.914470  0.052430  1.0  2.269
  Ce  Ce2  1  0.898880  0.947570  0.085530  1.0  2.2674
  H  H3  1  0.902600  0.299300  0.866900  1.0  0.106
  H  H4  1  0.972500  0.104900  0.585300  1.0  0.101
  H  H5  1  0.122900  0.391400  0.660400  1.0  0.1071
  H  H6  1  0.940700  0.650000  0.047200  1.0  0.1151
  H  H7  1  0.874500  0.471800  0.962000  1.0  0.1082
  H  H8  1  0.617800  0.912200  0.700200  1.0  0.1198
  H  H9  1  0.770200  0.008500  0.616700  1.0  0.109
  H  H10  1  0.350800  0.266000  0.341200  1.0  0.1179
  H  H11  1  0.270700  0.344100  0.517500  1.0  0.1083
  H  H12  1  0.402600  0.133100  0.700700  1.0  0.1063
  H  H13  1  0.472500  0.414700  0.895100  1.0  0.0999
  H  H14  1  0.622900  0.339600  0.608600  1.0  0.1072
  H  H15  1  0.440700  0.952800  0.350000  1.0  0.1149
  H  H16  1  0.374500  0.038000  0.528200  1.0  0.1075
  H  H17  1  0.117800  0.299800  0.087800  1.0  0.118
  H  H18  1  0.270200  0.383300  0.991500  1.0  0.1076
  H  H19  1  0.850800  0.658800  0.734000  1.0  0.1182
  H  H20  1  0.770700  0.482500  0.655900  1.0  0.109
  C  C21  1  0.017400  0.361800  0.776200  1.0  0.0553
  C  C22  1  0.941200  0.285700  0.800700  1.0  -0.1164
  C  C23  1  0.921200  0.189900  0.728700  1.0  0.0482
  C  C24  1  0.982400  0.170600  0.633400  1.0  -0.1164
  C  C25  1  0.057800  0.243800  0.605800  1.0  0.0301
  C  C26  1  0.073300  0.340000  0.678200  1.0  -0.1156
  C  C27  1  0.033600  0.464200  0.851200  1.0  -0.0217
  C  C28  1  0.101700  0.641300  0.935700  1.0  -0.1809
  C  C29  1  0.988700  0.608800  0.986000  1.0  -0.05
  C  C30  1  0.950700  0.506900  0.937100  1.0  -0.1384
  C  C31  1  0.173600  0.744500  0.963900  1.0  0.7269
  C  C32  1  0.834800  0.112700  0.754300  1.0  -0.0474
  C  C33  1  0.686900  0.013100  0.839500  1.0  -0.2142
  C  C34  1  0.676400  0.971500  0.735300  1.0  -0.0499
  C  C35  1  0.762600  0.027500  0.687500  1.0  -0.1379
  C  C36  1  0.609800  0.977600  0.912000  1.0  0.676
  C  C37  1  0.127100  0.222900  0.504500  1.0  -0.049
  C  C38  1  0.204700  0.145800  0.328400  1.0  -0.1904
  C  C39  1  0.277700  0.236500  0.373900  1.0  -0.041
  C  C40  1  0.232400  0.280800  0.474600  1.0  -0.1258
  C  C41  1  0.241100  0.074900  0.226300  1.0  0.7035
  C  C42  1  0.517400  0.223800  0.638200  1.0  0.0552
  C  C43  1  0.441200  0.199300  0.714300  1.0  -0.1096
  C  C44  1  0.421200  0.271300  0.810100  1.0  0.046
  C  C45  1  0.482400  0.366600  0.829400  1.0  -0.1176
  C  C46  1  0.557800  0.394200  0.756200  1.0  0.0307
  C  C47  1  0.573300  0.321800  0.660000  1.0  -0.1159
  C  C48  1  0.533600  0.148800  0.535800  1.0  -0.0206
  C  C49  1  0.601700  0.064300  0.358700  1.0  -0.1794
  C  C50  1  0.488700  0.014000  0.391200  1.0  -0.0476
  C  C51  1  0.450700  0.062900  0.493100  1.0  -0.1355
  C  C52  1  0.673600  0.036100  0.255500  1.0  0.7285
  C  C53  1  0.334800  0.245700  0.887300  1.0  -0.0477
  C  C54  1  0.186900  0.160500  0.986900  1.0  -0.215
  C  C55  1  0.176400  0.264700  0.028500  1.0  -0.0509
  C  C56  1  0.262600  0.312500  0.972500  1.0  -0.1377
  C  C57  1  0.109800  0.088000  0.022400  1.0  0.6757
  C  C58  1  0.627100  0.495500  0.777100  1.0  -0.0495
  C  C59  1  0.704700  0.671600  0.854200  1.0  -0.1918
  C  C60  1  0.777700  0.626100  0.763500  1.0  -0.0401
  C  C61  1  0.732400  0.525400  0.719200  1.0  -0.1179
  C  C62  1  0.741100  0.773700  0.925100  1.0  0.7029
  S  S63  1  0.166200  0.547990  0.829730  1.0  0.1183
  S  S64  1  0.803100  0.120460  0.876000  1.0  0.1511
  S  S65  1  0.080300  0.114700  0.407040  1.0  0.138
  S  S66  1  0.666200  0.170270  0.452010  1.0  0.1174
  S  S67  1  0.303100  0.124000  0.879540  1.0  0.1526
  S  S68  1  0.580300  0.592960  0.885300  1.0  0.1359
  O  O69  1  0.110400  0.814600  0.036400  1.0  -0.8295
  O  O70  1  0.295800  0.758600  0.918200  1.0  -0.6487
  O  O71  1  0.495400  0.915800  0.884800  1.0  -0.6247
  O  O72  1  0.658200  0.011700  0.005300  1.0  -0.7856
  O  O73  1  0.349400  0.094800  0.174000  1.0  -0.6229
  O  O74  1  0.163900  0.990900  0.192700  1.0  -0.8031
  O  O75  1  0.610400  0.963600  0.185400  1.0  -0.8273
  O  O76  1  0.795800  0.081800  0.241400  1.0  -0.6498
  O  O77  1  0.995400  0.115200  0.084200  1.0  -0.6238
  O  O78  1  0.158200  0.994700  0.988300  1.0  -0.7841
  O  O79  1  0.849400  0.826000  0.905200  1.0  -0.6239
  O  O80  1  0.663900  0.807300  0.009100  1.0  -0.8141
