# generated using pymatgen
data_Rb3H13C14(SO7)2
_symmetry_space_group_name_H-M   'P 1'
_cell_length_a   7.05600000
_cell_length_b   15.01170000
_cell_length_c   23.07760000
_cell_angle_alpha   90.00000000
_cell_angle_beta   90.00000000
_cell_angle_gamma   93.41500000
_symmetry_Int_Tables_number   1
_chemical_formula_structural   Rb3H13C14(SO7)2
_chemical_formula_sum   'Rb12 H52 C56 S8 O56'
_cell_volume   2440.09769086
_cell_formula_units_Z   4
loop_
 _symmetry_equiv_pos_site_id
 _symmetry_equiv_pos_as_xyz
  1  'x, y, z'
loop_
 _atom_site_type_symbol
 _atom_site_label
 _atom_site_symmetry_multiplicity
 _atom_site_fract_x
 _atom_site_fract_y
 _atom_site_fract_z
 _atom_site_occupancy
 _atom_site_charge
  Rb  Rb1  1  0.712870  0.993190  0.433480  1.0  0.9551
  Rb  Rb2  1  0.611410  0.783350  0.040850  1.0  0.9665
  Rb  Rb3  1  0.998560  0.392920  0.127900  1.0  0.9331
  Rb  Rb4  1  0.787130  0.006810  0.933480  1.0  0.9556
  Rb  Rb5  1  0.888590  0.216650  0.540850  1.0  0.9659
  Rb  Rb6  1  0.501440  0.607080  0.627900  1.0  0.9338
  Rb  Rb7  1  0.287130  0.006810  0.566520  1.0  0.9553
  Rb  Rb8  1  0.388590  0.216650  0.959150  1.0  0.9667
  Rb  Rb9  1  0.001440  0.607080  0.872100  1.0  0.9334
  Rb  Rb10  1  0.212870  0.993190  0.066520  1.0  0.9548
  Rb  Rb11  1  0.111410  0.783350  0.459150  1.0  0.9678
  Rb  Rb12  1  0.498560  0.392920  0.372100  1.0  0.9332
  H  H13  1  0.810000  0.150000  0.355000  1.0  0.4376
  H  H14  1  0.641000  0.617000  0.142000  1.0  0.4041
  H  H15  1  0.492400  0.851200  0.282800  1.0  0.1036
  H  H16  1  0.738400  0.215600  0.154400  1.0  0.0835
  H  H17  1  0.661400  0.608100  0.333400  1.0  0.1055
  H  H18  1  0.997000  0.795000  0.957000  1.0  0.4221
  H  H19  1  0.971000  0.726000  0.996000  1.0  0.3916
  H  H20  1  0.608000  0.400000  0.124000  1.0  0.3733
  H  H21  1  0.474000  0.329000  0.126000  1.0  0.4209
  H  H22  1  0.751000  0.424000  0.257000  1.0  0.3924
  H  H23  1  0.767700  0.960600  0.270300  1.0  0.1227
  H  H24  1  0.516000  0.809500  0.186500  1.0  0.1306
  H  H25  1  0.743000  0.947100  0.169300  1.0  0.0977
  H  H26  1  0.690000  0.850000  0.855000  1.0  0.4375
  H  H27  1  0.859000  0.383000  0.642000  1.0  0.4063
  H  H28  1  0.007600  0.148800  0.782800  1.0  0.1043
  H  H29  1  0.761600  0.784400  0.654400  1.0  0.084
  H  H30  1  0.838600  0.391900  0.833400  1.0  0.1049
  H  H31  1  0.503000  0.205000  0.457000  1.0  0.4225
  H  H32  1  0.529000  0.274000  0.496000  1.0  0.3912
  H  H33  1  0.892000  0.600000  0.624000  1.0  0.3734
  H  H34  1  0.026000  0.671000  0.626000  1.0  0.4221
  H  H35  1  0.749000  0.576000  0.757000  1.0  0.3913
  H  H36  1  0.732300  0.039400  0.770300  1.0  0.1241
  H  H37  1  0.984000  0.190500  0.686500  1.0  0.1313
  H  H38  1  0.757000  0.052900  0.669300  1.0  0.0986
  H  H39  1  0.190000  0.850000  0.645000  1.0  0.4335
  H  H40  1  0.359000  0.383000  0.858000  1.0  0.4036
  H  H41  1  0.507600  0.148800  0.717200  1.0  0.1037
  H  H42  1  0.261600  0.784400  0.845600  1.0  0.0851
  H  H43  1  0.338600  0.391900  0.666667  1.0  0.1054
  H  H44  1  0.003000  0.205000  0.043000  1.0  0.422
  H  H45  1  0.029000  0.274000  0.004000  1.0  0.3921
  H  H46  1  0.392000  0.600000  0.876000  1.0  0.371
  H  H47  1  0.526000  0.671000  0.874000  1.0  0.4158
  H  H48  1  0.249000  0.576000  0.743000  1.0  0.3916
  H  H49  1  0.232300  0.039400  0.729700  1.0  0.1237
  H  H50  1  0.484000  0.190500  0.813500  1.0  0.1324
  H  H51  1  0.257000  0.052900  0.830700  1.0  0.098
  H  H52  1  0.310000  0.150000  0.145000  1.0  0.4334
  H  H53  1  0.141000  0.617000  0.358000  1.0  0.4033
  H  H54  1  0.992400  0.851200  0.217200  1.0  0.104
  H  H55  1  0.238400  0.215600  0.345600  1.0  0.0839
  H  H56  1  0.161400  0.608100  0.166600  1.0  0.1043
  H  H57  1  0.497000  0.795000  0.543000  1.0  0.4217
  H  H58  1  0.471000  0.726000  0.504000  1.0  0.3911
  H  H59  1  0.108000  0.400000  0.376000  1.0  0.372
  H  H60  1  0.974000  0.329000  0.374000  1.0  0.4148
  H  H61  1  0.251000  0.424000  0.243000  1.0  0.3922
  H  H62  1  0.267700  0.960600  0.229700  1.0  0.123
  H  H63  1  0.016000  0.809500  0.313500  1.0  0.1318
  H  H64  1  0.243000  0.947100  0.330700  1.0  0.098
  C  C65  1  0.762600  0.174000  0.238400  1.0  -0.3104
  C  C66  1  0.643100  0.623000  0.245100  1.0  -0.348
  C  C67  1  0.763600  0.096400  0.271900  1.0  0.4402
  C  C68  1  0.601300  0.684400  0.202300  1.0  0.3573
  C  C69  1  0.759800  0.012200  0.246800  1.0  -0.238
  C  C70  1  0.545500  0.768900  0.216400  1.0  -0.2241
  C  C71  1  0.744300  0.004400  0.186800  1.0  0.0215
  C  C72  1  0.533100  0.793800  0.273200  1.0  0.0101
  C  C73  1  0.730700  0.079100  0.152400  1.0  -0.2956
  C  C74  1  0.580900  0.734200  0.318100  1.0  -0.2749
  C  C75  1  0.743200  0.164100  0.178100  1.0  0.078
  C  C76  1  0.632800  0.649000  0.303600  1.0  0.0567
  C  C77  1  0.774100  0.264000  0.265000  1.0  0.7401
  C  C78  1  0.700100  0.533200  0.230400  1.0  0.7074
  C  C79  1  0.737400  0.826000  0.738400  1.0  -0.3104
  C  C80  1  0.856900  0.377000  0.745100  1.0  -0.3478
  C  C81  1  0.736400  0.903600  0.771900  1.0  0.4288
  C  C82  1  0.898700  0.315600  0.702300  1.0  0.3583
  C  C83  1  0.740200  0.987800  0.746800  1.0  -0.2403
  C  C84  1  0.954500  0.231100  0.716400  1.0  -0.2013
  C  C85  1  0.755700  0.995600  0.686800  1.0  0.0109
  C  C86  1  0.966900  0.206200  0.773200  1.0  0.0125
  C  C87  1  0.769300  0.920900  0.652400  1.0  -0.2951
  C  C88  1  0.919100  0.265800  0.818100  1.0  -0.2744
  C  C89  1  0.756800  0.835900  0.678100  1.0  0.0776
  C  C90  1  0.867200  0.351000  0.803600  1.0  0.0545
  C  C91  1  0.725900  0.736000  0.765000  1.0  0.7406
  C  C92  1  0.799900  0.466800  0.730400  1.0  0.7061
  C  C93  1  0.237400  0.826000  0.761600  1.0  -0.3103
  C  C94  1  0.356900  0.377000  0.754900  1.0  -0.3479
  C  C95  1  0.236400  0.903600  0.728100  1.0  0.4288
  C  C96  1  0.398700  0.315600  0.797700  1.0  0.3687
  C  C97  1  0.240200  0.987800  0.753200  1.0  -0.2411
  C  C98  1  0.454500  0.231100  0.783600  1.0  -0.2055
  C  C99  1  0.255700  0.995600  0.813200  1.0  0.0123
  C  C100  1  0.466900  0.206200  0.726800  1.0  0.0149
  C  C101  1  0.269300  0.920900  0.847600  1.0  -0.296
  C  C102  1  0.419100  0.265800  0.681900  1.0  -0.2737
  C  C103  1  0.256800  0.835900  0.821900  1.0  0.0768
  C  C104  1  0.367200  0.351000  0.696400  1.0  0.0309
  C  C105  1  0.225900  0.736000  0.735000  1.0  0.7418
  C  C106  1  0.299900  0.466800  0.769600  1.0  0.705
  C  C107  1  0.262600  0.174000  0.261600  1.0  -0.3103
  C  C108  1  0.143100  0.623000  0.254900  1.0  -0.3481
  C  C109  1  0.263600  0.096400  0.228100  1.0  0.4401
  C  C110  1  0.101300  0.684400  0.297700  1.0  0.3688
  C  C111  1  0.259800  0.012200  0.253200  1.0  -0.2376
  C  C112  1  0.045500  0.768900  0.283600  1.0  -0.223
  C  C113  1  0.244300  0.004400  0.313200  1.0  0.0198
  C  C114  1  0.033100  0.793800  0.226800  1.0  0.0152
  C  C115  1  0.230700  0.079100  0.347600  1.0  -0.2963
  C  C116  1  0.080900  0.734200  0.181900  1.0  -0.2739
  C  C117  1  0.243200  0.164100  0.321900  1.0  0.0783
  C  C118  1  0.132800  0.649000  0.196400  1.0  0.0521
  C  C119  1  0.274100  0.264000  0.235000  1.0  0.7397
  C  C120  1  0.200100  0.533200  0.269600  1.0  0.7066
  S  S121  1  0.695400  0.070600  0.077470  1.0  1.4237
  S  S122  1  0.585400  0.773160  0.389250  1.0  1.3958
  S  S123  1  0.804600  0.929400  0.577470  1.0  1.4222
  S  S124  1  0.914600  0.226840  0.889250  1.0  1.3956
  S  S125  1  0.304600  0.929400  0.922530  1.0  1.4229
  S  S126  1  0.414600  0.226840  0.610750  1.0  1.3946
  S  S127  1  0.195400  0.070600  0.422530  1.0  1.4238
  S  S128  1  0.085400  0.773160  0.110750  1.0  1.3946
  O  O129  1  0.938800  0.739600  0.959700  1.0  -0.8794
  O  O130  1  0.770800  0.101000  0.331100  1.0  -0.6154
  O  O131  1  0.611300  0.664400  0.144900  1.0  -0.5496
  O  O132  1  0.563400  0.353800  0.101600  1.0  -0.8291
  O  O133  1  0.625900  0.979300  0.066300  1.0  -0.7816
  O  O134  1  0.444000  0.838900  0.393800  1.0  -0.7473
  O  O135  1  0.559500  0.135500  0.062000  1.0  -0.7436
  O  O136  1  0.776400  0.812800  0.399300  1.0  -0.773
  O  O137  1  0.881200  0.090400  0.050300  1.0  -0.7823
  O  O138  1  0.540700  0.695000  0.425600  1.0  -0.6745
  O  O139  1  0.787500  0.330600  0.231400  1.0  -0.6794
  O  O140  1  0.728600  0.478500  0.271900  1.0  -0.5379
  O  O141  1  0.768400  0.270000  0.319400  1.0  -0.67
  O  O142  1  0.717700  0.511900  0.177600  1.0  -0.6086
  O  O143  1  0.561200  0.260400  0.459700  1.0  -0.8797
  O  O144  1  0.729200  0.899000  0.831100  1.0  -0.6163
  O  O145  1  0.888700  0.335600  0.644900  1.0  -0.5515
  O  O146  1  0.936600  0.646200  0.601600  1.0  -0.8253
  O  O147  1  0.874100  0.020700  0.566300  1.0  -0.7831
  O  O148  1  0.056000  0.161100  0.893800  1.0  -0.7472
  O  O149  1  0.940500  0.864500  0.562000  1.0  -0.7444
  O  O150  1  0.723600  0.187200  0.899300  1.0  -0.7712
  O  O151  1  0.618800  0.909600  0.550300  1.0  -0.7837
  O  O152  1  0.959300  0.305000  0.925600  1.0  -0.6921
  O  O153  1  0.712500  0.669400  0.731400  1.0  -0.679
  O  O154  1  0.771400  0.521500  0.771900  1.0  -0.5382
  O  O155  1  0.731600  0.730000  0.819400  1.0  -0.6701
  O  O156  1  0.782300  0.488100  0.677600  1.0  -0.6067
  O  O157  1  0.061200  0.260400  0.040300  1.0  -0.8785
  O  O158  1  0.229200  0.899000  0.668900  1.0  -0.6143
  O  O159  1  0.388700  0.335600  0.855100  1.0  -0.5521
  O  O160  1  0.436600  0.646200  0.898400  1.0  -0.8267
  O  O161  1  0.374100  0.020700  0.933700  1.0  -0.7839
  O  O162  1  0.556000  0.161100  0.606200  1.0  -0.7506
  O  O163  1  0.440500  0.864500  0.938000  1.0  -0.7426
  O  O164  1  0.223600  0.187200  0.600700  1.0  -0.7713
  O  O165  1  0.118800  0.909600  0.949700  1.0  -0.7837
  O  O166  1  0.459300  0.305000  0.574400  1.0  -0.6932
  O  O167  1  0.212500  0.669400  0.768600  1.0  -0.6751
  O  O168  1  0.271400  0.521500  0.728100  1.0  -0.5351
  O  O169  1  0.231600  0.730000  0.680600  1.0  -0.6689
  O  O170  1  0.282300  0.488100  0.822400  1.0  -0.6046
  O  O171  1  0.438800  0.739600  0.540300  1.0  -0.8787
  O  O172  1  0.270800  0.101000  0.168900  1.0  -0.614
  O  O173  1  0.111300  0.664400  0.355100  1.0  -0.5518
  O  O174  1  0.063400  0.353800  0.398400  1.0  -0.8278
  O  O175  1  0.125900  0.979300  0.433700  1.0  -0.7822
  O  O176  1  0.944000  0.838900  0.106200  1.0  -0.7477
  O  O177  1  0.059500  0.135500  0.438000  1.0  -0.7432
  O  O178  1  0.276400  0.812800  0.100700  1.0  -0.7735
  O  O179  1  0.381200  0.090400  0.449700  1.0  -0.7823
  O  O180  1  0.040700  0.695000  0.074400  1.0  -0.6733
  O  O181  1  0.287500  0.330600  0.268600  1.0  -0.6757
  O  O182  1  0.228600  0.478500  0.228100  1.0  -0.5338
  O  O183  1  0.268400  0.270000  0.180600  1.0  -0.6679
  O  O184  1  0.217700  0.511900  0.322400  1.0  -0.6063
