# generated using pymatgen
data_MnCr3(CO2)12
_symmetry_space_group_name_H-M   'P 1'
_cell_length_a   21.76330000
_cell_length_b   14.19580000
_cell_length_c   22.96490000
_cell_angle_alpha   90.00000000
_cell_angle_beta   90.18200000
_cell_angle_gamma   90.00000000
_symmetry_Int_Tables_number   1
_chemical_formula_structural   MnCr3(CO2)12
_chemical_formula_sum   'Mn4 Cr12 C48 O96'
_cell_volume   7094.91159508
_cell_formula_units_Z   4
loop_
 _symmetry_equiv_pos_site_id
 _symmetry_equiv_pos_as_xyz
  1  'x, y, z'
loop_
 _atom_site_type_symbol
 _atom_site_label
 _atom_site_symmetry_multiplicity
 _atom_site_fract_x
 _atom_site_fract_y
 _atom_site_fract_z
 _atom_site_occupancy
 _atom_site_charge
  Mn  Mn1  1  0.234760  0.237410  0.617220  1.0  1.101
  Mn  Mn2  1  0.734760  0.737410  0.617220  1.0  1.101
  Mn  Mn3  1  0.765240  0.762590  0.382780  1.0  1.1009
  Mn  Mn4  1  0.265240  0.262590  0.382780  1.0  1.1009
  Cr  Cr5  1  0.876810  0.964650  0.757900  1.0  0.8464
  Cr  Cr6  1  0.765240  0.237410  0.882780  1.0  1.0071
  Cr  Cr7  1  0.376810  0.464650  0.757900  1.0  0.8464
  Cr  Cr8  1  0.265240  0.737410  0.882780  1.0  1.0071
  Cr  Cr9  1  0.123190  0.964650  0.742100  1.0  0.8468
  Cr  Cr10  1  0.623190  0.464650  0.742100  1.0  0.8468
  Cr  Cr11  1  0.123190  0.035350  0.242100  1.0  0.8467
  Cr  Cr12  1  0.234760  0.762590  0.117220  1.0  1.0066
  Cr  Cr13  1  0.623190  0.535350  0.242100  1.0  0.8467
  Cr  Cr14  1  0.734760  0.262590  0.117220  1.0  1.0066
  Cr  Cr15  1  0.876810  0.035350  0.257900  1.0  0.8464
  Cr  Cr16  1  0.376810  0.535350  0.257900  1.0  0.8464
  C  C17  1  0.810300  0.062000  0.841500  1.0  0.5973
  C  C18  1  0.846300  0.139100  0.809200  1.0  0.6001
  C  C19  1  0.683200  0.308100  0.793000  1.0  0.5616
  C  C20  1  0.712900  0.396300  0.823300  1.0  0.5773
  C  C21  1  0.785200  0.258900  0.004800  1.0  0.6175
  C  C22  1  0.003500  0.953100  0.783700  1.0  0.5905
  C  C23  1  0.310300  0.562000  0.841500  1.0  0.5973
  C  C24  1  0.346300  0.639100  0.809200  1.0  0.6001
  C  C25  1  0.183200  0.808100  0.793000  1.0  0.5621
  C  C26  1  0.212900  0.896300  0.823300  1.0  0.5787
  C  C27  1  0.285200  0.758900  0.004800  1.0  0.6175
  C  C28  1  0.503500  0.453100  0.783700  1.0  0.5905
  C  C29  1  0.189700  0.062000  0.658500  1.0  0.596
  C  C30  1  0.153700  0.139100  0.690800  1.0  0.5996
  C  C31  1  0.316800  0.308100  0.707000  1.0  0.5639
  C  C32  1  0.287100  0.396300  0.676700  1.0  0.5781
  C  C33  1  0.214800  0.258900  0.495200  1.0  0.6167
  C  C34  1  0.996500  0.953100  0.716300  1.0  0.5886
  C  C35  1  0.689700  0.562000  0.658500  1.0  0.596
  C  C36  1  0.653700  0.639100  0.690800  1.0  0.5996
  C  C37  1  0.816800  0.808100  0.707000  1.0  0.5644
  C  C38  1  0.787100  0.896300  0.676700  1.0  0.5795
  C  C39  1  0.714800  0.758900  0.495200  1.0  0.6167
  C  C40  1  0.496500  0.453100  0.716300  1.0  0.5886
  C  C41  1  0.189700  0.938000  0.158500  1.0  0.597
  C  C42  1  0.153700  0.860900  0.190800  1.0  0.601
  C  C43  1  0.316800  0.691900  0.207000  1.0  0.5614
  C  C44  1  0.287100  0.603700  0.176700  1.0  0.579
  C  C45  1  0.214800  0.741100  0.995200  1.0  0.6168
  C  C46  1  0.996500  0.046900  0.216300  1.0  0.5886
  C  C47  1  0.689700  0.438000  0.158500  1.0  0.597
  C  C48  1  0.653700  0.360900  0.190800  1.0  0.601
  C  C49  1  0.816800  0.191900  0.207000  1.0  0.5617
  C  C50  1  0.787100  0.103700  0.176700  1.0  0.5804
  C  C51  1  0.714800  0.241100  0.995200  1.0  0.6168
  C  C52  1  0.496500  0.546900  0.216300  1.0  0.5886
  C  C53  1  0.810300  0.938000  0.341500  1.0  0.5963
  C  C54  1  0.846300  0.860900  0.309200  1.0  0.6013
  C  C55  1  0.683200  0.691900  0.293000  1.0  0.5619
  C  C56  1  0.712900  0.603700  0.323300  1.0  0.5801
  C  C57  1  0.785200  0.741100  0.504800  1.0  0.6177
  C  C58  1  0.003500  0.046900  0.283700  1.0  0.5906
  C  C59  1  0.310300  0.438000  0.341500  1.0  0.5963
  C  C60  1  0.346300  0.360900  0.309200  1.0  0.6013
  C  C61  1  0.183200  0.191900  0.293000  1.0  0.5622
  C  C62  1  0.212900  0.103700  0.323300  1.0  0.5815
  C  C63  1  0.285200  0.241100  0.504800  1.0  0.6177
  C  C64  1  0.503500  0.546900  0.283700  1.0  0.5906
  O  O65  1  0.775030  0.088800  0.880410  1.0  -0.4605
  O  O66  1  0.837610  0.222700  0.824430  1.0  -0.4468
  O  O67  1  0.818410  0.978700  0.826210  1.0  -0.4475
  O  O68  1  0.880410  0.110600  0.769790  1.0  -0.4652
  O  O69  1  0.701160  0.228900  0.811280  1.0  -0.4826
  O  O70  1  0.752910  0.380400  0.862760  1.0  -0.4491
  O  O71  1  0.644090  0.323300  0.752770  1.0  -0.4616
  O  O72  1  0.694370  0.475200  0.805240  1.0  -0.4526
  O  O73  1  0.816590  0.260600  0.960100  1.0  -0.4416
  O  O74  1  0.804560  0.270000  0.056620  1.0  -0.4317
  O  O75  1  0.954900  0.949000  0.811340  1.0  -0.4489
  O  O76  1  0.058000  0.959100  0.804690  1.0  -0.4567
  O  O77  1  0.275030  0.588800  0.880410  1.0  -0.4638
  O  O78  1  0.337610  0.722700  0.824430  1.0  -0.4468
  O  O79  1  0.318410  0.478700  0.826210  1.0  -0.4445
  O  O80  1  0.380410  0.610600  0.769790  1.0  -0.4645
  O  O81  1  0.201160  0.728900  0.811280  1.0  -0.4826
  O  O82  1  0.252910  0.880400  0.862760  1.0  -0.4491
  O  O83  1  0.144090  0.823300  0.752770  1.0  -0.4616
  O  O84  1  0.194370  0.975200  0.805240  1.0  -0.4518
  O  O85  1  0.316590  0.760600  0.960100  1.0  -0.4416
  O  O86  1  0.304560  0.770000  0.056620  1.0  -0.4317
  O  O87  1  0.454900  0.449000  0.811340  1.0  -0.4491
  O  O88  1  0.558000  0.459100  0.804690  1.0  -0.4567
  O  O89  1  0.224970  0.088800  0.619590  1.0  -0.4594
  O  O90  1  0.162390  0.222700  0.675570  1.0  -0.4488
  O  O91  1  0.181590  0.978700  0.673790  1.0  -0.4475
  O  O92  1  0.119590  0.110600  0.730210  1.0  -0.464
  O  O93  1  0.298840  0.228900  0.688720  1.0  -0.4829
  O  O94  1  0.247090  0.380400  0.637240  1.0  -0.4502
  O  O95  1  0.355910  0.323300  0.747230  1.0  -0.4601
  O  O96  1  0.305630  0.475200  0.694760  1.0  -0.4535
  O  O97  1  0.183410  0.260600  0.539900  1.0  -0.4403
  O  O98  1  0.195440  0.270000  0.443380  1.0  -0.4337
  O  O99  1  0.045100  0.949000  0.688660  1.0  -0.4491
  O  O100  1  0.942000  0.959100  0.695310  1.0  -0.4573
  O  O101  1  0.724970  0.588800  0.619590  1.0  -0.4593
  O  O102  1  0.662390  0.722700  0.675570  1.0  -0.4488
  O  O103  1  0.681590  0.478700  0.673790  1.0  -0.4475
  O  O104  1  0.619590  0.610600  0.730210  1.0  -0.4636
  O  O105  1  0.798840  0.728900  0.688720  1.0  -0.4829
  O  O106  1  0.747090  0.880400  0.637240  1.0  -0.4502
  O  O107  1  0.855910  0.823300  0.747230  1.0  -0.46
  O  O108  1  0.805630  0.975200  0.694760  1.0  -0.453
  O  O109  1  0.683410  0.760600  0.539900  1.0  -0.4403
  O  O110  1  0.695440  0.770000  0.443380  1.0  -0.4337
  O  O111  1  0.545100  0.449000  0.688660  1.0  -0.4486
  O  O112  1  0.442000  0.459100  0.695310  1.0  -0.4573
  O  O113  1  0.224970  0.911200  0.119590  1.0  -0.46
  O  O114  1  0.162390  0.777300  0.175570  1.0  -0.4504
  O  O115  1  0.181590  0.021300  0.173790  1.0  -0.4476
  O  O116  1  0.119590  0.889400  0.230210  1.0  -0.465
  O  O117  1  0.298840  0.771100  0.188720  1.0  -0.4815
  O  O118  1  0.247090  0.619600  0.137240  1.0  -0.4508
  O  O119  1  0.355910  0.676700  0.247230  1.0  -0.4603
  O  O120  1  0.305630  0.524800  0.194760  1.0  -0.4541
  O  O121  1  0.183410  0.739400  0.039900  1.0  -0.4411
  O  O122  1  0.195440  0.730000  0.943380  1.0  -0.4329
  O  O123  1  0.045100  0.051000  0.188660  1.0  -0.4495
  O  O124  1  0.942000  0.040900  0.195310  1.0  -0.4566
  O  O125  1  0.724970  0.411200  0.119590  1.0  -0.4636
  O  O126  1  0.662390  0.277300  0.175570  1.0  -0.4504
  O  O127  1  0.681590  0.521300  0.173790  1.0  -0.4448
  O  O128  1  0.619590  0.389400  0.230210  1.0  -0.4645
  O  O129  1  0.798840  0.271100  0.188720  1.0  -0.4815
  O  O130  1  0.747090  0.119600  0.137240  1.0  -0.4508
  O  O131  1  0.855910  0.176700  0.247230  1.0  -0.46
  O  O132  1  0.805630  0.024800  0.194760  1.0  -0.4538
  O  O133  1  0.683410  0.239400  0.039900  1.0  -0.4411
  O  O134  1  0.695440  0.230000  0.943380  1.0  -0.4329
  O  O135  1  0.545100  0.551000  0.188660  1.0  -0.4496
  O  O136  1  0.442000  0.540900  0.195310  1.0  -0.4566
  O  O137  1  0.775030  0.911200  0.380410  1.0  -0.4601
  O  O138  1  0.837610  0.777300  0.324430  1.0  -0.4485
  O  O139  1  0.818410  0.021300  0.326210  1.0  -0.4466
  O  O140  1  0.880410  0.889400  0.269790  1.0  -0.4641
  O  O141  1  0.701160  0.771100  0.311280  1.0  -0.4821
  O  O142  1  0.752910  0.619600  0.362760  1.0  -0.4488
  O  O143  1  0.644090  0.676700  0.252770  1.0  -0.4622
  O  O144  1  0.694370  0.524800  0.305240  1.0  -0.4536
  O  O145  1  0.816590  0.739400  0.460100  1.0  -0.4407
  O  O146  1  0.804560  0.730000  0.556620  1.0  -0.4312
  O  O147  1  0.954900  0.051000  0.311340  1.0  -0.4496
  O  O148  1  0.058000  0.040900  0.304690  1.0  -0.4577
  O  O149  1  0.275030  0.411200  0.380410  1.0  -0.4596
  O  O150  1  0.337610  0.277300  0.324430  1.0  -0.4485
  O  O151  1  0.318410  0.521300  0.326210  1.0  -0.4466
  O  O152  1  0.380410  0.389400  0.269790  1.0  -0.464
  O  O153  1  0.201160  0.271100  0.311280  1.0  -0.4821
  O  O154  1  0.252910  0.119600  0.362760  1.0  -0.4488
  O  O155  1  0.144090  0.176700  0.252770  1.0  -0.4619
  O  O156  1  0.194370  0.024800  0.305240  1.0  -0.4529
  O  O157  1  0.316590  0.239400  0.460100  1.0  -0.4407
  O  O158  1  0.304560  0.230000  0.556620  1.0  -0.4312
  O  O159  1  0.454900  0.551000  0.311340  1.0  -0.4489
  O  O160  1  0.558000  0.540900  0.304690  1.0  -0.4577
