# generated using pymatgen
data_CeH50C78(NO6)2
_symmetry_space_group_name_H-M   'P 1'
_cell_length_a   35.75070000
_cell_length_b   16.32570000
_cell_length_c   13.15590000
_cell_angle_alpha   90.00000000
_cell_angle_beta   90.00000000
_cell_angle_gamma   90.00000000
_symmetry_Int_Tables_number   1
_chemical_formula_structural   CeH50C78(NO6)2
_chemical_formula_sum   'Ce4 H200 C312 N8 O48'
_cell_volume   7678.50948502
_cell_formula_units_Z   4
loop_
 _symmetry_equiv_pos_site_id
 _symmetry_equiv_pos_as_xyz
  1  'x, y, z'
loop_
 _atom_site_type_symbol
 _atom_site_label
 _atom_site_symmetry_multiplicity
 _atom_site_fract_x
 _atom_site_fract_y
 _atom_site_fract_z
 _atom_site_occupancy
 _atom_site_charge
  Ce  Ce1  1  0.000000  0.000000  0.640790  1.0  2.0854
  Ce  Ce2  1  0.500000  0.500000  0.640790  1.0  2.0826
  Ce  Ce3  1  0.000000  0.500000  0.140790  1.0  2.0854
  Ce  Ce4  1  0.500000  0.000000  0.140790  1.0  2.0826
  H  H5  1  0.796000  0.199500  0.737500  1.0  0.1227
  H  H6  1  0.602800  0.748900  0.224200  1.0  0.39
  H  H7  1  0.815700  0.260300  0.028200  1.0  0.1072
  H  H8  1  0.643600  0.452500  0.623700  1.0  0.1018
  H  H9  1  0.836800  0.109600  0.751800  1.0  0.1172
  H  H10  1  0.743600  0.281500  0.736900  1.0  0.1074
  H  H11  1  0.693900  0.280900  0.018500  1.0  0.1067
  H  H12  1  0.709900  0.629400  0.299300  1.0  0.1162
  H  H13  1  0.613600  0.389800  0.456100  1.0  0.0964
  H  H14  1  0.764000  0.345200  0.026800  1.0  0.11
  H  H15  1  0.748200  0.538500  0.612400  1.0  0.1
  H  H16  1  0.892400  0.038800  0.744400  1.0  0.1022
  H  H17  1  0.630900  0.589000  0.573800  1.0  0.1013
  H  H18  1  0.729900  0.553200  0.436600  1.0  0.0971
  H  H19  1  0.656400  0.309400  0.156500  1.0  0.1019
  H  H20  1  0.656700  0.384600  0.773600  1.0  0.1252
  H  H21  1  0.612300  0.668200  0.437900  1.0  0.1119
  H  H22  1  0.762600  0.467900  0.759600  1.0  0.114
  H  H23  1  0.691900  0.518600  0.938200  1.0  0.1043
  H  H24  1  0.871500  0.221300  0.006900  1.0  0.1178
  H  H25  1  0.652100  0.368000  0.317800  1.0  0.0981
  H  H26  1  0.926100  0.145100  0.999500  1.0  0.1056
  H  H27  1  0.556700  0.559400  0.299100  1.0  0.1104
  H  H28  1  0.594900  0.535400  0.157700  1.0  0.1136
  H  H29  1  0.653500  0.547200  0.076300  1.0  0.097
  H  H30  1  0.204000  0.800500  0.737500  1.0  0.1227
  H  H31  1  0.397200  0.251100  0.224200  1.0  0.3883
  H  H32  1  0.184300  0.739700  0.028200  1.0  0.1073
  H  H33  1  0.356400  0.547500  0.623700  1.0  0.1023
  H  H34  1  0.163200  0.890400  0.751800  1.0  0.118
  H  H35  1  0.256400  0.718500  0.736900  1.0  0.1076
  H  H36  1  0.306100  0.719100  0.018500  1.0  0.1062
  H  H37  1  0.290100  0.370600  0.299300  1.0  0.1159
  H  H38  1  0.386400  0.610200  0.456100  1.0  0.0961
  H  H39  1  0.236000  0.654800  0.026800  1.0  0.1102
  H  H40  1  0.251800  0.461500  0.612400  1.0  0.0998
  H  H41  1  0.107600  0.961200  0.744400  1.0  0.1025
  H  H42  1  0.369100  0.411000  0.573800  1.0  0.1014
  H  H43  1  0.270100  0.446800  0.436600  1.0  0.0966
  H  H44  1  0.343600  0.690600  0.156500  1.0  0.1025
  H  H45  1  0.343300  0.615400  0.773600  1.0  0.1257
  H  H46  1  0.387700  0.331800  0.437900  1.0  0.1123
  H  H47  1  0.237400  0.532100  0.759600  1.0  0.1138
  H  H48  1  0.308100  0.481400  0.938200  1.0  0.104
  H  H49  1  0.128500  0.778700  0.006900  1.0  0.118
  H  H50  1  0.347900  0.632000  0.317800  1.0  0.0982
  H  H51  1  0.073900  0.854900  0.999500  1.0  0.1055
  H  H52  1  0.443300  0.440600  0.299100  1.0  0.1057
  H  H53  1  0.405100  0.464600  0.157700  1.0  0.1134
  H  H54  1  0.346500  0.452800  0.076300  1.0  0.097
  H  H55  1  0.296000  0.300500  0.737500  1.0  0.1223
  H  H56  1  0.102800  0.751100  0.224200  1.0  0.3891
  H  H57  1  0.315700  0.239700  0.028200  1.0  0.1075
  H  H58  1  0.143600  0.047500  0.623700  1.0  0.1021
  H  H59  1  0.336800  0.390400  0.751800  1.0  0.1183
  H  H60  1  0.243600  0.218500  0.736900  1.0  0.1079
  H  H61  1  0.193900  0.219100  0.018500  1.0  0.1064
  H  H62  1  0.209900  0.870600  0.299300  1.0  0.1162
  H  H63  1  0.113600  0.110200  0.456100  1.0  0.0962
  H  H64  1  0.264000  0.154800  0.026800  1.0  0.1104
  H  H65  1  0.248200  0.961500  0.612400  1.0  0.0999
  H  H66  1  0.392400  0.461200  0.744400  1.0  0.1024
  H  H67  1  0.130900  0.911000  0.573800  1.0  0.1016
  H  H68  1  0.229900  0.946800  0.436600  1.0  0.0969
  H  H69  1  0.156400  0.190600  0.156500  1.0  0.1023
  H  H70  1  0.156700  0.115400  0.773600  1.0  0.1253
  H  H71  1  0.112300  0.831800  0.437900  1.0  0.1124
  H  H72  1  0.262600  0.032100  0.759600  1.0  0.1142
  H  H73  1  0.191900  0.981400  0.938200  1.0  0.1045
  H  H74  1  0.371500  0.278700  0.006900  1.0  0.1182
  H  H75  1  0.152100  0.132000  0.317800  1.0  0.0979
  H  H76  1  0.426100  0.354900  0.999500  1.0  0.1058
  H  H77  1  0.056700  0.940600  0.299100  1.0  0.1101
  H  H78  1  0.094900  0.964600  0.157700  1.0  0.1133
  H  H79  1  0.153500  0.952800  0.076300  1.0  0.0969
  H  H80  1  0.704000  0.699500  0.737500  1.0  0.1231
  H  H81  1  0.897200  0.248900  0.224200  1.0  0.3895
  H  H82  1  0.684300  0.760300  0.028200  1.0  0.107
  H  H83  1  0.856400  0.952500  0.623700  1.0  0.1019
  H  H84  1  0.663200  0.609600  0.751800  1.0  0.1191
  H  H85  1  0.756400  0.781500  0.736900  1.0  0.1072
  H  H86  1  0.806100  0.780900  0.018500  1.0  0.1063
  H  H87  1  0.790100  0.129400  0.299300  1.0  0.116
  H  H88  1  0.886400  0.889800  0.456100  1.0  0.0962
  H  H89  1  0.736000  0.845200  0.026800  1.0  0.1099
  H  H90  1  0.751800  0.038500  0.612400  1.0  0.1002
  H  H91  1  0.607600  0.538800  0.744400  1.0  0.1022
  H  H92  1  0.869100  0.089000  0.573800  1.0  0.1006
  H  H93  1  0.770100  0.053200  0.436600  1.0  0.0968
  H  H94  1  0.843600  0.809400  0.156500  1.0  0.1023
  H  H95  1  0.843300  0.884600  0.773600  1.0  0.1257
  H  H96  1  0.887700  0.168200  0.437900  1.0  0.1115
  H  H97  1  0.737400  0.967900  0.759600  1.0  0.1137
  H  H98  1  0.808100  0.018600  0.938200  1.0  0.1039
  H  H99  1  0.628500  0.721300  0.006900  1.0  0.1178
  H  H100  1  0.847900  0.868000  0.317800  1.0  0.0983
  H  H101  1  0.573900  0.645100  0.999500  1.0  0.1053
  H  H102  1  0.943300  0.059400  0.299100  1.0  0.1058
  H  H103  1  0.905100  0.035400  0.157700  1.0  0.1131
  H  H104  1  0.846500  0.047200  0.076300  1.0  0.0969
  H  H105  1  0.796000  0.699500  0.237500  1.0  0.1232
  H  H106  1  0.602800  0.248900  0.724200  1.0  0.39
  H  H107  1  0.815700  0.760300  0.528200  1.0  0.1072
  H  H108  1  0.643600  0.952500  0.123700  1.0  0.1018
  H  H109  1  0.836800  0.609600  0.251800  1.0  0.1172
  H  H110  1  0.743600  0.781500  0.236900  1.0  0.1074
  H  H111  1  0.693900  0.780900  0.518500  1.0  0.1067
  H  H112  1  0.709900  0.129400  0.799300  1.0  0.1162
  H  H113  1  0.613600  0.889800  0.956100  1.0  0.0964
  H  H114  1  0.764000  0.845200  0.526800  1.0  0.11
  H  H115  1  0.748200  0.038500  0.112400  1.0  0.1
  H  H116  1  0.892400  0.538800  0.244400  1.0  0.1022
  H  H117  1  0.630900  0.089000  0.073800  1.0  0.1013
  H  H118  1  0.729900  0.053200  0.936600  1.0  0.0971
  H  H119  1  0.656400  0.809400  0.656500  1.0  0.1019
  H  H120  1  0.656700  0.884600  0.273600  1.0  0.1252
  H  H121  1  0.612300  0.168200  0.937900  1.0  0.1119
  H  H122  1  0.762600  0.967900  0.259600  1.0  0.114
  H  H123  1  0.691900  0.018600  0.438200  1.0  0.1043
  H  H124  1  0.871500  0.721300  0.506900  1.0  0.1178
  H  H125  1  0.652100  0.868000  0.817800  1.0  0.0986
  H  H126  1  0.926100  0.645100  0.499500  1.0  0.1056
  H  H127  1  0.556700  0.059400  0.799100  1.0  0.1104
  H  H128  1  0.594900  0.035400  0.657700  1.0  0.1136
  H  H129  1  0.653500  0.047200  0.576300  1.0  0.097
  H  H130  1  0.204000  0.300500  0.237500  1.0  0.1233
  H  H131  1  0.397200  0.751100  0.724200  1.0  0.3883
  H  H132  1  0.184300  0.239700  0.528200  1.0  0.1073
  H  H133  1  0.356400  0.047500  0.123700  1.0  0.1023
  H  H134  1  0.163200  0.390400  0.251800  1.0  0.118
  H  H135  1  0.256400  0.218500  0.236900  1.0  0.1076
  H  H136  1  0.306100  0.219100  0.518500  1.0  0.1062
  H  H137  1  0.290100  0.870600  0.799300  1.0  0.1159
  H  H138  1  0.386400  0.110200  0.956100  1.0  0.0961
  H  H139  1  0.236000  0.154800  0.526800  1.0  0.1102
  H  H140  1  0.251800  0.961500  0.112400  1.0  0.0998
  H  H141  1  0.107600  0.461200  0.244400  1.0  0.1025
  H  H142  1  0.369100  0.911000  0.073800  1.0  0.1014
  H  H143  1  0.270100  0.946800  0.936600  1.0  0.0966
  H  H144  1  0.343600  0.190600  0.656500  1.0  0.1025
  H  H145  1  0.343300  0.115400  0.273600  1.0  0.1257
  H  H146  1  0.387700  0.831800  0.937900  1.0  0.1123
  H  H147  1  0.237400  0.032100  0.259600  1.0  0.1138
  H  H148  1  0.308100  0.981400  0.438200  1.0  0.104
  H  H149  1  0.128500  0.278700  0.506900  1.0  0.118
  H  H150  1  0.347900  0.132000  0.817800  1.0  0.0986
  H  H151  1  0.073900  0.354900  0.499500  1.0  0.1055
  H  H152  1  0.443300  0.940600  0.799100  1.0  0.1057
  H  H153  1  0.405100  0.964600  0.657700  1.0  0.1134
  H  H154  1  0.346500  0.952800  0.576300  1.0  0.097
  H  H155  1  0.296000  0.800500  0.237500  1.0  0.1229
  H  H156  1  0.102800  0.251100  0.724200  1.0  0.3891
  H  H157  1  0.315700  0.739700  0.528200  1.0  0.1075
  H  H158  1  0.143600  0.547500  0.123700  1.0  0.1021
  H  H159  1  0.336800  0.890400  0.251800  1.0  0.1183
  H  H160  1  0.243600  0.718500  0.236900  1.0  0.1079
  H  H161  1  0.193900  0.719100  0.518500  1.0  0.1064
  H  H162  1  0.209900  0.370600  0.799300  1.0  0.1162
  H  H163  1  0.113600  0.610200  0.956100  1.0  0.0962
  H  H164  1  0.264000  0.654800  0.526800  1.0  0.1104
  H  H165  1  0.248200  0.461500  0.112400  1.0  0.0999
  H  H166  1  0.392400  0.961200  0.244400  1.0  0.1024
  H  H167  1  0.130900  0.411000  0.073800  1.0  0.1016
  H  H168  1  0.229900  0.446800  0.936600  1.0  0.0969
  H  H169  1  0.156400  0.690600  0.656500  1.0  0.1023
  H  H170  1  0.156700  0.615400  0.273600  1.0  0.1253
  H  H171  1  0.112300  0.331800  0.937900  1.0  0.1124
  H  H172  1  0.262600  0.532100  0.259600  1.0  0.1142
  H  H173  1  0.191900  0.481400  0.438200  1.0  0.1045
  H  H174  1  0.371500  0.778700  0.506900  1.0  0.1182
  H  H175  1  0.152100  0.632000  0.817800  1.0  0.0983
  H  H176  1  0.426100  0.854900  0.499500  1.0  0.1058
  H  H177  1  0.056700  0.440600  0.799100  1.0  0.1101
  H  H178  1  0.094900  0.464600  0.657700  1.0  0.1133
  H  H179  1  0.153500  0.452800  0.576300  1.0  0.0969
  H  H180  1  0.704000  0.199500  0.237500  1.0  0.1237
  H  H181  1  0.897200  0.748900  0.724200  1.0  0.3895
  H  H182  1  0.684300  0.260300  0.528200  1.0  0.107
  H  H183  1  0.856400  0.452500  0.123700  1.0  0.1019
  H  H184  1  0.663200  0.109600  0.251800  1.0  0.1191
  H  H185  1  0.756400  0.281500  0.236900  1.0  0.1072
  H  H186  1  0.806100  0.280900  0.518500  1.0  0.1063
  H  H187  1  0.790100  0.629400  0.799300  1.0  0.116
  H  H188  1  0.886400  0.389800  0.956100  1.0  0.0962
  H  H189  1  0.736000  0.345200  0.526800  1.0  0.1099
  H  H190  1  0.751800  0.538500  0.112400  1.0  0.1002
  H  H191  1  0.607600  0.038800  0.244400  1.0  0.1022
  H  H192  1  0.869100  0.589000  0.073800  1.0  0.1006
  H  H193  1  0.770100  0.553200  0.936600  1.0  0.0968
  H  H194  1  0.843600  0.309400  0.656500  1.0  0.1023
  H  H195  1  0.843300  0.384600  0.273600  1.0  0.1257
  H  H196  1  0.887700  0.668200  0.937900  1.0  0.1115
  H  H197  1  0.737400  0.467900  0.259600  1.0  0.1137
  H  H198  1  0.808100  0.518600  0.438200  1.0  0.1039
  H  H199  1  0.628500  0.221300  0.506900  1.0  0.1178
  H  H200  1  0.847900  0.368000  0.817800  1.0  0.0988
  H  H201  1  0.573900  0.145100  0.499500  1.0  0.1053
  H  H202  1  0.943300  0.559400  0.799100  1.0  0.1058
  H  H203  1  0.905100  0.535400  0.657700  1.0  0.1131
  H  H204  1  0.846500  0.547200  0.576300  1.0  0.0969
  C  C205  1  0.749500  0.325400  0.879700  1.0  0.139
  C  C206  1  0.789920  0.229600  0.795300  1.0  -0.1036
  C  C207  1  0.651390  0.432100  0.135100  1.0  0.0695
  C  C208  1  0.812850  0.224000  0.882700  1.0  0.0248
  C  C209  1  0.801920  0.266100  0.968700  1.0  -0.085
  C  C210  1  0.848100  0.175000  0.878400  1.0  0.0318
  C  C211  1  0.667140  0.457900  0.653200  1.0  -0.1142
  C  C212  1  0.658450  0.654500  0.354500  1.0  -0.1304
  C  C213  1  0.854930  0.118500  0.801400  1.0  -0.122
  C  C214  1  0.580930  0.476400  0.391200  1.0  -0.125
  C  C215  1  0.914970  0.085700  0.869700  1.0  -0.1241
  C  C216  1  0.710890  0.420400  0.783100  1.0  0.1236
  C  C217  1  0.682450  0.558800  0.518900  1.0  0.0813
  C  C218  1  0.758620  0.279100  0.794500  1.0  -0.1465
  C  C219  1  0.685950  0.334400  0.029800  1.0  -0.1802
  C  C220  1  0.693970  0.620900  0.354200  1.0  -0.0623
  C  C221  1  0.696580  0.395900  0.962900  1.0  0.1899
  C  C222  1  0.609790  0.419200  0.396400  1.0  -0.0352
  C  C223  1  0.770730  0.316900  0.968200  1.0  -0.1867
  C  C224  1  0.729640  0.509000  0.645600  1.0  -0.1028
  C  C225  1  0.888220  0.075400  0.797400  1.0  -0.0912
  C  C226  1  0.646890  0.596100  0.518800  1.0  -0.1376
  C  C227  1  0.645230  0.701000  0.265300  1.0  0.6324
  C  C228  1  0.705730  0.574500  0.436500  1.0  -0.0993
  C  C229  1  0.663520  0.351900  0.113600  1.0  -0.1129
  C  C230  1  0.675060  0.415700  0.741900  1.0  -0.1918
  C  C231  1  0.635720  0.643400  0.436900  1.0  -0.0818
  C  C232  1  0.738400  0.466100  0.733600  1.0  -0.1651
  C  C233  1  0.627290  0.448500  0.223900  1.0  0.0227
  C  C234  1  0.684650  0.476600  0.981700  1.0  -0.1494
  C  C235  1  0.875350  0.184700  0.953700  1.0  -0.133
  C  C236  1  0.632770  0.406000  0.313300  1.0  -0.0951
  C  C237  1  0.908290  0.139200  0.948600  1.0  -0.015
  C  C238  1  0.693770  0.508400  0.606700  1.0  0.0398
  C  C239  1  0.575620  0.520400  0.302700  1.0  -0.0154
  C  C240  1  0.598700  0.506300  0.217600  1.0  -0.1019
  C  C241  1  0.949950  0.038200  0.861600  1.0  0.698
  C  C242  1  0.661800  0.493900  0.065900  1.0  -0.1098
  C  C243  1  0.556000  0.490900  0.481400  1.0  0.6811
  C  C244  1  0.250500  0.674600  0.879700  1.0  0.1392
  C  C245  1  0.210080  0.770400  0.795300  1.0  -0.1045
  C  C246  1  0.348610  0.567900  0.135100  1.0  0.0686
  C  C247  1  0.187150  0.776000  0.882700  1.0  0.0244
  C  C248  1  0.198080  0.733900  0.968700  1.0  -0.0851
  C  C249  1  0.151900  0.825000  0.878400  1.0  0.0306
  C  C250  1  0.332860  0.542100  0.653200  1.0  -0.1162
  C  C251  1  0.341550  0.345500  0.354500  1.0  -0.129
  C  C252  1  0.145070  0.881500  0.801400  1.0  -0.1241
  C  C253  1  0.419070  0.523600  0.391200  1.0  -0.1261
  C  C254  1  0.085030  0.914300  0.869700  1.0  -0.1233
  C  C255  1  0.289110  0.579600  0.783100  1.0  0.1235
  C  C256  1  0.317550  0.441200  0.518900  1.0  0.081
  C  C257  1  0.241380  0.720900  0.794500  1.0  -0.1477
  C  C258  1  0.314050  0.665600  0.029800  1.0  -0.1802
  C  C259  1  0.306030  0.379100  0.354200  1.0  -0.0609
  C  C260  1  0.303420  0.604100  0.962900  1.0  0.1907
  C  C261  1  0.390210  0.580800  0.396400  1.0  -0.0342
  C  C262  1  0.229270  0.683100  0.968200  1.0  -0.1863
  C  C263  1  0.270360  0.491000  0.645600  1.0  -0.1017
  C  C264  1  0.111780  0.924600  0.797400  1.0  -0.0906
  C  C265  1  0.353110  0.403900  0.518800  1.0  -0.1379
  C  C266  1  0.354770  0.299000  0.265300  1.0  0.6322
  C  C267  1  0.294270  0.425500  0.436500  1.0  -0.0985
  C  C268  1  0.336480  0.648100  0.113600  1.0  -0.1148
  C  C269  1  0.324940  0.584300  0.741900  1.0  -0.1923
  C  C270  1  0.364280  0.356600  0.436900  1.0  -0.0822
  C  C271  1  0.261600  0.533900  0.733600  1.0  -0.1642
  C  C272  1  0.372710  0.551500  0.223900  1.0  0.0245
  C  C273  1  0.315350  0.523400  0.981700  1.0  -0.1497
  C  C274  1  0.124650  0.815300  0.953700  1.0  -0.131
  C  C275  1  0.367230  0.594000  0.313300  1.0  -0.0931
  C  C276  1  0.091710  0.860800  0.948600  1.0  -0.0167
  C  C277  1  0.306230  0.491600  0.606700  1.0  0.0403
  C  C278  1  0.424380  0.479600  0.302700  1.0  -0.0137
  C  C279  1  0.401300  0.493700  0.217600  1.0  -0.0991
  C  C280  1  0.050050  0.961800  0.861600  1.0  0.6973
  C  C281  1  0.338200  0.506100  0.065900  1.0  -0.1087
  C  C282  1  0.444000  0.509100  0.481400  1.0  0.6819
  C  C283  1  0.249500  0.174600  0.879700  1.0  0.139
  C  C284  1  0.289920  0.270400  0.795300  1.0  -0.1039
  C  C285  1  0.151390  0.067900  0.135100  1.0  0.0693
  C  C286  1  0.312850  0.276000  0.882700  1.0  0.0245
  C  C287  1  0.301920  0.233900  0.968700  1.0  -0.0849
  C  C288  1  0.348100  0.325000  0.878400  1.0  0.0316
  C  C289  1  0.167140  0.042100  0.653200  1.0  -0.115
  C  C290  1  0.158450  0.845500  0.354500  1.0  -0.1307
  C  C291  1  0.354930  0.381500  0.801400  1.0  -0.1214
  C  C292  1  0.080930  0.023600  0.391200  1.0  -0.1249
  C  C293  1  0.414970  0.414300  0.869700  1.0  -0.1238
  C  C294  1  0.210890  0.079600  0.783100  1.0  0.1236
  C  C295  1  0.182450  0.941200  0.518900  1.0  0.081
  C  C296  1  0.258620  0.220900  0.794500  1.0  -0.147
  C  C297  1  0.185950  0.165600  0.029800  1.0  -0.1797
  C  C298  1  0.193970  0.879100  0.354200  1.0  -0.0627
  C  C299  1  0.196580  0.104100  0.962900  1.0  0.1899
  C  C300  1  0.109790  0.080800  0.396400  1.0  -0.0356
  C  C301  1  0.270730  0.183100  0.968200  1.0  -0.1873
  C  C302  1  0.229640  0.991000  0.645600  1.0  -0.1029
  C  C303  1  0.388220  0.424600  0.797400  1.0  -0.0906
  C  C304  1  0.146890  0.903900  0.518800  1.0  -0.1378
  C  C305  1  0.145230  0.799000  0.265300  1.0  0.6327
  C  C306  1  0.205730  0.925500  0.436500  1.0  -0.0993
  C  C307  1  0.163520  0.148100  0.113600  1.0  -0.1129
  C  C308  1  0.175060  0.084300  0.741900  1.0  -0.1923
  C  C309  1  0.135720  0.856600  0.436900  1.0  -0.0803
  C  C310  1  0.238400  0.033900  0.733600  1.0  -0.1653
  C  C311  1  0.127290  0.051500  0.223900  1.0  0.0234
  C  C312  1  0.184650  0.023400  0.981700  1.0  -0.149
  C  C313  1  0.375350  0.315300  0.953700  1.0  -0.1327
  C  C314  1  0.132770  0.094000  0.313300  1.0  -0.0951
  C  C315  1  0.408290  0.360800  0.948600  1.0  -0.015
  C  C316  1  0.193770  0.991600  0.606700  1.0  0.0395
  C  C317  1  0.075620  0.979600  0.302700  1.0  -0.0147
  C  C318  1  0.098700  0.993700  0.217600  1.0  -0.1021
  C  C319  1  0.449950  0.461800  0.861600  1.0  0.6976
  C  C320  1  0.161800  0.006100  0.065900  1.0  -0.1091
  C  C321  1  0.056000  0.009100  0.481400  1.0  0.6813
  C  C322  1  0.750500  0.825400  0.879700  1.0  0.1391
  C  C323  1  0.710080  0.729600  0.795300  1.0  -0.104
  C  C324  1  0.848610  0.932100  0.135100  1.0  0.0688
  C  C325  1  0.687150  0.724000  0.882700  1.0  0.0248
  C  C326  1  0.698080  0.766100  0.968700  1.0  -0.0853
  C  C327  1  0.651900  0.675000  0.878400  1.0  0.0309
  C  C328  1  0.832860  0.957900  0.653200  1.0  -0.1152
  C  C329  1  0.841550  0.154500  0.354500  1.0  -0.129
  C  C330  1  0.645070  0.618500  0.801400  1.0  -0.1245
  C  C331  1  0.919070  0.976400  0.391200  1.0  -0.1266
  C  C332  1  0.585030  0.585700  0.869700  1.0  -0.1236
  C  C333  1  0.789110  0.920400  0.783100  1.0  0.1236
  C  C334  1  0.817550  0.058800  0.518900  1.0  0.0814
  C  C335  1  0.741380  0.779100  0.794500  1.0  -0.1475
  C  C336  1  0.814050  0.834400  0.029800  1.0  -0.1797
  C  C337  1  0.806030  0.120900  0.354200  1.0  -0.0606
  C  C338  1  0.803420  0.895900  0.962900  1.0  0.1908
  C  C339  1  0.890210  0.919200  0.396400  1.0  -0.0341
  C  C340  1  0.729270  0.816900  0.968200  1.0  -0.1855
  C  C341  1  0.770360  0.009000  0.645600  1.0  -0.1015
  C  C342  1  0.611780  0.575400  0.797400  1.0  -0.0913
  C  C343  1  0.853110  0.096100  0.518800  1.0  -0.1376
  C  C344  1  0.854770  0.201000  0.265300  1.0  0.632
  C  C345  1  0.794270  0.074500  0.436500  1.0  -0.0985
  C  C346  1  0.836480  0.851900  0.113600  1.0  -0.1142
  C  C347  1  0.824940  0.915700  0.741900  1.0  -0.1917
  C  C348  1  0.864280  0.143400  0.436900  1.0  -0.0827
  C  C349  1  0.761600  0.966100  0.733600  1.0  -0.1643
  C  C350  1  0.872710  0.948500  0.223900  1.0  0.0235
  C  C351  1  0.815350  0.976600  0.981700  1.0  -0.1503
  C  C352  1  0.624650  0.684700  0.953700  1.0  -0.1317
  C  C353  1  0.867230  0.906000  0.313300  1.0  -0.0932
  C  C354  1  0.591710  0.639200  0.948600  1.0  -0.0162
  C  C355  1  0.806230  0.008400  0.606700  1.0  0.0406
  C  C356  1  0.924380  0.020400  0.302700  1.0  -0.0136
  C  C357  1  0.901300  0.006300  0.217600  1.0  -0.0986
  C  C358  1  0.550050  0.538200  0.861600  1.0  0.6972
  C  C359  1  0.838200  0.993900  0.065900  1.0  -0.1098
  C  C360  1  0.944000  0.990900  0.481400  1.0  0.6816
  C  C361  1  0.749500  0.825400  0.379700  1.0  0.139
  C  C362  1  0.789920  0.729600  0.295300  1.0  -0.1036
  C  C363  1  0.651390  0.932100  0.635100  1.0  0.0695
  C  C364  1  0.812850  0.724000  0.382700  1.0  0.0248
  C  C365  1  0.801920  0.766100  0.468700  1.0  -0.085
  C  C366  1  0.848100  0.675000  0.378400  1.0  0.0318
  C  C367  1  0.667140  0.957900  0.153200  1.0  -0.1142
  C  C368  1  0.658450  0.154500  0.854500  1.0  -0.1304
  C  C369  1  0.854930  0.618500  0.301400  1.0  -0.122
  C  C370  1  0.580930  0.976400  0.891200  1.0  -0.125
  C  C371  1  0.914970  0.585700  0.369700  1.0  -0.1241
  C  C372  1  0.710890  0.920400  0.283100  1.0  0.1236
  C  C373  1  0.682450  0.058800  0.018900  1.0  0.0813
  C  C374  1  0.758620  0.779100  0.294500  1.0  -0.1465
  C  C375  1  0.685950  0.834400  0.529800  1.0  -0.1802
  C  C376  1  0.693970  0.120900  0.854200  1.0  -0.0623
  C  C377  1  0.696580  0.895900  0.462900  1.0  0.1899
  C  C378  1  0.609790  0.919200  0.896400  1.0  -0.0352
  C  C379  1  0.770730  0.816900  0.468200  1.0  -0.1867
  C  C380  1  0.729640  0.009000  0.145600  1.0  -0.1028
  C  C381  1  0.888220  0.575400  0.297400  1.0  -0.0912
  C  C382  1  0.646890  0.096100  0.018800  1.0  -0.1376
  C  C383  1  0.645230  0.201000  0.765300  1.0  0.6324
  C  C384  1  0.705730  0.074500  0.936500  1.0  -0.0993
  C  C385  1  0.663520  0.851900  0.613600  1.0  -0.1129
  C  C386  1  0.675060  0.915700  0.241900  1.0  -0.1918
  C  C387  1  0.635720  0.143400  0.936900  1.0  -0.0818
  C  C388  1  0.738400  0.966100  0.233600  1.0  -0.1651
  C  C389  1  0.627290  0.948500  0.723900  1.0  0.0227
  C  C390  1  0.684650  0.976600  0.481700  1.0  -0.1494
  C  C391  1  0.875350  0.684700  0.453700  1.0  -0.133
  C  C392  1  0.632770  0.906000  0.813300  1.0  -0.0951
  C  C393  1  0.908290  0.639200  0.448600  1.0  -0.015
  C  C394  1  0.693770  0.008400  0.106700  1.0  0.0398
  C  C395  1  0.575620  0.020400  0.802700  1.0  -0.0154
  C  C396  1  0.598700  0.006300  0.717600  1.0  -0.1019
  C  C397  1  0.949950  0.538200  0.361600  1.0  0.698
  C  C398  1  0.661800  0.993900  0.565900  1.0  -0.1098
  C  C399  1  0.556000  0.990900  0.981400  1.0  0.6811
  C  C400  1  0.250500  0.174600  0.379700  1.0  0.1392
  C  C401  1  0.210080  0.270400  0.295300  1.0  -0.1045
  C  C402  1  0.348610  0.067900  0.635100  1.0  0.0686
  C  C403  1  0.187150  0.276000  0.382700  1.0  0.0244
  C  C404  1  0.198080  0.233900  0.468700  1.0  -0.0851
  C  C405  1  0.151900  0.325000  0.378400  1.0  0.0306
  C  C406  1  0.332860  0.042100  0.153200  1.0  -0.1162
  C  C407  1  0.341550  0.845500  0.854500  1.0  -0.129
  C  C408  1  0.145070  0.381500  0.301400  1.0  -0.1241
  C  C409  1  0.419070  0.023600  0.891200  1.0  -0.1261
  C  C410  1  0.085030  0.414300  0.369700  1.0  -0.1233
  C  C411  1  0.289110  0.079600  0.283100  1.0  0.1235
  C  C412  1  0.317550  0.941200  0.018900  1.0  0.081
  C  C413  1  0.241380  0.220900  0.294500  1.0  -0.1477
  C  C414  1  0.314050  0.165600  0.529800  1.0  -0.1802
  C  C415  1  0.306030  0.879100  0.854200  1.0  -0.0609
  C  C416  1  0.303420  0.104100  0.462900  1.0  0.1907
  C  C417  1  0.390210  0.080800  0.896400  1.0  -0.0342
  C  C418  1  0.229270  0.183100  0.468200  1.0  -0.1863
  C  C419  1  0.270360  0.991000  0.145600  1.0  -0.1017
  C  C420  1  0.111780  0.424600  0.297400  1.0  -0.0906
  C  C421  1  0.353110  0.903900  0.018800  1.0  -0.1379
  C  C422  1  0.354770  0.799000  0.765300  1.0  0.6322
  C  C423  1  0.294270  0.925500  0.936500  1.0  -0.0985
  C  C424  1  0.336480  0.148100  0.613600  1.0  -0.1148
  C  C425  1  0.324940  0.084300  0.241900  1.0  -0.1923
  C  C426  1  0.364280  0.856600  0.936900  1.0  -0.0822
  C  C427  1  0.261600  0.033900  0.233600  1.0  -0.1642
  C  C428  1  0.372710  0.051500  0.723900  1.0  0.0245
  C  C429  1  0.315350  0.023400  0.481700  1.0  -0.1497
  C  C430  1  0.124650  0.315300  0.453700  1.0  -0.131
  C  C431  1  0.367230  0.094000  0.813300  1.0  -0.0931
  C  C432  1  0.091710  0.360800  0.448600  1.0  -0.0167
  C  C433  1  0.306230  0.991600  0.106700  1.0  0.0403
  C  C434  1  0.424380  0.979600  0.802700  1.0  -0.0137
  C  C435  1  0.401300  0.993700  0.717600  1.0  -0.0991
  C  C436  1  0.050050  0.461800  0.361600  1.0  0.6973
  C  C437  1  0.338200  0.006100  0.565900  1.0  -0.1087
  C  C438  1  0.444000  0.009100  0.981400  1.0  0.6819
  C  C439  1  0.249500  0.674600  0.379700  1.0  0.139
  C  C440  1  0.289920  0.770400  0.295300  1.0  -0.1039
  C  C441  1  0.151390  0.567900  0.635100  1.0  0.0693
  C  C442  1  0.312850  0.776000  0.382700  1.0  0.0245
  C  C443  1  0.301920  0.733900  0.468700  1.0  -0.0849
  C  C444  1  0.348100  0.825000  0.378400  1.0  0.0316
  C  C445  1  0.167140  0.542100  0.153200  1.0  -0.115
  C  C446  1  0.158450  0.345500  0.854500  1.0  -0.1307
  C  C447  1  0.354930  0.881500  0.301400  1.0  -0.1214
  C  C448  1  0.080930  0.523600  0.891200  1.0  -0.1249
  C  C449  1  0.414970  0.914300  0.369700  1.0  -0.1238
  C  C450  1  0.210890  0.579600  0.283100  1.0  0.1236
  C  C451  1  0.182450  0.441200  0.018900  1.0  0.081
  C  C452  1  0.258620  0.720900  0.294500  1.0  -0.147
  C  C453  1  0.185950  0.665600  0.529800  1.0  -0.1797
  C  C454  1  0.193970  0.379100  0.854200  1.0  -0.0627
  C  C455  1  0.196580  0.604100  0.462900  1.0  0.1899
  C  C456  1  0.109790  0.580800  0.896400  1.0  -0.0356
  C  C457  1  0.270730  0.683100  0.468200  1.0  -0.1873
  C  C458  1  0.229640  0.491000  0.145600  1.0  -0.1029
  C  C459  1  0.388220  0.924600  0.297400  1.0  -0.0906
  C  C460  1  0.146890  0.403900  0.018800  1.0  -0.1378
  C  C461  1  0.145230  0.299000  0.765300  1.0  0.6327
  C  C462  1  0.205730  0.425500  0.936500  1.0  -0.0993
  C  C463  1  0.163520  0.648100  0.613600  1.0  -0.1129
  C  C464  1  0.175060  0.584300  0.241900  1.0  -0.1923
  C  C465  1  0.135720  0.356600  0.936900  1.0  -0.0803
  C  C466  1  0.238400  0.533900  0.233600  1.0  -0.1653
  C  C467  1  0.127290  0.551500  0.723900  1.0  0.0234
  C  C468  1  0.184650  0.523400  0.481700  1.0  -0.149
  C  C469  1  0.375350  0.815300  0.453700  1.0  -0.1327
  C  C470  1  0.132770  0.594000  0.813300  1.0  -0.0951
  C  C471  1  0.408290  0.860800  0.448600  1.0  -0.015
  C  C472  1  0.193770  0.491600  0.106700  1.0  0.0395
  C  C473  1  0.075620  0.479600  0.802700  1.0  -0.0147
  C  C474  1  0.098700  0.493700  0.717600  1.0  -0.1021
  C  C475  1  0.449950  0.961800  0.361600  1.0  0.6976
  C  C476  1  0.161800  0.506100  0.565900  1.0  -0.1091
  C  C477  1  0.056000  0.509100  0.981400  1.0  0.6813
  C  C478  1  0.750500  0.325400  0.379700  1.0  0.1391
  C  C479  1  0.710080  0.229600  0.295300  1.0  -0.104
  C  C480  1  0.848610  0.432100  0.635100  1.0  0.0688
  C  C481  1  0.687150  0.224000  0.382700  1.0  0.0248
  C  C482  1  0.698080  0.266100  0.468700  1.0  -0.0853
  C  C483  1  0.651900  0.175000  0.378400  1.0  0.0309
  C  C484  1  0.832860  0.457900  0.153200  1.0  -0.1152
  C  C485  1  0.841550  0.654500  0.854500  1.0  -0.129
  C  C486  1  0.645070  0.118500  0.301400  1.0  -0.1245
  C  C487  1  0.919070  0.476400  0.891200  1.0  -0.1266
  C  C488  1  0.585030  0.085700  0.369700  1.0  -0.1236
  C  C489  1  0.789110  0.420400  0.283100  1.0  0.1236
  C  C490  1  0.817550  0.558800  0.018900  1.0  0.0814
  C  C491  1  0.741380  0.279100  0.294500  1.0  -0.1475
  C  C492  1  0.814050  0.334400  0.529800  1.0  -0.1797
  C  C493  1  0.806030  0.620900  0.854200  1.0  -0.0606
  C  C494  1  0.803420  0.395900  0.462900  1.0  0.1908
  C  C495  1  0.890210  0.419200  0.896400  1.0  -0.0341
  C  C496  1  0.729270  0.316900  0.468200  1.0  -0.1855
  C  C497  1  0.770360  0.509000  0.145600  1.0  -0.1015
  C  C498  1  0.611780  0.075400  0.297400  1.0  -0.0913
  C  C499  1  0.853110  0.596100  0.018800  1.0  -0.1376
  C  C500  1  0.854770  0.701000  0.765300  1.0  0.632
  C  C501  1  0.794270  0.574500  0.936500  1.0  -0.0985
  C  C502  1  0.836480  0.351900  0.613600  1.0  -0.1142
  C  C503  1  0.824940  0.415700  0.241900  1.0  -0.1917
  C  C504  1  0.864280  0.643400  0.936900  1.0  -0.0827
  C  C505  1  0.761600  0.466100  0.233600  1.0  -0.1643
  C  C506  1  0.872710  0.448500  0.723900  1.0  0.0235
  C  C507  1  0.815350  0.476600  0.481700  1.0  -0.1503
  C  C508  1  0.624650  0.184700  0.453700  1.0  -0.1317
  C  C509  1  0.867230  0.406000  0.813300  1.0  -0.0932
  C  C510  1  0.591710  0.139200  0.448600  1.0  -0.0162
  C  C511  1  0.806230  0.508400  0.106700  1.0  0.0406
  C  C512  1  0.924380  0.520400  0.802700  1.0  -0.0136
  C  C513  1  0.901300  0.506300  0.717600  1.0  -0.0986
  C  C514  1  0.550050  0.038200  0.361600  1.0  0.6972
  C  C515  1  0.838200  0.493900  0.565900  1.0  -0.1098
  C  C516  1  0.944000  0.490900  0.981400  1.0  0.6816
  N  N517  1  0.718640  0.379200  0.877300  1.0  -0.1544
  N  N518  1  0.281360  0.620800  0.877300  1.0  -0.1541
  N  N519  1  0.218640  0.120800  0.877300  1.0  -0.1543
  N  N520  1  0.781360  0.879200  0.877300  1.0  -0.1542
  N  N521  1  0.718640  0.879200  0.377300  1.0  -0.1544
  N  N522  1  0.281360  0.120800  0.377300  1.0  -0.1541
  N  N523  1  0.218640  0.620800  0.377300  1.0  -0.1543
  N  N524  1  0.781360  0.379200  0.377300  1.0  -0.1542
  O  O525  1  0.611690  0.736000  0.279400  1.0  -0.544
  O  O526  1  0.535340  0.552200  0.487200  1.0  -0.6154
  O  O527  1  0.662710  0.707700  0.186200  1.0  -0.5243
  O  O528  1  0.956780  0.994900  0.783300  1.0  -0.7021
  O  O529  1  0.971770  0.043200  0.939800  1.0  -0.5036
  O  O530  1  0.556530  0.440200  0.555600  1.0  -0.6938
  O  O531  1  0.388310  0.264000  0.279400  1.0  -0.544
  O  O532  1  0.464660  0.447800  0.487200  1.0  -0.6166
  O  O533  1  0.337290  0.292300  0.186200  1.0  -0.524
  O  O534  1  0.043220  0.005100  0.783300  1.0  -0.7008
  O  O535  1  0.028230  0.956800  0.939800  1.0  -0.5009
  O  O536  1  0.443470  0.559800  0.555600  1.0  -0.6952
  O  O537  1  0.111690  0.764000  0.279400  1.0  -0.5441
  O  O538  1  0.035340  0.947800  0.487200  1.0  -0.6153
  O  O539  1  0.162710  0.792300  0.186200  1.0  -0.5242
  O  O540  1  0.456780  0.505100  0.783300  1.0  -0.7006
  O  O541  1  0.471770  0.456800  0.939800  1.0  -0.5039
  O  O542  1  0.056530  0.059800  0.555600  1.0  -0.6956
  O  O543  1  0.888310  0.236000  0.279400  1.0  -0.5441
  O  O544  1  0.964660  0.052200  0.487200  1.0  -0.6151
  O  O545  1  0.837290  0.207700  0.186200  1.0  -0.524
  O  O546  1  0.543220  0.494900  0.783300  1.0  -0.7017
  O  O547  1  0.528230  0.543200  0.939800  1.0  -0.5009
  O  O548  1  0.943470  0.940200  0.555600  1.0  -0.6943
  O  O549  1  0.611690  0.236000  0.779400  1.0  -0.544
  O  O550  1  0.535340  0.052200  0.987200  1.0  -0.6154
  O  O551  1  0.662710  0.207700  0.686200  1.0  -0.5243
  O  O552  1  0.956780  0.494900  0.283300  1.0  -0.7021
  O  O553  1  0.971770  0.543200  0.439800  1.0  -0.5036
  O  O554  1  0.556530  0.940200  0.055600  1.0  -0.6938
  O  O555  1  0.388310  0.764000  0.779400  1.0  -0.544
  O  O556  1  0.464660  0.947800  0.987200  1.0  -0.6166
  O  O557  1  0.337290  0.792300  0.686200  1.0  -0.524
  O  O558  1  0.043220  0.505100  0.283300  1.0  -0.7008
  O  O559  1  0.028230  0.456800  0.439800  1.0  -0.5009
  O  O560  1  0.443470  0.059800  0.055600  1.0  -0.6952
  O  O561  1  0.111690  0.264000  0.779400  1.0  -0.5441
  O  O562  1  0.035340  0.447800  0.987200  1.0  -0.6153
  O  O563  1  0.162710  0.292300  0.686200  1.0  -0.5242
  O  O564  1  0.456780  0.005100  0.283300  1.0  -0.7006
  O  O565  1  0.471770  0.956800  0.439800  1.0  -0.5039
  O  O566  1  0.056530  0.559800  0.055600  1.0  -0.6956
  O  O567  1  0.888310  0.736000  0.779400  1.0  -0.5441
  O  O568  1  0.964660  0.552200  0.987200  1.0  -0.6151
  O  O569  1  0.837290  0.707700  0.686200  1.0  -0.524
  O  O570  1  0.543220  0.994900  0.283300  1.0  -0.7017
  O  O571  1  0.528230  0.043200  0.439800  1.0  -0.5009
  O  O572  1  0.943470  0.440200  0.055600  1.0  -0.6943
