# generated using pymatgen
data_CeH21C39NO6
_symmetry_space_group_name_H-M   'P 1'
_cell_length_a   22.14080000
_cell_length_b   24.55770000
_cell_length_c   7.34450000
_cell_angle_alpha   90.00000000
_cell_angle_beta   90.00000000
_cell_angle_gamma   90.00000000
_symmetry_Int_Tables_number   1
_chemical_formula_structural   CeH21C39NO6
_chemical_formula_sum   'Ce4 H84 C156 N4 O24'
_cell_volume   3993.40386339
_cell_formula_units_Z   4
loop_
 _symmetry_equiv_pos_site_id
 _symmetry_equiv_pos_as_xyz
  1  'x, y, z'
loop_
 _atom_site_type_symbol
 _atom_site_label
 _atom_site_symmetry_multiplicity
 _atom_site_fract_x
 _atom_site_fract_y
 _atom_site_fract_z
 _atom_site_occupancy
 _atom_site_charge
  Ce  Ce1  1  0.260410  0.267530  0.781770  1.0  2.2101
  Ce  Ce2  1  0.739590  0.732470  0.781770  1.0  2.2106
  Ce  Ce3  1  0.260410  0.232470  0.281770  1.0  2.2107
  Ce  Ce4  1  0.739590  0.767530  0.281770  1.0  2.2101
  H  H5  1  0.609800  0.825300  0.728500  1.0  0.1138
  H  H6  1  0.871300  0.811000  0.718400  1.0  0.0934
  H  H7  1  0.274500  0.032300  0.439400  1.0  0.1035
  H  H8  1  0.167800  0.918100  0.344500  1.0  0.1059
  H  H9  1  0.518200  0.795300  0.198900  1.0  0.1036
  H  H10  1  0.267200  0.957800  0.630100  1.0  0.1001
  H  H11  1  0.310700  0.903200  0.887500  1.0  0.1077
  H  H12  1  0.251100  0.131300  0.859000  1.0  0.0921
  H  H13  1  0.958400  0.819200  0.195700  1.0  0.1172
  H  H14  1  0.518300  0.837200  0.581900  1.0  0.1195
  H  H15  1  0.122500  0.862600  0.890700  1.0  0.1386
  H  H16  1  0.961900  0.821000  0.565500  1.0  0.1182
  H  H17  1  0.175500  0.983500  0.129800  1.0  0.1143
  H  H18  1  0.138500  0.787300  0.306600  1.0  0.1192
  H  H19  1  0.302900  0.835500  0.099200  1.0  0.1065
  H  H20  1  0.361400  0.760800  0.822700  1.0  0.0985
  H  H21  1  0.213200  0.865500  0.731300  1.0  0.0859
  H  H22  1  0.236200  0.057400  0.053900  1.0  0.1092
  H  H23  1  0.048600  0.828100  0.041300  1.0  0.1076
  H  H24  1  0.427600  0.804200  0.046600  1.0  0.105
  H  H25  1  0.047600  0.786500  0.455100  1.0  0.1016
  H  H26  1  0.390200  0.174700  0.728500  1.0  0.1138
  H  H27  1  0.128700  0.189000  0.718400  1.0  0.0929
  H  H28  1  0.725500  0.967700  0.439400  1.0  0.1037
  H  H29  1  0.832200  0.081900  0.344500  1.0  0.1062
  H  H30  1  0.481800  0.204700  0.198900  1.0  0.1042
  H  H31  1  0.732800  0.042200  0.630100  1.0  0.1003
  H  H32  1  0.689300  0.096800  0.887500  1.0  0.1071
  H  H33  1  0.748900  0.868700  0.859000  1.0  0.0925
  H  H34  1  0.041600  0.180800  0.195700  1.0  0.1168
  H  H35  1  0.481700  0.162800  0.581900  1.0  0.1177
  H  H36  1  0.877500  0.137400  0.890700  1.0  0.1379
  H  H37  1  0.038100  0.179000  0.565500  1.0  0.1186
  H  H38  1  0.824500  0.016500  0.129800  1.0  0.1136
  H  H39  1  0.861500  0.212700  0.306600  1.0  0.1194
  H  H40  1  0.697100  0.164500  0.099200  1.0  0.1069
  H  H41  1  0.638600  0.239200  0.822700  1.0  0.0987
  H  H42  1  0.786800  0.134500  0.731300  1.0  0.0864
  H  H43  1  0.763800  0.942600  0.053900  1.0  0.1095
  H  H44  1  0.951400  0.171900  0.041300  1.0  0.1076
  H  H45  1  0.572400  0.195800  0.046600  1.0  0.1045
  H  H46  1  0.952400  0.213500  0.455100  1.0  0.1011
  H  H47  1  0.609800  0.674700  0.228500  1.0  0.1141
  H  H48  1  0.871300  0.689000  0.218400  1.0  0.0929
  H  H49  1  0.274500  0.467700  0.939400  1.0  0.1035
  H  H50  1  0.167800  0.581900  0.844500  1.0  0.1062
  H  H51  1  0.518200  0.704700  0.698900  1.0  0.1039
  H  H52  1  0.267200  0.542200  0.130100  1.0  0.1002
  H  H53  1  0.310700  0.596800  0.387500  1.0  0.1074
  H  H54  1  0.251100  0.368700  0.359000  1.0  0.0926
  H  H55  1  0.958400  0.680800  0.695700  1.0  0.117
  H  H56  1  0.518300  0.662800  0.081900  1.0  0.1176
  H  H57  1  0.122500  0.637400  0.390700  1.0  0.1386
  H  H58  1  0.961900  0.679000  0.065500  1.0  0.1187
  H  H59  1  0.175500  0.516500  0.629800  1.0  0.1138
  H  H60  1  0.138500  0.712700  0.806600  1.0  0.1191
  H  H61  1  0.302900  0.664500  0.599200  1.0  0.1065
  H  H62  1  0.361400  0.739200  0.322700  1.0  0.0984
  H  H63  1  0.213200  0.634500  0.231300  1.0  0.0865
  H  H64  1  0.236200  0.442600  0.553900  1.0  0.1091
  H  H65  1  0.048600  0.671900  0.541300  1.0  0.1078
  H  H66  1  0.427600  0.695800  0.546600  1.0  0.1043
  H  H67  1  0.047600  0.713500  0.955100  1.0  0.1011
  H  H68  1  0.390200  0.325300  0.228500  1.0  0.1138
  H  H69  1  0.128700  0.311000  0.218400  1.0  0.0932
  H  H70  1  0.725500  0.532300  0.939400  1.0  0.1038
  H  H71  1  0.832200  0.418100  0.844500  1.0  0.1059
  H  H72  1  0.481800  0.295300  0.698900  1.0  0.1038
  H  H73  1  0.732800  0.457800  0.130100  1.0  0.1004
  H  H74  1  0.689300  0.403200  0.387500  1.0  0.1074
  H  H75  1  0.748900  0.631300  0.359000  1.0  0.0921
  H  H76  1  0.041600  0.319200  0.695700  1.0  0.1171
  H  H77  1  0.481700  0.337200  0.081900  1.0  0.1196
  H  H78  1  0.877500  0.362600  0.390700  1.0  0.1385
  H  H79  1  0.038100  0.321000  0.065500  1.0  0.1179
  H  H80  1  0.824500  0.483500  0.629800  1.0  0.1139
  H  H81  1  0.861500  0.287300  0.806600  1.0  0.1196
  H  H82  1  0.697100  0.335500  0.599200  1.0  0.1066
  H  H83  1  0.638600  0.260800  0.322700  1.0  0.0989
  H  H84  1  0.786800  0.365500  0.231300  1.0  0.0859
  H  H85  1  0.763800  0.557400  0.553900  1.0  0.1095
  H  H86  1  0.951400  0.328100  0.541300  1.0  0.1078
  H  H87  1  0.572400  0.304200  0.546600  1.0  0.105
  H  H88  1  0.952400  0.286500  0.955100  1.0  0.1014
  C  C89  1  0.263000  0.137700  0.511800  1.0  0.6707
  C  C90  1  0.015200  0.823300  0.788000  1.0  0.0263
  C  C91  1  0.573800  0.821300  0.792000  1.0  -0.0842
  C  C92  1  0.907000  0.814100  0.784000  1.0  -0.0269
  C  C93  1  0.462800  0.820800  0.803000  1.0  0.0029
  C  C94  1  0.238100  0.870500  0.264000  1.0  0.1506
  C  C95  1  0.630400  0.798500  0.083200  1.0  0.6974
  C  C96  1  0.574700  0.808300  0.981200  1.0  -0.1234
  C  C97  1  0.905100  0.813100  0.971900  1.0  -0.1411
  C  C98  1  0.266800  0.037500  0.563000  1.0  -0.0527
  C  C99  1  0.198000  0.915300  0.257000  1.0  -0.1287
  C  C100  1  0.250800  0.998200  0.867000  1.0  0.099
  C  C101  1  0.518300  0.802900  0.075000  1.0  -0.0484
  C  C102  1  0.262400  0.992500  0.678000  1.0  -0.1505
  C  C103  1  0.282700  0.906600  0.981200  1.0  -0.1513
  C  C104  1  0.848700  0.800500  0.078100  1.0  0.6849
  C  C105  1  0.259800  0.088900  0.630000  1.0  -0.142
  C  C106  1  0.251900  0.096200  0.812000  1.0  -0.0593
  C  C107  1  0.245300  0.952500  0.987900  1.0  0.0737
  C  C108  1  0.958800  0.818800  0.069100  1.0  -0.0316
  C  C109  1  0.519000  0.828000  0.704800  1.0  -0.0797
  C  C110  1  0.125200  0.848500  0.774000  1.0  -0.1614
  C  C111  1  0.405100  0.824100  0.699200  1.0  -0.0012
  C  C112  1  0.295800  0.830500  0.504700  1.0  0.0934
  C  C113  1  0.961500  0.819700  0.692000  1.0  -0.1148
  C  C114  1  0.202300  0.954400  0.126600  1.0  -0.1956
  C  C115  1  0.073900  0.825000  0.684800  1.0  0.0168
  C  C116  1  0.135100  0.802800  0.421600  1.0  -0.1342
  C  C117  1  0.278800  0.866300  0.110600  1.0  -0.2101
  C  C118  1  0.357100  0.787300  0.733400  1.0  0.0064
  C  C119  1  0.179800  0.849200  0.676800  1.0  -0.1189
  C  C120  1  0.244900  0.051400  0.932000  1.0  -0.1504
  C  C121  1  0.012900  0.824000  0.975800  1.0  -0.0897
  C  C122  1  0.463700  0.808700  0.983700  1.0  -0.1068
  C  C123  1  0.080900  0.802400  0.511400  1.0  -0.0988
  C  C124  1  0.344200  0.868000  0.468000  1.0  -0.0126
  C  C125  1  0.186700  0.827500  0.507100  1.0  0.1254
  C  C126  1  0.396500  0.864100  0.564000  1.0  0.0327
  C  C127  1  0.304000  0.790600  0.635200  1.0  0.0189
  C  C128  1  0.737000  0.862300  0.511800  1.0  0.6706
  C  C129  1  0.984800  0.176700  0.788000  1.0  0.0292
  C  C130  1  0.426200  0.178700  0.792000  1.0  -0.0865
  C  C131  1  0.093000  0.185900  0.784000  1.0  -0.0294
  C  C132  1  0.537200  0.179200  0.803000  1.0  0.0049
  C  C133  1  0.761900  0.129500  0.264000  1.0  0.1509
  C  C134  1  0.369600  0.201500  0.083200  1.0  0.6979
  C  C135  1  0.425300  0.191700  0.981200  1.0  -0.1244
  C  C136  1  0.094900  0.186900  0.971900  1.0  -0.1409
  C  C137  1  0.733200  0.962500  0.563000  1.0  -0.0519
  C  C138  1  0.802000  0.084700  0.257000  1.0  -0.1301
  C  C139  1  0.749200  0.001800  0.867000  1.0  0.0995
  C  C140  1  0.481700  0.197100  0.075000  1.0  -0.0484
  C  C141  1  0.737600  0.007500  0.678000  1.0  -0.1501
  C  C142  1  0.717300  0.093400  0.981200  1.0  -0.1514
  C  C143  1  0.151300  0.199500  0.078100  1.0  0.6853
  C  C144  1  0.740200  0.911100  0.630000  1.0  -0.142
  C  C145  1  0.748100  0.903800  0.812000  1.0  -0.0604
  C  C146  1  0.754700  0.047500  0.987900  1.0  0.073
  C  C147  1  0.041200  0.181200  0.069100  1.0  -0.0324
  C  C148  1  0.481000  0.172000  0.704800  1.0  -0.0761
  C  C149  1  0.874800  0.151500  0.774000  1.0  -0.1613
  C  C150  1  0.594900  0.175900  0.699200  1.0  -0.0022
  C  C151  1  0.704200  0.169500  0.504700  1.0  0.094
  C  C152  1  0.038500  0.180300  0.692000  1.0  -0.112
  C  C153  1  0.797700  0.045600  0.126600  1.0  -0.1952
  C  C154  1  0.926100  0.175000  0.684800  1.0  0.0174
  C  C155  1  0.864900  0.197200  0.421600  1.0  -0.1348
  C  C156  1  0.721200  0.133700  0.110600  1.0  -0.2128
  C  C157  1  0.642900  0.212700  0.733400  1.0  0.007
  C  C158  1  0.820200  0.150800  0.676800  1.0  -0.1186
  C  C159  1  0.755100  0.948600  0.932000  1.0  -0.15
  C  C160  1  0.987100  0.176000  0.975800  1.0  -0.0899
  C  C161  1  0.536300  0.191300  0.983700  1.0  -0.1053
  C  C162  1  0.919100  0.197600  0.511400  1.0  -0.1004
  C  C163  1  0.655800  0.132000  0.468000  1.0  -0.0125
  C  C164  1  0.813300  0.172500  0.507100  1.0  0.1243
  C  C165  1  0.603500  0.135900  0.564000  1.0  0.0338
  C  C166  1  0.696000  0.209400  0.635200  1.0  0.0191
  C  C167  1  0.263000  0.362300  0.011800  1.0  0.6703
  C  C168  1  0.015200  0.676700  0.288000  1.0  0.0284
  C  C169  1  0.573800  0.678700  0.292000  1.0  -0.0862
  C  C170  1  0.907000  0.685900  0.284000  1.0  -0.0274
  C  C171  1  0.462800  0.679200  0.303000  1.0  0.0045
  C  C172  1  0.238100  0.629500  0.764000  1.0  0.1512
  C  C173  1  0.630400  0.701500  0.583200  1.0  0.6975
  C  C174  1  0.574700  0.691700  0.481200  1.0  -0.1242
  C  C175  1  0.905100  0.686900  0.471900  1.0  -0.1404
  C  C176  1  0.266800  0.462500  0.063000  1.0  -0.053
  C  C177  1  0.198000  0.584700  0.757000  1.0  -0.1292
  C  C178  1  0.250800  0.501800  0.367000  1.0  0.0988
  C  C179  1  0.518300  0.697100  0.575000  1.0  -0.0489
  C  C180  1  0.262400  0.507500  0.178000  1.0  -0.1503
  C  C181  1  0.282700  0.593400  0.481200  1.0  -0.1516
  C  C182  1  0.848700  0.699500  0.578100  1.0  0.6852
  C  C183  1  0.259800  0.411100  0.130000  1.0  -0.1424
  C  C184  1  0.251900  0.403800  0.312000  1.0  -0.0602
  C  C185  1  0.245300  0.547500  0.487900  1.0  0.0732
  C  C186  1  0.958800  0.681200  0.569100  1.0  -0.0323
  C  C187  1  0.519000  0.672000  0.204800  1.0  -0.0763
  C  C188  1  0.125200  0.651500  0.274000  1.0  -0.1613
  C  C189  1  0.405100  0.675900  0.199200  1.0  -0.0028
  C  C190  1  0.295800  0.669500  0.004700  1.0  0.0939
  C  C191  1  0.961500  0.680300  0.192000  1.0  -0.1121
  C  C192  1  0.202300  0.545600  0.626600  1.0  -0.1956
  C  C193  1  0.073900  0.675000  0.184800  1.0  0.0167
  C  C194  1  0.135100  0.697200  0.921600  1.0  -0.1345
  C  C195  1  0.278800  0.633700  0.610600  1.0  -0.2117
  C  C196  1  0.357100  0.712700  0.233400  1.0  0.0067
  C  C197  1  0.179800  0.650800  0.176800  1.0  -0.119
  C  C198  1  0.244900  0.448600  0.432000  1.0  -0.1506
  C  C199  1  0.012900  0.676000  0.475800  1.0  -0.091
  C  C200  1  0.463700  0.691300  0.483700  1.0  -0.1054
  C  C201  1  0.080900  0.697600  0.011400  1.0  -0.0992
  C  C202  1  0.344200  0.632000  0.968000  1.0  -0.0113
  C  C203  1  0.186700  0.672500  0.007100  1.0  0.1247
  C  C204  1  0.396500  0.635900  0.064000  1.0  0.0326
  C  C205  1  0.304000  0.709400  0.135200  1.0  0.0186
  C  C206  1  0.737000  0.637700  0.011800  1.0  0.6711
  C  C207  1  0.984800  0.323300  0.288000  1.0  0.0271
  C  C208  1  0.426200  0.321300  0.292000  1.0  -0.0859
  C  C209  1  0.093000  0.314100  0.284000  1.0  -0.0271
  C  C210  1  0.537200  0.320800  0.303000  1.0  0.0037
  C  C211  1  0.761900  0.370500  0.764000  1.0  0.1503
  C  C212  1  0.369600  0.298500  0.583200  1.0  0.6978
  C  C213  1  0.425300  0.308300  0.481200  1.0  -0.1234
  C  C214  1  0.094900  0.313100  0.471900  1.0  -0.1421
  C  C215  1  0.733200  0.537500  0.063000  1.0  -0.0516
  C  C216  1  0.802000  0.415300  0.757000  1.0  -0.1302
  C  C217  1  0.749200  0.498200  0.367000  1.0  0.0994
  C  C218  1  0.481700  0.302900  0.575000  1.0  -0.0482
  C  C219  1  0.737600  0.492500  0.178000  1.0  -0.1504
  C  C220  1  0.717300  0.406600  0.481200  1.0  -0.1518
  C  C221  1  0.151300  0.300500  0.578100  1.0  0.6854
  C  C222  1  0.740200  0.588900  0.130000  1.0  -0.1416
  C  C223  1  0.748100  0.596200  0.312000  1.0  -0.0595
  C  C224  1  0.754700  0.452500  0.487900  1.0  0.0736
  C  C225  1  0.041200  0.318800  0.569100  1.0  -0.0304
  C  C226  1  0.481000  0.328000  0.204800  1.0  -0.08
  C  C227  1  0.874800  0.348500  0.274000  1.0  -0.1614
  C  C228  1  0.594900  0.324100  0.199200  1.0  -0.0013
  C  C229  1  0.704200  0.330500  0.004700  1.0  0.0936
  C  C230  1  0.038500  0.319700  0.192000  1.0  -0.1145
  C  C231  1  0.797700  0.454400  0.626600  1.0  -0.1963
  C  C232  1  0.926100  0.325000  0.184800  1.0  0.0175
  C  C233  1  0.864900  0.302800  0.921600  1.0  -0.1344
  C  C234  1  0.721200  0.366300  0.610600  1.0  -0.212
  C  C235  1  0.642900  0.287300  0.233400  1.0  0.0066
  C  C236  1  0.820200  0.349200  0.176800  1.0  -0.1187
  C  C237  1  0.755100  0.551400  0.432000  1.0  -0.1498
  C  C238  1  0.987100  0.324000  0.475800  1.0  -0.09
  C  C239  1  0.536300  0.308700  0.483700  1.0  -0.1065
  C  C240  1  0.919100  0.302400  0.011400  1.0  -0.0991
  C  C241  1  0.655800  0.368000  0.968000  1.0  -0.0134
  C  C242  1  0.813300  0.327500  0.007100  1.0  0.125
  C  C243  1  0.603500  0.364100  0.064000  1.0  0.0333
  C  C244  1  0.696000  0.290600  0.135200  1.0  0.021
  N  N245  1  0.241900  0.833100  0.404200  1.0  -0.2099
  N  N246  1  0.758100  0.166900  0.404200  1.0  -0.2096
  N  N247  1  0.241900  0.666900  0.904200  1.0  -0.2095
  N  N248  1  0.758100  0.333100  0.904200  1.0  -0.2102
  O  O249  1  0.631500  0.796400  0.250500  1.0  -0.6401
  O  O250  1  0.680900  0.789600  0.987000  1.0  -0.7575
  O  O251  1  0.802300  0.785900  0.987300  1.0  -0.8066
  O  O252  1  0.847300  0.805700  0.246000  1.0  -0.635
  O  O253  1  0.264900  0.132400  0.339800  1.0  -0.6918
  O  O254  1  0.261100  0.185800  0.579400  1.0  -0.8162
  O  O255  1  0.368500  0.203600  0.250500  1.0  -0.6389
  O  O256  1  0.319100  0.210400  0.987000  1.0  -0.7565
  O  O257  1  0.197700  0.214100  0.987300  1.0  -0.8064
  O  O258  1  0.152700  0.194300  0.246000  1.0  -0.6343
  O  O259  1  0.735100  0.867600  0.339800  1.0  -0.6919
  O  O260  1  0.738900  0.814200  0.579400  1.0  -0.8178
  O  O261  1  0.631500  0.703600  0.750500  1.0  -0.6393
  O  O262  1  0.680900  0.710400  0.487000  1.0  -0.7584
  O  O263  1  0.802300  0.714100  0.487300  1.0  -0.8065
  O  O264  1  0.847300  0.694300  0.746000  1.0  -0.6343
  O  O265  1  0.264900  0.367600  0.839800  1.0  -0.6917
  O  O266  1  0.261100  0.314200  0.079400  1.0  -0.8179
  O  O267  1  0.368500  0.296400  0.750500  1.0  -0.6398
  O  O268  1  0.319100  0.289600  0.487000  1.0  -0.7563
  O  O269  1  0.197700  0.285900  0.487300  1.0  -0.8064
  O  O270  1  0.152700  0.305700  0.746000  1.0  -0.635
  O  O271  1  0.735100  0.632400  0.839800  1.0  -0.6923
  O  O272  1  0.738900  0.685800  0.079400  1.0  -0.8164
