# generated using pymatgen
data_FeCuH24C30S2(N2O3)2
_symmetry_space_group_name_H-M   'P 1'
_cell_length_a   11.84290000
_cell_length_b   13.48290000
_cell_length_c   11.69210000
_cell_angle_alpha   90.00000000
_cell_angle_beta   90.00000000
_cell_angle_gamma   90.00000000
_symmetry_Int_Tables_number   1
_chemical_formula_structural   FeCuH24C30S2(N2O3)2
_chemical_formula_sum   'Fe2 Cu2 H48 C60 S4 N8 O12'
_cell_volume   1866.95520057
_cell_formula_units_Z   2
loop_
 _symmetry_equiv_pos_site_id
 _symmetry_equiv_pos_as_xyz
  1  'x, y, z'
loop_
 _atom_site_type_symbol
 _atom_site_label
 _atom_site_symmetry_multiplicity
 _atom_site_fract_x
 _atom_site_fract_y
 _atom_site_fract_z
 _atom_site_occupancy
 _atom_site_charge
  Fe  Fe1  1  0.000000  0.500000  0.213390  1.0  0.1423
  Fe  Fe2  1  0.500000  0.000000  0.786610  1.0  0.1426
  Cu  Cu3  1  0.000000  0.000000  0.282700  1.0  0.3332
  Cu  Cu4  1  0.500000  0.500000  0.717300  1.0  0.3335
  H  H5  1  0.107600  0.580500  0.394300  1.0  0.1272
  H  H6  1  0.216200  0.459100  0.275900  1.0  0.1262
  H  H7  1  0.175900  0.493500  0.068800  1.0  0.1574
  H  H8  1  0.049500  0.644400  0.057000  1.0  0.1769
  H  H9  1  0.892400  0.419500  0.394300  1.0  0.1271
  H  H10  1  0.783800  0.540900  0.275900  1.0  0.1267
  H  H11  1  0.824100  0.506500  0.068800  1.0  0.158
  H  H12  1  0.950500  0.355600  0.057000  1.0  0.1767
  H  H13  1  0.392400  0.080500  0.605700  1.0  0.1273
  H  H14  1  0.283800  0.959100  0.724100  1.0  0.1257
  H  H15  1  0.324100  0.993500  0.931200  1.0  0.1585
  H  H16  1  0.450500  0.144400  0.943000  1.0  0.1766
  H  H17  1  0.607600  0.919500  0.605700  1.0  0.1274
  H  H18  1  0.716200  0.040900  0.724100  1.0  0.127
  H  H19  1  0.675900  0.006500  0.931200  1.0  0.1582
  H  H20  1  0.549500  0.855600  0.943000  1.0  0.1772
  H  H21  1  0.078600  0.871100  0.065500  1.0  0.1046
  H  H22  1  0.076400  0.868300  0.868200  1.0  0.1266
  H  H23  1  0.915100  0.872100  0.696800  1.0  0.1317
  H  H24  1  0.916100  0.875100  0.500000  1.0  0.0977
  H  H25  1  0.921400  0.128900  0.065500  1.0  0.1046
  H  H26  1  0.923600  0.131700  0.868200  1.0  0.1267
  H  H27  1  0.084900  0.127900  0.696800  1.0  0.1316
  H  H28  1  0.083900  0.124900  0.500000  1.0  0.098
  H  H29  1  0.421400  0.371100  0.934500  1.0  0.104
  H  H30  1  0.423600  0.368300  0.131800  1.0  0.1268
  H  H31  1  0.584900  0.372100  0.303200  1.0  0.1318
  H  H32  1  0.583900  0.375100  0.500000  1.0  0.0984
  H  H33  1  0.578600  0.628900  0.934500  1.0  0.1044
  H  H34  1  0.576400  0.631700  0.131800  1.0  0.1266
  H  H35  1  0.415100  0.627900  0.303200  1.0  0.1319
  H  H36  1  0.416100  0.624900  0.500000  1.0  0.0977
  H  H37  1  0.776100  0.923600  0.143600  1.0  0.0749
  H  H38  1  0.582500  0.931400  0.137500  1.0  0.1183
  H  H39  1  0.587500  0.071100  0.436400  1.0  0.1224
  H  H40  1  0.783400  0.072500  0.427700  1.0  0.095
  H  H41  1  0.223900  0.076400  0.143600  1.0  0.0755
  H  H42  1  0.417500  0.068600  0.137500  1.0  0.1179
  H  H43  1  0.412500  0.928900  0.436400  1.0  0.1225
  H  H44  1  0.216600  0.927500  0.427700  1.0  0.0954
  H  H45  1  0.723900  0.423600  0.856400  1.0  0.0756
  H  H46  1  0.917500  0.431400  0.862500  1.0  0.1185
  H  H47  1  0.912500  0.571100  0.563600  1.0  0.1225
  H  H48  1  0.716600  0.572500  0.572300  1.0  0.0961
  H  H49  1  0.276100  0.576400  0.856400  1.0  0.075
  H  H50  1  0.082500  0.568600  0.862500  1.0  0.1179
  H  H51  1  0.087500  0.428900  0.563600  1.0  0.1221
  H  H52  1  0.283400  0.427500  0.572300  1.0  0.0956
  C  C53  1  0.049300  0.640700  0.240800  1.0  -0.1437
  C  C54  1  0.108400  0.577600  0.314900  1.0  -0.1146
  C  C55  1  0.169600  0.509000  0.248000  1.0  -0.1382
  C  C56  1  0.147600  0.529300  0.130500  1.0  -0.18
  C  C57  1  0.075000  0.613400  0.123200  1.0  -0.1445
  C  C58  1  0.950700  0.359300  0.240800  1.0  -0.1457
  C  C59  1  0.891600  0.422400  0.314900  1.0  -0.1151
  C  C60  1  0.830400  0.491000  0.248000  1.0  -0.1384
  C  C61  1  0.852400  0.470700  0.130500  1.0  -0.1805
  C  C62  1  0.925000  0.386600  0.123200  1.0  -0.1441
  C  C63  1  0.450700  0.140700  0.759200  1.0  -0.1447
  C  C64  1  0.391600  0.077600  0.685100  1.0  -0.1157
  C  C65  1  0.330400  0.009000  0.752000  1.0  -0.1391
  C  C66  1  0.352400  0.029300  0.869500  1.0  -0.1783
  C  C67  1  0.425000  0.113400  0.876800  1.0  -0.1434
  C  C68  1  0.549300  0.859300  0.759200  1.0  -0.1462
  C  C69  1  0.608400  0.922400  0.685100  1.0  -0.1167
  C  C70  1  0.669600  0.991000  0.752000  1.0  -0.1385
  C  C71  1  0.647600  0.970700  0.869500  1.0  -0.1773
  C  C72  1  0.575000  0.886600  0.876800  1.0  -0.1432
  C  C73  1  0.046100  0.923500  0.025700  1.0  0.1596
  C  C74  1  0.045700  0.922100  0.907000  1.0  -0.1242
  C  C75  1  0.949700  0.924400  0.658600  1.0  -0.1777
  C  C76  1  0.950700  0.926400  0.540000  1.0  0.1783
  C  C77  1  0.953900  0.076500  0.025700  1.0  0.1581
  C  C78  1  0.954300  0.077900  0.907000  1.0  -0.1237
  C  C79  1  0.050300  0.075600  0.658600  1.0  -0.1786
  C  C80  1  0.049300  0.073600  0.540000  1.0  0.1802
  C  C81  1  0.000000  0.000000  0.846100  1.0  0.0967
  C  C82  1  0.000000  0.000000  0.720500  1.0  0.1139
  C  C83  1  0.453900  0.423500  0.974300  1.0  0.1577
  C  C84  1  0.454300  0.422100  0.093000  1.0  -0.1239
  C  C85  1  0.550300  0.424400  0.341400  1.0  -0.1781
  C  C86  1  0.549300  0.426400  0.460000  1.0  0.18
  C  C87  1  0.546100  0.576500  0.974300  1.0  0.1575
  C  C88  1  0.545700  0.577900  0.093000  1.0  -0.1237
  C  C89  1  0.449700  0.575600  0.341400  1.0  -0.1779
  C  C90  1  0.450700  0.573600  0.460000  1.0  0.1793
  C  C91  1  0.500000  0.500000  0.153900  1.0  0.097
  C  C92  1  0.500000  0.500000  0.279500  1.0  0.114
  C  C93  1  0.738200  0.955400  0.202800  1.0  0.1967
  C  C94  1  0.621200  0.958200  0.199500  1.0  -0.2113
  C  C95  1  0.563300  0.000400  0.287600  1.0  0.0906
  C  C96  1  0.624400  0.042100  0.374700  1.0  -0.1318
  C  C97  1  0.742500  0.040900  0.370400  1.0  0.1657
  C  C98  1  0.261800  0.044600  0.202800  1.0  0.196
  C  C99  1  0.378800  0.041800  0.199500  1.0  -0.2101
  C  C100  1  0.436700  0.999600  0.287600  1.0  0.0913
  C  C101  1  0.375600  0.957900  0.374700  1.0  -0.1312
  C  C102  1  0.257500  0.959100  0.370400  1.0  0.1666
  C  C103  1  0.761800  0.455400  0.797200  1.0  0.1967
  C  C104  1  0.878800  0.458200  0.800500  1.0  -0.2113
  C  C105  1  0.936700  0.500400  0.712400  1.0  0.0912
  C  C106  1  0.875600  0.542100  0.625300  1.0  -0.1309
  C  C107  1  0.757500  0.540900  0.629600  1.0  0.1671
  C  C108  1  0.238200  0.544600  0.797200  1.0  0.1969
  C  C109  1  0.121200  0.541800  0.800500  1.0  -0.2106
  C  C110  1  0.063300  0.499600  0.712400  1.0  0.091
  C  C111  1  0.124400  0.457900  0.625300  1.0  -0.1316
  C  C112  1  0.242500  0.459100  0.629600  1.0  0.1666
  S  S113  1  0.961530  0.740190  0.279100  1.0  1.3796
  S  S114  1  0.038470  0.259810  0.279100  1.0  1.3798
  S  S115  1  0.538470  0.240190  0.720900  1.0  1.3794
  S  S116  1  0.461530  0.759810  0.720900  1.0  1.3797
  N  N117  1  0.000000  0.000000  0.084500  1.0  -0.3257
  N  N118  1  0.000000  0.000000  0.481300  1.0  -0.3325
  N  N119  1  0.500000  0.500000  0.915500  1.0  -0.3268
  N  N120  1  0.500000  0.500000  0.518700  1.0  -0.3321
  N  N121  1  0.798100  0.995300  0.285300  1.0  -0.3207
  N  N122  1  0.201900  0.004700  0.285300  1.0  -0.3183
  N  N123  1  0.701900  0.495300  0.714700  1.0  -0.3184
  N  N124  1  0.298100  0.504700  0.714700  1.0  -0.3206
  O  O125  1  0.035800  0.827500  0.284700  1.0  -0.7519
  O  O126  1  0.915900  0.714200  0.389000  1.0  -0.6347
  O  O127  1  0.878200  0.749600  0.191400  1.0  -0.5733
  O  O128  1  0.964200  0.172500  0.284700  1.0  -0.7526
  O  O129  1  0.084100  0.285800  0.389000  1.0  -0.6332
  O  O130  1  0.121800  0.250400  0.191400  1.0  -0.5745
  O  O131  1  0.464200  0.327500  0.715300  1.0  -0.7529
  O  O132  1  0.584100  0.214200  0.611000  1.0  -0.6343
  O  O133  1  0.621800  0.249600  0.808600  1.0  -0.5745
  O  O134  1  0.535800  0.672500  0.715300  1.0  -0.7525
  O  O135  1  0.415900  0.785800  0.611000  1.0  -0.6334
  O  O136  1  0.378200  0.750400  0.808600  1.0  -0.5739
