# generated using pymatgen
data_AlP3H18(C4O3)3
_symmetry_space_group_name_H-M   'P 1'
_cell_length_a   12.39810000
_cell_length_b   20.78680000
_cell_length_c   20.78680000
_cell_angle_alpha   63.85080000
_cell_angle_beta   78.53250000
_cell_angle_gamma   101.46800000
_symmetry_Int_Tables_number   1
_chemical_formula_structural   AlP3H18(C4O3)3
_chemical_formula_sum   'Al6 P18 H108 C72 O54'
_cell_volume   4455.99979984
_cell_formula_units_Z   6
loop_
 _symmetry_equiv_pos_site_id
 _symmetry_equiv_pos_as_xyz
  1  'x, y, z'
loop_
 _atom_site_type_symbol
 _atom_site_label
 _atom_site_symmetry_multiplicity
 _atom_site_fract_x
 _atom_site_fract_y
 _atom_site_fract_z
 _atom_site_occupancy
 _atom_site_charge
  Al  Al1  1  0.940160  0.394260  0.337490  1.0  1.8203
  Al  Al2  1  0.277650  0.337490  0.268250  1.0  1.8279
  Al  Al3  1  0.454100  0.731750  0.605740  1.0  1.8307
  Al  Al4  1  0.545900  0.268250  0.394260  1.0  1.8282
  Al  Al5  1  0.722350  0.662510  0.731750  1.0  1.8336
  Al  Al6  1  0.059840  0.605740  0.662510  1.0  1.8251
  P  P7  1  0.863100  0.663140  0.583260  1.0  1.4892
  P  P8  1  0.172250  0.474390  0.194160  1.0  1.5284
  P  P9  1  0.998080  0.482140  0.607410  1.0  1.4201
  P  P10  1  0.366410  0.194160  0.331450  1.0  1.5234
  P  P11  1  0.001920  0.517860  0.392590  1.0  1.4201
  P  P12  1  0.484060  0.089550  0.517860  1.0  1.4207
  P  P13  1  0.827750  0.525610  0.805840  1.0  1.5327
  P  P14  1  0.394510  0.392590  0.089550  1.0  1.4152
  P  P15  1  0.302140  0.668550  0.525610  1.0  1.5281
  P  P16  1  0.515940  0.910450  0.482140  1.0  1.4221
  P  P17  1  0.199960  0.753600  0.663140  1.0  1.494
  P  P18  1  0.553640  0.416740  0.246400  1.0  1.4959
  P  P19  1  0.605490  0.607410  0.910450  1.0  1.4212
  P  P20  1  0.136900  0.336860  0.416740  1.0  1.4943
  P  P21  1  0.446360  0.583260  0.753600  1.0  1.4958
  P  P22  1  0.697860  0.331450  0.474390  1.0  1.5301
  P  P23  1  0.800040  0.246400  0.336860  1.0  1.4948
  P  P24  1  0.633590  0.805840  0.668550  1.0  1.531
  H  H25  1  0.896000  0.216400  0.481500  1.0  0.1035
  H  H26  1  0.229000  0.577100  0.211700  1.0  0.1334
  H  H27  1  0.428500  0.681800  0.953100  1.0  0.1089
  H  H28  1  0.882700  0.366600  0.710600  1.0  0.1605
  H  H29  1  0.320400  0.697900  0.783600  1.0  0.1068
  H  H30  1  0.618000  0.265400  0.605500  1.0  0.1254
  H  H31  1  0.836800  0.568400  0.577800  1.0  0.398
  H  H32  1  0.817400  0.031000  0.312800  1.0  0.1091
  H  H33  1  0.428100  0.483400  0.730000  1.0  0.1159
  H  H34  1  0.224900  0.469500  0.100200  1.0  0.3915
  H  H35  1  0.637100  0.989100  0.708200  1.0  0.1079
  H  H36  1  0.104000  0.783600  0.518500  1.0  0.1043
  H  H37  1  0.762900  0.578400  0.103500  1.0  0.1042
  H  H38  1  0.777400  0.029600  0.390000  1.0  0.1179
  H  H39  1  0.184500  0.318100  0.578400  1.0  0.1048
  H  H40  1  0.182600  0.969000  0.687200  1.0  0.1096
  H  H41  1  0.381600  0.953100  0.365100  1.0  0.1107
  H  H42  1  0.413100  0.718300  0.819000  1.0  0.1133
  H  H43  1  0.651900  0.211200  0.577100  1.0  0.1347
  H  H44  1  0.345300  0.708200  0.302700  1.0  0.1069
  H  H45  1  0.252200  0.419600  0.970400  1.0  0.1175
  H  H46  1  0.283600  0.711700  0.852000  1.0  0.1067
  H  H47  1  0.268400  0.853800  0.568400  1.0  0.3967
  H  H48  1  0.643800  0.940400  0.368600  1.0  0.1397
  H  H49  1  0.133600  0.896500  0.681900  1.0  0.1038
  H  H50  1  0.987600  0.631400  0.309000  1.0  0.143
  H  H51  1  0.594900  0.991300  0.499300  1.0  0.3759
  H  H52  1  0.689600  0.367400  0.620200  1.0  0.1122
  H  H53  1  0.382000  0.734600  0.394500  1.0  0.1251
  H  H54  1  0.396400  0.490600  0.008700  1.0  0.3754
  H  H55  1  0.593300  0.710600  0.922800  1.0  0.1574
  H  H56  1  0.850500  0.740100  0.465700  1.0  0.1503
  H  H57  1  0.622500  0.518500  0.697900  1.0  0.1065
  H  H58  1  0.094200  0.499300  0.509400  1.0  0.3756
  H  H59  1  0.944700  0.786600  0.483400  1.0  0.1176
  H  H60  1  0.325100  0.100200  0.430300  1.0  0.3924
  H  H61  1  0.352000  0.697300  0.010900  1.0  0.1072
  H  H62  1  0.406700  0.289400  0.077200  1.0  0.1565
  H  H63  1  0.841900  0.270000  0.213400  1.0  0.1162
  H  H64  1  0.253300  0.634900  0.318200  1.0  0.1113
  H  H65  1  0.232100  0.819000  0.462700  1.0  0.1139
  H  H66  1  0.055300  0.213400  0.516600  1.0  0.118
  H  H67  1  0.012400  0.368600  0.691000  1.0  0.1423
  H  H68  1  0.677800  0.987600  0.632600  1.0  0.1104
  H  H69  1  0.362900  0.010900  0.291800  1.0  0.1086
  H  H70  1  0.483900  0.077200  0.633400  1.0  0.1589
  H  H71  1  0.516100  0.922800  0.366600  1.0  0.1596
  H  H72  1  0.746700  0.365100  0.681800  1.0  0.1104
  H  H73  1  0.237100  0.421600  0.896500  1.0  0.1033
  H  H74  1  0.296600  0.309000  0.059600  1.0  0.1418
  H  H75  1  0.135600  0.852000  0.436300  1.0  0.1098
  H  H76  1  0.222600  0.970400  0.610000  1.0  0.1173
  H  H77  1  0.305200  0.537300  0.281700  1.0  0.1148
  H  H78  1  0.832600  0.610000  0.419600  1.0  0.1182
  H  H79  1  0.316200  0.465700  0.794200  1.0  0.1513
  H  H80  1  0.440700  0.211700  0.211200  1.0  0.1332
  H  H81  1  0.679600  0.302100  0.216400  1.0  0.106
  H  H82  1  0.618400  0.046900  0.634900  1.0  0.112
  H  H83  1  0.559300  0.788300  0.788800  1.0  0.132
  H  H84  1  0.869800  0.687200  0.343800  1.0  0.1092
  H  H85  1  0.428100  0.563700  0.288300  1.0  0.1087
  H  H86  1  0.866400  0.103500  0.318100  1.0  0.1043
  H  H87  1  0.889600  0.205800  0.259900  1.0  0.1512
  H  H88  1  0.149500  0.259900  0.534300  1.0  0.1526
  H  H89  1  0.158100  0.730000  0.786600  1.0  0.1179
  H  H90  1  0.815500  0.681900  0.421600  1.0  0.1024
  H  H91  1  0.864400  0.148000  0.563700  1.0  0.1082
  H  H92  1  0.244600  0.569700  0.530500  1.0  0.3955
  H  H93  1  0.571500  0.318200  0.046900  1.0  0.1095
  H  H94  1  0.310400  0.632600  0.379800  1.0  0.1124
  H  H95  1  0.905800  0.500700  0.490600  1.0  0.3762
  H  H96  1  0.414600  0.577800  0.853800  1.0  0.3993
  H  H97  1  0.654700  0.291800  0.697300  1.0  0.1084
  H  H98  1  0.223500  0.605500  0.129100  1.0  0.1237
  H  H99  1  0.731600  0.146200  0.431600  1.0  0.3989
  H  H100  1  0.703400  0.691000  0.940400  1.0  0.1385
  H  H101  1  0.690200  0.379800  0.987600  1.0  0.1127
  H  H102  1  0.377500  0.481500  0.302100  1.0  0.1073
  H  H103  1  0.348100  0.788800  0.422900  1.0  0.1349
  H  H104  1  0.694800  0.462700  0.718300  1.0  0.1159
  H  H105  1  0.586900  0.281700  0.181000  1.0  0.1155
  H  H106  1  0.585400  0.422200  0.146200  1.0  0.399
  H  H107  1  0.747800  0.580400  0.029600  1.0  0.118
  H  H108  1  0.771000  0.422900  0.788300  1.0  0.133
  H  H109  1  0.213600  0.343800  0.969000  1.0  0.1073
  H  H110  1  0.755400  0.430300  0.469500  1.0  0.3903
  H  H111  1  0.775100  0.530500  0.899800  1.0  0.3935
  H  H112  1  0.571900  0.516600  0.270000  1.0  0.1156
  H  H113  1  0.648000  0.302700  0.989100  1.0  0.108
  H  H114  1  0.767900  0.181000  0.537300  1.0  0.1137
  H  H115  1  0.117300  0.633400  0.289400  1.0  0.1577
  H  H116  1  0.356200  0.059600  0.631400  1.0  0.1445
  H  H117  1  0.110400  0.794200  0.740100  1.0  0.153
  H  H118  1  0.786400  0.656200  0.031000  1.0  0.1072
  H  H119  1  0.322200  0.012400  0.367400  1.0  0.1095
  H  H120  1  0.571900  0.436300  0.711700  1.0  0.1075
  H  H121  1  0.716400  0.288300  0.148000  1.0  0.1058
  H  H122  1  0.647400  0.870900  0.734600  1.0  0.1228
  H  H123  1  0.309800  0.620200  0.012400  1.0  0.1121
  H  H124  1  0.405100  0.008700  0.500700  1.0  0.3724
  H  H125  1  0.683800  0.534300  0.205800  1.0  0.1526
  H  H126  1  0.130200  0.312800  0.656200  1.0  0.1097
  H  H127  1  0.603600  0.509400  0.991300  1.0  0.3757
  H  H128  1  0.352600  0.129100  0.265400  1.0  0.1231
  H  H129  1  0.674900  0.899800  0.569700  1.0  0.3939
  H  H130  1  0.163200  0.431600  0.422200  1.0  0.3983
  H  H131  1  0.167400  0.390000  0.580400  1.0  0.1192
  H  H132  1  0.776500  0.394500  0.870900  1.0  0.1236
  C  C133  1  0.583810  0.832150  0.738420  1.0  -0.3405
  C  C134  1  0.429250  0.050610  0.618660  1.0  -0.361
  C  C135  1  0.284110  0.835540  0.726210  1.0  -0.0506
  C  C136  1  0.074100  0.664570  0.369470  1.0  -0.0948
  C  C137  1  0.344820  0.726910  0.806550  1.0  -0.3648
  C  C138  1  0.322230  0.738420  0.429430  1.0  -0.3234
  C  C139  1  0.790570  0.273380  0.588670  1.0  -0.064
  C  C140  1  0.925900  0.335430  0.630530  1.0  -0.0948
  C  C141  1  0.380540  0.003890  0.336870  1.0  -0.3604
  C  C142  1  0.551430  0.561750  0.164460  1.0  -0.0572
  C  C143  1  0.739060  0.603780  0.060300  1.0  -0.3732
  C  C144  1  0.260940  0.396220  0.939700  1.0  -0.3721
  C  C145  1  0.282590  0.663130  0.340760  1.0  -0.362
  C  C146  1  0.438020  0.561840  0.189780  1.0  0.0828
  C  C147  1  0.570750  0.949390  0.381340  1.0  -0.3588
  C  C148  1  0.378640  0.330730  0.050610  1.0  -0.352
  C  C149  1  0.751660  0.429430  0.832150  1.0  -0.322
  C  C150  1  0.379240  0.588670  0.137950  1.0  -0.0666
  C  C151  1  0.989680  0.273790  0.561750  1.0  -0.0529
  C  C152  1  0.209430  0.726620  0.411330  1.0  -0.0643
  C  C153  1  0.914600  0.738450  0.485950  1.0  -0.3467
  C  C154  1  0.848630  0.193450  0.533460  1.0  -0.3641
  C  C155  1  0.561980  0.438160  0.810220  1.0  0.0842
  C  C156  1  0.382090  0.533460  0.273090  1.0  -0.3686
  C  C157  1  0.655180  0.273090  0.193450  1.0  -0.3639
  C  C158  1  0.176150  0.775600  0.738450  1.0  -0.3505
  C  C159  1  0.482810  0.862050  0.726620  1.0  -0.0632
  C  C160  1  0.619460  0.996110  0.663130  1.0  -0.361
  C  C161  1  0.561050  0.374990  0.940340  1.0  0.0564
  C  C162  1  0.416190  0.167850  0.261580  1.0  -0.3376
  C  C163  1  0.717410  0.336870  0.659240  1.0  -0.36
  C  C164  1  0.823850  0.224400  0.261550  1.0  -0.349
  C  C165  1  0.517190  0.137950  0.273380  1.0  -0.0625
  C  C166  1  0.621360  0.669270  0.949390  1.0  -0.3535
  C  C167  1  0.985400  0.684680  0.402180  1.0  0.0582
  C  C168  1  0.300720  0.913140  0.684680  1.0  0.0578
  C  C169  1  0.501390  0.940340  0.684670  1.0  0.052
  C  C170  1  0.498610  0.059660  0.315330  1.0  0.0509
  C  C171  1  0.590470  0.034040  0.335430  1.0  -0.0938
  C  C172  1  0.556430  0.630530  0.034040  1.0  -0.0939
  C  C173  1  0.014600  0.315320  0.597820  1.0  0.0568
  C  C174  1  0.699280  0.086860  0.315320  1.0  0.0591
  C  C175  1  0.876180  0.248380  0.561840  1.0  0.0848
  C  C176  1  0.409530  0.965960  0.664570  1.0  -0.0949
  C  C177  1  0.715890  0.164460  0.273790  1.0  -0.0529
  C  C178  1  0.438950  0.625010  0.059660  1.0  0.0568
  C  C179  1  0.047910  0.618660  0.330730  1.0  -0.353
  C  C180  1  0.135280  0.335920  0.603780  1.0  -0.371
  C  C181  1  0.248340  0.570570  0.167850  1.0  -0.323
  C  C182  1  0.612420  0.597820  0.086860  1.0  0.0584
  C  C183  1  0.376650  0.659240  0.003890  1.0  -0.3615
  C  C184  1  0.799360  0.060300  0.335920  1.0  -0.3734
  C  C185  1  0.677770  0.261580  0.570570  1.0  -0.3231
  C  C186  1  0.813940  0.315330  0.625010  1.0  0.0544
  C  C187  1  0.599450  0.514050  0.224400  1.0  -0.3573
  C  C188  1  0.952090  0.381340  0.669270  1.0  -0.3551
  C  C189  1  0.372200  0.810220  0.751620  1.0  0.0834
  C  C190  1  0.387580  0.402180  0.913140  1.0  0.0577
  C  C191  1  0.864720  0.664080  0.396220  1.0  -0.3697
  C  C192  1  0.443570  0.369470  0.965960  1.0  -0.0919
  C  C193  1  0.617910  0.466540  0.726910  1.0  -0.3675
  C  C194  1  0.085400  0.261550  0.514050  1.0  -0.3433
  C  C195  1  0.620760  0.411330  0.862050  1.0  -0.0646
  C  C196  1  0.623350  0.340760  0.996110  1.0  -0.3615
  C  C197  1  0.123820  0.751620  0.438160  1.0  0.0856
  C  C198  1  0.010320  0.726210  0.438250  1.0  -0.0548
  C  C199  1  0.200640  0.939700  0.664080  1.0  -0.371
  C  C200  1  0.151370  0.806550  0.466540  1.0  -0.3642
  C  C201  1  0.627800  0.189780  0.248380  1.0  0.0824
  C  C202  1  0.448570  0.438250  0.835540  1.0  -0.0559
  C  C203  1  0.400550  0.485950  0.775600  1.0  -0.3533
  C  C204  1  0.186060  0.684670  0.374990  1.0  0.0551
  O  O205  1  0.574530  0.613100  0.738710  1.0  -0.9047
  O  O206  1  0.497040  0.171600  0.480480  1.0  -0.9109
  O  O207  1  0.374790  0.580170  0.826200  1.0  -0.6402
  O  O208  1  0.223690  0.318110  0.371440  1.0  -0.8856
  O  O209  1  0.022480  0.519520  0.652080  1.0  -0.903
  O  O210  1  0.166170  0.475570  0.119560  1.0  -0.6625
  O  O211  1  0.238720  0.424900  0.231340  1.0  -0.8923
  O  O212  1  0.654950  0.543870  0.952720  1.0  -0.6018
  O  O213  1  0.313240  0.738710  0.648190  1.0  -0.9089
  O  O214  1  0.776310  0.681890  0.628560  1.0  -0.887
  O  O215  1  0.048320  0.451340  0.241280  1.0  -0.8962
  O  O216  1  0.794620  0.593630  0.580170  1.0  -0.6382
  O  O217  1  0.289600  0.241280  0.307380  1.0  -0.8953
  O  O218  1  0.761280  0.575100  0.768660  1.0  -0.8944
  O  O219  1  0.186180  0.656240  0.575100  1.0  -0.889
  O  O220  1  0.475580  0.572230  0.925790  1.0  -0.7116
  O  O221  1  0.625210  0.419830  0.173800  1.0  -0.6376
  O  O222  1  0.690600  0.404870  0.475570  1.0  -0.6633
  O  O223  1  0.686760  0.261290  0.351810  1.0  -0.9065
  O  O224  1  0.345050  0.456130  0.047280  1.0  -0.6044
  O  O225  1  0.038570  0.351810  0.386900  1.0  -0.9055
  O  O226  1  0.961430  0.648190  0.613100  1.0  -0.9065
  O  O227  1  0.888920  0.496590  0.456130  1.0  -0.6047
  O  O228  1  0.309400  0.595130  0.524430  1.0  -0.6644
  O  O229  1  0.607670  0.952720  0.503410  1.0  -0.6002
  O  O230  1  0.096650  0.498020  0.427770  1.0  -0.7116
  O  O231  1  0.392330  0.047280  0.496590  1.0  -0.6038
  O  O232  1  0.200990  0.826200  0.593630  1.0  -0.6389
  O  O233  1  0.524420  0.427770  0.074210  1.0  -0.7109
  O  O234  1  0.470060  0.231340  0.343760  1.0  -0.8899
  O  O235  1  0.714270  0.880440  0.595130  1.0  -0.6643
  O  O236  1  0.596980  0.307380  0.451340  1.0  -0.8955
  O  O237  1  0.502960  0.828400  0.519520  1.0  -0.9119
  O  O238  1  0.325440  0.347920  0.171600  1.0  -0.9129
  O  O239  1  0.951680  0.548660  0.758720  1.0  -0.8979
  O  O240  1  0.595130  0.371440  0.310450  1.0  -0.8853
  O  O241  1  0.111080  0.503410  0.543870  1.0  -0.6015
  O  O242  1  0.598630  0.074210  0.498020  1.0  -0.7113
  O  O243  1  0.401370  0.925790  0.501980  1.0  -0.7111
  O  O244  1  0.529940  0.768660  0.656240  1.0  -0.8932
  O  O245  1  0.674560  0.652080  0.828400  1.0  -0.9152
  O  O246  1  0.094420  0.689550  0.681890  1.0  -0.8823
  O  O247  1  0.404870  0.628560  0.689550  1.0  -0.883
  O  O248  1  0.285730  0.119560  0.404870  1.0  -0.6646
  O  O249  1  0.403020  0.692620  0.548660  1.0  -0.8985
  O  O250  1  0.833830  0.524430  0.880440  1.0  -0.6621
  O  O251  1  0.903350  0.501980  0.572230  1.0  -0.7116
  O  O252  1  0.710400  0.758720  0.692620  1.0  -0.8985
  O  O253  1  0.813820  0.343760  0.424900  1.0  -0.8906
  O  O254  1  0.425470  0.386900  0.261290  1.0  -0.9018
  O  O255  1  0.977520  0.480480  0.347920  1.0  -0.9022
  O  O256  1  0.205380  0.406370  0.419830  1.0  -0.6371
  O  O257  1  0.799010  0.173800  0.406370  1.0  -0.6366
  O  O258  1  0.905580  0.310450  0.318110  1.0  -0.8801
