# generated using pymatgen
data_Tb4Cu13H48C65N15(ClO4)6
_symmetry_space_group_name_H-M   'P 1'
_cell_length_a   9.89600000
_cell_length_b   16.21000000
_cell_length_c   18.44300000
_cell_angle_alpha   92.00200000
_cell_angle_beta   103.58000000
_cell_angle_gamma   92.51000000
_symmetry_Int_Tables_number   1
_chemical_formula_structural   Tb4Cu13H48C65N15(ClO4)6
_chemical_formula_sum   'Tb4 Cu13 H48 C65 N15 Cl6 O24'
_cell_volume   2869.93188785
_cell_formula_units_Z   1
loop_
 _symmetry_equiv_pos_site_id
 _symmetry_equiv_pos_as_xyz
  1  'x, y, z'
loop_
 _atom_site_type_symbol
 _atom_site_label
 _atom_site_symmetry_multiplicity
 _atom_site_fract_x
 _atom_site_fract_y
 _atom_site_fract_z
 _atom_site_occupancy
 _atom_site_charge
  Tb  Tb1  1  0.258400  0.527730  0.510390  1.0  2.192
  Tb  Tb2  1  0.248930  0.021200  0.496980  1.0  2.2546
  Tb  Tb3  1  0.741600  0.472270  0.489610  1.0  2.1925
  Tb  Tb4  1  0.751070  0.978800  0.503020  1.0  2.2564
  Cu  Cu5  1  0.106260  0.124460  0.959330  1.0  0.3281
  Cu  Cu6  1  0.442550  0.046960  0.032530  1.0  0.3151
  Cu  Cu7  1  0.917720  0.159610  0.045610  1.0  0.4412
  Cu  Cu8  1  0.080540  0.425720  0.037920  1.0  0.3086
  Cu  Cu9  1  0.198120  0.355930  0.948060  1.0  0.3744
  Cu  Cu10  1  0.624000  0.482600  0.018400  1.0  0.6118
  Cu  Cu11  1  0.893740  0.875540  0.040670  1.0  0.3309
  Cu  Cu12  1  0.557450  0.953040  0.967470  1.0  0.3163
  Cu  Cu13  1  0.082280  0.840390  0.954390  1.0  0.4453
  Cu  Cu14  1  0.919460  0.574280  0.962080  1.0  0.308
  Cu  Cu15  1  0.801880  0.644070  0.051940  1.0  0.3732
  Cu  Cu16  1  0.376000  0.517400  0.981600  1.0  0.6102
  Cu  Cu17  1  0.500000  0.500000  0.000000  1.0  1.0477
  H  H18  1  0.880800  0.100500  0.818100  1.0  0.0455
  H  H19  1  0.860700  0.075300  0.692700  1.0  0.0919
  H  H20  1  0.263500  0.143500  0.725200  1.0  0.0856
  H  H21  1  0.270500  0.171400  0.848400  1.0  0.0482
  H  H22  1  0.640800  0.010000  0.178100  1.0  0.0395
  H  H23  1  0.646600  0.005500  0.302400  1.0  0.0768
  H  H24  1  0.247300  0.061900  0.255400  1.0  0.0698
  H  H25  1  0.252000  0.063100  0.131900  1.0  0.0424
  H  H26  1  0.143900  0.256400  0.164700  1.0  0.0388
  H  H27  1  0.220200  0.275000  0.291300  1.0  0.0901
  H  H28  1  0.953000  0.088800  0.310300  1.0  0.0813
  H  H29  1  0.881300  0.078700  0.183200  1.0  0.0396
  H  H30  1  0.049000  0.485800  0.187400  1.0  0.0479
  H  H31  1  0.166100  0.493900  0.309600  1.0  0.0726
  H  H32  1  0.497800  0.410500  0.246500  1.0  0.0905
  H  H33  1  0.366800  0.400100  0.127100  1.0  0.0479
  H  H34  1  0.020300  0.694500  0.184200  1.0  0.0497
  H  H35  1  0.091700  0.659500  0.305400  1.0  0.0879
  H  H36  1  0.716600  0.549800  0.289600  1.0  0.0748
  H  H37  1  0.653100  0.589500  0.168500  1.0  0.0645
  H  H38  1  0.042500  0.384800  0.441200  1.0  0.4006
  H  H39  1  0.183900  0.389100  0.448500  1.0  0.3813
  H  H40  1  0.277300  0.840900  0.458900  1.0  0.4312
  H  H41  1  0.357800  0.907600  0.492200  1.0  0.3841
  H  H42  1  0.119200  0.899500  0.181900  1.0  0.046
  H  H43  1  0.139300  0.924700  0.307300  1.0  0.0912
  H  H44  1  0.736500  0.856500  0.274800  1.0  0.0854
  H  H45  1  0.729500  0.828600  0.151600  1.0  0.0474
  H  H46  1  0.359200  0.990000  0.821900  1.0  0.0397
  H  H47  1  0.353400  0.994500  0.697600  1.0  0.0766
  H  H48  1  0.752700  0.938100  0.744600  1.0  0.0692
  H  H49  1  0.748000  0.936900  0.868100  1.0  0.0425
  H  H50  1  0.856100  0.743600  0.835300  1.0  0.039
  H  H51  1  0.779800  0.725000  0.708700  1.0  0.09
  H  H52  1  0.047000  0.911200  0.689700  1.0  0.0806
  H  H53  1  0.118700  0.921300  0.816800  1.0  0.0392
  H  H54  1  0.951000  0.514200  0.812600  1.0  0.0482
  H  H55  1  0.833900  0.506100  0.690400  1.0  0.0727
  H  H56  1  0.502200  0.589500  0.753500  1.0  0.0913
  H  H57  1  0.633200  0.599900  0.872900  1.0  0.0479
  H  H58  1  0.979700  0.305500  0.815800  1.0  0.0495
  H  H59  1  0.908300  0.340500  0.694600  1.0  0.0883
  H  H60  1  0.283400  0.450200  0.710400  1.0  0.0747
  H  H61  1  0.346900  0.410500  0.831500  1.0  0.0629
  H  H62  1  0.957500  0.615200  0.558800  1.0  0.398
  H  H63  1  0.816100  0.610900  0.551500  1.0  0.383
  H  H64  1  0.722700  0.159100  0.541100  1.0  0.4345
  H  H65  1  0.642200  0.092400  0.507800  1.0  0.3836
  C  C66  1  0.663600  0.063100  0.029400  1.0  0.1867
  C  C67  1  0.059100  0.308200  0.995300  1.0  -0.0285
  C  C68  1  0.959500  0.108500  0.799300  1.0  0.1445
  C  C69  1  0.946500  0.092100  0.723700  1.0  -0.2411
  C  C70  1  0.063500  0.101300  0.695200  1.0  -0.1259
  C  C71  1  0.184200  0.133000  0.743000  1.0  -0.2132
  C  C72  1  0.187900  0.149300  0.817200  1.0  0.1299
  C  C73  1  0.063000  0.074900  0.615400  1.0  0.7042
  C  C74  1  0.560400  0.020500  0.193900  1.0  0.1602
  C  C75  1  0.564600  0.017500  0.268800  1.0  -0.1684
  C  C76  1  0.447700  0.032300  0.293900  1.0  -0.0909
  C  C77  1  0.328700  0.050600  0.240900  1.0  -0.1797
  C  C78  1  0.332500  0.051900  0.166900  1.0  0.1411
  C  C79  1  0.444400  0.028800  0.374700  1.0  0.7105
  C  C80  1  0.103700  0.222700  0.194600  1.0  0.15
  C  C81  1  0.151200  0.234400  0.270700  1.0  -0.1709
  C  C82  1  0.092800  0.183600  0.316100  1.0  -0.063
  C  C83  1  0.992600  0.124600  0.281800  1.0  -0.1867
  C  C84  1  0.950700  0.118600  0.205100  1.0  0.1643
  C  C85  1  0.148400  0.190500  0.400000  1.0  0.695
  C  C86  1  0.140100  0.469300  0.199700  1.0  0.1471
  C  C87  1  0.210700  0.475800  0.273300  1.0  -0.1808
  C  C88  1  0.348600  0.455300  0.293600  1.0  -0.1641
  C  C89  1  0.406100  0.425900  0.236200  1.0  -0.1728
  C  C90  1  0.326500  0.419900  0.164600  1.0  0.1157
  C  C91  1  0.433700  0.463700  0.372900  1.0  0.6912
  C  C92  1  0.958600  0.664200  0.205300  1.0  0.132
  C  C93  1  0.002100  0.643600  0.278300  1.0  -0.2049
  C  C94  1  0.912200  0.599200  0.311700  1.0  -0.1251
  C  C95  1  0.780600  0.579100  0.269200  1.0  -0.1311
  C  C96  1  0.743300  0.602300  0.196300  1.0  0.1103
  C  C97  1  0.959100  0.569800  0.388300  1.0  0.6947
  C  C98  1  0.019500  0.032400  0.993800  1.0  -0.0639
  C  C99  1  0.336400  0.936900  0.970600  1.0  0.1836
  C  C100  1  0.940900  0.691800  0.004700  1.0  -0.0298
  C  C101  1  0.040500  0.891500  0.200700  1.0  0.1445
  C  C102  1  0.053500  0.907900  0.276300  1.0  -0.2392
  C  C103  1  0.936500  0.898700  0.304800  1.0  -0.1272
  C  C104  1  0.815800  0.867000  0.257000  1.0  -0.212
  C  C105  1  0.812100  0.850700  0.182800  1.0  0.1306
  C  C106  1  0.937000  0.925100  0.384600  1.0  0.7023
  C  C107  1  0.439600  0.979500  0.806100  1.0  0.1593
  C  C108  1  0.435400  0.982500  0.731200  1.0  -0.1676
  C  C109  1  0.552300  0.967700  0.706100  1.0  -0.0928
  C  C110  1  0.671300  0.949400  0.759100  1.0  -0.1806
  C  C111  1  0.667500  0.948100  0.833100  1.0  0.1408
  C  C112  1  0.555600  0.971200  0.625300  1.0  0.6972
  C  C113  1  0.896300  0.777300  0.805400  1.0  0.1498
  C  C114  1  0.848800  0.765600  0.729300  1.0  -0.1699
  C  C115  1  0.907200  0.816400  0.683900  1.0  -0.0654
  C  C116  1  0.007400  0.875400  0.718200  1.0  -0.1881
  C  C117  1  0.049300  0.881400  0.794900  1.0  0.1629
  C  C118  1  0.851600  0.809500  0.600000  1.0  0.6974
  C  C119  1  0.859900  0.530700  0.800300  1.0  0.1472
  C  C120  1  0.789300  0.524200  0.726700  1.0  -0.1818
  C  C121  1  0.651400  0.544700  0.706400  1.0  -0.163
  C  C122  1  0.593900  0.574100  0.763800  1.0  -0.1722
  C  C123  1  0.673500  0.580100  0.835400  1.0  0.1165
  C  C124  1  0.566300  0.536300  0.627100  1.0  0.6905
  C  C125  1  0.041400  0.335800  0.794700  1.0  0.133
  C  C126  1  0.997900  0.356400  0.721700  1.0  -0.2038
  C  C127  1  0.087800  0.400800  0.688300  1.0  -0.1228
  C  C128  1  0.219400  0.420900  0.730800  1.0  -0.1312
  C  C129  1  0.256700  0.397700  0.803700  1.0  0.1115
  C  C130  1  0.040900  0.430200  0.611700  1.0  0.6945
  N  N131  1  0.980500  0.967600  0.006200  1.0  -0.4406
  N  N132  1  0.732300  0.095100  0.036900  1.0  -0.3245
  N  N133  1  0.001100  0.248100  0.004200  1.0  -0.4319
  N  N134  1  0.078200  0.134900  0.846600  1.0  -0.3429
  N  N135  1  0.447900  0.037600  0.143200  1.0  -0.3409
  N  N136  1  0.004000  0.166500  0.160200  1.0  -0.3721
  N  N137  1  0.194200  0.440800  0.145300  1.0  -0.3261
  N  N138  1  0.834100  0.643200  0.163900  1.0  -0.328
  N  N139  1  0.267700  0.904900  0.963100  1.0  -0.3201
  N  N140  1  0.998900  0.751900  0.995800  1.0  -0.4314
  N  N141  1  0.921800  0.865100  0.153400  1.0  -0.3445
  N  N142  1  0.552100  0.962400  0.856800  1.0  -0.3363
  N  N143  1  0.996000  0.833500  0.839800  1.0  -0.37
  N  N144  1  0.805800  0.559200  0.854700  1.0  -0.3211
  N  N145  1  0.165900  0.356800  0.836100  1.0  -0.3238
  Cl  Cl146  1  0.338500  0.169120  0.006910  1.0  -0.555
  Cl  Cl147  1  0.852700  0.471450  0.042380  1.0  -0.4806
  Cl  Cl148  1  0.435000  0.377390  0.995200  1.0  -0.3797
  Cl  Cl149  1  0.661500  0.830880  0.993090  1.0  -0.5547
  Cl  Cl150  1  0.147300  0.528550  0.957620  1.0  -0.4811
  Cl  Cl151  1  0.565000  0.622610  0.004800  1.0  -0.3762
  O  O152  1  0.953600  0.039300  0.576700  1.0  -0.7846
  O  O153  1  0.173800  0.086600  0.595300  1.0  -0.6827
  O  O154  1  0.551800  0.009100  0.419500  1.0  -0.6115
  O  O155  1  0.331600  0.045100  0.390400  1.0  -0.6923
  O  O156  1  0.223300  0.252000  0.427100  1.0  -0.5802
  O  O157  1  0.113000  0.131800  0.436700  1.0  -0.7538
  O  O158  1  0.373300  0.493700  0.420000  1.0  -0.8102
  O  O159  1  0.554600  0.442300  0.385200  1.0  -0.6813
  O  O160  1  0.084200  0.586300  0.422500  1.0  -0.7622
  O  O161  1  0.874500  0.528100  0.414600  1.0  -0.7648
  O  O162  1  0.109000  0.412200  0.429700  1.0  -0.8157
  O  O163  1  0.307500  0.888500  0.450800  1.0  -0.7965
  O  O164  1  0.046400  0.960700  0.423300  1.0  -0.7862
  O  O165  1  0.826200  0.913400  0.404700  1.0  -0.6828
  O  O166  1  0.448200  0.990900  0.580500  1.0  -0.6105
  O  O167  1  0.668400  0.954900  0.609600  1.0  -0.695
  O  O168  1  0.776700  0.748000  0.572900  1.0  -0.5814
  O  O169  1  0.887000  0.868200  0.563300  1.0  -0.7536
  O  O170  1  0.626700  0.506300  0.580000  1.0  -0.8092
  O  O171  1  0.445400  0.557700  0.614800  1.0  -0.6808
  O  O172  1  0.915800  0.413700  0.577500  1.0  -0.7608
  O  O173  1  0.125500  0.471900  0.585400  1.0  -0.7649
  O  O174  1  0.891000  0.587800  0.570300  1.0  -0.8132
  O  O175  1  0.692500  0.111500  0.549200  1.0  -0.7958
