# generated using pymatgen
data_Zn3H27C38NO9
_symmetry_space_group_name_H-M   'P 1'
_cell_length_a   16.30400000
_cell_length_b   27.64900000
_cell_length_c   16.40780000
_cell_angle_alpha   90.00000000
_cell_angle_beta   117.32000000
_cell_angle_gamma   90.00000000
_symmetry_Int_Tables_number   1
_chemical_formula_structural   Zn3H27C38NO9
_chemical_formula_sum   'Zn12 H108 C152 N4 O36'
_cell_volume   6571.43779392
_cell_formula_units_Z   4
loop_
 _symmetry_equiv_pos_site_id
 _symmetry_equiv_pos_as_xyz
  1  'x, y, z'
loop_
 _atom_site_type_symbol
 _atom_site_label
 _atom_site_symmetry_multiplicity
 _atom_site_fract_x
 _atom_site_fract_y
 _atom_site_fract_z
 _atom_site_occupancy
 _atom_site_charge
  Zn  Zn1  1  0.055110  0.528220  0.811190  1.0  1.0651
  Zn  Zn2  1  0.978270  0.674730  0.846290  1.0  1.1155
  Zn  Zn3  1  0.054800  0.649640  0.803430  1.0  0.9378
  Zn  Zn4  1  0.055110  0.971780  0.811190  1.0  1.0652
  Zn  Zn5  1  0.978270  0.825270  0.846290  1.0  1.1156
  Zn  Zn6  1  0.054800  0.850360  0.803430  1.0  0.9372
  Zn  Zn7  1  0.944890  0.028220  0.188810  1.0  1.0657
  Zn  Zn8  1  0.021730  0.174730  0.153710  1.0  1.1203
  Zn  Zn9  1  0.945200  0.149640  0.196570  1.0  0.938
  Zn  Zn10  1  0.944890  0.471780  0.188810  1.0  1.0657
  Zn  Zn11  1  0.021730  0.325270  0.153710  1.0  1.1198
  Zn  Zn12  1  0.945200  0.350360  0.196570  1.0  0.9372
  H  H13  1  0.216200  0.502600  0.665800  1.0  0.1219
  H  H14  1  0.511300  0.612500  0.692000  1.0  0.1338
  H  H15  1  0.555700  0.562300  0.683600  1.0  0.1247
  H  H16  1  0.460600  0.562600  0.690000  1.0  0.1246
  H  H17  1  0.290500  0.515500  0.251300  1.0  0.1039
  H  H18  1  0.610900  0.511700  0.536300  1.0  0.091
  H  H19  1  0.558600  0.589200  0.392000  1.0  0.1212
  H  H20  1  0.463700  0.596800  0.300500  1.0  0.1289
  H  H21  1  0.497000  0.543400  0.339600  1.0  0.1438
  H  H22  1  0.772000  0.650400  0.683400  1.0  0.1113
  H  H23  1  0.171600  0.581800  0.417400  1.0  0.1356
  H  H24  1  0.168800  0.572900  0.319800  1.0  0.1232
  H  H25  1  0.179000  0.626700  0.359500  1.0  0.1433
  H  H26  1  0.297200  0.509200  0.581000  1.0  0.1009
  H  H27  1  0.610900  0.652200  0.594900  1.0  0.1158
  H  H28  1  0.283300  0.652500  0.585600  1.0  0.1108
  H  H29  1  0.201200  0.515200  0.089700  1.0  0.1298
  H  H30  1  0.283200  0.659900  0.253600  1.0  0.1097
  H  H31  1  0.147300  0.442000  0.778500  1.0  0.0978
  H  H32  1  0.943900  0.291800  0.853500  1.0  0.11
  H  H33  1  0.192300  0.661300  0.096500  1.0  0.1137
  H  H34  1  0.772900  0.509900  0.617200  1.0  0.1115
  H  H35  1  0.979200  0.449700  0.891500  1.0  0.0902
  H  H36  1  0.200600  0.646600  0.669600  1.0  0.1084
  H  H37  1  0.986000  0.367900  0.912600  1.0  0.1127
  H  H38  1  0.202200  0.292000  0.879200  1.0  0.112
  H  H39  1  0.152700  0.359200  0.792000  1.0  0.1242
  H  H40  1  0.216200  0.997400  0.665800  1.0  0.1223
  H  H41  1  0.511300  0.887500  0.692000  1.0  0.1346
  H  H42  1  0.555700  0.937700  0.683600  1.0  0.124
  H  H43  1  0.460600  0.937400  0.690000  1.0  0.1244
  H  H44  1  0.290500  0.984500  0.251300  1.0  0.1034
  H  H45  1  0.610900  0.988300  0.536300  1.0  0.091
  H  H46  1  0.558600  0.910800  0.392000  1.0  0.1213
  H  H47  1  0.463700  0.903200  0.300500  1.0  0.1282
  H  H48  1  0.497000  0.956600  0.339600  1.0  0.1432
  H  H49  1  0.772000  0.849600  0.683400  1.0  0.1121
  H  H50  1  0.171600  0.918200  0.417400  1.0  0.1356
  H  H51  1  0.168800  0.927100  0.319800  1.0  0.1229
  H  H52  1  0.179000  0.873300  0.359500  1.0  0.1422
  H  H53  1  0.297200  0.990800  0.581000  1.0  0.1006
  H  H54  1  0.610900  0.847800  0.594900  1.0  0.1147
  H  H55  1  0.283300  0.847500  0.585600  1.0  0.1106
  H  H56  1  0.201200  0.984800  0.089700  1.0  0.1302
  H  H57  1  0.283200  0.840100  0.253600  1.0  0.1096
  H  H58  1  0.147300  0.058000  0.778500  1.0  0.0979
  H  H59  1  0.943900  0.208200  0.853500  1.0  0.1103
  H  H60  1  0.192300  0.838700  0.096500  1.0  0.1132
  H  H61  1  0.772900  0.990100  0.617200  1.0  0.1111
  H  H62  1  0.979200  0.050300  0.891500  1.0  0.0905
  H  H63  1  0.200600  0.853400  0.669600  1.0  0.1084
  H  H64  1  0.986000  0.132100  0.912600  1.0  0.1124
  H  H65  1  0.202200  0.208000  0.879200  1.0  0.1122
  H  H66  1  0.152700  0.140800  0.792000  1.0  0.1246
  H  H67  1  0.783800  0.002600  0.334200  1.0  0.1215
  H  H68  1  0.488700  0.112500  0.308000  1.0  0.1339
  H  H69  1  0.444300  0.062300  0.316400  1.0  0.1255
  H  H70  1  0.539400  0.062600  0.310000  1.0  0.1218
  H  H71  1  0.709500  0.015500  0.748700  1.0  0.1035
  H  H72  1  0.389100  0.011700  0.463700  1.0  0.0902
  H  H73  1  0.441400  0.089200  0.608000  1.0  0.1226
  H  H74  1  0.536300  0.096800  0.699500  1.0  0.1284
  H  H75  1  0.503000  0.043400  0.660400  1.0  0.1427
  H  H76  1  0.228000  0.150400  0.316600  1.0  0.1116
  H  H77  1  0.828400  0.081800  0.582600  1.0  0.1369
  H  H78  1  0.831200  0.072900  0.680200  1.0  0.1245
  H  H79  1  0.821000  0.126700  0.640500  1.0  0.1431
  H  H80  1  0.702800  0.009200  0.419000  1.0  0.1016
  H  H81  1  0.389100  0.152200  0.405100  1.0  0.1153
  H  H82  1  0.716700  0.152500  0.414400  1.0  0.1098
  H  H83  1  0.798800  0.015200  0.910300  1.0  0.1307
  H  H84  1  0.716800  0.159900  0.746400  1.0  0.1099
  H  H85  1  0.852700  0.942000  0.221500  1.0  0.0973
  H  H86  1  0.056100  0.791800  0.146500  1.0  0.1104
  H  H87  1  0.807700  0.161300  0.903500  1.0  0.1135
  H  H88  1  0.227100  0.009900  0.382800  1.0  0.1114
  H  H89  1  0.020800  0.949700  0.108500  1.0  0.0901
  H  H90  1  0.799400  0.146600  0.330400  1.0  0.1083
  H  H91  1  0.014000  0.867900  0.087400  1.0  0.1126
  H  H92  1  0.797800  0.792000  0.120800  1.0  0.1148
  H  H93  1  0.847300  0.859200  0.208000  1.0  0.1251
  H  H94  1  0.783800  0.497400  0.334200  1.0  0.1217
  H  H95  1  0.488700  0.387500  0.308000  1.0  0.1324
  H  H96  1  0.444300  0.437700  0.316400  1.0  0.1246
  H  H97  1  0.539400  0.437400  0.310000  1.0  0.1215
  H  H98  1  0.709500  0.484500  0.748700  1.0  0.1026
  H  H99  1  0.389100  0.488300  0.463700  1.0  0.0899
  H  H100  1  0.441400  0.410800  0.608000  1.0  0.1233
  H  H101  1  0.536300  0.403200  0.699500  1.0  0.1288
  H  H102  1  0.503000  0.456600  0.660400  1.0  0.1426
  H  H103  1  0.228000  0.349600  0.316600  1.0  0.1116
  H  H104  1  0.828400  0.418200  0.582600  1.0  0.1368
  H  H105  1  0.831200  0.427100  0.680200  1.0  0.124
  H  H106  1  0.821000  0.373300  0.640500  1.0  0.1434
  H  H107  1  0.702800  0.490800  0.419000  1.0  0.1019
  H  H108  1  0.389100  0.347800  0.405100  1.0  0.1149
  H  H109  1  0.716700  0.347500  0.414400  1.0  0.1107
  H  H110  1  0.798800  0.484800  0.910300  1.0  0.1309
  H  H111  1  0.716800  0.340100  0.746400  1.0  0.1092
  H  H112  1  0.852700  0.558000  0.221500  1.0  0.0977
  H  H113  1  0.056100  0.708200  0.146500  1.0  0.1106
  H  H114  1  0.807700  0.338700  0.903500  1.0  0.1132
  H  H115  1  0.227100  0.490100  0.382800  1.0  0.1117
  H  H116  1  0.020800  0.550300  0.108500  1.0  0.0903
  H  H117  1  0.799400  0.353400  0.330400  1.0  0.108
  H  H118  1  0.014000  0.632100  0.087400  1.0  0.1122
  H  H119  1  0.797800  0.708000  0.120800  1.0  0.1149
  H  H120  1  0.847300  0.640800  0.208000  1.0  0.1249
  C  C121  1  0.230400  0.533600  0.650800  1.0  -0.0887
  C  C122  1  0.297600  0.582000  0.573800  1.0  0.1165
  C  C123  1  0.444300  0.582800  0.562200  1.0  0.062
  C  C124  1  0.299900  0.587500  0.422100  1.0  0.0636
  C  C125  1  0.443800  0.581300  0.413700  1.0  0.0438
  C  C126  1  0.497700  0.579800  0.666200  1.0  -0.3775
  C  C127  1  0.348100  0.584000  0.518100  1.0  -0.0142
  C  C128  1  0.270300  0.545300  0.219500  1.0  -0.1251
  C  C129  1  0.072200  0.302100  0.862900  1.0  0.0712
  C  C130  1  0.492600  0.582400  0.509300  1.0  -0.0147
  C  C131  1  0.643200  0.540400  0.565400  1.0  -0.1281
  C  C132  1  0.495400  0.577300  0.356300  1.0  -0.3884
  C  C133  1  0.739700  0.621800  0.653600  1.0  -0.0276
  C  C134  1  0.594100  0.581300  0.557100  1.0  0.0876
  C  C135  1  0.195600  0.592700  0.375600  1.0  -0.3913
  C  C136  1  0.787300  0.579600  0.662200  1.0  -0.1194
  C  C137  1  0.294200  0.587700  0.268700  1.0  0.0583
  C  C138  1  0.348200  0.584800  0.370300  1.0  -0.0101
  C  C139  1  0.204200  0.574600  0.680000  1.0  -0.0741
  C  C140  1  0.890100  0.577000  0.723500  1.0  0.7158
  C  C141  1  0.277800  0.537800  0.599300  1.0  -0.0961
  C  C142  1  0.187200  0.589100  0.078500  1.0  -0.1268
  C  C143  1  0.069000  0.353300  0.854100  1.0  0.1162
  C  C144  1  0.643200  0.622700  0.600900  1.0  -0.1349
  C  C145  1  0.269900  0.621500  0.601400  1.0  -0.1464
  C  C146  1  0.216600  0.544700  0.123000  1.0  -0.0895
  C  C147  1  0.265600  0.630200  0.221100  1.0  -0.1303
  C  C148  1  0.112600  0.426800  0.804600  1.0  0.146
  C  C149  1  0.996600  0.275100  0.857400  1.0  -0.1509
  C  C150  1  0.212000  0.631200  0.127300  1.0  -0.0542
  C  C151  1  0.151700  0.570600  0.733900  1.0  0.7046
  C  C152  1  0.740300  0.538700  0.615500  1.0  -0.1412
  C  C153  1  0.015400  0.431100  0.871200  1.0  0.179
  C  C154  1  0.221600  0.617900  0.653100  1.0  -0.0601
  C  C155  1  0.127700  0.588100  0.976100  1.0  0.7239
  C  C156  1  0.018700  0.382200  0.883500  1.0  -0.211
  C  C157  1  0.148500  0.275300  0.872500  1.0  -0.1785
  C  C158  1  0.116900  0.377300  0.813500  1.0  -0.1993
  C  C159  1  0.230400  0.966400  0.650800  1.0  -0.0902
  C  C160  1  0.297600  0.918000  0.573800  1.0  0.1158
  C  C161  1  0.444300  0.917200  0.562200  1.0  0.0597
  C  C162  1  0.299900  0.912500  0.422100  1.0  0.0646
  C  C163  1  0.443800  0.918700  0.413700  1.0  0.043
  C  C164  1  0.497700  0.920200  0.666200  1.0  -0.377
  C  C165  1  0.348100  0.916000  0.518100  1.0  -0.0147
  C  C166  1  0.270300  0.954700  0.219500  1.0  -0.1237
  C  C167  1  0.072200  0.197900  0.862900  1.0  0.0714
  C  C168  1  0.492600  0.917600  0.509300  1.0  -0.0144
  C  C169  1  0.643200  0.959600  0.565400  1.0  -0.1276
  C  C170  1  0.495400  0.922700  0.356300  1.0  -0.3897
  C  C171  1  0.739700  0.878200  0.653600  1.0  -0.0296
  C  C172  1  0.594100  0.918700  0.557100  1.0  0.0861
  C  C173  1  0.195600  0.907300  0.375600  1.0  -0.3916
  C  C174  1  0.787300  0.920400  0.662200  1.0  -0.1187
  C  C175  1  0.294200  0.912300  0.268700  1.0  0.0576
  C  C176  1  0.348200  0.915200  0.370300  1.0  -0.012
  C  C177  1  0.204200  0.925400  0.680000  1.0  -0.0743
  C  C178  1  0.890100  0.923000  0.723500  1.0  0.7161
  C  C179  1  0.277800  0.962200  0.599300  1.0  -0.0984
  C  C180  1  0.187200  0.910900  0.078500  1.0  -0.1269
  C  C181  1  0.069000  0.146700  0.854100  1.0  0.1163
  C  C182  1  0.643200  0.877300  0.600900  1.0  -0.1417
  C  C183  1  0.269900  0.878500  0.601400  1.0  -0.1479
  C  C184  1  0.216600  0.955300  0.123000  1.0  -0.087
  C  C185  1  0.265600  0.869800  0.221100  1.0  -0.1328
  C  C186  1  0.112600  0.073200  0.804600  1.0  0.1468
  C  C187  1  0.996600  0.224900  0.857400  1.0  -0.1508
  C  C188  1  0.212000  0.868800  0.127300  1.0  -0.0555
  C  C189  1  0.151700  0.929400  0.733900  1.0  0.7047
  C  C190  1  0.740300  0.961300  0.615500  1.0  -0.1416
  C  C191  1  0.015400  0.068900  0.871200  1.0  0.1797
  C  C192  1  0.221600  0.882100  0.653100  1.0  -0.0597
  C  C193  1  0.127700  0.911900  0.976100  1.0  0.724
  C  C194  1  0.018700  0.117800  0.883500  1.0  -0.2113
  C  C195  1  0.148500  0.224700  0.872500  1.0  -0.1792
  C  C196  1  0.116900  0.122700  0.813500  1.0  -0.199
  C  C197  1  0.769600  0.033600  0.349200  1.0  -0.0902
  C  C198  1  0.702400  0.082000  0.426200  1.0  0.1181
  C  C199  1  0.555700  0.082800  0.437800  1.0  0.0608
  C  C200  1  0.700100  0.087500  0.577900  1.0  0.0636
  C  C201  1  0.556200  0.081300  0.586300  1.0  0.0427
  C  C202  1  0.502300  0.079800  0.333800  1.0  -0.3753
  C  C203  1  0.651900  0.084000  0.481900  1.0  -0.0129
  C  C204  1  0.729700  0.045300  0.780500  1.0  -0.1249
  C  C205  1  0.927800  0.802100  0.137100  1.0  0.0723
  C  C206  1  0.507400  0.082400  0.490700  1.0  -0.0162
  C  C207  1  0.356800  0.040400  0.434600  1.0  -0.129
  C  C208  1  0.504600  0.077300  0.643700  1.0  -0.3871
  C  C209  1  0.260300  0.121800  0.346400  1.0  -0.0278
  C  C210  1  0.405900  0.081300  0.442900  1.0  0.0878
  C  C211  1  0.804400  0.092700  0.624400  1.0  -0.3938
  C  C212  1  0.212700  0.079600  0.337800  1.0  -0.1202
  C  C213  1  0.705800  0.087700  0.731300  1.0  0.0555
  C  C214  1  0.651800  0.084800  0.629700  1.0  -0.0103
  C  C215  1  0.795800  0.074600  0.320000  1.0  -0.0747
  C  C216  1  0.109900  0.077000  0.276500  1.0  0.715
  C  C217  1  0.722200  0.037800  0.400700  1.0  -0.0973
  C  C218  1  0.812800  0.089100  0.921500  1.0  -0.1277
  C  C219  1  0.931000  0.853300  0.145900  1.0  0.118
  C  C220  1  0.356800  0.122700  0.399100  1.0  -0.1344
  C  C221  1  0.730100  0.121500  0.398600  1.0  -0.1469
  C  C222  1  0.783400  0.044700  0.877000  1.0  -0.0867
  C  C223  1  0.734400  0.130200  0.778900  1.0  -0.1313
  C  C224  1  0.887400  0.926800  0.195400  1.0  0.146
  C  C225  1  0.003400  0.775100  0.142600  1.0  -0.1493
  C  C226  1  0.788000  0.131200  0.872700  1.0  -0.0548
  C  C227  1  0.848300  0.070600  0.266100  1.0  0.7033
  C  C228  1  0.259700  0.038700  0.384500  1.0  -0.1421
  C  C229  1  0.984600  0.931100  0.128800  1.0  0.1785
  C  C230  1  0.778400  0.117900  0.346900  1.0  -0.0583
  C  C231  1  0.872300  0.088100  0.023900  1.0  0.7227
  C  C232  1  0.981300  0.882200  0.116500  1.0  -0.2121
  C  C233  1  0.851500  0.775300  0.127500  1.0  -0.1779
  C  C234  1  0.883100  0.877300  0.186500  1.0  -0.1982
  C  C235  1  0.769600  0.466400  0.349200  1.0  -0.0899
  C  C236  1  0.702400  0.418000  0.426200  1.0  0.118
  C  C237  1  0.555700  0.417200  0.437800  1.0  0.0582
  C  C238  1  0.700100  0.412500  0.577900  1.0  0.0645
  C  C239  1  0.556200  0.418700  0.586300  1.0  0.0415
  C  C240  1  0.502300  0.420200  0.333800  1.0  -0.3757
  C  C241  1  0.651900  0.416000  0.481900  1.0  -0.0134
  C  C242  1  0.729700  0.454700  0.780500  1.0  -0.1254
  C  C243  1  0.927800  0.697900  0.137100  1.0  0.0724
  C  C244  1  0.507400  0.417600  0.490700  1.0  -0.0159
  C  C245  1  0.356800  0.459600  0.434600  1.0  -0.1286
  C  C246  1  0.504600  0.422700  0.643700  1.0  -0.3857
  C  C247  1  0.260300  0.378200  0.346400  1.0  -0.0279
  C  C248  1  0.405900  0.418700  0.442900  1.0  0.0866
  C  C249  1  0.804400  0.407300  0.624400  1.0  -0.3942
  C  C250  1  0.212700  0.420400  0.337800  1.0  -0.1203
  C  C251  1  0.705800  0.412300  0.731300  1.0  0.0547
  C  C252  1  0.651800  0.415200  0.629700  1.0  -0.0118
  C  C253  1  0.795800  0.425400  0.320000  1.0  -0.0745
  C  C254  1  0.109900  0.423000  0.276500  1.0  0.7155
  C  C255  1  0.722200  0.462200  0.400700  1.0  -0.0962
  C  C256  1  0.812800  0.410900  0.921500  1.0  -0.128
  C  C257  1  0.931000  0.646700  0.145900  1.0  0.1182
  C  C258  1  0.356800  0.377300  0.399100  1.0  -0.1422
  C  C259  1  0.730100  0.378500  0.398600  1.0  -0.1491
  C  C260  1  0.783400  0.455300  0.877000  1.0  -0.0868
  C  C261  1  0.734400  0.369800  0.778900  1.0  -0.1321
  C  C262  1  0.887400  0.573200  0.195400  1.0  0.1474
  C  C263  1  0.003400  0.724900  0.142600  1.0  -0.1497
  C  C264  1  0.788000  0.368800  0.872700  1.0  -0.0565
  C  C265  1  0.848300  0.429400  0.266100  1.0  0.7035
  C  C266  1  0.259700  0.461300  0.384500  1.0  -0.1415
  C  C267  1  0.984600  0.568900  0.128800  1.0  0.1776
  C  C268  1  0.778400  0.382100  0.346900  1.0  -0.0593
  C  C269  1  0.872300  0.411900  0.023900  1.0  0.7229
  C  C270  1  0.981300  0.617800  0.116500  1.0  -0.2121
  C  C271  1  0.851500  0.724700  0.127500  1.0  -0.1779
  C  C272  1  0.883100  0.622700  0.186500  1.0  -0.1984
  N  N273  1  0.061300  0.454900  0.831300  1.0  -0.3211
  N  N274  1  0.061300  0.045100  0.831300  1.0  -0.3215
  N  N275  1  0.938700  0.954900  0.168700  1.0  -0.3224
  N  N276  1  0.938700  0.545100  0.168700  1.0  -0.3226
  O  O277  1  0.932300  0.615700  0.755700  1.0  -0.6957
  O  O278  1  0.927500  0.536100  0.735100  1.0  -0.588
  O  O279  1  0.108400  0.547200  0.937300  1.0  -0.6138
  O  O280  1  0.098900  0.627100  0.938100  1.0  -0.6484
  O  O281  1  0.134600  0.530100  0.753700  1.0  -0.5654
  O  O282  1  0.126800  0.607600  0.755200  1.0  -0.6424
  O  O283  1  0.029500  0.727400  0.935800  1.0  -0.5781
  O  O284  1  0.062600  0.690600  0.787700  1.0  -0.5107
  O  O285  1  0.876300  0.723200  0.757100  1.0  -0.7069
  O  O286  1  0.932300  0.884300  0.755700  1.0  -0.6983
  O  O287  1  0.927500  0.963900  0.735100  1.0  -0.589
  O  O288  1  0.108400  0.952800  0.937300  1.0  -0.6135
  O  O289  1  0.098900  0.872900  0.938100  1.0  -0.649
  O  O290  1  0.134600  0.969900  0.753700  1.0  -0.5664
  O  O291  1  0.126800  0.892400  0.755200  1.0  -0.6445
  O  O292  1  0.029500  0.772600  0.935800  1.0  -0.5781
  O  O293  1  0.062600  0.809400  0.787700  1.0  -0.5095
  O  O294  1  0.876300  0.776800  0.757100  1.0  -0.7069
  O  O295  1  0.067700  0.115700  0.244300  1.0  -0.6938
  O  O296  1  0.072500  0.036100  0.264900  1.0  -0.5884
  O  O297  1  0.891600  0.047200  0.062700  1.0  -0.6144
  O  O298  1  0.901100  0.127100  0.061900  1.0  -0.6488
  O  O299  1  0.865400  0.030100  0.246300  1.0  -0.5657
  O  O300  1  0.873200  0.107600  0.244800  1.0  -0.642
  O  O301  1  0.970500  0.227400  0.064200  1.0  -0.5785
  O  O302  1  0.937400  0.190600  0.212300  1.0  -0.5103
  O  O303  1  0.123700  0.223200  0.242900  1.0  -0.7066
  O  O304  1  0.067700  0.384300  0.244300  1.0  -0.6962
  O  O305  1  0.072500  0.463900  0.264900  1.0  -0.589
  O  O306  1  0.891600  0.452800  0.062700  1.0  -0.6144
  O  O307  1  0.901100  0.372900  0.061900  1.0  -0.6492
  O  O308  1  0.865400  0.469900  0.246300  1.0  -0.5668
  O  O309  1  0.873200  0.392400  0.244800  1.0  -0.6439
  O  O310  1  0.970500  0.272600  0.064200  1.0  -0.5785
  O  O311  1  0.937400  0.309400  0.212300  1.0  -0.5086
  O  O312  1  0.123700  0.276800  0.242900  1.0  -0.7064
