# generated using pymatgen
data_CdC4
_symmetry_space_group_name_H-M   'P 1'
_cell_length_a   8.99500000
_cell_length_b   8.99500000
_cell_length_c   8.99500000
_cell_angle_alpha   60.00000000
_cell_angle_beta   60.00000000
_cell_angle_gamma   60.00000000
_symmetry_Int_Tables_number   1
_chemical_formula_structural   CdC4
_chemical_formula_sum   'Cd2 C8'
_cell_volume   514.62218595
_cell_formula_units_Z   2
loop_
 _symmetry_equiv_pos_site_id
 _symmetry_equiv_pos_as_xyz
  1  'x, y, z'
loop_
 _atom_site_type_symbol
 _atom_site_label
 _atom_site_symmetry_multiplicity
 _atom_site_fract_x
 _atom_site_fract_y
 _atom_site_fract_z
 _atom_site_occupancy
 _atom_site_charge
  Cd  Cd1  1  0.125000  0.625000  0.625000  1.0  0.6547
  Cd  Cd2  1  0.875000  0.375000  0.375000  1.0  0.6547
  C  C3  1  0.026540  0.920380  0.526540  1.0  -0.1627
  C  C4  1  0.420380  0.526540  0.526540  1.0  -0.1618
  C  C5  1  0.026540  0.526540  0.526540  1.0  -0.1655
  C  C6  1  0.026540  0.526540  0.920380  1.0  -0.1655
  C  C7  1  0.579620  0.473460  0.473460  1.0  -0.1641
  C  C8  1  0.973460  0.079620  0.473460  1.0  -0.1623
  C  C9  1  0.973460  0.473460  0.473460  1.0  -0.1639
  C  C10  1  0.973460  0.473460  0.079620  1.0  -0.1635
