# generated using pymatgen
data_CdC4
_symmetry_space_group_name_H-M   'P 1'
_cell_length_a   12.68300000
_cell_length_b   12.68300000
_cell_length_c   12.68300000
_cell_angle_alpha   90.00000000
_cell_angle_beta   90.00000000
_cell_angle_gamma   90.00000000
_symmetry_Int_Tables_number   1
_chemical_formula_structural   CdC4
_chemical_formula_sum   'Cd8 C32'
_cell_volume   2040.16821599
_cell_formula_units_Z   8
loop_
 _symmetry_equiv_pos_site_id
 _symmetry_equiv_pos_as_xyz
  1  'x, y, z'
loop_
 _atom_site_type_symbol
 _atom_site_label
 _atom_site_symmetry_multiplicity
 _atom_site_fract_x
 _atom_site_fract_y
 _atom_site_fract_z
 _atom_site_occupancy
 _atom_site_charge
  Cd  Cd1  1  0.625000  0.125000  0.125000  1.0  0.6222
  Cd  Cd2  1  0.125000  0.625000  0.125000  1.0  0.6222
  Cd  Cd3  1  0.125000  0.125000  0.625000  1.0  0.6222
  Cd  Cd4  1  0.625000  0.625000  0.625000  1.0  0.6222
  Cd  Cd5  1  0.875000  0.875000  0.375000  1.0  0.6222
  Cd  Cd6  1  0.875000  0.375000  0.875000  1.0  0.6222
  Cd  Cd7  1  0.375000  0.875000  0.875000  1.0  0.6222
  Cd  Cd8  1  0.375000  0.375000  0.375000  1.0  0.6222
  C  C9  1  0.723880  0.223880  0.026120  1.0  -0.1553
  C  C10  1  0.026120  0.026120  0.526120  1.0  -0.1565
  C  C11  1  0.526120  0.526120  0.526120  1.0  -0.1565
  C  C12  1  0.526120  0.723880  0.723880  1.0  -0.1559
  C  C13  1  0.223880  0.526120  0.223880  1.0  -0.1545
  C  C14  1  0.026120  0.723880  0.223880  1.0  -0.1559
  C  C15  1  0.526120  0.026120  0.026120  1.0  -0.1565
  C  C16  1  0.723880  0.526120  0.723880  1.0  -0.1545
  C  C17  1  0.223880  0.223880  0.526120  1.0  -0.1553
  C  C18  1  0.223880  0.026120  0.723880  1.0  -0.1545
  C  C19  1  0.026120  0.526120  0.026120  1.0  -0.1565
  C  C20  1  0.723880  0.723880  0.526120  1.0  -0.1553
  C  C21  1  0.526120  0.223880  0.223880  1.0  -0.1559
  C  C22  1  0.973880  0.973880  0.473880  1.0  -0.1546
  C  C23  1  0.776120  0.276120  0.973880  1.0  -0.1561
  C  C24  1  0.473880  0.776120  0.776120  1.0  -0.1554
  C  C25  1  0.276120  0.473880  0.276120  1.0  -0.1561
  C  C26  1  0.473880  0.276120  0.276120  1.0  -0.1554
  C  C27  1  0.776120  0.776120  0.473880  1.0  -0.1561
  C  C28  1  0.276120  0.973880  0.776120  1.0  -0.1561
  C  C29  1  0.973880  0.473880  0.973880  1.0  -0.1546
  C  C30  1  0.776120  0.473880  0.776120  1.0  -0.1561
  C  C31  1  0.276120  0.276120  0.473880  1.0  -0.1561
  C  C32  1  0.473880  0.973880  0.973880  1.0  -0.1546
  C  C33  1  0.473880  0.473880  0.473880  1.0  -0.1546
  C  C34  1  0.973880  0.776120  0.276120  1.0  -0.1554
  C  C35  1  0.276120  0.776120  0.973880  1.0  -0.1561
  C  C36  1  0.973880  0.276120  0.776120  1.0  -0.1554
  C  C37  1  0.776120  0.973880  0.276120  1.0  -0.1561
  C  C38  1  0.223880  0.723880  0.026120  1.0  -0.1553
  C  C39  1  0.723880  0.026120  0.223880  1.0  -0.1545
  C  C40  1  0.026120  0.223880  0.723880  1.0  -0.1559
