# generated using pymatgen
data_CdC4
_symmetry_space_group_name_H-M   'P 1'
_cell_length_a   12.63080000
_cell_length_b   12.63080000
_cell_length_c   12.63080000
_cell_angle_alpha   90.00000000
_cell_angle_beta   90.00000000
_cell_angle_gamma   90.00000000
_symmetry_Int_Tables_number   1
_chemical_formula_structural   CdC4
_chemical_formula_sum   'Cd8 C32'
_cell_volume   2015.08131181
_cell_formula_units_Z   8
loop_
 _symmetry_equiv_pos_site_id
 _symmetry_equiv_pos_as_xyz
  1  'x, y, z'
loop_
 _atom_site_type_symbol
 _atom_site_label
 _atom_site_symmetry_multiplicity
 _atom_site_fract_x
 _atom_site_fract_y
 _atom_site_fract_z
 _atom_site_occupancy
 _atom_site_charge
  Cd  Cd1  1  0.625000  0.125000  0.125000  1.0  0.6408
  Cd  Cd2  1  0.125000  0.625000  0.125000  1.0  0.6408
  Cd  Cd3  1  0.125000  0.125000  0.625000  1.0  0.6408
  Cd  Cd4  1  0.625000  0.625000  0.625000  1.0  0.6408
  Cd  Cd5  1  0.875000  0.875000  0.375000  1.0  0.6408
  Cd  Cd6  1  0.875000  0.375000  0.875000  1.0  0.6408
  Cd  Cd7  1  0.375000  0.875000  0.875000  1.0  0.6408
  Cd  Cd8  1  0.375000  0.375000  0.375000  1.0  0.6408
  C  C9  1  0.723600  0.223600  0.026400  1.0  -0.16
  C  C10  1  0.026400  0.026400  0.526400  1.0  -0.1611
  C  C11  1  0.526400  0.526400  0.526400  1.0  -0.1611
  C  C12  1  0.526400  0.723600  0.723600  1.0  -0.1606
  C  C13  1  0.223600  0.526400  0.223600  1.0  -0.1591
  C  C14  1  0.026400  0.723600  0.223600  1.0  -0.1606
  C  C15  1  0.526400  0.026400  0.026400  1.0  -0.1611
  C  C16  1  0.723600  0.526400  0.723600  1.0  -0.1591
  C  C17  1  0.223600  0.223600  0.526400  1.0  -0.16
  C  C18  1  0.223600  0.026400  0.723600  1.0  -0.1591
  C  C19  1  0.026400  0.526400  0.026400  1.0  -0.1611
  C  C20  1  0.723600  0.723600  0.526400  1.0  -0.16
  C  C21  1  0.526400  0.223600  0.223600  1.0  -0.1606
  C  C22  1  0.973600  0.973600  0.473600  1.0  -0.1592
  C  C23  1  0.776400  0.276400  0.973600  1.0  -0.1608
  C  C24  1  0.473600  0.776400  0.776400  1.0  -0.1599
  C  C25  1  0.276400  0.473600  0.276400  1.0  -0.1609
  C  C26  1  0.473600  0.276400  0.276400  1.0  -0.1599
  C  C27  1  0.776400  0.776400  0.473600  1.0  -0.1608
  C  C28  1  0.276400  0.973600  0.776400  1.0  -0.1609
  C  C29  1  0.973600  0.473600  0.973600  1.0  -0.1592
  C  C30  1  0.776400  0.473600  0.776400  1.0  -0.1609
  C  C31  1  0.276400  0.276400  0.473600  1.0  -0.1608
  C  C32  1  0.473600  0.973600  0.973600  1.0  -0.1592
  C  C33  1  0.473600  0.473600  0.473600  1.0  -0.1592
  C  C34  1  0.973600  0.776400  0.276400  1.0  -0.1599
  C  C35  1  0.276400  0.776400  0.973600  1.0  -0.1608
  C  C36  1  0.973600  0.276400  0.776400  1.0  -0.1599
  C  C37  1  0.776400  0.973600  0.276400  1.0  -0.1609
  C  C38  1  0.223600  0.723600  0.026400  1.0  -0.16
  C  C39  1  0.723600  0.026400  0.223600  1.0  -0.1591
  C  C40  1  0.026400  0.223600  0.723600  1.0  -0.1606
