# generated using pymatgen
data_V7SiAg6H4W5C8(N3O7)4
_symmetry_space_group_name_H-M   'P 1'
_cell_length_a   12.30800000
_cell_length_b   21.53200000
_cell_length_c   19.99800000
_cell_angle_alpha   90.00000000
_cell_angle_beta   90.00000000
_cell_angle_gamma   90.00000000
_symmetry_Int_Tables_number   1
_chemical_formula_structural   V7SiAg6H4W5C8(N3O7)4
_chemical_formula_sum   'V28 Si4 Ag24 H16 W20 C32 N48 O112'
_cell_volume   5299.78708829
_cell_formula_units_Z   4
loop_
 _symmetry_equiv_pos_site_id
 _symmetry_equiv_pos_as_xyz
  1  'x, y, z'
loop_
 _atom_site_type_symbol
 _atom_site_label
 _atom_site_symmetry_multiplicity
 _atom_site_fract_x
 _atom_site_fract_y
 _atom_site_fract_z
 _atom_site_occupancy
 _atom_site_charge
  V  V1  1  0.497890  0.556030  0.334130  1.0  1.504
  V  V2  1  0.783150  0.605080  0.333650  1.0  1.43
  V  V3  1  0.627500  0.337620  0.158260  1.0  1.4144
  V  V4  1  0.887140  0.382880  0.157960  1.0  1.439
  V  V5  1  0.702760  0.464740  0.074250  1.0  1.45
  V  V6  1  0.502110  0.443970  0.834130  1.0  1.5005
  V  V7  1  0.216850  0.394920  0.833650  1.0  1.4294
  V  V8  1  0.372500  0.662380  0.658260  1.0  1.4076
  V  V9  1  0.112860  0.617120  0.657960  1.0  1.441
  V  V10  1  0.297240  0.535260  0.574250  1.0  1.4515
  V  V11  1  0.502110  0.056030  0.165870  1.0  1.5048
  V  V12  1  0.216850  0.105080  0.166350  1.0  1.4325
  V  V13  1  0.372500  0.837620  0.341740  1.0  1.4134
  V  V14  1  0.112860  0.882880  0.342040  1.0  1.442
  V  V15  1  0.297240  0.964740  0.425750  1.0  1.4419
  V  V16  1  0.497890  0.943970  0.665870  1.0  1.5044
  V  V17  1  0.783150  0.894920  0.666350  1.0  1.4295
  V  V18  1  0.627500  0.162380  0.841740  1.0  1.4093
  V  V19  1  0.887140  0.117120  0.842040  1.0  1.4389
  V  V20  1  0.702760  0.035260  0.925750  1.0  1.4426
  V  V21  1  0.423280  0.428700  0.250000  1.0  1.3509
  V  V22  1  0.967920  0.523060  0.250000  1.0  1.4258
  V  V23  1  0.576720  0.571300  0.750000  1.0  1.3502
  V  V24  1  0.032080  0.476940  0.750000  1.0  1.4293
  V  V25  1  0.576720  0.928700  0.250000  1.0  1.35
  V  V26  1  0.032080  0.023060  0.250000  1.0  1.4293
  V  V27  1  0.423280  0.071300  0.750000  1.0  1.3501
  V  V28  1  0.967920  0.976940  0.750000  1.0  1.426
  Si  Si29  1  0.699500  0.470800  0.250000  1.0  1.3085
  Si  Si30  1  0.300500  0.529200  0.750000  1.0  1.3082
  Si  Si31  1  0.300500  0.970800  0.250000  1.0  1.3083
  Si  Si32  1  0.699500  0.029200  0.750000  1.0  1.3084
  Ag  Ag33  1  0.094400  0.261570  0.426880  1.0  0.2081
  Ag  Ag34  1  0.583650  0.188510  0.472090  1.0  0.4444
  Ag  Ag35  1  0.454500  0.449300  0.448700  1.0  0.9619
  Ag  Ag36  1  0.905600  0.738430  0.926880  1.0  0.2098
  Ag  Ag37  1  0.416350  0.811490  0.972090  1.0  0.4444
  Ag  Ag38  1  0.545500  0.550700  0.948700  1.0  0.9587
  Ag  Ag39  1  0.905600  0.761570  0.073120  1.0  0.213
  Ag  Ag40  1  0.416350  0.688510  0.027910  1.0  0.4468
  Ag  Ag41  1  0.545500  0.949300  0.051300  1.0  0.9625
  Ag  Ag42  1  0.094400  0.238430  0.573120  1.0  0.2122
  Ag  Ag43  1  0.583650  0.311490  0.527910  1.0  0.4469
  Ag  Ag44  1  0.454500  0.050700  0.551300  1.0  0.9585
  Ag  Ag45  1  0.905600  0.738430  0.573120  1.0  0.2052
  Ag  Ag46  1  0.416350  0.811490  0.527910  1.0  0.446
  Ag  Ag47  1  0.545500  0.550700  0.551300  1.0  0.9619
  Ag  Ag48  1  0.094400  0.261570  0.073120  1.0  0.2056
  Ag  Ag49  1  0.583650  0.188510  0.027910  1.0  0.446
  Ag  Ag50  1  0.454500  0.449300  0.051300  1.0  0.9648
  Ag  Ag51  1  0.094400  0.238430  0.926880  1.0  0.2042
  Ag  Ag52  1  0.583650  0.311490  0.972090  1.0  0.4433
  Ag  Ag53  1  0.454500  0.050700  0.948700  1.0  0.9613
  Ag  Ag54  1  0.905600  0.761570  0.426880  1.0  0.2053
  Ag  Ag55  1  0.416350  0.688510  0.472090  1.0  0.4433
  Ag  Ag56  1  0.545500  0.949300  0.448700  1.0  0.9654
  H  H57  1  0.414600  0.411300  0.469600  1.0  0.2601
  H  H58  1  0.952000  0.142800  0.374800  1.0  0.0793
  H  H59  1  0.585400  0.588700  0.969600  1.0  0.2618
  H  H60  1  0.048000  0.857200  0.874800  1.0  0.0805
  H  H61  1  0.585400  0.911300  0.030400  1.0  0.2622
  H  H62  1  0.048000  0.642800  0.125200  1.0  0.0803
  H  H63  1  0.414600  0.088700  0.530400  1.0  0.2599
  H  H64  1  0.952000  0.357200  0.625200  1.0  0.0803
  H  H65  1  0.585400  0.588700  0.530400  1.0  0.2615
  H  H66  1  0.048000  0.857200  0.625200  1.0  0.0809
  H  H67  1  0.414600  0.411300  0.030400  1.0  0.2593
  H  H68  1  0.952000  0.142800  0.125200  1.0  0.08
  H  H69  1  0.414600  0.088700  0.969600  1.0  0.26
  H  H70  1  0.952000  0.357200  0.874800  1.0  0.0798
  H  H71  1  0.585400  0.911300  0.469600  1.0  0.2626
  H  H72  1  0.048000  0.642800  0.374800  1.0  0.0796
  W  W73  1  0.497890  0.556030  0.165870  1.0  1.3513
  W  W74  1  0.783150  0.605080  0.166350  1.0  1.2873
  W  W75  1  0.627500  0.337620  0.341740  1.0  1.2869
  W  W76  1  0.887140  0.382880  0.342040  1.0  1.3418
  W  W77  1  0.702760  0.464740  0.425750  1.0  1.2577
  W  W78  1  0.502110  0.443970  0.665870  1.0  1.3462
  W  W79  1  0.216850  0.394920  0.666350  1.0  1.2793
  W  W80  1  0.372500  0.662380  0.841740  1.0  1.2916
  W  W81  1  0.112860  0.617120  0.842040  1.0  1.3434
  W  W82  1  0.297240  0.535260  0.925750  1.0  1.2574
  W  W83  1  0.502110  0.056030  0.334130  1.0  1.3514
  W  W84  1  0.216850  0.105080  0.333650  1.0  1.2859
  W  W85  1  0.372500  0.837620  0.158260  1.0  1.2869
  W  W86  1  0.112860  0.882880  0.157960  1.0  1.3418
  W  W87  1  0.297240  0.964740  0.074250  1.0  1.2614
  W  W88  1  0.497890  0.943970  0.834130  1.0  1.3478
  W  W89  1  0.783150  0.894920  0.833650  1.0  1.2798
  W  W90  1  0.627500  0.162380  0.658260  1.0  1.2917
  W  W91  1  0.887140  0.117120  0.657960  1.0  1.3435
  W  W92  1  0.702760  0.035260  0.574250  1.0  1.2591
  C  C93  1  0.332000  0.282100  0.490000  1.0  0.2877
  C  C94  1  0.377000  0.374100  0.471000  1.0  0.1467
  C  C95  1  0.844500  0.227100  0.473900  1.0  0.3768
  C  C96  1  0.906000  0.165300  0.403000  1.0  0.2752
  C  C97  1  0.668000  0.717900  0.990000  1.0  0.2878
  C  C98  1  0.623000  0.625900  0.971000  1.0  0.147
  C  C99  1  0.155500  0.772900  0.973900  1.0  0.3776
  C  C100  1  0.094000  0.834700  0.903000  1.0  0.2744
  C  C101  1  0.668000  0.782100  0.010000  1.0  0.2873
  C  C102  1  0.623000  0.874100  0.029000  1.0  0.1459
  C  C103  1  0.155500  0.727100  0.026100  1.0  0.3781
  C  C104  1  0.094000  0.665300  0.097000  1.0  0.2741
  C  C105  1  0.332000  0.217900  0.510000  1.0  0.2881
  C  C106  1  0.377000  0.125900  0.529000  1.0  0.1469
  C  C107  1  0.844500  0.272900  0.526100  1.0  0.377
  C  C108  1  0.906000  0.334700  0.597000  1.0  0.274
  C  C109  1  0.668000  0.717900  0.510000  1.0  0.2877
  C  C110  1  0.623000  0.625900  0.529000  1.0  0.1465
  C  C111  1  0.155500  0.772900  0.526100  1.0  0.3776
  C  C112  1  0.094000  0.834700  0.597000  1.0  0.2732
  C  C113  1  0.332000  0.282100  0.010000  1.0  0.2876
  C  C114  1  0.377000  0.374100  0.029000  1.0  0.1463
  C  C115  1  0.844500  0.227100  0.026100  1.0  0.3772
  C  C116  1  0.906000  0.165300  0.097000  1.0  0.275
  C  C117  1  0.332000  0.217900  0.990000  1.0  0.2882
  C  C118  1  0.377000  0.125900  0.971000  1.0  0.1473
  C  C119  1  0.844500  0.272900  0.973900  1.0  0.3769
  C  C120  1  0.906000  0.334700  0.903000  1.0  0.2752
  C  C121  1  0.668000  0.782100  0.490000  1.0  0.2872
  C  C122  1  0.623000  0.874100  0.471000  1.0  0.1464
  C  C123  1  0.155500  0.727100  0.473900  1.0  0.3777
  C  C124  1  0.094000  0.665300  0.403000  1.0  0.2746
  N  N125  1  0.244000  0.307800  0.462200  1.0  -0.3364
  N  N126  1  0.277000  0.367300  0.449800  1.0  -0.1857
  N  N127  1  0.416300  0.322400  0.494300  1.0  -0.3805
  N  N128  1  0.759600  0.193700  0.456300  1.0  -0.2759
  N  N129  1  0.936300  0.210600  0.442000  1.0  -0.3743
  N  N130  1  0.799000  0.156200  0.408000  1.0  -0.2262
  N  N131  1  0.756000  0.692200  0.962200  1.0  -0.337
  N  N132  1  0.723000  0.632700  0.949800  1.0  -0.189
  N  N133  1  0.583700  0.677600  0.994300  1.0  -0.3806
  N  N134  1  0.240400  0.806300  0.956300  1.0  -0.2794
  N  N135  1  0.063700  0.789400  0.942000  1.0  -0.3761
  N  N136  1  0.201000  0.843800  0.908000  1.0  -0.2293
  N  N137  1  0.756000  0.807800  0.037800  1.0  -0.3376
  N  N138  1  0.723000  0.867300  0.050200  1.0  -0.1896
  N  N139  1  0.583700  0.822400  0.005700  1.0  -0.38
  N  N140  1  0.240400  0.693700  0.043700  1.0  -0.2783
  N  N141  1  0.063700  0.710600  0.058000  1.0  -0.3773
  N  N142  1  0.201000  0.656200  0.092000  1.0  -0.2255
  N  N143  1  0.244000  0.192200  0.537800  1.0  -0.337
  N  N144  1  0.277000  0.132700  0.550200  1.0  -0.1889
  N  N145  1  0.416300  0.177600  0.505700  1.0  -0.3818
  N  N146  1  0.759600  0.306300  0.543700  1.0  -0.2743
  N  N147  1  0.936300  0.289400  0.558000  1.0  -0.377
  N  N148  1  0.799000  0.343800  0.592000  1.0  -0.2271
  N  N149  1  0.756000  0.692200  0.537800  1.0  -0.3376
  N  N150  1  0.723000  0.632700  0.550200  1.0  -0.1906
  N  N151  1  0.583700  0.677600  0.505700  1.0  -0.3798
  N  N152  1  0.240400  0.806300  0.543700  1.0  -0.2784
  N  N153  1  0.063700  0.789400  0.558000  1.0  -0.3758
  N  N154  1  0.201000  0.843800  0.592000  1.0  -0.2271
  N  N155  1  0.244000  0.307800  0.037800  1.0  -0.3373
  N  N156  1  0.277000  0.367300  0.050200  1.0  -0.1877
  N  N157  1  0.416300  0.322400  0.005700  1.0  -0.3805
  N  N158  1  0.759600  0.193700  0.043700  1.0  -0.275
  N  N159  1  0.936300  0.210600  0.058000  1.0  -0.3736
  N  N160  1  0.799000  0.156200  0.092000  1.0  -0.2267
  N  N161  1  0.244000  0.192200  0.962200  1.0  -0.3359
  N  N162  1  0.277000  0.132700  0.949800  1.0  -0.1869
  N  N163  1  0.416300  0.177600  0.994300  1.0  -0.382
  N  N164  1  0.759600  0.306300  0.956300  1.0  -0.2751
  N  N165  1  0.936300  0.289400  0.942000  1.0  -0.3772
  N  N166  1  0.799000  0.343800  0.908000  1.0  -0.2274
  N  N167  1  0.756000  0.807800  0.462200  1.0  -0.3373
  N  N168  1  0.723000  0.867300  0.449800  1.0  -0.1884
  N  N169  1  0.583700  0.822400  0.494300  1.0  -0.3804
  N  N170  1  0.240400  0.693700  0.456300  1.0  -0.2794
  N  N171  1  0.063700  0.710600  0.442000  1.0  -0.3776
  N  N172  1  0.201000  0.656200  0.408000  1.0  -0.227
  O  O173  1  0.946300  0.460100  0.315300  1.0  -0.7225
  O  O174  1  0.837000  0.421100  0.075100  1.0  -0.662
  O  O175  1  0.775100  0.536600  0.393400  1.0  -0.6812
  O  O176  1  0.395200  0.491200  0.315300  1.0  -0.7679
  O  O177  1  0.781300  0.320300  0.143300  1.0  -0.696
  O  O178  1  0.723200  0.429900  0.183700  1.0  -0.7915
  O  O179  1  0.626800  0.602600  0.327800  1.0  -0.7225
  O  O180  1  0.503900  0.383000  0.186300  1.0  -0.6814
  O  O181  1  0.631300  0.384800  0.078200  1.0  -0.7567
  O  O182  1  0.570500  0.504800  0.394500  1.0  -0.8134
  O  O183  1  0.932700  0.585700  0.316900  1.0  -0.7161
  O  O184  1  0.053700  0.539900  0.815300  1.0  -0.722
  O  O185  1  0.163000  0.578900  0.575100  1.0  -0.6626
  O  O186  1  0.224900  0.463400  0.893400  1.0  -0.6818
  O  O187  1  0.604800  0.508800  0.815300  1.0  -0.7667
  O  O188  1  0.218700  0.679700  0.643300  1.0  -0.6963
  O  O189  1  0.276800  0.570100  0.683700  1.0  -0.7904
  O  O190  1  0.373200  0.397400  0.827800  1.0  -0.7173
  O  O191  1  0.496100  0.617000  0.686300  1.0  -0.6809
  O  O192  1  0.368700  0.615200  0.578200  1.0  -0.7565
  O  O193  1  0.429500  0.495200  0.894500  1.0  -0.8119
  O  O194  1  0.067300  0.414300  0.816900  1.0  -0.7116
  O  O195  1  0.053700  0.960100  0.184700  1.0  -0.7243
  O  O196  1  0.163000  0.921100  0.424900  1.0  -0.6642
  O  O197  1  0.224900  0.036600  0.106600  1.0  -0.6811
  O  O198  1  0.604800  0.991200  0.184700  1.0  -0.7677
  O  O199  1  0.218700  0.820300  0.356700  1.0  -0.6972
  O  O200  1  0.276800  0.929900  0.316300  1.0  -0.7892
  O  O201  1  0.373200  0.102600  0.172200  1.0  -0.7224
  O  O202  1  0.496100  0.883000  0.313700  1.0  -0.6807
  O  O203  1  0.368700  0.884800  0.421800  1.0  -0.7564
  O  O204  1  0.429500  0.004800  0.105500  1.0  -0.8127
  O  O205  1  0.067300  0.085700  0.183100  1.0  -0.7131
  O  O206  1  0.946300  0.039900  0.684700  1.0  -0.7218
  O  O207  1  0.837000  0.078900  0.924900  1.0  -0.6634
  O  O208  1  0.775100  0.963400  0.606600  1.0  -0.6778
  O  O209  1  0.395200  0.008800  0.684700  1.0  -0.7684
  O  O210  1  0.781300  0.179700  0.856700  1.0  -0.6971
  O  O211  1  0.723200  0.070100  0.816300  1.0  -0.7903
  O  O212  1  0.626800  0.897400  0.672200  1.0  -0.7178
  O  O213  1  0.503900  0.117000  0.813700  1.0  -0.6832
  O  O214  1  0.631300  0.115200  0.921800  1.0  -0.7559
  O  O215  1  0.570500  0.995200  0.605500  1.0  -0.8135
  O  O216  1  0.932700  0.914300  0.683100  1.0  -0.7169
  O  O217  1  0.053700  0.539900  0.684700  1.0  -0.7205
  O  O218  1  0.163000  0.578900  0.924900  1.0  -0.6642
  O  O219  1  0.224900  0.463400  0.606600  1.0  -0.6803
  O  O220  1  0.604800  0.508800  0.684700  1.0  -0.7707
  O  O221  1  0.218700  0.679700  0.856700  1.0  -0.6973
  O  O222  1  0.276800  0.570100  0.816300  1.0  -0.7667
  O  O223  1  0.373200  0.397400  0.672200  1.0  -0.7171
  O  O224  1  0.496100  0.617000  0.813700  1.0  -0.6814
  O  O225  1  0.368700  0.615200  0.921800  1.0  -0.7612
  O  O226  1  0.429500  0.495200  0.605500  1.0  -0.813
  O  O227  1  0.067300  0.414300  0.683100  1.0  -0.7038
  O  O228  1  0.946300  0.460100  0.184700  1.0  -0.7183
  O  O229  1  0.837000  0.421100  0.424900  1.0  -0.6632
  O  O230  1  0.775100  0.536600  0.106600  1.0  -0.6788
  O  O231  1  0.395200  0.491200  0.184700  1.0  -0.7718
  O  O232  1  0.781300  0.320300  0.356700  1.0  -0.6968
  O  O233  1  0.723200  0.429900  0.316300  1.0  -0.7672
  O  O234  1  0.626800  0.602600  0.172200  1.0  -0.7231
  O  O235  1  0.503900  0.383000  0.313700  1.0  -0.6816
  O  O236  1  0.631300  0.384800  0.421800  1.0  -0.7614
  O  O237  1  0.570500  0.504800  0.105500  1.0  -0.8144
  O  O238  1  0.932700  0.585700  0.183100  1.0  -0.7086
  O  O239  1  0.946300  0.039900  0.815300  1.0  -0.7192
  O  O240  1  0.837000  0.078900  0.575100  1.0  -0.6614
  O  O241  1  0.775100  0.963400  0.893400  1.0  -0.6808
  O  O242  1  0.395200  0.008800  0.815300  1.0  -0.7708
  O  O243  1  0.781300  0.179700  0.643300  1.0  -0.6961
  O  O244  1  0.723200  0.070100  0.683700  1.0  -0.7685
  O  O245  1  0.626800  0.897400  0.827800  1.0  -0.7178
  O  O246  1  0.503900  0.117000  0.686300  1.0  -0.6836
  O  O247  1  0.631300  0.115200  0.578200  1.0  -0.7617
  O  O248  1  0.570500  0.995200  0.894500  1.0  -0.8135
  O  O249  1  0.932700  0.914300  0.816900  1.0  -0.7072
  O  O250  1  0.053700  0.960100  0.315300  1.0  -0.7186
  O  O251  1  0.163000  0.921100  0.075100  1.0  -0.6628
  O  O252  1  0.224900  0.036600  0.393400  1.0  -0.6822
  O  O253  1  0.604800  0.991200  0.315300  1.0  -0.7703
  O  O254  1  0.218700  0.820300  0.143300  1.0  -0.6964
  O  O255  1  0.276800  0.929900  0.183700  1.0  -0.7679
  O  O256  1  0.373200  0.102600  0.327800  1.0  -0.7218
  O  O257  1  0.496100  0.883000  0.186300  1.0  -0.6813
  O  O258  1  0.368700  0.884800  0.078200  1.0  -0.7617
  O  O259  1  0.429500  0.004800  0.394500  1.0  -0.8132
  O  O260  1  0.067300  0.085700  0.316900  1.0  -0.702
  O  O261  1  0.645000  0.317000  0.250000  1.0  -0.685
  O  O262  1  0.894000  0.360800  0.250000  1.0  -0.6788
  O  O263  1  0.456000  0.591400  0.250000  1.0  -0.7385
  O  O264  1  0.573500  0.494900  0.250000  1.0  -0.7818
  O  O265  1  0.781000  0.529500  0.250000  1.0  -0.7966
  O  O266  1  0.780000  0.650000  0.250000  1.0  -0.6797
  O  O267  1  0.355000  0.683000  0.750000  1.0  -0.6827
  O  O268  1  0.106000  0.639200  0.750000  1.0  -0.6835
  O  O269  1  0.544000  0.408600  0.750000  1.0  -0.7394
  O  O270  1  0.426500  0.505100  0.750000  1.0  -0.7836
  O  O271  1  0.219000  0.470500  0.750000  1.0  -0.796
  O  O272  1  0.220000  0.350000  0.750000  1.0  -0.688
  O  O273  1  0.355000  0.817000  0.250000  1.0  -0.6848
  O  O274  1  0.106000  0.860800  0.250000  1.0  -0.6801
  O  O275  1  0.544000  0.091400  0.250000  1.0  -0.7386
  O  O276  1  0.426500  0.994900  0.250000  1.0  -0.7834
  O  O277  1  0.219000  0.029500  0.250000  1.0  -0.7961
  O  O278  1  0.220000  0.150000  0.250000  1.0  -0.6792
  O  O279  1  0.645000  0.183000  0.750000  1.0  -0.6832
  O  O280  1  0.894000  0.139200  0.750000  1.0  -0.6807
  O  O281  1  0.456000  0.908600  0.750000  1.0  -0.7399
  O  O282  1  0.573500  0.005100  0.750000  1.0  -0.7823
  O  O283  1  0.781000  0.970500  0.750000  1.0  -0.7968
  O  O284  1  0.780000  0.850000  0.750000  1.0  -0.6885
