# generated using pymatgen
data_Cu3H16(C12N13)2
_symmetry_space_group_name_H-M   'P 1'
_cell_length_a   13.06620000
_cell_length_b   14.76590000
_cell_length_c   15.39250000
_cell_angle_alpha   90.00000000
_cell_angle_beta   90.29600000
_cell_angle_gamma   90.00000000
_symmetry_Int_Tables_number   1
_chemical_formula_structural   Cu3H16(C12N13)2
_chemical_formula_sum   'Cu6 H32 C48 N52'
_cell_volume   2969.70008307
_cell_formula_units_Z   2
loop_
 _symmetry_equiv_pos_site_id
 _symmetry_equiv_pos_as_xyz
  1  'x, y, z'
loop_
 _atom_site_type_symbol
 _atom_site_label
 _atom_site_symmetry_multiplicity
 _atom_site_fract_x
 _atom_site_fract_y
 _atom_site_fract_z
 _atom_site_occupancy
 _atom_site_charge
  Cu  Cu1  1  0.512540  0.286000  0.908760  1.0  0.7315
  Cu  Cu2  1  0.987460  0.786000  0.591240  1.0  0.7321
  Cu  Cu3  1  0.487460  0.714000  0.091240  1.0  0.7337
  Cu  Cu4  1  0.012540  0.214000  0.408760  1.0  0.7321
  Cu  Cu5  1  0.500000  0.500000  0.000000  1.0  0.7205
  Cu  Cu6  1  0.000000  0.000000  0.500000  1.0  0.7205
  H  H7  1  0.784600  0.164500  0.153200  1.0  0.1216
  H  H8  1  0.777000  0.419400  0.250400  1.0  0.1163
  H  H9  1  0.224700  0.316200  0.165000  1.0  0.1164
  H  H10  1  0.114100  0.226200  0.241900  1.0  0.0822
  H  H11  1  0.149300  0.376000  0.451500  1.0  0.0754
  H  H12  1  0.261200  0.471600  0.379700  1.0  0.1226
  H  H13  1  0.898100  0.376300  0.352300  1.0  0.0818
  H  H14  1  0.902100  0.127500  0.260800  1.0  0.0823
  H  H15  1  0.715400  0.664500  0.346800  1.0  0.1219
  H  H16  1  0.723000  0.919400  0.249600  1.0  0.1167
  H  H17  1  0.275300  0.816200  0.335000  1.0  0.1168
  H  H18  1  0.385900  0.726200  0.258100  1.0  0.0827
  H  H19  1  0.350700  0.876000  0.048500  1.0  0.075
  H  H20  1  0.238800  0.971600  0.120300  1.0  0.1226
  H  H21  1  0.601900  0.876300  0.147700  1.0  0.082
  H  H22  1  0.597900  0.627500  0.239200  1.0  0.0822
  H  H23  1  0.215400  0.835500  0.846800  1.0  0.122
  H  H24  1  0.223000  0.580600  0.749600  1.0  0.1164
  H  H25  1  0.775300  0.683800  0.835000  1.0  0.1165
  H  H26  1  0.885900  0.773800  0.758100  1.0  0.0824
  H  H27  1  0.850700  0.624000  0.548500  1.0  0.0755
  H  H28  1  0.738800  0.528400  0.620300  1.0  0.1221
  H  H29  1  0.101900  0.623700  0.647700  1.0  0.082
  H  H30  1  0.097900  0.872500  0.739200  1.0  0.0817
  H  H31  1  0.284600  0.335500  0.653200  1.0  0.122
  H  H32  1  0.277000  0.080600  0.750400  1.0  0.1161
  H  H33  1  0.724700  0.183800  0.665000  1.0  0.1162
  H  H34  1  0.614100  0.273800  0.741900  1.0  0.0817
  H  H35  1  0.649300  0.124000  0.951500  1.0  0.076
  H  H36  1  0.761200  0.028400  0.879700  1.0  0.122
  H  H37  1  0.398100  0.123700  0.852300  1.0  0.082
  H  H38  1  0.402100  0.372500  0.760800  1.0  0.0818
  C  C39  1  0.695250  0.324030  0.122140  1.0  0.3237
  C  C40  1  0.768200  0.296870  0.189700  1.0  -0.0328
  C  C41  1  0.806600  0.209060  0.193660  1.0  -0.1358
  C  C42  1  0.802700  0.359210  0.250600  1.0  -0.1356
  C  C43  1  0.326300  0.461800  0.213770  1.0  0.3267
  C  C44  1  0.255700  0.405100  0.263710  1.0  -0.021
  C  C45  1  0.210100  0.330070  0.223870  1.0  -0.1314
  C  C46  1  0.144400  0.276780  0.270140  1.0  0.1751
  C  C47  1  0.164800  0.364150  0.392370  1.0  0.1556
  C  C48  1  0.231800  0.421470  0.350000  1.0  -0.1415
  C  C49  1  0.874500  0.332950  0.311240  1.0  0.1434
  C  C50  1  0.877200  0.187880  0.257420  1.0  0.1521
  C  C51  1  0.804750  0.824030  0.377860  1.0  0.3243
  C  C52  1  0.731800  0.796870  0.310300  1.0  -0.032
  C  C53  1  0.693400  0.709060  0.306340  1.0  -0.1354
  C  C54  1  0.697300  0.859210  0.249400  1.0  -0.1348
  C  C55  1  0.173700  0.961800  0.286230  1.0  0.3278
  C  C56  1  0.244300  0.905100  0.236290  1.0  -0.021
  C  C57  1  0.289900  0.830070  0.276130  1.0  -0.1323
  C  C58  1  0.355600  0.776780  0.229860  1.0  0.1755
  C  C59  1  0.335200  0.864150  0.107630  1.0  0.156
  C  C60  1  0.268200  0.921470  0.150000  1.0  -0.1423
  C  C61  1  0.625500  0.832950  0.188760  1.0  0.1422
  C  C62  1  0.622800  0.687880  0.242580  1.0  0.1518
  C  C63  1  0.304750  0.675970  0.877860  1.0  0.324
  C  C64  1  0.231800  0.703130  0.810300  1.0  -0.032
  C  C65  1  0.193400  0.790940  0.806340  1.0  -0.1348
  C  C66  1  0.197300  0.640790  0.749400  1.0  -0.136
  C  C67  1  0.673700  0.538200  0.786230  1.0  0.328
  C  C68  1  0.744300  0.594900  0.736290  1.0  -0.021
  C  C69  1  0.789900  0.669930  0.776130  1.0  -0.133
  C  C70  1  0.855600  0.723220  0.729860  1.0  0.1749
  C  C71  1  0.835200  0.635850  0.607630  1.0  0.1557
  C  C72  1  0.768200  0.578530  0.650000  1.0  -0.1412
  C  C73  1  0.125500  0.667050  0.688760  1.0  0.1425
  C  C74  1  0.122800  0.812120  0.742580  1.0  0.1514
  C  C75  1  0.195250  0.175970  0.622140  1.0  0.3237
  C  C76  1  0.268200  0.203130  0.689700  1.0  -0.0328
  C  C77  1  0.306600  0.290940  0.693660  1.0  -0.1346
  C  C78  1  0.302700  0.140790  0.750600  1.0  -0.1349
  C  C79  1  0.826300  0.038200  0.713770  1.0  0.327
  C  C80  1  0.755700  0.094900  0.763710  1.0  -0.0208
  C  C81  1  0.710100  0.169930  0.723870  1.0  -0.1322
  C  C82  1  0.644400  0.223220  0.770140  1.0  0.1752
  C  C83  1  0.664800  0.135850  0.892370  1.0  0.1558
  C  C84  1  0.731800  0.078530  0.850000  1.0  -0.1406
  C  C85  1  0.374500  0.167050  0.811240  1.0  0.1436
  C  C86  1  0.377200  0.312120  0.757420  1.0  0.1533
  N  N87  1  0.594550  0.403180  0.047540  1.0  0.0143
  N  N88  1  0.602080  0.322370  0.010590  1.0  -0.0284
  N  N89  1  0.665410  0.270220  0.056520  1.0  -0.3541
  N  N90  1  0.652910  0.406710  0.118140  1.0  -0.3268
  N  N91  1  0.408780  0.374530  0.951200  1.0  -0.3695
  N  N92  1  0.324140  0.348560  0.965950  1.0  0.394
  N  N93  1  0.242400  0.324600  0.982400  1.0  -0.4267
  N  N94  1  0.425110  0.502250  0.114460  1.0  -0.0057
  N  N95  1  0.370290  0.431720  0.141630  1.0  -0.3259
  N  N96  1  0.414360  0.571960  0.167790  1.0  -0.1723
  N  N97  1  0.351490  0.548320  0.232140  1.0  -0.328
  N  N98  1  0.120800  0.292610  0.353660  1.0  -0.3391
  N  N99  1  0.912300  0.248920  0.314840  1.0  -0.2993
  N  N100  1  0.905450  0.903180  0.452460  1.0  0.0155
  N  N101  1  0.897920  0.822370  0.489410  1.0  -0.0278
  N  N102  1  0.834590  0.770220  0.443480  1.0  -0.3555
  N  N103  1  0.847090  0.906710  0.381860  1.0  -0.3298
  N  N104  1  0.091220  0.874530  0.548800  1.0  -0.3682
  N  N105  1  0.175860  0.848560  0.534050  1.0  0.3931
  N  N106  1  0.257600  0.824600  0.517600  1.0  -0.4285
  N  N107  1  0.074890  0.002250  0.385540  1.0  -0.006
  N  N108  1  0.129710  0.931720  0.358370  1.0  -0.3243
  N  N109  1  0.085640  0.071960  0.332210  1.0  -0.1738
  N  N110  1  0.148510  0.048320  0.267860  1.0  -0.3313
  N  N111  1  0.379200  0.792610  0.146340  1.0  -0.3403
  N  N112  1  0.587700  0.748920  0.185160  1.0  -0.3003
  N  N113  1  0.405450  0.596820  0.952460  1.0  0.016
  N  N114  1  0.397920  0.677630  0.989410  1.0  -0.0272
  N  N115  1  0.334590  0.729780  0.943480  1.0  -0.3557
  N  N116  1  0.347090  0.593290  0.881860  1.0  -0.3293
  N  N117  1  0.591220  0.625470  0.048800  1.0  -0.3683
  N  N118  1  0.675860  0.651440  0.034050  1.0  0.3928
  N  N119  1  0.757600  0.675400  0.017600  1.0  -0.4285
  N  N120  1  0.574890  0.497750  0.885540  1.0  -0.0058
  N  N121  1  0.629710  0.568280  0.858370  1.0  -0.3241
  N  N122  1  0.585640  0.428040  0.832210  1.0  -0.173
  N  N123  1  0.648510  0.451680  0.767860  1.0  -0.3307
  N  N124  1  0.879200  0.707390  0.646340  1.0  -0.3397
  N  N125  1  0.087700  0.751080  0.685160  1.0  -0.3001
  N  N126  1  0.094550  0.096820  0.547540  1.0  0.015
  N  N127  1  0.102080  0.177630  0.510590  1.0  -0.0282
  N  N128  1  0.165410  0.229780  0.556520  1.0  -0.3539
  N  N129  1  0.152910  0.093290  0.618140  1.0  -0.3268
  N  N130  1  0.908780  0.125470  0.451200  1.0  -0.3699
  N  N131  1  0.824140  0.151440  0.465950  1.0  0.3932
  N  N132  1  0.742400  0.175400  0.482400  1.0  -0.4265
  N  N133  1  0.925110  0.997750  0.614460  1.0  -0.0053
  N  N134  1  0.870290  0.068280  0.641630  1.0  -0.3255
  N  N135  1  0.914360  0.928040  0.667790  1.0  -0.1721
  N  N136  1  0.851490  0.951680  0.732140  1.0  -0.3284
  N  N137  1  0.620800  0.207390  0.853660  1.0  -0.3388
  N  N138  1  0.412300  0.251080  0.814840  1.0  -0.2991
