# generated using pymatgen
data_EuH3(CO)6
_symmetry_space_group_name_H-M   'P 1'
_cell_length_a   8.71400000
_cell_length_b   10.27500000
_cell_length_c   9.32500000
_cell_angle_alpha   85.16000000
_cell_angle_beta   63.81000000
_cell_angle_gamma   72.37000000
_symmetry_Int_Tables_number   1
_chemical_formula_structural   EuH3(CO)6
_chemical_formula_sum   'Eu2 H6 C12 O12'
_cell_volume   712.83307739
_cell_formula_units_Z   2
loop_
 _symmetry_equiv_pos_site_id
 _symmetry_equiv_pos_as_xyz
  1  'x, y, z'
loop_
 _atom_site_type_symbol
 _atom_site_label
 _atom_site_symmetry_multiplicity
 _atom_site_fract_x
 _atom_site_fract_y
 _atom_site_fract_z
 _atom_site_occupancy
 _atom_site_charge
  Eu  Eu1  1  0.756300  0.980900  0.000000  1.0  2.1363
  Eu  Eu2  1  0.243700  0.019100  0.000000  1.0  2.1348
  H  H3  1  0.157280  0.901460  0.417750  1.0  0.1247
  H  H4  1  0.408650  0.914070  0.572560  1.0  0.1334
  H  H5  1  0.878630  0.472660  0.930590  1.0  0.139
  H  H6  1  0.842720  0.098540  0.582250  1.0  0.1237
  H  H7  1  0.591350  0.085930  0.427440  1.0  0.1343
  H  H8  1  0.124490  0.523790  0.070110  1.0  0.14
  C  C9  1  0.438700  0.920200  0.272100  1.0  0.732
  C  C10  1  0.281600  0.911800  0.422500  1.0  -0.1476
  C  C11  1  0.281200  0.916000  0.564500  1.0  -0.1584
  C  C12  1  0.118100  0.923300  0.717900  1.0  0.7234
  C  C13  1  0.875800  0.688300  0.984100  1.0  0.7091
  C  C14  1  0.938500  0.533900  0.977000  1.0  -0.0766
  C  C15  1  0.561300  0.079800  0.727900  1.0  0.7311
  C  C16  1  0.718400  0.088200  0.577500  1.0  -0.1476
  C  C17  1  0.718800  0.084000  0.435500  1.0  -0.1589
  C  C18  1  0.881900  0.076700  0.282100  1.0  0.7229
  C  C19  1  0.124200  0.311700  0.015900  1.0  0.7018
  C  C20  1  0.061500  0.466100  0.023000  1.0  -0.0677
  O  O21  1  0.417000  0.954000  0.147300  1.0  -0.8549
  O  O22  1  0.590000  0.900000  0.270000  1.0  -0.6761
  O  O23  1  0.117800  0.957600  0.845300  1.0  -0.8562
  O  O24  1  0.983200  0.901600  0.719900  1.0  -0.6682
  O  O25  1  0.947700  0.756000  0.027000  1.0  -0.6316
  O  O26  1  0.750100  0.746700  0.944400  1.0  -0.6213
  O  O27  1  0.583000  0.046000  0.852700  1.0  -0.8522
  O  O28  1  0.410000  0.100000  0.730000  1.0  -0.6756
  O  O29  1  0.882200  0.042400  0.154700  1.0  -0.8557
  O  O30  1  0.016800  0.098400  0.280100  1.0  -0.67
  O  O31  1  0.052300  0.244000  0.973000  1.0  -0.6328
  O  O32  1  0.249900  0.253300  0.055600  1.0  -0.6351
