# generated using pymatgen
data_ErH3(CO)6
_symmetry_space_group_name_H-M   'P 1'
_cell_length_a   8.43800000
_cell_length_b   17.08100000
_cell_length_c   9.58500000
_cell_angle_alpha   90.00000000
_cell_angle_beta   111.72000000
_cell_angle_gamma   90.00000000
_symmetry_Int_Tables_number   1
_chemical_formula_structural   ErH3(CO)6
_chemical_formula_sum   'Er4 H12 C24 O24'
_cell_volume   1283.40065700
_cell_formula_units_Z   4
loop_
 _symmetry_equiv_pos_site_id
 _symmetry_equiv_pos_as_xyz
  1  'x, y, z'
loop_
 _atom_site_type_symbol
 _atom_site_label
 _atom_site_symmetry_multiplicity
 _atom_site_fract_x
 _atom_site_fract_y
 _atom_site_fract_z
 _atom_site_occupancy
 _atom_site_charge
  Er  Er1  1  0.663090  0.758000  0.978230  1.0  1.5776
  Er  Er2  1  0.336910  0.258000  0.521770  1.0  1.5769
  Er  Er3  1  0.336910  0.242000  0.021770  1.0  1.5805
  Er  Er4  1  0.663090  0.742000  0.478230  1.0  1.5803
  H  H5  1  0.114700  0.732600  0.582900  1.0  0.127
  H  H6  1  0.203100  0.675300  0.353700  1.0  0.1382
  H  H7  1  0.601000  0.480100  0.920800  1.0  0.1409
  H  H8  1  0.885300  0.232600  0.917100  1.0  0.1268
  H  H9  1  0.796900  0.175300  0.146300  1.0  0.1378
  H  H10  1  0.399000  0.980100  0.579200  1.0  0.1417
  H  H11  1  0.885300  0.267400  0.417100  1.0  0.1266
  H  H12  1  0.796900  0.324700  0.646300  1.0  0.1379
  H  H13  1  0.399000  0.519900  0.079200  1.0  0.1418
  H  H14  1  0.114700  0.767400  0.082900  1.0  0.1268
  H  H15  1  0.203100  0.824700  0.853700  1.0  0.1386
  H  H16  1  0.601000  0.019900  0.420800  1.0  0.1411
  C  C17  1  0.377500  0.713400  0.636000  1.0  0.8009
  C  C18  1  0.191000  0.716300  0.539400  1.0  -0.1448
  C  C19  1  0.129800  0.696800  0.395900  1.0  -0.1442
  C  C20  1  0.946300  0.708200  0.299300  1.0  0.8071
  C  C21  1  0.597700  0.598600  0.974900  1.0  0.7485
  C  C22  1  0.552900  0.514400  0.969400  1.0  -0.2016
  C  C23  1  0.622500  0.213400  0.864000  1.0  0.8013
  C  C24  1  0.809000  0.216300  0.960600  1.0  -0.145
  C  C25  1  0.870200  0.196800  0.104100  1.0  -0.1449
  C  C26  1  0.053700  0.208200  0.200700  1.0  0.8094
  C  C27  1  0.402300  0.098600  0.525100  1.0  0.7493
  C  C28  1  0.447100  0.014400  0.530600  1.0  -0.203
  C  C29  1  0.622500  0.286600  0.364000  1.0  0.8042
  C  C30  1  0.809000  0.283700  0.460600  1.0  -0.1439
  C  C31  1  0.870200  0.303200  0.604100  1.0  -0.1443
  C  C32  1  0.053700  0.291800  0.700700  1.0  0.8099
  C  C33  1  0.402300  0.401400  0.025100  1.0  0.7498
  C  C34  1  0.447100  0.485600  0.030600  1.0  -0.2034
  C  C35  1  0.377500  0.786600  0.136000  1.0  0.8039
  C  C36  1  0.191000  0.783700  0.039400  1.0  -0.1446
  C  C37  1  0.129800  0.803200  0.895900  1.0  -0.1436
  C  C38  1  0.946300  0.791800  0.799300  1.0  0.8077
  C  C39  1  0.597700  0.901400  0.474900  1.0  0.7492
  C  C40  1  0.552900  0.985600  0.469400  1.0  -0.2033
  O  O41  1  0.414900  0.732600  0.771900  1.0  -0.6309
  O  O42  1  0.481500  0.692200  0.578400  1.0  -0.6765
  O  O43  1  0.842300  0.727800  0.359400  1.0  -0.7577
  O  O44  1  0.905800  0.700300  0.159300  1.0  -0.6458
  O  O45  1  0.688800  0.622500  0.904800  1.0  -0.5484
  O  O46  1  0.541700  0.646300  0.049100  1.0  -0.5913
  O  O47  1  0.585100  0.232600  0.728100  1.0  -0.6306
  O  O48  1  0.518500  0.192200  0.921600  1.0  -0.6775
  O  O49  1  0.157700  0.227800  0.140600  1.0  -0.7579
  O  O50  1  0.094200  0.200300  0.340700  1.0  -0.6473
  O  O51  1  0.311200  0.122500  0.595200  1.0  -0.5457
  O  O52  1  0.458300  0.146300  0.450900  1.0  -0.593
  O  O53  1  0.585100  0.267400  0.228100  1.0  -0.6312
  O  O54  1  0.518500  0.307800  0.421600  1.0  -0.6789
  O  O55  1  0.157700  0.272200  0.640600  1.0  -0.7581
  O  O56  1  0.094200  0.299700  0.840700  1.0  -0.6477
  O  O57  1  0.311200  0.377500  0.095200  1.0  -0.546
  O  O58  1  0.458300  0.353700  0.950900  1.0  -0.5949
  O  O59  1  0.414900  0.767400  0.271900  1.0  -0.6314
  O  O60  1  0.481500  0.807800  0.078400  1.0  -0.6783
  O  O61  1  0.842300  0.772200  0.859400  1.0  -0.758
  O  O62  1  0.905800  0.799700  0.659300  1.0  -0.6454
  O  O63  1  0.688800  0.877500  0.404800  1.0  -0.5483
  O  O64  1  0.541700  0.853700  0.549100  1.0  -0.5942
