# generated using pymatgen
data_ErH3(CO)6
_symmetry_space_group_name_H-M   'P 1'
_cell_length_a   8.47800000
_cell_length_b   9.69500000
_cell_length_c   17.24300000
_cell_angle_alpha   90.00000000
_cell_angle_beta   90.00000000
_cell_angle_gamma   112.28000000
_symmetry_Int_Tables_number   1
_chemical_formula_structural   ErH3(CO)6
_chemical_formula_sum   'Er4 H12 C24 O24'
_cell_volume   1311.46402988
_cell_formula_units_Z   4
loop_
 _symmetry_equiv_pos_site_id
 _symmetry_equiv_pos_as_xyz
  1  'x, y, z'
loop_
 _atom_site_type_symbol
 _atom_site_label
 _atom_site_symmetry_multiplicity
 _atom_site_fract_x
 _atom_site_fract_y
 _atom_site_fract_z
 _atom_site_occupancy
 _atom_site_charge
  Er  Er1  1  0.843300  0.023500  0.257400  1.0  1.5559
  Er  Er2  1  0.156700  0.476500  0.757400  1.0  1.5561
  Er  Er3  1  0.156700  0.976500  0.742600  1.0  1.5555
  Er  Er4  1  0.843300  0.523500  0.242600  1.0  1.5555
  H  H5  1  0.885810  0.086430  0.972150  1.0  0.1643
  H  H6  1  0.286910  0.153510  0.326980  1.0  0.1598
  H  H7  1  0.399830  0.902580  0.263350  1.0  0.1516
  H  H8  1  0.114190  0.413570  0.472150  1.0  0.1636
  H  H9  1  0.713090  0.346490  0.826980  1.0  0.1588
  H  H10  1  0.600170  0.597420  0.763350  1.0  0.1516
  H  H11  1  0.114190  0.913570  0.027850  1.0  0.1631
  H  H12  1  0.713090  0.846490  0.673020  1.0  0.1598
  H  H13  1  0.592670  0.089990  0.736170  1.0  0.1513
  H  H14  1  0.883200  0.587410  0.525970  1.0  0.1703
  H  H15  1  0.286910  0.653510  0.173020  1.0  0.1609
  H  H16  1  0.399830  0.402580  0.236650  1.0  0.1514
  C  C17  1  0.904400  0.024300  0.097900  1.0  0.7219
  C  C18  1  0.945700  0.030100  0.014500  1.0  -0.1548
  C  C19  1  0.562500  0.199400  0.288600  1.0  0.7444
  C  C20  1  0.376700  0.103100  0.301100  1.0  -0.169
  C  C21  1  0.312300  0.960600  0.283100  1.0  -0.1336
  C  C22  1  0.128800  0.367000  0.213300  1.0  0.7984
  C  C23  1  0.095600  0.475700  0.597900  1.0  0.7224
  C  C24  1  0.054300  0.469900  0.514500  1.0  -0.1494
  C  C25  1  0.437500  0.300600  0.788600  1.0  0.7447
  C  C26  1  0.623300  0.396900  0.801100  1.0  -0.1675
  C  C27  1  0.687700  0.539400  0.783100  1.0  -0.1312
  C  C28  1  0.871200  0.133000  0.713300  1.0  0.8015
  C  C29  1  0.095600  0.975700  0.902100  1.0  0.7239
  C  C30  1  0.054300  0.969900  0.985500  1.0  -0.1543
  C  C31  1  0.437500  0.800600  0.711400  1.0  0.7614
  C  C32  1  0.623300  0.896900  0.698900  1.0  -0.1594
  C  C33  1  0.687700  0.039400  0.716900  1.0  -0.1369
  C  C34  1  0.871200  0.633000  0.786700  1.0  0.8006
  C  C35  1  0.904400  0.524300  0.402100  1.0  0.7143
  C  C36  1  0.945700  0.530100  0.485500  1.0  -0.1474
  C  C37  1  0.562500  0.699400  0.211400  1.0  0.7449
  C  C38  1  0.376700  0.603100  0.198900  1.0  -0.1703
  C  C39  1  0.312300  0.460600  0.216900  1.0  -0.1329
  C  C40  1  0.128800  0.867000  0.286700  1.0  0.7989
  O  O41  1  0.963100  0.954500  0.145100  1.0  -0.6113
  O  O42  1  0.814000  0.090700  0.121700  1.0  -0.5963
  O  O43  1  0.664400  0.137400  0.269900  1.0  -0.7352
  O  O44  1  0.602000  0.336900  0.296500  1.0  -0.5855
  O  O45  1  0.024600  0.424400  0.192400  1.0  -0.6899
  O  O46  1  0.082600  0.231400  0.231600  1.0  -0.6493
  O  O47  1  0.036900  0.545500  0.645100  1.0  -0.6085
  O  O48  1  0.186000  0.409300  0.621700  1.0  -0.5964
  O  O49  1  0.335600  0.362600  0.769900  1.0  -0.7339
  O  O50  1  0.398000  0.163100  0.796500  1.0  -0.5837
  O  O51  1  0.975400  0.075600  0.692400  1.0  -0.6907
  O  O52  1  0.917400  0.268600  0.731600  1.0  -0.6381
  O  O53  1  0.036900  0.045500  0.854900  1.0  -0.6091
  O  O54  1  0.186000  0.909300  0.878300  1.0  -0.5976
  O  O55  1  0.335600  0.862600  0.730100  1.0  -0.6842
  O  O56  1  0.398000  0.663100  0.703500  1.0  -0.5857
  O  O57  1  0.975400  0.575600  0.807600  1.0  -0.6885
  O  O58  1  0.917400  0.768600  0.768400  1.0  -0.649
  O  O59  1  0.963100  0.454500  0.354900  1.0  -0.611
  O  O60  1  0.814000  0.590700  0.378300  1.0  -0.5963
  O  O61  1  0.664400  0.637400  0.230100  1.0  -0.7348
  O  O62  1  0.602000  0.836900  0.203500  1.0  -0.5855
  O  O63  1  0.024600  0.924400  0.307600  1.0  -0.6902
  O  O64  1  0.082600  0.731400  0.268400  1.0  -0.6496
