# generated using pymatgen
data_LuH3(CO)6
_symmetry_space_group_name_H-M   'P 1'
_cell_length_a   8.42600000
_cell_length_b   9.62900000
_cell_length_c   17.15900000
_cell_angle_alpha   90.00000000
_cell_angle_beta   90.00000000
_cell_angle_gamma   112.14000000
_symmetry_Int_Tables_number   1
_chemical_formula_structural   LuH3(CO)6
_chemical_formula_sum   'Lu4 H12 C24 O24'
_cell_volume   1289.52635305
_cell_formula_units_Z   4
loop_
 _symmetry_equiv_pos_site_id
 _symmetry_equiv_pos_as_xyz
  1  'x, y, z'
loop_
 _atom_site_type_symbol
 _atom_site_label
 _atom_site_symmetry_multiplicity
 _atom_site_fract_x
 _atom_site_fract_y
 _atom_site_fract_z
 _atom_site_occupancy
 _atom_site_charge
  Lu  Lu1  1  0.844200  0.025600  0.257100  1.0  1.9337
  Lu  Lu2  1  0.155800  0.474400  0.757100  1.0  1.9336
  Lu  Lu3  1  0.155800  0.974400  0.742900  1.0  1.9338
  Lu  Lu4  1  0.844200  0.525600  0.242900  1.0  1.9336
  H  H5  1  0.889960  0.096570  0.973390  1.0  0.1444
  H  H6  1  0.288420  0.155960  0.325510  1.0  0.1259
  H  H7  1  0.399790  0.898600  0.263540  1.0  0.1229
  H  H8  1  0.110040  0.403430  0.473390  1.0  0.1435
  H  H9  1  0.711580  0.344040  0.825510  1.0  0.1275
  H  H10  1  0.600210  0.601400  0.763540  1.0  0.123
  H  H11  1  0.110040  0.903430  0.026610  1.0  0.1428
  H  H12  1  0.711580  0.844040  0.674490  1.0  0.1306
  H  H13  1  0.592170  0.093440  0.735940  1.0  0.1144
  H  H14  1  0.890290  0.596430  0.526860  1.0  0.1455
  H  H15  1  0.288420  0.655960  0.174490  1.0  0.1306
  H  H16  1  0.399790  0.398600  0.236460  1.0  0.1224
  C  C17  1  0.906700  0.025800  0.098400  1.0  0.684
  C  C18  1  0.946600  0.034200  0.014400  1.0  -0.1944
  C  C19  1  0.563400  0.196400  0.288900  1.0  0.7833
  C  C20  1  0.377900  0.103100  0.300600  1.0  -0.2114
  C  C21  1  0.312000  0.957900  0.282700  1.0  -0.1803
  C  C22  1  0.127800  0.364300  0.214200  1.0  0.817
  C  C23  1  0.093300  0.474200  0.598400  1.0  0.7024
  C  C24  1  0.053400  0.465800  0.514400  1.0  -0.1959
  C  C25  1  0.436600  0.303600  0.788900  1.0  0.782
  C  C26  1  0.622100  0.396900  0.800600  1.0  -0.2125
  C  C27  1  0.688000  0.542100  0.782700  1.0  -0.1772
  C  C28  1  0.872200  0.135700  0.714200  1.0  0.8074
  C  C29  1  0.093300  0.974200  0.901600  1.0  0.6846
  C  C30  1  0.053400  0.965800  0.985600  1.0  -0.1965
  C  C31  1  0.436600  0.803600  0.711100  1.0  0.7846
  C  C32  1  0.622100  0.896900  0.699400  1.0  -0.2044
  C  C33  1  0.688000  0.042100  0.717300  1.0  -0.1484
  C  C34  1  0.872200  0.635700  0.785800  1.0  0.8175
  C  C35  1  0.906700  0.525800  0.401600  1.0  0.6862
  C  C36  1  0.946600  0.534200  0.485600  1.0  -0.1908
  C  C37  1  0.563400  0.696400  0.211100  1.0  0.7827
  C  C38  1  0.377900  0.603100  0.199400  1.0  -0.212
  C  C39  1  0.312000  0.457900  0.217300  1.0  -0.1793
  C  C40  1  0.127800  0.864300  0.285800  1.0  0.8173
  O  O41  1  0.965700  0.954200  0.145300  1.0  -0.6581
  O  O42  1  0.813500  0.092800  0.123300  1.0  -0.6215
  O  O43  1  0.662500  0.134900  0.269600  1.0  -0.7287
  O  O44  1  0.606900  0.335500  0.296300  1.0  -0.6395
  O  O45  1  0.022400  0.423900  0.194700  1.0  -0.7365
  O  O46  1  0.085400  0.230100  0.231200  1.0  -0.6591
  O  O47  1  0.034300  0.545800  0.645300  1.0  -0.6541
  O  O48  1  0.186500  0.407200  0.623300  1.0  -0.6217
  O  O49  1  0.337500  0.365100  0.769600  1.0  -0.7285
  O  O50  1  0.393100  0.164500  0.796300  1.0  -0.639
  O  O51  1  0.977600  0.076100  0.694700  1.0  -0.7381
  O  O52  1  0.914600  0.269900  0.731200  1.0  -0.6559
  O  O53  1  0.034300  0.045800  0.854700  1.0  -0.6534
  O  O54  1  0.186500  0.907200  0.876700  1.0  -0.621
  O  O55  1  0.337500  0.865100  0.730400  1.0  -0.7217
  O  O56  1  0.393100  0.664500  0.703700  1.0  -0.6397
  O  O57  1  0.977600  0.576100  0.805300  1.0  -0.7357
  O  O58  1  0.914600  0.769900  0.768800  1.0  -0.6598
  O  O59  1  0.965700  0.454200  0.354700  1.0  -0.6572
  O  O60  1  0.813500  0.592800  0.376700  1.0  -0.6205
  O  O61  1  0.662500  0.634900  0.230400  1.0  -0.7288
  O  O62  1  0.606900  0.835500  0.203700  1.0  -0.6393
  O  O63  1  0.022400  0.923900  0.305300  1.0  -0.7365
  O  O64  1  0.085400  0.730100  0.268800  1.0  -0.66
