# generated using pymatgen
data_YH3(CO)6
_symmetry_space_group_name_H-M   'P 1'
_cell_length_a   8.48600000
_cell_length_b   9.73700000
_cell_length_c   17.27100000
_cell_angle_alpha   90.00000000
_cell_angle_beta   90.00000000
_cell_angle_gamma   112.25000000
_symmetry_Int_Tables_number   1
_chemical_formula_structural   YH3(CO)6
_chemical_formula_sum   'Y4 H12 C24 O24'
_cell_volume   1320.81231926
_cell_formula_units_Z   4
loop_
 _symmetry_equiv_pos_site_id
 _symmetry_equiv_pos_as_xyz
  1  'x, y, z'
loop_
 _atom_site_type_symbol
 _atom_site_label
 _atom_site_symmetry_multiplicity
 _atom_site_fract_x
 _atom_site_fract_y
 _atom_site_fract_z
 _atom_site_occupancy
 _atom_site_charge
  Y  Y1  1  0.844000  0.024500  0.257500  1.0  2.0712
  Y  Y2  1  0.156000  0.475500  0.757500  1.0  2.0709
  Y  Y3  1  0.156000  0.975500  0.742500  1.0  2.0687
  Y  Y4  1  0.844000  0.524500  0.242500  1.0  2.0695
  H  H5  1  0.886680  0.083010  0.971310  1.0  0.1272
  H  H6  1  0.290150  0.657380  0.173740  1.0  0.1372
  H  H7  1  0.407270  0.909080  0.262980  1.0  0.1268
  H  H8  1  0.113320  0.416990  0.471310  1.0  0.1252
  H  H9  1  0.709850  0.842620  0.673740  1.0  0.1371
  H  H10  1  0.592730  0.590920  0.762980  1.0  0.1268
  H  H11  1  0.113320  0.916990  0.028690  1.0  0.1274
  H  H12  1  0.705940  0.338760  0.826390  1.0  0.1361
  H  H13  1  0.599450  0.097530  0.737450  1.0  0.1234
  H  H14  1  0.881900  0.584790  0.525270  1.0  0.1311
  H  H15  1  0.294060  0.161240  0.326390  1.0  0.1357
  H  H16  1  0.400550  0.402470  0.237450  1.0  0.1237
  C  C17  1  0.903700  0.025000  0.097800  1.0  0.7026
  C  C18  1  0.946500  0.028700  0.014600  1.0  -0.1832
  C  C19  1  0.560800  0.698200  0.210600  1.0  0.7783
  C  C20  1  0.379400  0.606100  0.199000  1.0  -0.2095
  C  C21  1  0.313200  0.960200  0.282500  1.0  -0.1754
  C  C22  1  0.127300  0.866700  0.286600  1.0  0.8232
  C  C23  1  0.096300  0.475000  0.597800  1.0  0.7011
  C  C24  1  0.053500  0.471300  0.514600  1.0  -0.1702
  C  C25  1  0.439200  0.801800  0.710600  1.0  0.7882
  C  C26  1  0.620600  0.893900  0.699000  1.0  -0.2079
  C  C27  1  0.686800  0.539800  0.782500  1.0  -0.1712
  C  C28  1  0.872700  0.633300  0.786600  1.0  0.827
  C  C29  1  0.096300  0.975000  0.902200  1.0  0.7029
  C  C30  1  0.053500  0.971300  0.985400  1.0  -0.1841
  C  C31  1  0.439200  0.301800  0.789400  1.0  0.7979
  C  C32  1  0.620600  0.393900  0.801000  1.0  -0.2186
  C  C33  1  0.686800  0.039800  0.717500  1.0  -0.1754
  C  C34  1  0.872700  0.133300  0.713400  1.0  0.8251
  C  C35  1  0.903700  0.525000  0.402200  1.0  0.7001
  C  C36  1  0.946500  0.528700  0.485400  1.0  -0.1954
  C  C37  1  0.560800  0.198200  0.289400  1.0  0.7985
  C  C38  1  0.379400  0.106100  0.301000  1.0  -0.2214
  C  C39  1  0.313200  0.460200  0.217500  1.0  -0.1789
  C  C40  1  0.127300  0.366700  0.213400  1.0  0.8207
  O  O41  1  0.964000  0.953900  0.144600  1.0  -0.6994
  O  O42  1  0.813600  0.090700  0.121500  1.0  -0.6154
  O  O43  1  0.663700  0.639800  0.229000  1.0  -0.7813
  O  O44  1  0.603100  0.837800  0.203200  1.0  -0.6704
  O  O45  1  0.024600  0.924700  0.304800  1.0  -0.7528
  O  O46  1  0.088700  0.733000  0.268800  1.0  -0.7012
  O  O47  1  0.036000  0.546100  0.644600  1.0  -0.6399
  O  O48  1  0.186400  0.409300  0.621500  1.0  -0.6156
  O  O49  1  0.336300  0.860200  0.729000  1.0  -0.7644
  O  O50  1  0.396900  0.662200  0.703200  1.0  -0.6694
  O  O51  1  0.975400  0.575300  0.804800  1.0  -0.7517
  O  O52  1  0.911300  0.767000  0.768800  1.0  -0.7019
  O  O53  1  0.036000  0.046100  0.855400  1.0  -0.6993
  O  O54  1  0.186400  0.909300  0.878500  1.0  -0.6139
  O  O55  1  0.336300  0.360200  0.771000  1.0  -0.7829
  O  O56  1  0.396900  0.162200  0.796800  1.0  -0.6699
  O  O57  1  0.975400  0.075300  0.695200  1.0  -0.7536
  O  O58  1  0.911300  0.267000  0.731200  1.0  -0.7041
  O  O59  1  0.964000  0.453900  0.355400  1.0  -0.699
  O  O60  1  0.813600  0.590700  0.378500  1.0  -0.6178
  O  O61  1  0.663700  0.139800  0.271000  1.0  -0.781
  O  O62  1  0.603100  0.337800  0.296800  1.0  -0.6706
  O  O63  1  0.024600  0.424700  0.195200  1.0  -0.7537
  O  O64  1  0.088700  0.233000  0.231200  1.0  -0.7032
