# generated using pymatgen
data_TbH3(CO)6
_symmetry_space_group_name_H-M   'P 1'
_cell_length_a   8.52300000
_cell_length_b   9.76400000
_cell_length_c   17.31400000
_cell_angle_alpha   90.00000000
_cell_angle_beta   90.00000000
_cell_angle_gamma   112.25000000
_symmetry_Int_Tables_number   1
_chemical_formula_structural   TbH3(CO)6
_chemical_formula_sum   'Tb4 H12 C24 O24'
_cell_volume   1333.56166218
_cell_formula_units_Z   4
loop_
 _symmetry_equiv_pos_site_id
 _symmetry_equiv_pos_as_xyz
  1  'x, y, z'
loop_
 _atom_site_type_symbol
 _atom_site_label
 _atom_site_symmetry_multiplicity
 _atom_site_fract_x
 _atom_site_fract_y
 _atom_site_fract_z
 _atom_site_occupancy
 _atom_site_charge
  Tb  Tb1  1  0.843100  0.026000  0.257700  1.0  2.2405
  Tb  Tb2  1  0.156900  0.474000  0.757700  1.0  2.2404
  Tb  Tb3  1  0.156900  0.974000  0.742300  1.0  2.2392
  Tb  Tb4  1  0.843100  0.526000  0.242300  1.0  2.2398
  H  H5  1  0.883370  0.080700  0.970790  1.0  0.1112
  H  H6  1  0.283870  0.154330  0.327430  1.0  0.1159
  H  H7  1  0.403330  0.907220  0.263840  1.0  0.0977
  H  H8  1  0.116630  0.419300  0.470790  1.0  0.111
  H  H9  1  0.716130  0.345670  0.827430  1.0  0.1153
  H  H10  1  0.596670  0.592780  0.763840  1.0  0.0976
  H  H11  1  0.116630  0.919300  0.029210  1.0  0.1108
  H  H12  1  0.716130  0.845670  0.672570  1.0  0.1165
  H  H13  1  0.596670  0.092780  0.736160  1.0  0.0975
  H  H14  1  0.882360  0.581060  0.528510  1.0  0.1113
  H  H15  1  0.283870  0.654330  0.172570  1.0  0.1166
  H  H16  1  0.403330  0.407220  0.236160  1.0  0.0973
  C  C17  1  0.905900  0.022900  0.097500  1.0  0.6511
  C  C18  1  0.946300  0.027900  0.013100  1.0  -0.1835
  C  C19  1  0.557700  0.201800  0.289700  1.0  0.7351
  C  C20  1  0.374400  0.105400  0.301800  1.0  -0.1981
  C  C21  1  0.313400  0.962200  0.283200  1.0  -0.2067
  C  C22  1  0.129700  0.868300  0.286500  1.0  0.789
  C  C23  1  0.094100  0.477100  0.597500  1.0  0.6514
  C  C24  1  0.053700  0.472100  0.513100  1.0  -0.1795
  C  C25  1  0.442300  0.298200  0.789700  1.0  0.7351
  C  C26  1  0.625600  0.394600  0.801800  1.0  -0.1955
  C  C27  1  0.686600  0.537800  0.783200  1.0  -0.2051
  C  C28  1  0.870300  0.631700  0.786500  1.0  0.7913
  C  C29  1  0.094100  0.977100  0.902500  1.0  0.6512
  C  C30  1  0.053700  0.972100  0.986900  1.0  -0.1853
  C  C31  1  0.442300  0.798200  0.710300  1.0  0.7353
  C  C32  1  0.625600  0.894600  0.698200  1.0  -0.1977
  C  C33  1  0.686600  0.037800  0.716800  1.0  -0.2041
  C  C34  1  0.870300  0.131700  0.713500  1.0  0.7909
  C  C35  1  0.905900  0.522900  0.402500  1.0  0.6521
  C  C36  1  0.946300  0.527900  0.486900  1.0  -0.1814
  C  C37  1  0.557700  0.701800  0.210300  1.0  0.7352
  C  C38  1  0.374400  0.605400  0.198200  1.0  -0.1997
  C  C39  1  0.313400  0.462200  0.216800  1.0  -0.2062
  C  C40  1  0.129700  0.368300  0.213500  1.0  0.7888
  O  O41  1  0.964400  0.956100  0.144100  1.0  -0.6776
  O  O42  1  0.813700  0.091900  0.120400  1.0  -0.6439
  O  O43  1  0.661100  0.145200  0.270300  1.0  -0.7654
  O  O44  1  0.598500  0.339300  0.296700  1.0  -0.6504
  O  O45  1  0.023500  0.923800  0.305200  1.0  -0.7379
  O  O46  1  0.089800  0.734900  0.269500  1.0  -0.6809
  O  O47  1  0.035600  0.543900  0.644100  1.0  -0.6774
  O  O48  1  0.186300  0.408100  0.620400  1.0  -0.6368
  O  O49  1  0.338900  0.354800  0.770300  1.0  -0.7676
  O  O50  1  0.401500  0.160700  0.796700  1.0  -0.6504
  O  O51  1  0.976500  0.576200  0.805200  1.0  -0.7369
  O  O52  1  0.910200  0.765100  0.769500  1.0  -0.6802
  O  O53  1  0.035600  0.043900  0.855900  1.0  -0.6794
  O  O54  1  0.186300  0.908100  0.879600  1.0  -0.6433
  O  O55  1  0.338900  0.854800  0.729700  1.0  -0.7678
  O  O56  1  0.401500  0.660700  0.703300  1.0  -0.65
  O  O57  1  0.976500  0.076200  0.694800  1.0  -0.7398
  O  O58  1  0.910200  0.265100  0.730500  1.0  -0.6798
  O  O59  1  0.964400  0.456100  0.355900  1.0  -0.6799
  O  O60  1  0.813700  0.591900  0.379600  1.0  -0.6417
  O  O61  1  0.661100  0.645200  0.229700  1.0  -0.7653
  O  O62  1  0.598500  0.839300  0.203300  1.0  -0.6507
  O  O63  1  0.023500  0.423800  0.194800  1.0  -0.7387
  O  O64  1  0.089800  0.234900  0.230500  1.0  -0.6804
