# generated using pymatgen
data_Cu2H24C19(NO)6
_symmetry_space_group_name_H-M   'P 1'
_cell_length_a   13.01400000
_cell_length_b   14.39400000
_cell_length_c   16.30600000
_cell_angle_alpha   90.00000000
_cell_angle_beta   90.00000000
_cell_angle_gamma   90.00000000
_symmetry_Int_Tables_number   1
_chemical_formula_structural   Cu2H24C19(NO)6
_chemical_formula_sum   'Cu8 H96 C76 N24 O24'
_cell_volume   3054.49725190
_cell_formula_units_Z   4
loop_
 _symmetry_equiv_pos_site_id
 _symmetry_equiv_pos_as_xyz
  1  'x, y, z'
loop_
 _atom_site_type_symbol
 _atom_site_label
 _atom_site_symmetry_multiplicity
 _atom_site_fract_x
 _atom_site_fract_y
 _atom_site_fract_z
 _atom_site_occupancy
 _atom_site_charge
  Cu  Cu1  1  0.209820  0.705640  0.160470  1.0  0.8149
  Cu  Cu2  1  0.939930  0.962990  0.085860  1.0  0.8031
  Cu  Cu3  1  0.790180  0.205640  0.339530  1.0  0.8137
  Cu  Cu4  1  0.290180  0.294360  0.660470  1.0  0.8131
  Cu  Cu5  1  0.560070  0.037010  0.585860  1.0  0.8039
  Cu  Cu6  1  0.709820  0.794360  0.839530  1.0  0.8142
  Cu  Cu7  1  0.060070  0.462990  0.414140  1.0  0.8038
  Cu  Cu8  1  0.439930  0.537010  0.914140  1.0  0.8039
  H  H9  1  0.545800  0.755100  0.560100  1.0  0.1128
  H  H10  1  0.920800  0.082700  0.738800  1.0  0.1093
  H  H11  1  0.401800  0.582800  0.472400  1.0  0.103
  H  H12  1  0.432200  0.192200  0.088800  1.0  0.1256
  H  H13  1  0.567800  0.692200  0.411200  1.0  0.1249
  H  H14  1  0.997900  0.654100  0.974400  1.0  0.1002
  H  H15  1  0.877500  0.964300  0.907300  1.0  0.3015
  H  H16  1  0.045800  0.744900  0.439900  1.0  0.1125
  H  H17  1  0.438800  0.418400  0.525400  1.0  0.1112
  H  H18  1  0.002100  0.154100  0.525600  1.0  0.1024
  H  H19  1  0.420800  0.417300  0.261200  1.0  0.1108
  H  H20  1  0.227300  0.635300  0.334600  1.0  0.3047
  H  H21  1  0.901700  0.273200  0.823700  1.0  0.1324
  H  H22  1  0.158000  0.508700  0.729300  1.0  0.1155
  H  H23  1  0.076100  0.588100  0.930100  1.0  0.1011
  H  H24  1  0.401700  0.226800  0.176300  1.0  0.1321
  H  H25  1  0.860400  0.820200  0.498900  1.0  0.1337
  H  H26  1  0.582700  0.084700  0.871600  1.0  0.0934
  H  H27  1  0.502100  0.345900  0.474400  1.0  0.1017
  H  H28  1  0.917300  0.915300  0.371600  1.0  0.094
  H  H29  1  0.122500  0.464300  0.592700  1.0  0.3012
  H  H30  1  0.981800  0.672700  0.805500  1.0  0.1303
  H  H31  1  0.525200  0.168300  0.830500  1.0  0.0998
  H  H32  1  0.061200  0.581600  0.025400  1.0  0.1113
  H  H33  1  0.521400  0.728000  0.170800  1.0  0.1191
  H  H34  1  0.901800  0.917200  0.527600  1.0  0.1022
  H  H35  1  0.453300  0.026900  0.783100  1.0  0.097
  H  H36  1  0.727300  0.864700  0.665400  1.0  0.3036
  H  H37  1  0.272700  0.364700  0.834600  1.0  0.3041
  H  H38  1  0.500600  0.346000  0.902100  1.0  0.1251
  H  H39  1  0.478600  0.228000  0.329200  1.0  0.1207
  H  H40  1  0.098300  0.773200  0.676300  1.0  0.1313
  H  H41  1  0.082700  0.415300  0.128400  1.0  0.0936
  H  H42  1  0.308800  0.387100  0.238100  1.0  0.1231
  H  H43  1  0.417300  0.584700  0.628400  1.0  0.0947
  H  H44  1  0.018200  0.172700  0.694500  1.0  0.1299
  H  H45  1  0.342000  0.491300  0.229300  1.0  0.1149
  H  H46  1  0.067800  0.807800  0.588800  1.0  0.1242
  H  H47  1  0.546700  0.526900  0.716900  1.0  0.0972
  H  H48  1  0.499400  0.846000  0.597900  1.0  0.1256
  H  H49  1  0.923900  0.088100  0.569900  1.0  0.1011
  H  H50  1  0.366400  0.638000  0.701700  1.0  0.1185
  H  H51  1  0.216200  0.395800  0.968700  1.0  0.1135
  H  H52  1  0.283800  0.604200  0.468700  1.0  0.1142
  H  H53  1  0.934700  0.713100  0.464200  1.0  0.1315
  H  H54  1  0.691200  0.887100  0.261900  1.0  0.1227
  H  H55  1  0.083600  0.235900  0.636200  1.0  0.1204
  H  H56  1  0.474800  0.668300  0.669500  1.0  0.0985
  H  H57  1  0.025200  0.331700  0.169500  1.0  0.0992
  H  H58  1  0.360400  0.679800  0.501100  1.0  0.1319
  H  H59  1  0.454200  0.255100  0.939900  1.0  0.1127
  H  H60  1  0.079200  0.582700  0.761200  1.0  0.1107
  H  H61  1  0.133600  0.362000  0.201700  1.0  0.1197
  H  H62  1  0.842000  0.008700  0.770700  1.0  0.1145
  H  H63  1  0.649300  0.761500  0.054500  1.0  0.0949
  H  H64  1  0.579200  0.917300  0.238800  1.0  0.1109
  H  H65  1  0.633600  0.138000  0.798300  1.0  0.119
  H  H66  1  0.598300  0.726800  0.323700  1.0  0.131
  H  H67  1  0.191200  0.612900  0.738100  1.0  0.1234
  H  H68  1  0.434700  0.786900  0.535800  1.0  0.1329
  H  H69  1  0.021400  0.772000  0.829200  1.0  0.1213
  H  H70  1  0.576100  0.911900  0.069900  1.0  0.1011
  H  H71  1  0.583600  0.264100  0.363800  1.0  0.1209
  H  H72  1  0.978600  0.272000  0.670800  1.0  0.121
  H  H73  1  0.658000  0.991300  0.270700  1.0  0.1157
  H  H74  1  0.639600  0.179800  0.998900  1.0  0.1296
  H  H75  1  0.953300  0.473100  0.216900  1.0  0.0973
  H  H76  1  0.622500  0.035700  0.407300  1.0  0.3031
  H  H77  1  0.416400  0.764100  0.136200  1.0  0.1203
  H  H78  1  0.916400  0.735900  0.863800  1.0  0.1203
  H  H79  1  0.518200  0.327300  0.305500  1.0  0.129
  H  H80  1  0.565300  0.286900  0.964200  1.0  0.1303
  H  H81  1  0.561200  0.918400  0.974600  1.0  0.1107
  H  H82  1  0.377500  0.535700  0.092700  1.0  0.3021
  H  H83  1  0.000600  0.154000  0.097900  1.0  0.1248
  H  H84  1  0.999400  0.654000  0.402100  1.0  0.126
  H  H85  1  0.481800  0.827300  0.194500  1.0  0.1299
  H  H86  1  0.139600  0.320200  0.001100  1.0  0.1313
  H  H87  1  0.808800  0.112900  0.761900  1.0  0.1232
  H  H88  1  0.974800  0.831700  0.330500  1.0  0.0988
  H  H89  1  0.866400  0.862000  0.298300  1.0  0.1181
  H  H90  1  0.065300  0.213100  0.035800  1.0  0.1289
  H  H91  1  0.850700  0.238500  0.554500  1.0  0.0947
  H  H92  1  0.046700  0.973100  0.283100  1.0  0.0968
  H  H93  1  0.149300  0.738500  0.945500  1.0  0.0938
  H  H94  1  0.783800  0.895800  0.531300  1.0  0.1139
  H  H95  1  0.497900  0.845900  0.025600  1.0  0.1003
  H  H96  1  0.350700  0.261500  0.445500  1.0  0.0942
  H  H97  1  0.932200  0.307800  0.911200  1.0  0.1245
  H  H98  1  0.423900  0.411900  0.430100  1.0  0.1015
  H  H99  1  0.716200  0.104200  0.031300  1.0  0.1136
  H  H100  1  0.772700  0.135300  0.165400  1.0  0.3042
  H  H101  1  0.954200  0.244900  0.060100  1.0  0.1139
  H  H102  1  0.098200  0.417200  0.972400  1.0  0.1029
  H  H103  1  0.598200  0.082800  0.027600  1.0  0.1026
  H  H104  1  0.938800  0.081600  0.474600  1.0  0.1103
  C  C105  1  0.427800  0.183900  0.578200  1.0  0.5402
  C  C106  1  0.411100  0.465700  0.754900  1.0  0.6747
  C  C107  1  0.147800  0.694700  0.991500  1.0  0.0884
  C  C108  1  0.437100  0.377000  0.479200  1.0  -0.3649
  C  C109  1  0.063200  0.667000  0.598800  1.0  -0.1753
  C  C110  1  0.038500  0.235400  0.682700  1.0  -0.3853
  C  C111  1  0.443600  0.710600  0.336800  1.0  -0.1569
  C  C112  1  0.481600  0.548800  0.740200  1.0  0.0778
  C  C113  1  0.601400  0.909600  0.362500  1.0  0.1485
  C  C114  1  0.749700  0.145400  0.500700  1.0  0.6507
  C  C115  1  0.249700  0.354600  0.499300  1.0  0.6509
  C  C116  1  0.049700  0.764400  0.631900  1.0  -0.2926
  C  C117  1  0.851300  0.869900  0.537500  1.0  -0.3598
  C  C118  1  0.648700  0.130100  0.037500  1.0  -0.3598
  C  C119  1  0.101400  0.590400  0.637500  1.0  0.149
  C  C120  1  0.407400  0.724800  0.255000  1.0  0.2331
  C  C121  1  0.997400  0.192200  0.049700  1.0  -0.3852
  C  C122  1  0.863800  0.832800  0.624000  1.0  0.1609
  C  C123  1  0.092600  0.275200  0.755000  1.0  0.2307
  C  C124  1  0.955300  0.138400  0.981800  1.0  0.2818
  C  C125  1  0.569800  0.116300  0.820800  1.0  -0.3454
  C  C126  1  0.563200  0.833000  0.401200  1.0  -0.175
  C  C127  1  0.502600  0.807800  0.549700  1.0  -0.3852
  C  C128  1  0.898600  0.090400  0.862500  1.0  0.1499
  C  C129  1  0.588900  0.965700  0.745100  1.0  0.6748
  C  C130  1  0.864500  0.072000  0.775600  1.0  -0.3626
  C  C131  1  0.455300  0.361600  0.018200  1.0  0.282
  C  C132  1  0.062900  0.623000  0.979200  1.0  -0.3649
  C  C133  1  0.562900  0.877000  0.020800  1.0  -0.3641
  C  C134  1  0.364500  0.428000  0.224400  1.0  -0.3619
  C  C135  1  0.931900  0.343700  0.331700  1.0  0.5253
  C  C136  1  0.852200  0.194700  0.508500  1.0  0.0877
  C  C137  1  0.937100  0.123000  0.520800  1.0  -0.3652
  C  C138  1  0.072200  0.816100  0.078200  1.0  0.5409
  C  C139  1  0.088900  0.534300  0.254900  1.0  0.6737
  C  C140  1  0.936800  0.167000  0.901200  1.0  -0.1756
  C  C141  1  0.056400  0.289400  0.836800  1.0  -0.1567
  C  C142  1  0.647800  0.805300  0.008500  1.0  0.0886
  C  C143  1  0.398600  0.409600  0.137500  1.0  0.1497
  C  C144  1  0.907400  0.775200  0.745000  1.0  0.2328
  C  C145  1  0.497400  0.307800  0.950300  1.0  -0.3851
  C  C146  1  0.549700  0.735600  0.368100  1.0  -0.2915
  C  C147  1  0.351300  0.630100  0.462500  1.0  -0.3612
  C  C148  1  0.069800  0.383700  0.179200  1.0  -0.3454
  C  C149  1  0.538500  0.264600  0.317300  1.0  -0.3865
  C  C150  1  0.927800  0.316100  0.421800  1.0  0.5399
  C  C151  1  0.518400  0.048800  0.759800  1.0  0.0768
  C  C152  1  0.635500  0.928000  0.275600  1.0  -0.362
  C  C153  1  0.352200  0.305300  0.491500  1.0  0.0878
  C  C154  1  0.572200  0.683900  0.921800  1.0  0.5408
  C  C155  1  0.592600  0.224800  0.245000  1.0  0.2318
  C  C156  1  0.136200  0.332800  0.876000  1.0  0.1599
  C  C157  1  0.568100  0.656300  0.831700  1.0  0.5264
  C  C158  1  0.544700  0.861600  0.481800  1.0  0.2844
  C  C159  1  0.943600  0.789400  0.663200  1.0  -0.1566
  C  C160  1  0.950300  0.264400  0.868100  1.0  -0.2934
  C  C161  1  0.135500  0.572000  0.724400  1.0  -0.3632
  C  C162  1  0.981600  0.951200  0.259800  1.0  0.0782
  C  C163  1  0.430200  0.616300  0.679200  1.0  -0.3444
  C  C164  1  0.436800  0.333000  0.098800  1.0  -0.1751
  C  C165  1  0.018400  0.451200  0.240200  1.0  0.0761
  C  C166  1  0.930200  0.883700  0.320800  1.0  -0.3452
  C  C167  1  0.068100  0.843700  0.168300  1.0  0.5256
  C  C168  1  0.450300  0.235600  0.131900  1.0  -0.2931
  C  C169  1  0.911100  0.034300  0.245100  1.0  0.6728
  C  C170  1  0.961500  0.735400  0.817300  1.0  -0.3857
  C  C171  1  0.363800  0.667200  0.376000  1.0  0.1604
  C  C172  1  0.044700  0.638400  0.518200  1.0  0.2878
  C  C173  1  0.002600  0.692200  0.450300  1.0  -0.3843
  C  C174  1  0.461500  0.764600  0.182700  1.0  -0.3862
  C  C175  1  0.148700  0.369900  0.962500  1.0  -0.3612
  C  C176  1  0.250300  0.645400  0.999300  1.0  0.6523
  C  C177  1  0.431900  0.156300  0.668300  1.0  0.5257
  C  C178  1  0.636200  0.167200  0.124000  1.0  0.1604
  C  C179  1  0.750300  0.854600  0.000700  1.0  0.6517
  C  C180  1  0.556400  0.210600  0.163200  1.0  -0.1569
  N  N181  1  0.501100  0.591400  0.819200  1.0  -0.3559
  N  N182  1  0.570000  0.950500  0.490800  1.0  -0.3071
  N  N183  1  0.130600  0.743800  0.068100  1.0  -0.3484
  N  N184  1  0.430000  0.450500  0.009200  1.0  -0.3077
  N  N185  1  0.397100  0.479800  0.082200  1.0  -0.163
  N  N186  1  0.602900  0.979800  0.417800  1.0  -0.1627
  N  N187  1  0.213800  0.341000  0.822800  1.0  -0.1942
  N  N188  1  0.688400  0.192600  0.251700  1.0  -0.3171
  N  N189  1  0.311600  0.692600  0.248300  1.0  -0.317
  N  N190  1  0.070000  0.549500  0.509200  1.0  -0.3073
  N  N191  1  0.930000  0.049500  0.990800  1.0  -0.3078
  N  N192  1  0.998900  0.408600  0.319200  1.0  -0.3563
  N  N193  1  0.369400  0.256200  0.568100  1.0  -0.3464
  N  N194  1  0.188400  0.307400  0.748300  1.0  -0.3172
  N  N195  1  0.869400  0.243800  0.431900  1.0  -0.3475
  N  N196  1  0.897100  0.020200  0.917800  1.0  -0.1622
  N  N197  1  0.001100  0.908600  0.180800  1.0  -0.3556
  N  N198  1  0.498900  0.091400  0.680800  1.0  -0.3567
  N  N199  1  0.286200  0.659000  0.322800  1.0  -0.1928
  N  N200  1  0.630600  0.756200  0.931900  1.0  -0.3478
  N  N201  1  0.102900  0.520200  0.582200  1.0  -0.163
  N  N202  1  0.786200  0.841000  0.677200  1.0  -0.1927
  N  N203  1  0.713800  0.159000  0.177200  1.0  -0.1934
  N  N204  1  0.811600  0.807400  0.751700  1.0  -0.317
  O  O205  1  0.886000  0.051600  0.170200  1.0  -0.6286
  O  O206  1  0.979500  0.362000  0.473400  1.0  -0.5657
  O  O207  1  0.790600  0.857200  0.928300  1.0  -0.6284
  O  O208  1  0.286600  0.607000  0.938500  1.0  -0.6017
  O  O209  1  0.125900  0.802800  0.219700  1.0  -0.5638
  O  O210  1  0.213400  0.393000  0.438500  1.0  -0.6024
  O  O211  1  0.379800  0.421400  0.695500  1.0  -0.6163
  O  O212  1  0.614000  0.948400  0.670200  1.0  -0.628
  O  O213  1  0.120200  0.578600  0.195500  1.0  -0.6169
  O  O214  1  0.290600  0.642800  0.071700  1.0  -0.6282
  O  O215  1  0.786600  0.893000  0.061500  1.0  -0.6015
  O  O216  1  0.114000  0.551600  0.329800  1.0  -0.6273
  O  O217  1  0.386000  0.448400  0.829800  1.0  -0.6281
  O  O218  1  0.209400  0.357200  0.571700  1.0  -0.6297
  O  O219  1  0.479500  0.138000  0.526600  1.0  -0.5652
  O  O220  1  0.520500  0.638000  0.973400  1.0  -0.565
  O  O221  1  0.879800  0.078600  0.304500  1.0  -0.616
  O  O222  1  0.625900  0.697200  0.780300  1.0  -0.5636
  O  O223  1  0.020500  0.862000  0.026600  1.0  -0.5649
  O  O224  1  0.874100  0.302800  0.280300  1.0  -0.5636
  O  O225  1  0.620200  0.921400  0.804500  1.0  -0.6153
  O  O226  1  0.374100  0.197200  0.719700  1.0  -0.5631
  O  O227  1  0.713400  0.107000  0.561500  1.0  -0.6011
  O  O228  1  0.709400  0.142800  0.428300  1.0  -0.6303
