# generated using pymatgen
data_Cu2H24C19(NO)6
_symmetry_space_group_name_H-M   'P 1'
_cell_length_a   13.04100000
_cell_length_b   14.41100000
_cell_length_c   16.30700000
_cell_angle_alpha   90.00000000
_cell_angle_beta   90.00000000
_cell_angle_gamma   90.00000000
_symmetry_Int_Tables_number   1
_chemical_formula_structural   Cu2H24C19(NO)6
_chemical_formula_sum   'Cu8 H96 C76 N24 O24'
_cell_volume   3064.63730826
_cell_formula_units_Z   4
loop_
 _symmetry_equiv_pos_site_id
 _symmetry_equiv_pos_as_xyz
  1  'x, y, z'
loop_
 _atom_site_type_symbol
 _atom_site_label
 _atom_site_symmetry_multiplicity
 _atom_site_fract_x
 _atom_site_fract_y
 _atom_site_fract_z
 _atom_site_occupancy
 _atom_site_charge
  Cu  Cu1  1  0.790090  0.794490  0.839670  1.0  0.7956
  Cu  Cu2  1  0.059820  0.536980  0.914020  1.0  0.7986
  Cu  Cu3  1  0.209910  0.294490  0.660330  1.0  0.7961
  Cu  Cu4  1  0.440180  0.463020  0.414020  1.0  0.798
  Cu  Cu5  1  0.940180  0.036980  0.585980  1.0  0.7979
  Cu  Cu6  1  0.709910  0.205510  0.339670  1.0  0.7964
  Cu  Cu7  1  0.559820  0.963020  0.085980  1.0  0.7978
  Cu  Cu8  1  0.290090  0.705510  0.160330  1.0  0.7959
  H  H9  1  0.999100  0.344900  0.901100  1.0  0.1258
  H  H10  1  0.191400  0.388500  0.238600  1.0  0.1255
  H  H11  1  0.499100  0.155100  0.098900  1.0  0.1261
  H  H12  1  0.216500  0.601700  0.467000  1.0  0.1163
  H  H13  1  0.156700  0.492200  0.229800  1.0  0.1175
  H  H14  1  0.083600  0.764400  0.136900  1.0  0.1226
  H  H15  1  0.526700  0.831300  0.328400  1.0  0.106
  H  H16  1  0.939600  0.918000  0.975800  1.0  0.1151
  H  H17  1  0.979600  0.328800  0.304300  1.0  0.1191
  H  H18  1  0.148700  0.260700  0.444800  1.0  0.0944
  H  H19  1  0.435000  0.215100  0.037300  1.0  0.132
  H  H20  1  0.046400  0.254500  0.938700  1.0  0.11
  H  H21  1  0.502500  0.654400  0.973000  1.0  0.1036
  H  H22  1  0.579200  0.082600  0.738100  1.0  0.101
  H  H23  1  0.584500  0.914100  0.370300  1.0  0.093
  H  H24  1  0.377600  0.464800  0.593500  1.0  0.3086
  H  H25  1  0.228300  0.365000  0.833800  1.0  0.307
  H  H26  1  0.002500  0.845600  0.027000  1.0  0.1037
  H  H27  1  0.932400  0.691900  0.409400  1.0  0.1267
  H  H28  1  0.453600  0.745500  0.438700  1.0  0.1115
  H  H29  1  0.634700  0.862000  0.296100  1.0  0.1166
  H  H30  1  0.065000  0.784900  0.537300  1.0  0.13
  H  H31  1  0.728300  0.135000  0.166200  1.0  0.3068
  H  H32  1  0.478000  0.769400  0.828000  1.0  0.1234
  H  H33  1  0.044400  0.027800  0.784300  1.0  0.096
  H  H34  1  0.691400  0.111500  0.761400  1.0  0.1259
  H  H35  1  0.424200  0.588500  0.929000  1.0  0.1075
  H  H36  1  0.916400  0.264400  0.363100  1.0  0.1229
  H  H37  1  0.500900  0.655100  0.401100  1.0  0.1262
  H  H38  1  0.479600  0.171200  0.695700  1.0  0.1193
  H  H39  1  0.851300  0.760700  0.055200  1.0  0.0959
  H  H40  1  0.877600  0.035200  0.406500  1.0  0.3098
  H  H41  1  0.084500  0.585900  0.629700  1.0  0.0933
  H  H42  1  0.141600  0.677800  0.500800  1.0  0.1367
  H  H43  1  0.079200  0.417400  0.261900  1.0  0.1021
  H  H44  1  0.648700  0.239300  0.555200  1.0  0.0945
  H  H45  1  0.997500  0.345600  0.473000  1.0  0.1023
  H  H46  1  0.401500  0.418200  0.971600  1.0  0.1063
  H  H47  1  0.920800  0.917400  0.238100  1.0  0.099
  H  H48  1  0.420800  0.582600  0.761900  1.0  0.0996
  H  H49  1  0.716500  0.898300  0.533000  1.0  0.116
  H  H50  1  0.416400  0.235600  0.636900  1.0  0.1218
  H  H51  1  0.808600  0.888500  0.261400  1.0  0.1245
  H  H52  1  0.283500  0.398300  0.967000  1.0  0.1168
  H  H53  1  0.544400  0.472200  0.215700  1.0  0.0982
  H  H54  1  0.622400  0.964800  0.906500  1.0  0.3086
  H  H55  1  0.455600  0.972200  0.284300  1.0  0.0994
  H  H56  1  0.343300  0.507800  0.729800  1.0  0.1159
  H  H57  1  0.843300  0.992200  0.270200  1.0  0.1164
  H  H58  1  0.520400  0.671200  0.804300  1.0  0.1194
  H  H59  1  0.978000  0.730600  0.172000  1.0  0.1232
  H  H60  1  0.598500  0.918200  0.528400  1.0  0.1064
  H  H61  1  0.365300  0.362000  0.203900  1.0  0.1158
  H  H62  1  0.473300  0.331300  0.171600  1.0  0.1058
  H  H63  1  0.560400  0.082000  0.475800  1.0  0.1144
  H  H64  1  0.432400  0.808100  0.590600  1.0  0.1267
  H  H65  1  0.858400  0.177800  0.999200  1.0  0.1376
  H  H66  1  0.902600  0.727600  0.322100  1.0  0.1306
  H  H67  1  0.915500  0.085900  0.870300  1.0  0.0934
  H  H68  1  0.067600  0.191900  0.090600  1.0  0.1259
  H  H69  1  0.026700  0.668700  0.671600  1.0  0.1058
  H  H70  1  0.402600  0.772400  0.677900  1.0  0.1307
  H  H71  1  0.583600  0.735600  0.863100  1.0  0.1229
  H  H72  1  0.783500  0.101700  0.033000  1.0  0.1167
  H  H73  1  0.955600  0.527800  0.715700  1.0  0.0994
  H  H74  1  0.439600  0.582000  0.024200  1.0  0.1155
  H  H75  1  0.567600  0.308100  0.909400  1.0  0.1252
  H  H76  1  0.060400  0.418000  0.524200  1.0  0.1155
  H  H77  1  0.656700  0.007800  0.770200  1.0  0.1164
  H  H78  1  0.935000  0.284900  0.962700  1.0  0.1323
  H  H79  1  0.075800  0.411500  0.429000  1.0  0.1075
  H  H80  1  0.575800  0.088500  0.571000  1.0  0.1077
  H  H81  1  0.097400  0.227600  0.177900  1.0  0.1296
  H  H82  1  0.901500  0.081800  0.028400  1.0  0.1064
  H  H83  1  0.522000  0.269400  0.672000  1.0  0.1224
  H  H84  1  0.000900  0.844900  0.598900  1.0  0.1244
  H  H85  1  0.022000  0.230600  0.328000  1.0  0.1224
  H  H86  1  0.020400  0.828800  0.195700  1.0  0.1194
  H  H87  1  0.358400  0.322200  0.000800  1.0  0.1382
  H  H88  1  0.641600  0.822200  0.499200  1.0  0.1377
  H  H89  1  0.308600  0.611500  0.738600  1.0  0.1249
  H  H90  1  0.271700  0.635000  0.333800  1.0  0.3073
  H  H91  1  0.565000  0.715100  0.462700  1.0  0.1286
  H  H92  1  0.497500  0.154400  0.527000  1.0  0.1024
  H  H93  1  0.546400  0.245500  0.061300  1.0  0.1096
  H  H94  1  0.098500  0.581800  0.471600  1.0  0.1064
  H  H95  1  0.351300  0.739300  0.944800  1.0  0.095
  H  H96  1  0.122400  0.535200  0.093500  1.0  0.3101
  H  H97  1  0.973300  0.168700  0.828400  1.0  0.1056
  H  H98  1  0.415500  0.414100  0.129700  1.0  0.0938
  H  H99  1  0.771700  0.865000  0.666200  1.0  0.3069
  H  H100  1  0.953600  0.754500  0.561300  1.0  0.1111
  H  H101  1  0.597400  0.272400  0.822100  1.0  0.1307
  H  H102  1  0.865300  0.138000  0.796100  1.0  0.1163
  H  H103  1  0.134700  0.638000  0.703900  1.0  0.1161
  H  H104  1  0.924200  0.911500  0.071000  1.0  0.1076
  C  C105  1  0.588700  0.034100  0.245600  1.0  0.6801
  C  C106  1  0.456000  0.638600  0.518400  1.0  0.2685
  C  C107  1  0.562900  0.167200  0.900700  1.0  -0.1706
  C  C108  1  0.852700  0.804700  0.009300  1.0  0.0672
  C  C109  1  0.572000  0.315900  0.421200  1.0  0.5448
  C  C110  1  0.038800  0.765800  0.183700  1.0  -0.389
  C  C111  1  0.101000  0.410000  0.138300  1.0  0.1558
  C  C112  1  0.251000  0.354500  0.498100  1.0  0.6517
  C  C113  1  0.363800  0.332900  0.875100  1.0  0.1547
  C  C114  1  0.044000  0.361400  0.018400  1.0  0.2643
  C  C115  1  0.147300  0.304700  0.490700  1.0  0.0688
  C  C116  1  0.636200  0.832900  0.624900  1.0  0.1558
  C  C117  1  0.092100  0.724800  0.255500  1.0  0.2331
  C  C118  1  0.062300  0.376700  0.478000  1.0  -0.3568
  C  C119  1  0.364800  0.571300  0.725000  1.0  -0.3614
  C  C120  1  0.950800  0.735800  0.366800  1.0  -0.289
  C  C121  1  0.056900  0.711000  0.335800  1.0  -0.156
  C  C122  1  0.428800  0.383300  0.180900  1.0  -0.349
  C  C123  1  0.751000  0.145500  0.501900  1.0  0.6528
  C  C124  1  0.411300  0.534100  0.254400  1.0  0.679
  C  C125  1  0.502500  0.193400  0.050900  1.0  -0.3879
  C  C126  1  0.443100  0.289000  0.835800  1.0  -0.1552
  C  C127  1  0.571200  0.883300  0.319100  1.0  -0.35
  C  C128  1  0.956000  0.861400  0.481600  1.0  0.2674
  C  C129  1  0.649400  0.871500  0.538300  1.0  -0.3369
  C  C130  1  0.911300  0.965900  0.745600  1.0  0.68
  C  C131  1  0.135200  0.428700  0.225000  1.0  -0.3614
  C  C132  1  0.850600  0.128500  0.038300  1.0  -0.338
  C  C133  1  0.997500  0.806600  0.550900  1.0  -0.3886
  C  C134  1  0.352700  0.695300  0.990700  1.0  0.067
  C  C135  1  0.549200  0.264200  0.866800  1.0  -0.2894
  C  C136  1  0.136200  0.667100  0.375100  1.0  0.1552
  C  C137  1  0.943100  0.211000  0.164200  1.0  -0.1553
  C  C138  1  0.961200  0.265800  0.316300  1.0  -0.3881
  C  C139  1  0.072000  0.184100  0.578800  1.0  0.5442
  C  C140  1  0.538800  0.734200  0.816300  1.0  -0.3878
  C  C141  1  0.088700  0.465900  0.754400  1.0  0.681
  C  C142  1  0.461200  0.234200  0.683700  1.0  -0.3888
  C  C143  1  0.450800  0.764200  0.633200  1.0  -0.2903
  C  C144  1  0.562300  0.123300  0.522000  1.0  -0.3575
  C  C145  1  0.567100  0.343700  0.331000  1.0  0.5454
  C  C146  1  0.002500  0.306600  0.949100  1.0  -0.3873
  C  C147  1  0.437700  0.623300  0.978000  1.0  -0.3574
  C  C148  1  0.071200  0.616700  0.680900  1.0  -0.3496
  C  C149  1  0.520100  0.950800  0.260000  1.0  0.0873
  C  C150  1  0.635200  0.071300  0.775000  1.0  -0.362
  C  C151  1  0.049200  0.235800  0.133200  1.0  -0.289
  C  C152  1  0.432900  0.843700  0.169000  1.0  0.5458
  C  C153  1  0.350600  0.371500  0.961700  1.0  -0.3386
  C  C154  1  0.149400  0.628500  0.461700  1.0  -0.3396
  C  C155  1  0.544000  0.138600  0.981600  1.0  0.2675
  C  C156  1  0.556900  0.789000  0.664200  1.0  -0.1553
  C  C157  1  0.907900  0.224800  0.244500  1.0  0.2381
  C  C158  1  0.067100  0.156300  0.669000  1.0  0.546
  C  C159  1  0.062900  0.332800  0.099300  1.0  -0.1703
  C  C160  1  0.932900  0.656300  0.831000  1.0  0.5454
  C  C161  1  0.407900  0.275200  0.755500  1.0  0.2361
  C  C162  1  0.399000  0.590000  0.638300  1.0  0.1569
  C  C163  1  0.749000  0.854500  0.001900  1.0  0.6516
  C  C164  1  0.479900  0.450800  0.240000  1.0  0.0883
  C  C165  1  0.863800  0.167100  0.124900  1.0  0.1554
  C  C166  1  0.592100  0.775200  0.744500  1.0  0.2341
  C  C167  1  0.437100  0.667200  0.599300  1.0  -0.1712
  C  C168  1  0.497500  0.693400  0.449100  1.0  -0.3889
  C  C169  1  0.937700  0.876700  0.022000  1.0  -0.3573
  C  C170  1  0.928800  0.116700  0.819100  1.0  -0.349
  C  C171  1  0.428000  0.815900  0.078800  1.0  0.5456
  C  C172  1  0.647300  0.195300  0.509300  1.0  0.0677
  C  C173  1  0.937100  0.832800  0.400700  1.0  -0.1702
  C  C174  1  0.899000  0.910000  0.361700  1.0  0.1564
  C  C175  1  0.864800  0.928700  0.275000  1.0  -0.3617
  C  C176  1  0.928000  0.684100  0.921200  1.0  0.5443
  C  C177  1  0.601000  0.090000  0.861700  1.0  0.156
  C  C178  1  0.249000  0.645500  0.998100  1.0  0.6535
  C  C179  1  0.979900  0.049200  0.760000  1.0  0.0888
  C  C180  1  0.020100  0.549200  0.740000  1.0  0.0874
  N  N181  1  0.630700  0.244500  0.432200  1.0  -0.3635
  N  N182  1  0.811300  0.193300  0.251600  1.0  -0.3601
  N  N183  1  0.430700  0.549000  0.509300  1.0  -0.3348
  N  N184  1  0.369300  0.744500  0.067800  1.0  -0.3631
  N  N185  1  0.498200  0.908200  0.181500  1.0  -0.3507
  N  N186  1  0.713200  0.840800  0.677900  1.0  -0.1736
  N  N187  1  0.102600  0.479600  0.083000  1.0  -0.1448
  N  N188  1  0.397400  0.520400  0.583000  1.0  -0.1432
  N  N189  1  0.602600  0.020400  0.917000  1.0  -0.1441
  N  N190  1  0.998200  0.591800  0.818500  1.0  -0.3513
  N  N191  1  0.286800  0.340800  0.822100  1.0  -0.1729
  N  N192  1  0.069300  0.451000  0.009300  1.0  -0.3316
  N  N193  1  0.130700  0.255500  0.567800  1.0  -0.3625
  N  N194  1  0.213200  0.659200  0.322100  1.0  -0.1732
  N  N195  1  0.188700  0.693300  0.248400  1.0  -0.3595
  N  N196  1  0.001800  0.091800  0.681500  1.0  -0.3495
  N  N197  1  0.897400  0.979600  0.417000  1.0  -0.1435
  N  N198  1  0.688700  0.806700  0.751600  1.0  -0.3583
  N  N199  1  0.311300  0.306700  0.748400  1.0  -0.3607
  N  N200  1  0.501800  0.408200  0.318500  1.0  -0.3494
  N  N201  1  0.786800  0.159200  0.177900  1.0  -0.1731
  N  N202  1  0.869300  0.755500  0.932200  1.0  -0.3623
  N  N203  1  0.930700  0.951000  0.490700  1.0  -0.3343
  N  N204  1  0.569300  0.049000  0.990700  1.0  -0.3319
  O  O205  1  0.626300  0.302800  0.280200  1.0  -0.5576
  O  O206  1  0.113500  0.448900  0.829300  1.0  -0.6361
  O  O207  1  0.620800  0.078500  0.304600  1.0  -0.6194
  O  O208  1  0.379200  0.578500  0.195400  1.0  -0.6194
  O  O209  1  0.709100  0.857300  0.928700  1.0  -0.6172
  O  O210  1  0.979300  0.637300  0.973400  1.0  -0.5721
  O  O211  1  0.479300  0.862700  0.026600  1.0  -0.5725
  O  O212  1  0.373700  0.802800  0.219800  1.0  -0.5592
  O  O213  1  0.212300  0.607600  0.937500  1.0  -0.6042
  O  O214  1  0.712300  0.892400  0.062500  1.0  -0.603
  O  O215  1  0.120800  0.421500  0.695400  1.0  -0.6203
  O  O216  1  0.020700  0.137300  0.526600  1.0  -0.5704
  O  O217  1  0.613500  0.051100  0.170700  1.0  -0.6359
  O  O218  1  0.886500  0.948900  0.670700  1.0  -0.6368
  O  O219  1  0.386500  0.551100  0.329300  1.0  -0.6361
  O  O220  1  0.520700  0.362700  0.473400  1.0  -0.5722
  O  O221  1  0.787700  0.107600  0.562500  1.0  -0.6018
  O  O222  1  0.126300  0.197200  0.719800  1.0  -0.5571
  O  O223  1  0.790900  0.142700  0.428700  1.0  -0.6168
  O  O224  1  0.879200  0.921500  0.804600  1.0  -0.6183
  O  O225  1  0.873700  0.697200  0.780200  1.0  -0.5577
  O  O226  1  0.287700  0.392400  0.437500  1.0  -0.6051
  O  O227  1  0.290900  0.357300  0.571300  1.0  -0.6167
  O  O228  1  0.209100  0.642700  0.071300  1.0  -0.6184
