# generated using pymatgen
data_Cu2H24C19(NO)6
_symmetry_space_group_name_H-M   'P 1'
_cell_length_a   13.49200000
_cell_length_b   14.37700000
_cell_length_c   16.19100000
_cell_angle_alpha   90.00000000
_cell_angle_beta   90.00000000
_cell_angle_gamma   90.00000000
_symmetry_Int_Tables_number   1
_chemical_formula_structural   Cu2H24C19(NO)6
_chemical_formula_sum   'Cu8 H96 C76 N24 O24'
_cell_volume   3140.64087044
_cell_formula_units_Z   4
loop_
 _symmetry_equiv_pos_site_id
 _symmetry_equiv_pos_as_xyz
  1  'x, y, z'
loop_
 _atom_site_type_symbol
 _atom_site_label
 _atom_site_symmetry_multiplicity
 _atom_site_fract_x
 _atom_site_fract_y
 _atom_site_fract_z
 _atom_site_occupancy
 _atom_site_charge
  Cu  Cu1  1  0.700600  0.206740  0.663980  1.0  0.808
  Cu  Cu2  1  0.929890  0.048790  0.415010  1.0  0.8242
  Cu  Cu3  1  0.070110  0.548790  0.084990  1.0  0.8247
  Cu  Cu4  1  0.429890  0.451210  0.584990  1.0  0.8245
  Cu  Cu5  1  0.570110  0.951210  0.915010  1.0  0.8247
  Cu  Cu6  1  0.799400  0.793260  0.163980  1.0  0.8068
  Cu  Cu7  1  0.299400  0.706740  0.836020  1.0  0.8086
  Cu  Cu8  1  0.200600  0.293260  0.336020  1.0  0.8072
  H  H9  1  0.966300  0.766100  0.440600  1.0  0.1086
  H  H10  1  0.436700  0.316500  0.827700  1.0  0.0916
  H  H11  1  0.725900  0.134900  0.838500  1.0  0.3051
  H  H12  1  0.573000  0.695500  0.537100  1.0  0.1084
  H  H13  1  0.495400  0.140100  0.900400  1.0  0.1193
  H  H14  1  0.936700  0.183500  0.172300  1.0  0.0917
  H  H15  1  0.838200  0.145400  0.213400  1.0  0.1045
  H  H16  1  0.583300  0.086100  0.425400  1.0  0.0983
  H  H17  1  0.066200  0.425100  0.478300  1.0  0.1084
  H  H18  1  0.384400  0.212100  0.359400  1.0  0.1165
  H  H19  1  0.210200  0.600500  0.530200  1.0  0.117
  H  H20  1  0.585200  0.007500  0.251000  1.0  0.1153
  H  H21  1  0.225900  0.365100  0.161500  1.0  0.3045
  H  H22  1  0.051400  0.203800  0.903700  1.0  0.1876
  H  H23  1  0.944400  0.354000  0.700800  1.0  0.1081
  H  H24  1  0.853500  0.184800  0.003600  1.0  0.1039
  H  H25  1  0.876400  0.045800  0.595000  1.0  0.2723
  H  H26  1  0.854900  0.760300  0.947000  1.0  0.0912
  H  H27  1  0.551400  0.296200  0.096300  1.0  0.1893
  H  H28  1  0.193400  0.457200  0.770600  1.0  0.1128
  H  H29  1  0.387300  0.613900  0.238100  1.0  0.1007
  H  H30  1  0.444400  0.146000  0.299200  1.0  0.1056
  H  H31  1  0.354900  0.739700  0.053000  1.0  0.0915
  H  H32  1  0.997900  0.852800  0.970700  1.0  0.0958
  H  H33  1  0.274100  0.634900  0.661500  1.0  0.3036
  H  H34  1  0.448600  0.796200  0.403700  1.0  0.1891
  H  H35  1  0.789800  0.100500  0.969800  1.0  0.1162
  H  H36  1  0.063300  0.683500  0.327700  1.0  0.0921
  H  H37  1  0.146500  0.684800  0.496400  1.0  0.1044
  H  H38  1  0.492600  0.240000  0.330500  1.0  0.1174
  H  H39  1  0.914800  0.992500  0.751000  1.0  0.1152
  H  H40  1  0.884400  0.287900  0.640600  1.0  0.1161
  H  H41  1  0.693400  0.042800  0.229400  1.0  0.1124
  H  H42  1  0.376400  0.454200  0.405000  1.0  0.2701
  H  H43  1  0.406700  0.407600  0.026000  1.0  0.1034
  H  H44  1  0.002100  0.352800  0.529300  1.0  0.095
  H  H45  1  0.618900  0.902900  0.633100  1.0  0.0783
  H  H46  1  0.338200  0.354600  0.786600  1.0  0.1045
  H  H47  1  0.507400  0.740000  0.169500  1.0  0.1169
  H  H48  1  0.978300  0.545100  0.290800  1.0  0.0924
  H  H49  1  0.071600  0.207600  0.832400  1.0  0.1466
  H  H50  1  0.645100  0.239700  0.447000  1.0  0.0915
  H  H51  1  0.428400  0.792400  0.332400  1.0  0.1462
  H  H52  1  0.478300  0.954900  0.709200  1.0  0.0922
  H  H53  1  0.502100  0.147200  0.470700  1.0  0.0941
  H  H54  1  0.353500  0.315200  0.996400  1.0  0.1048
  H  H55  1  0.948600  0.703800  0.596300  1.0  0.191
  H  H56  1  0.123600  0.545800  0.905000  1.0  0.2732
  H  H57  1  0.085200  0.492500  0.749000  1.0  0.1164
  H  H58  1  0.927000  0.304500  0.037100  1.0  0.1067
  H  H59  1  0.427000  0.195500  0.962900  1.0  0.1059
  H  H60  1  0.073000  0.804500  0.462900  1.0  0.1095
  H  H61  1  0.083300  0.413900  0.574600  1.0  0.0978
  H  H62  1  0.055600  0.854000  0.799200  1.0  0.108
  H  H63  1  0.112700  0.386100  0.738100  1.0  0.1001
  H  H64  1  0.118900  0.597100  0.366900  1.0  0.0774
  H  H65  1  0.646500  0.815200  0.503600  1.0  0.1042
  H  H66  1  0.774100  0.865100  0.338500  1.0  0.3042
  H  H67  1  0.416700  0.586100  0.074600  1.0  0.0982
  H  H68  1  0.710200  0.899500  0.469800  1.0  0.1165
  H  H69  1  0.021700  0.045100  0.209200  1.0  0.0907
  H  H70  1  0.615600  0.712100  0.140600  1.0  0.1184
  H  H71  1  0.661800  0.854600  0.713400  1.0  0.1053
  H  H72  1  0.414800  0.507500  0.249000  1.0  0.1145
  H  H73  1  0.004600  0.859900  0.400400  1.0  0.1192
  H  H74  1  0.992600  0.260000  0.669500  1.0  0.1177
  H  H75  1  0.995400  0.359900  0.099600  1.0  0.1189
  H  H76  1  0.593300  0.907600  0.474000  1.0  0.1035
  H  H77  1  0.497900  0.647200  0.029300  1.0  0.0963
  H  H78  1  0.161800  0.645400  0.286600  1.0  0.1055
  H  H79  1  0.533700  0.233900  0.940600  1.0  0.1088
  H  H80  1  0.887300  0.886100  0.761900  1.0  0.0999
  H  H81  1  0.115600  0.787900  0.859400  1.0  0.118
  H  H82  1  0.433800  0.574900  0.978300  1.0  0.1083
  H  H83  1  0.916700  0.913900  0.925400  1.0  0.0979
  H  H84  1  0.555600  0.646000  0.200800  1.0  0.1084
  H  H85  1  0.623600  0.954200  0.095000  1.0  0.2708
  H  H86  1  0.571600  0.292400  0.167600  1.0  0.1474
  H  H87  1  0.566200  0.074900  0.521700  1.0  0.1088
  H  H88  1  0.504600  0.640100  0.599600  1.0  0.1188
  H  H89  1  0.806600  0.957200  0.729400  1.0  0.1143
  H  H90  1  0.306600  0.542800  0.270600  1.0  0.1146
  H  H91  1  0.612700  0.113900  0.261900  1.0  0.0993
  H  H92  1  0.093300  0.592400  0.526000  1.0  0.1035
  H  H93  1  0.881100  0.097100  0.133100  1.0  0.0793
  H  H94  1  0.033700  0.266100  0.059400  1.0  0.1098
  H  H95  1  0.933800  0.925100  0.021700  1.0  0.1081
  H  H96  1  0.928400  0.707600  0.667600  1.0  0.1491
  H  H97  1  0.381100  0.402900  0.866900  1.0  0.0781
  H  H98  1  0.563300  0.816500  0.672300  1.0  0.0919
  H  H99  1  0.145100  0.260300  0.553000  1.0  0.0917
  H  H100  1  0.466300  0.733900  0.559400  1.0  0.1093
  H  H101  1  0.521700  0.454900  0.790800  1.0  0.0912
  H  H102  1  0.906700  0.092400  0.974000  1.0  0.1043
  H  H103  1  0.007400  0.760000  0.830500  1.0  0.1169
  H  H104  1  0.289800  0.399500  0.030200  1.0  0.1163
  C  C105  1  0.947500  0.665000  0.171000  1.0  0.539
  C  C106  1  0.949100  0.846900  0.602300  1.0  -0.1235
  C  C107  1  0.591700  0.077200  0.141800  1.0  0.1556
  C  C108  1  0.966200  0.750300  0.635700  1.0  -0.2193
  C  C109  1  0.640800  0.826700  0.377400  1.0  0.1354
  C  C110  1  0.144300  0.306300  0.507500  1.0  0.0853
  C  C111  1  0.466200  0.749700  0.364300  1.0  -0.2199
  C  C112  1  0.644300  0.193700  0.492500  1.0  0.0855
  C  C113  1  0.962400  0.875300  0.519800  1.0  0.2589
  C  C114  1  0.623500  0.058700  0.228600  1.0  -0.3842
  C  C115  1  0.429900  0.276000  0.163900  1.0  -0.1807
  C  C116  1  0.100600  0.474900  0.244000  1.0  0.653
  C  C117  1  0.851600  0.134300  0.964000  1.0  -0.3684
  C  C118  1  0.067000  0.381400  0.523900  1.0  -0.357
  C  C119  1  0.568800  0.710200  0.186000  1.0  -0.4013
  C  C120  1  0.459800  0.437900  0.761600  1.0  0.0772
  C  C121  1  0.889300  0.240600  0.757600  1.0  0.2472
  C  C122  1  0.408300  0.577200  0.358200  1.0  0.1566
  C  C123  1  0.101700  0.628100  0.315700  1.0  -0.3529
  C  C124  1  0.091700  0.422800  0.858200  1.0  0.1554
  C  C125  1  0.898300  0.128100  0.184300  1.0  -0.3526
  C  C126  1  0.148400  0.634300  0.536000  1.0  -0.3688
  C  C127  1  0.601700  0.871900  0.684300  1.0  -0.3534
  C  C128  1  0.447500  0.835000  0.829000  1.0  0.5392
  C  C129  1  0.610700  0.759400  0.257600  1.0  0.245
  C  C130  1  0.389300  0.259400  0.242400  1.0  0.2462
  C  C131  1  0.933000  0.881400  0.976100  1.0  -0.3583
  C  C132  1  0.550900  0.153100  0.102300  1.0  -0.1238
  C  C133  1  0.440800  0.806900  0.918600  1.0  0.5478
  C  C134  1  0.929900  0.224000  0.836100  1.0  -0.1806
  C  C135  1  0.505300  0.678200  0.550200  1.0  -0.3882
  C  C136  1  0.355700  0.693700  0.007500  1.0  0.0852
  C  C137  1  0.552500  0.335000  0.671000  1.0  0.5393
  C  C138  1  0.070100  0.724000  0.663900  1.0  -0.1802
  C  C139  1  0.123500  0.441300  0.771400  1.0  -0.3837
  C  C140  1  0.537600  0.124700  0.019800  1.0  0.25
  C  C141  1  0.754700  0.851800  0.001600  1.0  0.662
  C  C142  1  0.648400  0.865700  0.464000  1.0  -0.3688
  C  C143  1  0.559200  0.306900  0.581400  1.0  0.5491
  C  C144  1  0.959800  0.062100  0.238400  1.0  0.0774
  C  C145  1  0.570100  0.776000  0.336100  1.0  -0.1805
  C  C146  1  0.908300  0.922800  0.641800  1.0  0.1564
  C  C147  1  0.449100  0.653100  0.397700  1.0  -0.1233
  C  C148  1  0.052500  0.165000  0.329000  1.0  0.5394
  C  C149  1  0.398300  0.371900  0.815700  1.0  -0.3523
  C  C150  1  0.245300  0.351800  0.498400  1.0  0.6615
  C  C151  1  0.068800  0.789800  0.814000  1.0  -0.4015
  C  C152  1  0.745300  0.148200  0.501600  1.0  0.6626
  C  C153  1  0.940800  0.693100  0.081400  1.0  0.5486
  C  C154  1  0.254700  0.648200  0.998400  1.0  0.6618
  C  C155  1  0.859200  0.173300  0.877400  1.0  0.1359
  C  C156  1  0.351600  0.365700  0.036000  1.0  -0.3684
  C  C157  1  0.600600  0.025100  0.756000  1.0  0.6522
  C  C158  1  0.399400  0.525100  0.744000  1.0  0.651
  C  C159  1  0.037600  0.375300  0.980200  1.0  0.2533
  C  C160  1  0.110700  0.740600  0.742400  1.0  0.2474
  C  C161  1  0.140800  0.673300  0.622600  1.0  0.1354
  C  C162  1  0.376500  0.558700  0.271400  1.0  -0.3839
  C  C163  1  0.050900  0.346900  0.897700  1.0  -0.1235
  C  C164  1  0.359200  0.326700  0.122600  1.0  0.1358
  C  C165  1  0.540200  0.937900  0.738400  1.0  0.0749
  C  C166  1  0.005300  0.821800  0.449800  1.0  -0.3882
  C  C167  1  0.494700  0.178200  0.949800  1.0  -0.3878
  C  C168  1  0.059200  0.193100  0.418600  1.0  0.5482
  C  C169  1  0.931200  0.289800  0.686000  1.0  -0.3996
  C  C170  1  0.033800  0.250300  0.864300  1.0  -0.2179
  C  C171  1  0.040200  0.562100  0.261600  1.0  0.0762
  C  C172  1  0.533800  0.249700  0.135700  1.0  -0.2192
  C  C173  1  0.462400  0.624700  0.480200  1.0  0.251
  C  C174  1  0.567000  0.118600  0.476100  1.0  -0.3575
  C  C175  1  0.433000  0.618600  0.023900  1.0  -0.3581
  C  C176  1  0.855700  0.806300  0.992500  1.0  0.0854
  C  C177  1  0.876500  0.941300  0.728600  1.0  -0.3837
  C  C178  1  0.431200  0.210200  0.314000  1.0  -0.4009
  C  C179  1  0.994700  0.321800  0.050200  1.0  -0.3883
  C  C180  1  0.899400  0.974900  0.256000  1.0  0.6524
  N  N181  1  0.399800  0.509400  0.415200  1.0  -0.0991
  N  N182  1  0.483700  0.396500  0.682400  1.0  -0.348
  N  N183  1  0.878200  0.760800  0.071100  1.0  -0.355
  N  N184  1  0.219200  0.663100  0.674400  1.0  -0.1434
  N  N185  1  0.719200  0.836900  0.325600  1.0  -0.144
  N  N186  1  0.100200  0.490600  0.915200  1.0  -0.101
  N  N187  1  0.931900  0.962700  0.510600  1.0  -0.3126
  N  N188  1  0.621800  0.239200  0.571100  1.0  -0.3532
  N  N189  1  0.780800  0.163100  0.825600  1.0  -0.1451
  N  N190  1  0.068100  0.462700  0.989400  1.0  -0.3123
  N  N191  1  0.701000  0.797700  0.252300  1.0  -0.3347
  N  N192  1  0.516300  0.896500  0.817600  1.0  -0.347
  N  N193  1  0.983700  0.103500  0.317600  1.0  -0.3481
  N  N194  1  0.280800  0.336900  0.174400  1.0  -0.1445
  N  N195  1  0.378200  0.739200  0.928900  1.0  -0.354
  N  N196  1  0.799000  0.202300  0.752300  1.0  -0.3366
  N  N197  1  0.299000  0.297700  0.247700  1.0  -0.3367
  N  N198  1  0.899800  0.990600  0.584800  1.0  -0.1002
  N  N199  1  0.600200  0.009400  0.084800  1.0  -0.1003
  N  N200  1  0.568100  0.037300  0.010600  1.0  -0.314
  N  N201  1  0.121800  0.260800  0.428900  1.0  -0.3531
  N  N202  1  0.016300  0.603500  0.182400  1.0  -0.3475
  N  N203  1  0.201000  0.702300  0.747700  1.0  -0.3335
  N  N204  1  0.431900  0.537300  0.489400  1.0  -0.3123
  O  O205  1  0.007000  0.151100  0.471700  1.0  -0.5748
  O  O206  1  0.372800  0.572800  0.803300  1.0  -0.6381
  O  O207  1  0.878200  0.957400  0.331000  1.0  -0.6105
  O  O208  1  0.111400  0.201700  0.276300  1.0  -0.5717
  O  O209  1  0.284600  0.351000  0.425200  1.0  -0.6186
  O  O210  1  0.781700  0.110000  0.441200  1.0  -0.6077
  O  O211  1  0.493000  0.848900  0.971700  1.0  -0.5732
  O  O212  1  0.627200  0.072800  0.696700  1.0  -0.6387
  O  O213  1  0.281700  0.390000  0.558800  1.0  -0.6071
  O  O214  1  0.215400  0.649000  0.925200  1.0  -0.6203
  O  O215  1  0.507000  0.348900  0.528300  1.0  -0.574
  O  O216  1  0.715400  0.851000  0.074800  1.0  -0.6201
  O  O217  1  0.784600  0.149000  0.574800  1.0  -0.6195
  O  O218  1  0.121800  0.457400  0.169000  1.0  -0.6104
  O  O219  1  0.378200  0.542600  0.669000  1.0  -0.612
  O  O220  1  0.872800  0.927200  0.196700  1.0  -0.6376
  O  O221  1  0.621800  0.042600  0.831000  1.0  -0.6087
  O  O222  1  0.218300  0.610000  0.058800  1.0  -0.6084
  O  O223  1  0.127200  0.427200  0.303300  1.0  -0.6377
  O  O224  1  0.611400  0.298300  0.723700  1.0  -0.5722
  O  O225  1  0.888600  0.701700  0.223700  1.0  -0.5724
  O  O226  1  0.718300  0.890000  0.941200  1.0  -0.6068
  O  O227  1  0.388600  0.798300  0.776300  1.0  -0.5731
  O  O228  1  0.993000  0.651100  0.028300  1.0  -0.5735
