# generated using pymatgen
data_Cu2H23C19(NO)6
_symmetry_space_group_name_H-M   'P 1'
_cell_length_a   13.50400000
_cell_length_b   14.37500000
_cell_length_c   16.19300000
_cell_angle_alpha   90.00000000
_cell_angle_beta   90.00000000
_cell_angle_gamma   90.00000000
_symmetry_Int_Tables_number   1
_chemical_formula_structural   Cu2H23C19(NO)6
_chemical_formula_sum   'Cu8 H92 C76 N24 O24'
_cell_volume   3143.38516000
_cell_formula_units_Z   4
loop_
 _symmetry_equiv_pos_site_id
 _symmetry_equiv_pos_as_xyz
  1  'x, y, z'
loop_
 _atom_site_type_symbol
 _atom_site_label
 _atom_site_symmetry_multiplicity
 _atom_site_fract_x
 _atom_site_fract_y
 _atom_site_fract_z
 _atom_site_occupancy
 _atom_site_charge
  Cu  Cu1  1  0.700840  0.793240  0.163930  1.0  0.7684
  Cu  Cu2  1  0.299160  0.293240  0.336070  1.0  0.7685
  Cu  Cu3  1  0.430300  0.548700  0.085170  1.0  0.8023
  Cu  Cu4  1  0.200840  0.706760  0.836070  1.0  0.7695
  Cu  Cu5  1  0.569700  0.048700  0.414830  1.0  0.8024
  Cu  Cu6  1  0.930300  0.951300  0.914830  1.0  0.8021
  Cu  Cu7  1  0.069700  0.451300  0.585170  1.0  0.8022
  Cu  Cu8  1  0.799160  0.206760  0.663930  1.0  0.7694
  H  H9  1  0.211700  0.399200  0.028900  1.0  0.1147
  H  H10  1  0.093800  0.408400  0.024300  1.0  0.1048
  H  H11  1  0.566200  0.925300  0.021200  1.0  0.1088
  H  H12  1  0.553800  0.353900  0.700700  1.0  0.0994
  H  H13  1  0.160200  0.354200  0.788400  1.0  0.1104
  H  H14  1  0.373100  0.545300  0.904800  1.0  0.2767
  H  H15  1  0.126900  0.454700  0.404800  1.0  0.2748
  H  H16  1  0.023500  0.953100  0.709300  1.0  0.0815
  H  H17  1  0.536500  0.765800  0.439500  1.0  0.1175
  H  H18  1  0.072200  0.197700  0.962000  1.0  0.1017
  H  H19  1  0.822300  0.099700  0.243700  1.0  0.1199
  H  H20  1  0.339800  0.645800  0.288400  1.0  0.1106
  H  H21  1  0.568200  0.934300  0.766500  1.0  0.0992
  H  H22  1  0.353300  0.685600  0.494900  1.0  0.1124
  H  H23  1  0.493700  0.758400  0.831000  1.0  0.104
  H  H24  1  0.914300  0.295100  0.138100  1.0  0.2452
  H  H25  1  0.885000  0.712000  0.139600  1.0  0.1207
  H  H26  1  0.006300  0.241600  0.331000  1.0  0.1037
  H  H27  1  0.584300  0.913600  0.924100  1.0  0.1028
  H  H28  1  0.427800  0.802300  0.462000  1.0  0.1021
  H  H29  1  0.646600  0.759900  0.946400  1.0  0.0827
  H  H30  1  0.146700  0.314400  0.994900  1.0  0.1108
  H  H31  1  0.725900  0.864800  0.338900  1.0  0.3335
  H  H32  1  0.353400  0.259900  0.553600  1.0  0.0843
  H  H33  1  0.495700  0.859900  0.399200  1.0  0.1194
  H  H34  1  0.084300  0.586400  0.075900  1.0  0.1029
  H  H35  1  0.572200  0.302300  0.038000  1.0  0.102
  H  H36  1  0.931800  0.065700  0.266500  1.0  0.0984
  H  H37  1  0.946200  0.646100  0.200700  1.0  0.1002
  H  H38  1  0.497700  0.351700  0.530400  1.0  0.093
  H  H39  1  0.915700  0.086400  0.424100  1.0  0.1031
  H  H40  1  0.036500  0.734200  0.560500  1.0  0.1168
  H  H41  1  0.853400  0.240100  0.446400  1.0  0.0828
  H  H42  1  0.502300  0.851700  0.969600  1.0  0.092
  H  H43  1  0.053800  0.146100  0.299300  1.0  0.1
  H  H44  1  0.853300  0.814400  0.505100  1.0  0.1116
  H  H45  1  0.993700  0.741600  0.169000  1.0  0.104
  H  H46  1  0.066200  0.574700  0.978800  1.0  0.1084
  H  H47  1  0.647800  0.007200  0.732100  1.0  0.1088
  H  H48  1  0.414300  0.204900  0.861900  1.0  0.2447
  H  H49  1  0.559700  0.184800  0.172200  1.0  0.093
  H  H50  1  0.626900  0.045300  0.595200  1.0  0.2766
  H  H51  1  0.004300  0.140100  0.899200  1.0  0.1181
  H  H52  1  0.322300  0.400300  0.756300  1.0  0.1201
  H  H53  1  0.385900  0.597200  0.368600  1.0  0.0814
  H  H54  1  0.146600  0.740100  0.053600  1.0  0.0833
  H  H55  1  0.852200  0.992800  0.232100  1.0  0.107
  H  H56  1  0.085700  0.795100  0.361900  1.0  0.2455
  H  H57  1  0.352200  0.507200  0.767900  1.0  0.1068
  H  H58  1  0.885900  0.902800  0.631400  1.0  0.0821
  H  H59  1  0.385000  0.788000  0.860400  1.0  0.1206
  H  H60  1  0.433800  0.425300  0.478800  1.0  0.1092
  H  H61  1  0.476500  0.046900  0.209300  1.0  0.082
  H  H62  1  0.147800  0.492800  0.267900  1.0  0.1083
  H  H63  1  0.002300  0.648300  0.030400  1.0  0.0915
  H  H64  1  0.523500  0.546900  0.290700  1.0  0.081
  H  H65  1  0.068200  0.565700  0.233500  1.0  0.0985
  H  H66  1  0.995700  0.640100  0.600800  1.0  0.1202
  H  H67  1  0.933800  0.074700  0.521200  1.0  0.1091
  H  H68  1  0.274100  0.364800  0.161100  1.0  0.3323
  H  H69  1  0.614100  0.097200  0.131400  1.0  0.0816
  H  H70  1  0.177700  0.599700  0.256300  1.0  0.12
  H  H71  1  0.615000  0.288000  0.639600  1.0  0.1214
  H  H72  1  0.711700  0.100800  0.971100  1.0  0.1145
  H  H73  1  0.774100  0.135200  0.838900  1.0  0.3322
  H  H74  1  0.288300  0.600800  0.528900  1.0  0.1129
  H  H75  1  0.997700  0.148300  0.469600  1.0  0.0923
  H  H76  1  0.504300  0.359900  0.100800  1.0  0.1181
  H  H77  1  0.440300  0.684800  0.327800  1.0  0.0934
  H  H78  1  0.225900  0.635200  0.661100  1.0  0.3331
  H  H79  1  0.940300  0.815200  0.672200  1.0  0.0929
  H  H80  1  0.927800  0.697700  0.538000  1.0  0.1022
  H  H81  1  0.446200  0.853900  0.799300  1.0  0.1002
  H  H82  1  0.788300  0.899200  0.471100  1.0  0.1126
  H  H83  1  0.463500  0.265800  0.060500  1.0  0.1174
  H  H84  1  0.114100  0.402800  0.868600  1.0  0.0813
  H  H85  1  0.406200  0.591600  0.524300  1.0  0.1053
  H  H86  1  0.839800  0.854200  0.711600  1.0  0.1101
  H  H87  1  0.059700  0.315200  0.827800  1.0  0.0934
  H  H88  1  0.506300  0.258400  0.669000  1.0  0.1036
  H  H89  1  0.963500  0.234200  0.939500  1.0  0.1166
  H  H90  1  0.660200  0.145800  0.211600  1.0  0.1096
  H  H91  1  0.646700  0.185600  0.005100  1.0  0.1116
  H  H92  1  0.677700  0.900300  0.743700  1.0  0.1204
  H  H93  1  0.431800  0.434300  0.733500  1.0  0.0984
  H  H94  1  0.906200  0.908400  0.475700  1.0  0.1047
  H  H95  1  0.115000  0.212000  0.360400  1.0  0.1239
  H  H96  1  0.415700  0.413600  0.575900  1.0  0.1033
  H  H97  1  0.585700  0.704900  0.638100  1.0  0.2452
  H  H98  1  0.976500  0.453100  0.790700  1.0  0.0828
  H  H99  1  0.873100  0.954700  0.095200  1.0  0.2737
  H  H100  1  0.593800  0.091600  0.975700  1.0  0.1057
  C  C101  1  0.962500  0.124500  0.019500  1.0  0.2633
  C  C102  1  0.448600  0.345700  0.898100  1.0  -0.1349
  C  C103  1  0.004200  0.178800  0.949000  1.0  -0.3914
  C  C104  1  0.908700  0.077100  0.142300  1.0  0.1455
  C  C105  1  0.640500  0.173300  0.877700  1.0  0.1122
  C  C106  1  0.929700  0.776700  0.336300  1.0  -0.1479
  C  C107  1  0.495800  0.821200  0.449000  1.0  -0.3904
  C  C108  1  0.039400  0.436000  0.761900  1.0  0.0732
  C  C109  1  0.098500  0.371400  0.816500  1.0  -0.3631
  C  C110  1  0.995800  0.678800  0.551000  1.0  -0.391
  C  C111  1  0.389000  0.740200  0.742600  1.0  0.2517
  C  C112  1  0.091300  0.577100  0.357700  1.0  0.1461
  C  C113  1  0.855000  0.193800  0.492400  1.0  0.0699
  C  C114  1  0.533300  0.748900  0.635100  1.0  0.0265
  C  C115  1  0.401000  0.474700  0.244000  1.0  0.6547
  C  C116  1  0.355000  0.306200  0.507600  1.0  0.0708
  C  C117  1  0.067500  0.619200  0.024700  1.0  -0.367
  C  C118  1  0.099000  0.525300  0.744000  1.0  0.6533
  C  C119  1  0.599000  0.974700  0.256000  1.0  0.6544
  C  C120  1  0.901000  0.025300  0.756000  1.0  0.6524
  C  C121  1  0.941000  0.306900  0.581200  1.0  0.5378
  C  C122  1  0.948100  0.335400  0.670500  1.0  0.5714
  C  C123  1  0.567900  0.289200  0.685600  1.0  -0.411
  C  C124  1  0.859500  0.826700  0.377700  1.0  0.1128
  C  C125  1  0.966700  0.251100  0.135100  1.0  0.0249
  C  C126  1  0.567500  0.880800  0.975300  1.0  -0.3665
  C  C127  1  0.745700  0.852500  0.002000  1.0  0.6478
  C  C128  1  0.462500  0.375500  0.980500  1.0  0.2644
  C  C129  1  0.948600  0.154300  0.101900  1.0  -0.1347
  C  C130  1  0.359500  0.673300  0.622300  1.0  0.1135
  C  C131  1  0.067900  0.210800  0.314400  1.0  -0.4112
  C  C132  1  0.466700  0.248900  0.864900  1.0  0.0256
  C  C133  1  0.648900  0.134300  0.965300  1.0  -0.3611
  C  C134  1  0.460600  0.564000  0.261900  1.0  0.0741
  C  C135  1  0.441000  0.193100  0.418800  1.0  0.5373
  C  C136  1  0.559000  0.693100  0.081200  1.0  0.5382
  C  C137  1  0.059000  0.806900  0.918800  1.0  0.537
  C  C138  1  0.570300  0.223300  0.836300  1.0  -0.1482
  C  C139  1  0.037500  0.624500  0.480500  1.0  0.2603
  C  C140  1  0.611000  0.240200  0.757400  1.0  0.2469
  C  C141  1  0.537500  0.875500  0.519500  1.0  0.2638
  C  C142  1  0.448100  0.164600  0.329500  1.0  0.5712
  C  C143  1  0.504200  0.321200  0.051000  1.0  -0.3911
  C  C144  1  0.375900  0.442900  0.771400  1.0  -0.356
  C  C145  1  0.432100  0.789200  0.814400  1.0  -0.4107
  C  C146  1  0.645000  0.806200  0.992400  1.0  0.0667
  C  C147  1  0.145000  0.693800  0.007600  1.0  0.066
  C  C148  1  0.539400  0.064000  0.238100  1.0  0.0726
  C  C149  1  0.051400  0.654300  0.398100  1.0  -0.1343
  C  C150  1  0.624100  0.942900  0.728600  1.0  -0.3556
  C  C151  1  0.051900  0.835400  0.829500  1.0  0.5713
  C  C152  1  0.408700  0.422900  0.857700  1.0  0.1469
  C  C153  1  0.960600  0.936000  0.738100  1.0  0.074
  C  C154  1  0.351100  0.634300  0.534700  1.0  -0.3614
  C  C155  1  0.598500  0.128600  0.183500  1.0  -0.3634
  C  C156  1  0.070300  0.276700  0.163700  1.0  -0.1485
  C  C157  1  0.551900  0.664600  0.170500  1.0  0.5718
  C  C158  1  0.875900  0.057100  0.228600  1.0  -0.3556
  C  C159  1  0.754300  0.147500  0.502000  1.0  0.6485
  C  C160  1  0.432500  0.380800  0.524700  1.0  -0.368
  C  C161  1  0.901500  0.871400  0.683500  1.0  -0.3636
  C  C162  1  0.111000  0.259800  0.242600  1.0  0.2508
  C  C163  1  0.401500  0.628600  0.316500  1.0  -0.3634
  C  C164  1  0.033300  0.751100  0.364900  1.0  0.026
  C  C165  1  0.551400  0.845700  0.601900  1.0  -0.1352
  C  C166  1  0.851100  0.865700  0.465300  1.0  -0.3605
  C  C167  1  0.140500  0.326700  0.122300  1.0  0.1124
  C  C168  1  0.245700  0.647500  0.998000  1.0  0.6482
  C  C169  1  0.889000  0.759800  0.257400  1.0  0.2522
  C  C170  1  0.429700  0.723300  0.663700  1.0  -0.1478
  C  C171  1  0.591300  0.922900  0.642300  1.0  0.1458
  C  C172  1  0.124100  0.557100  0.271400  1.0  -0.3559
  C  C173  1  0.932500  0.119200  0.475300  1.0  -0.3681
  C  C174  1  0.254300  0.352500  0.498000  1.0  0.6471
  C  C175  1  0.932100  0.710800  0.185600  1.0  -0.4112
  C  C176  1  0.148900  0.365700  0.034700  1.0  -0.3609
  N  N177  1  0.516000  0.104400  0.317200  1.0  -0.3424
  N  N178  1  0.122200  0.739800  0.929600  1.0  -0.3594
  N  N179  1  0.798500  0.796700  0.252600  1.0  -0.3418
  N  N180  1  0.433200  0.463000  0.989300  1.0  -0.3265
  N  N181  1  0.622200  0.760200  0.070400  1.0  -0.3595
  N  N182  1  0.933200  0.037000  0.010700  1.0  -0.3292
  N  N183  1  0.298500  0.703300  0.747400  1.0  -0.3415
  N  N184  1  0.101200  0.509800  0.414800  1.0  -0.113
  N  N185  1  0.718700  0.163900  0.825800  1.0  -0.1598
  N  N186  1  0.984000  0.895600  0.817200  1.0  -0.3413
  N  N187  1  0.701500  0.203300  0.752600  1.0  -0.3405
  N  N188  1  0.218700  0.336100  0.174200  1.0  -0.1602
  N  N189  1  0.484000  0.604400  0.182800  1.0  -0.3414
  N  N190  1  0.898800  0.009800  0.085200  1.0  -0.1126
  N  N191  1  0.377800  0.260200  0.429600  1.0  -0.3609
  N  N192  1  0.066800  0.537000  0.489300  1.0  -0.3267
  N  N193  1  0.601200  0.990200  0.585200  1.0  -0.1135
  N  N194  1  0.877800  0.239800  0.570400  1.0  -0.3614
  N  N195  1  0.566800  0.963000  0.510700  1.0  -0.3268
  N  N196  1  0.398800  0.490200  0.914800  1.0  -0.113
  N  N197  1  0.781300  0.836100  0.325800  1.0  -0.1634
  N  N198  1  0.281300  0.663900  0.674200  1.0  -0.162
  N  N199  1  0.201500  0.296700  0.247400  1.0  -0.3394
  N  N200  1  0.016000  0.395600  0.682800  1.0  -0.3426
  O  O201  1  0.127800  0.572800  0.803100  1.0  -0.6429
  O  O202  1  0.121600  0.542400  0.668600  1.0  -0.6374
  O  O203  1  0.110700  0.798400  0.776400  1.0  -0.5784
  O  O204  1  0.378400  0.457600  0.168600  1.0  -0.6383
  O  O205  1  0.389300  0.201600  0.276400  1.0  -0.5803
  O  O206  1  0.717500  0.110400  0.441400  1.0  -0.6099
  O  O207  1  0.217500  0.389600  0.558600  1.0  -0.609
  O  O208  1  0.007600  0.850000  0.971600  1.0  -0.5745
  O  O209  1  0.507600  0.650000  0.028400  1.0  -0.5738
  O  O210  1  0.284800  0.649400  0.924800  1.0  -0.6296
  O  O211  1  0.372200  0.427200  0.303100  1.0  -0.6408
  O  O212  1  0.872200  0.072800  0.696900  1.0  -0.6408
  O  O213  1  0.215200  0.350600  0.424800  1.0  -0.6301
  O  O214  1  0.782500  0.889600  0.941400  1.0  -0.61
  O  O215  1  0.992400  0.350000  0.528400  1.0  -0.5743
  O  O216  1  0.610700  0.701600  0.223600  1.0  -0.5768
  O  O217  1  0.878400  0.042400  0.831400  1.0  -0.6367
  O  O218  1  0.621600  0.957600  0.331400  1.0  -0.6373
  O  O219  1  0.715200  0.149400  0.575200  1.0  -0.6317
  O  O220  1  0.282500  0.610400  0.058600  1.0  -0.6099
  O  O221  1  0.627800  0.927200  0.196900  1.0  -0.6433
  O  O222  1  0.492400  0.150000  0.471600  1.0  -0.5749
  O  O223  1  0.784800  0.850600  0.075200  1.0  -0.6298
  O  O224  1  0.889300  0.298400  0.723600  1.0  -0.579
