# generated using pymatgen
data_Yb4H32C64N8O17
_symmetry_space_group_name_H-M   'P 1'
_cell_length_a   22.71180000
_cell_length_b   22.71180000
_cell_length_c   22.71180000
_cell_angle_alpha   109.47100000
_cell_angle_beta   109.47100000
_cell_angle_gamma   109.47100000
_symmetry_Int_Tables_number   1
_chemical_formula_structural   Yb4H32C64N8O17
_chemical_formula_sum   'Yb12 H96 C192 N24 O51'
_cell_volume   9018.54179463
_cell_formula_units_Z   3
loop_
 _symmetry_equiv_pos_site_id
 _symmetry_equiv_pos_as_xyz
  1  'x, y, z'
loop_
 _atom_site_type_symbol
 _atom_site_label
 _atom_site_symmetry_multiplicity
 _atom_site_fract_x
 _atom_site_fract_y
 _atom_site_fract_z
 _atom_site_occupancy
 _atom_site_charge
  Yb  Yb1  1  0.897100  0.500000  0.397100  1.0  1.5353
  Yb  Yb2  1  0.102900  0.500000  0.602900  1.0  1.5343
  Yb  Yb3  1  0.397100  0.897100  0.500000  1.0  1.5355
  Yb  Yb4  1  0.602900  0.102900  0.500000  1.0  1.5348
  Yb  Yb5  1  0.500000  0.602900  0.102900  1.0  1.5352
  Yb  Yb6  1  0.500000  0.397100  0.897100  1.0  1.5353
  Yb  Yb7  1  0.500000  0.102900  0.602900  1.0  1.5352
  Yb  Yb8  1  0.500000  0.897100  0.397100  1.0  1.5353
  Yb  Yb9  1  0.102900  0.602900  0.500000  1.0  1.5348
  Yb  Yb10  1  0.897100  0.397100  0.500000  1.0  1.5355
  Yb  Yb11  1  0.397100  0.500000  0.897100  1.0  1.5353
  Yb  Yb12  1  0.602900  0.500000  0.102900  1.0  1.5343
  H  H13  1  0.746000  0.551000  0.443400  1.0  0.1117
  H  H14  1  0.673100  0.586200  0.479300  1.0  0.106
  H  H15  1  0.107600  0.302600  0.556600  1.0  0.1116
  H  H16  1  0.106900  0.193800  0.520700  1.0  0.1055
  H  H17  1  0.892400  0.449000  0.195000  1.0  0.1102
  H  H18  1  0.893100  0.413800  0.086900  1.0  0.104
  H  H19  1  0.254000  0.697400  0.805000  1.0  0.1129
  H  H20  1  0.326900  0.806200  0.913100  1.0  0.1056
  H  H21  1  0.195000  0.892400  0.449000  1.0  0.1106
  H  H22  1  0.086900  0.893100  0.413800  1.0  0.1048
  H  H23  1  0.805000  0.254000  0.697400  1.0  0.1116
  H  H24  1  0.913100  0.326900  0.806200  1.0  0.107
  H  H25  1  0.443400  0.746000  0.551000  1.0  0.1119
  H  H26  1  0.479300  0.673100  0.586200  1.0  0.1072
  H  H27  1  0.556600  0.107600  0.302600  1.0  0.1123
  H  H28  1  0.520700  0.106900  0.193800  1.0  0.1063
  H  H29  1  0.302600  0.556600  0.107600  1.0  0.111
  H  H30  1  0.193800  0.520700  0.106900  1.0  0.1047
  H  H31  1  0.551000  0.443400  0.746000  1.0  0.112
  H  H32  1  0.586200  0.479300  0.673100  1.0  0.1056
  H  H33  1  0.697400  0.805000  0.254000  1.0  0.1128
  H  H34  1  0.806200  0.913100  0.326900  1.0  0.106
  H  H35  1  0.449000  0.195000  0.892400  1.0  0.1093
  H  H36  1  0.413800  0.086900  0.893100  1.0  0.1046
  H  H37  1  0.449000  0.254000  0.556600  1.0  0.1123
  H  H38  1  0.413800  0.326900  0.520700  1.0  0.1072
  H  H39  1  0.697400  0.892400  0.443400  1.0  0.1117
  H  H40  1  0.806200  0.893100  0.479300  1.0  0.1072
  H  H41  1  0.551000  0.107600  0.805000  1.0  0.1104
  H  H42  1  0.586200  0.106900  0.913100  1.0  0.1044
  H  H43  1  0.302600  0.746000  0.195000  1.0  0.1121
  H  H44  1  0.193800  0.673100  0.086900  1.0  0.1059
  H  H45  1  0.107600  0.805000  0.551000  1.0  0.1104
  H  H46  1  0.106900  0.913100  0.586200  1.0  0.105
  H  H47  1  0.746000  0.195000  0.302600  1.0  0.1123
  H  H48  1  0.673100  0.086900  0.193800  1.0  0.105
  H  H49  1  0.254000  0.556600  0.449000  1.0  0.1118
  H  H50  1  0.326900  0.520700  0.413800  1.0  0.1045
  H  H51  1  0.892400  0.443400  0.697400  1.0  0.1113
  H  H52  1  0.893100  0.479300  0.806200  1.0  0.1067
  H  H53  1  0.443400  0.697400  0.892400  1.0  0.1119
  H  H54  1  0.479300  0.806200  0.893100  1.0  0.1066
  H  H55  1  0.556600  0.449000  0.254000  1.0  0.1112
  H  H56  1  0.520700  0.413800  0.326900  1.0  0.1069
  H  H57  1  0.195000  0.302600  0.746000  1.0  0.1122
  H  H58  1  0.086900  0.193800  0.673100  1.0  0.1074
  H  H59  1  0.805000  0.551000  0.107600  1.0  0.1098
  H  H60  1  0.913100  0.586200  0.106900  1.0  0.1038
  H  H61  1  0.254000  0.449000  0.556600  1.0  0.1118
  H  H62  1  0.326900  0.413800  0.520700  1.0  0.1055
  H  H63  1  0.892400  0.697400  0.443400  1.0  0.111
  H  H64  1  0.893100  0.806200  0.479300  1.0  0.1079
  H  H65  1  0.107600  0.551000  0.805000  1.0  0.1098
  H  H66  1  0.106900  0.586200  0.913100  1.0  0.1046
  H  H67  1  0.746000  0.302600  0.195000  1.0  0.1129
  H  H68  1  0.673100  0.193800  0.086900  1.0  0.1057
  H  H69  1  0.805000  0.107600  0.551000  1.0  0.1107
  H  H70  1  0.913100  0.106900  0.586200  1.0  0.1055
  H  H71  1  0.195000  0.746000  0.302600  1.0  0.1121
  H  H72  1  0.086900  0.673100  0.193800  1.0  0.107
  H  H73  1  0.556600  0.254000  0.449000  1.0  0.1119
  H  H74  1  0.520700  0.326900  0.413800  1.0  0.1073
  H  H75  1  0.443400  0.892400  0.697400  1.0  0.1114
  H  H76  1  0.479300  0.893100  0.806200  1.0  0.1072
  H  H77  1  0.697400  0.443400  0.892400  1.0  0.111
  H  H78  1  0.806200  0.479300  0.893100  1.0  0.1051
  H  H79  1  0.449000  0.556600  0.254000  1.0  0.112
  H  H80  1  0.413800  0.520700  0.326900  1.0  0.1063
  H  H81  1  0.302600  0.195000  0.746000  1.0  0.112
  H  H82  1  0.193800  0.086900  0.673100  1.0  0.1057
  H  H83  1  0.551000  0.805000  0.107600  1.0  0.1103
  H  H84  1  0.586200  0.913100  0.106900  1.0  0.1044
  H  H85  1  0.551000  0.746000  0.443400  1.0  0.1118
  H  H86  1  0.586200  0.673100  0.479300  1.0  0.1064
  H  H87  1  0.302600  0.107600  0.556600  1.0  0.1121
  H  H88  1  0.193800  0.106900  0.520700  1.0  0.107
  H  H89  1  0.449000  0.892400  0.195000  1.0  0.1107
  H  H90  1  0.413800  0.893100  0.086900  1.0  0.1037
  H  H91  1  0.697400  0.254000  0.805000  1.0  0.1121
  H  H92  1  0.806200  0.326900  0.913100  1.0  0.1071
  H  H93  1  0.892400  0.195000  0.449000  1.0  0.1107
  H  H94  1  0.893100  0.086900  0.413800  1.0  0.1043
  H  H95  1  0.254000  0.805000  0.697400  1.0  0.1117
  H  H96  1  0.326900  0.913100  0.806200  1.0  0.1059
  H  H97  1  0.746000  0.443400  0.551000  1.0  0.1116
  H  H98  1  0.673100  0.479300  0.586200  1.0  0.104
  H  H99  1  0.107600  0.556600  0.302600  1.0  0.1116
  H  H100  1  0.106900  0.520700  0.193800  1.0  0.1065
  H  H101  1  0.556600  0.302600  0.107600  1.0  0.112
  H  H102  1  0.520700  0.193800  0.106900  1.0  0.1063
  H  H103  1  0.443400  0.551000  0.746000  1.0  0.1118
  H  H104  1  0.479300  0.586200  0.673100  1.0  0.1065
  H  H105  1  0.805000  0.697400  0.254000  1.0  0.112
  H  H106  1  0.913100  0.806200  0.326900  1.0  0.1047
  H  H107  1  0.195000  0.449000  0.892400  1.0  0.1099
  H  H108  1  0.086900  0.413800  0.893100  1.0  0.1042
  C  C109  1  0.732600  0.537300  0.473700  1.0  -0.0676
  C  C110  1  0.688000  0.557200  0.494200  1.0  -0.0402
  C  C111  1  0.063600  0.258900  0.526300  1.0  -0.0627
  C  C112  1  0.063000  0.193800  0.505800  1.0  -0.0402
  C  C113  1  0.936400  0.462700  0.195300  1.0  -0.0641
  C  C114  1  0.937000  0.442800  0.130800  1.0  -0.0398
  C  C115  1  0.267400  0.741100  0.804700  1.0  -0.0643
  C  C116  1  0.312000  0.806200  0.869200  1.0  -0.0405
  C  C117  1  0.195300  0.936400  0.462700  1.0  -0.0626
  C  C118  1  0.130800  0.937000  0.442800  1.0  -0.0429
  C  C119  1  0.804700  0.267400  0.741100  1.0  -0.0653
  C  C120  1  0.869200  0.312000  0.806200  1.0  -0.0418
  C  C121  1  0.473700  0.732600  0.537300  1.0  -0.0676
  C  C122  1  0.494200  0.688000  0.557200  1.0  -0.0414
  C  C123  1  0.526300  0.063600  0.258900  1.0  -0.0652
  C  C124  1  0.505800  0.063000  0.193800  1.0  -0.0387
  C  C125  1  0.258900  0.526300  0.063600  1.0  -0.0637
  C  C126  1  0.193800  0.505800  0.063000  1.0  -0.0354
  C  C127  1  0.537300  0.473700  0.732600  1.0  -0.0648
  C  C128  1  0.557200  0.494200  0.688000  1.0  -0.0358
  C  C129  1  0.741100  0.804700  0.267400  1.0  -0.0632
  C  C130  1  0.806200  0.869200  0.312000  1.0  -0.0427
  C  C131  1  0.462700  0.195300  0.936400  1.0  -0.063
  C  C132  1  0.442800  0.130800  0.937000  1.0  -0.0359
  C  C133  1  0.462700  0.267400  0.526300  1.0  -0.0677
  C  C134  1  0.442800  0.312000  0.505800  1.0  -0.0407
  C  C135  1  0.741100  0.936400  0.473700  1.0  -0.0636
  C  C136  1  0.806200  0.937000  0.494200  1.0  -0.0436
  C  C137  1  0.537300  0.063600  0.804700  1.0  -0.0631
  C  C138  1  0.557200  0.063000  0.869200  1.0  -0.0379
  C  C139  1  0.258900  0.732600  0.195300  1.0  -0.0643
  C  C140  1  0.193800  0.688000  0.130800  1.0  -0.0433
  C  C141  1  0.063600  0.804700  0.537300  1.0  -0.0605
  C  C142  1  0.063000  0.869200  0.557200  1.0  -0.0408
  C  C143  1  0.732600  0.195300  0.258900  1.0  -0.0647
  C  C144  1  0.688000  0.130800  0.193800  1.0  -0.0394
  C  C145  1  0.267400  0.526300  0.462700  1.0  -0.066
  C  C146  1  0.312000  0.505800  0.442800  1.0  -0.0347
  C  C147  1  0.936400  0.473700  0.741100  1.0  -0.0641
  C  C148  1  0.937000  0.494200  0.806200  1.0  -0.0352
  C  C149  1  0.473700  0.741100  0.936400  1.0  -0.066
  C  C150  1  0.494200  0.806200  0.937000  1.0  -0.0387
  C  C151  1  0.526300  0.462700  0.267400  1.0  -0.0664
  C  C152  1  0.505800  0.442800  0.312000  1.0  -0.0394
  C  C153  1  0.195300  0.258900  0.732600  1.0  -0.0616
  C  C154  1  0.130800  0.193800  0.688000  1.0  -0.0431
  C  C155  1  0.804700  0.537300  0.063600  1.0  -0.0653
  C  C156  1  0.869200  0.557200  0.063000  1.0  -0.0404
  C  C157  1  0.267400  0.462700  0.526300  1.0  -0.0678
  C  C158  1  0.312000  0.442800  0.505800  1.0  -0.0412
  C  C159  1  0.936400  0.741100  0.473700  1.0  -0.0625
  C  C160  1  0.937000  0.806200  0.494200  1.0  -0.0418
  C  C161  1  0.063600  0.537300  0.804700  1.0  -0.0632
  C  C162  1  0.063000  0.557200  0.869200  1.0  -0.0392
  C  C163  1  0.732600  0.258900  0.195300  1.0  -0.0647
  C  C164  1  0.688000  0.193800  0.130800  1.0  -0.0409
  C  C165  1  0.804700  0.063600  0.537300  1.0  -0.0633
  C  C166  1  0.869200  0.063000  0.557200  1.0  -0.043
  C  C167  1  0.195300  0.732600  0.258900  1.0  -0.0665
  C  C168  1  0.130800  0.688000  0.193800  1.0  -0.0434
  C  C169  1  0.526300  0.267400  0.462700  1.0  -0.0666
  C  C170  1  0.505800  0.312000  0.442800  1.0  -0.0419
  C  C171  1  0.473700  0.936400  0.741100  1.0  -0.0645
  C  C172  1  0.494200  0.937000  0.806200  1.0  -0.0389
  C  C173  1  0.741100  0.473700  0.936400  1.0  -0.0645
  C  C174  1  0.806200  0.494200  0.937000  1.0  -0.0363
  C  C175  1  0.462700  0.526300  0.267400  1.0  -0.0662
  C  C176  1  0.442800  0.505800  0.312000  1.0  -0.0351
  C  C177  1  0.258900  0.195300  0.732600  1.0  -0.0609
  C  C178  1  0.193800  0.130800  0.688000  1.0  -0.0421
  C  C179  1  0.537300  0.804700  0.063600  1.0  -0.064
  C  C180  1  0.557200  0.869200  0.063000  1.0  -0.0388
  C  C181  1  0.537300  0.732600  0.473700  1.0  -0.0679
  C  C182  1  0.557200  0.688000  0.494200  1.0  -0.0408
  C  C183  1  0.258900  0.063600  0.526300  1.0  -0.0643
  C  C184  1  0.193800  0.063000  0.505800  1.0  -0.0438
  C  C185  1  0.462700  0.936400  0.195300  1.0  -0.0633
  C  C186  1  0.442800  0.937000  0.130800  1.0  -0.0392
  C  C187  1  0.741100  0.267400  0.804700  1.0  -0.0652
  C  C188  1  0.806200  0.312000  0.869200  1.0  -0.0442
  C  C189  1  0.936400  0.195300  0.462700  1.0  -0.0627
  C  C190  1  0.937000  0.130800  0.442800  1.0  -0.04
  C  C191  1  0.267400  0.804700  0.741100  1.0  -0.0642
  C  C192  1  0.312000  0.869200  0.806200  1.0  -0.0402
  C  C193  1  0.732600  0.473700  0.537300  1.0  -0.0652
  C  C194  1  0.688000  0.494200  0.557200  1.0  -0.0348
  C  C195  1  0.063600  0.526300  0.258900  1.0  -0.0632
  C  C196  1  0.063000  0.505800  0.193800  1.0  -0.0369
  C  C197  1  0.526300  0.258900  0.063600  1.0  -0.0656
  C  C198  1  0.505800  0.193800  0.063000  1.0  -0.0401
  C  C199  1  0.473700  0.537300  0.732600  1.0  -0.0677
  C  C200  1  0.494200  0.557200  0.688000  1.0  -0.0395
  C  C201  1  0.804700  0.741100  0.267400  1.0  -0.0631
  C  C202  1  0.869200  0.806200  0.312000  1.0  -0.0417
  C  C203  1  0.195300  0.462700  0.936400  1.0  -0.0638
  C  C204  1  0.130800  0.442800  0.937000  1.0  -0.0408
  C  C205  1  0.665400  0.535400  0.535400  1.0  -0.1231
  C  C206  1  0.613600  0.554500  0.554500  1.0  0.3789
  C  C207  1  0.799400  0.472900  0.472900  1.0  0.7034
  C  C208  1  0.756800  0.497600  0.497600  1.0  -0.1097
  C  C209  1  0.000000  0.130000  0.464600  1.0  -0.12
  C  C210  1  0.000000  0.059100  0.445500  1.0  0.3739
  C  C211  1  0.000000  0.326500  0.527100  1.0  0.7122
  C  C212  1  0.000000  0.259200  0.502400  1.0  -0.1143
  C  C213  1  0.000000  0.464600  0.130000  1.0  -0.1234
  C  C214  1  0.000000  0.445500  0.059100  1.0  0.3735
  C  C215  1  0.000000  0.527100  0.326500  1.0  0.7126
  C  C216  1  0.000000  0.502400  0.259200  1.0  -0.1141
  C  C217  1  0.334600  0.870000  0.870000  1.0  -0.1188
  C  C218  1  0.386400  0.940900  0.940900  1.0  0.386
  C  C219  1  0.200600  0.673500  0.673500  1.0  0.7034
  C  C220  1  0.243200  0.740800  0.740800  1.0  -0.1192
  C  C221  1  0.130000  0.000000  0.464600  1.0  -0.1222
  C  C222  1  0.059100  0.000000  0.445500  1.0  0.3717
  C  C223  1  0.326500  0.000000  0.527100  1.0  0.713
  C  C224  1  0.259200  0.000000  0.502400  1.0  -0.1139
  C  C225  1  0.870000  0.334600  0.870000  1.0  -0.1196
  C  C226  1  0.940900  0.386400  0.940900  1.0  0.3845
  C  C227  1  0.673500  0.200600  0.673500  1.0  0.7043
  C  C228  1  0.740800  0.243200  0.740800  1.0  -0.1166
  C  C229  1  0.535400  0.665400  0.535400  1.0  -0.1232
  C  C230  1  0.554500  0.613600  0.554500  1.0  0.3788
  C  C231  1  0.472900  0.799400  0.472900  1.0  0.7034
  C  C232  1  0.497600  0.756800  0.497600  1.0  -0.11
  C  C233  1  0.464600  0.000000  0.130000  1.0  -0.1243
  C  C234  1  0.445500  0.000000  0.059100  1.0  0.3759
  C  C235  1  0.527100  0.000000  0.326500  1.0  0.7138
  C  C236  1  0.502400  0.000000  0.259200  1.0  -0.1158
  C  C237  1  0.130000  0.464600  0.000000  1.0  -0.1242
  C  C238  1  0.059100  0.445500  0.000000  1.0  0.3738
  C  C239  1  0.326500  0.527100  0.000000  1.0  0.7126
  C  C240  1  0.259200  0.502400  0.000000  1.0  -0.1136
  C  C241  1  0.535400  0.535400  0.665400  1.0  -0.1228
  C  C242  1  0.554500  0.554500  0.613600  1.0  0.3795
  C  C243  1  0.472900  0.472900  0.799400  1.0  0.7036
  C  C244  1  0.497600  0.497600  0.756800  1.0  -0.1108
  C  C245  1  0.870000  0.870000  0.334600  1.0  -0.1155
  C  C246  1  0.940900  0.940900  0.386400  1.0  0.3818
  C  C247  1  0.673500  0.673500  0.200600  1.0  0.7036
  C  C248  1  0.740800  0.740800  0.243200  1.0  -0.1186
  C  C249  1  0.464600  0.130000  0.000000  1.0  -0.1223
  C  C250  1  0.445500  0.059100  0.000000  1.0  0.3754
  C  C251  1  0.527100  0.326500  0.000000  1.0  0.7111
  C  C252  1  0.502400  0.259200  0.000000  1.0  -0.1147
  C  C253  1  0.464600  0.334600  0.464600  1.0  -0.1235
  C  C254  1  0.445500  0.386400  0.445500  1.0  0.3792
  C  C255  1  0.527100  0.200600  0.527100  1.0  0.7031
  C  C256  1  0.502400  0.243200  0.502400  1.0  -0.1109
  C  C257  1  0.870000  0.000000  0.535400  1.0  -0.1202
  C  C258  1  0.940900  0.000000  0.554500  1.0  0.3768
  C  C259  1  0.673500  0.000000  0.472900  1.0  0.7116
  C  C260  1  0.740800  0.000000  0.497600  1.0  -0.1147
  C  C261  1  0.535400  0.000000  0.870000  1.0  -0.1246
  C  C262  1  0.554500  0.000000  0.940900  1.0  0.3738
  C  C263  1  0.472900  0.000000  0.673500  1.0  0.7139
  C  C264  1  0.497600  0.000000  0.740800  1.0  -0.1161
  C  C265  1  0.130000  0.665400  0.130000  1.0  -0.1193
  C  C266  1  0.059100  0.613600  0.059100  1.0  0.3855
  C  C267  1  0.326500  0.799400  0.326500  1.0  0.7038
  C  C268  1  0.259200  0.756800  0.259200  1.0  -0.1174
  C  C269  1  0.000000  0.870000  0.535400  1.0  -0.1198
  C  C270  1  0.000000  0.940900  0.554500  1.0  0.3767
  C  C271  1  0.000000  0.673500  0.472900  1.0  0.7107
  C  C272  1  0.000000  0.740800  0.497600  1.0  -0.1164
  C  C273  1  0.665400  0.130000  0.130000  1.0  -0.1194
  C  C274  1  0.613600  0.059100  0.059100  1.0  0.3852
  C  C275  1  0.799400  0.326500  0.326500  1.0  0.703
  C  C276  1  0.756800  0.259200  0.259200  1.0  -0.1171
  C  C277  1  0.334600  0.464600  0.464600  1.0  -0.1238
  C  C278  1  0.386400  0.445500  0.445500  1.0  0.3818
  C  C279  1  0.200600  0.527100  0.527100  1.0  0.7032
  C  C280  1  0.243200  0.502400  0.502400  1.0  -0.1096
  C  C281  1  0.000000  0.535400  0.870000  1.0  -0.1261
  C  C282  1  0.000000  0.554500  0.940900  1.0  0.3732
  C  C283  1  0.000000  0.472900  0.673500  1.0  0.7129
  C  C284  1  0.000000  0.497600  0.740800  1.0  -0.1155
  C  C285  1  0.535400  0.870000  0.000000  1.0  -0.1235
  C  C286  1  0.554500  0.940900  0.000000  1.0  0.374
  C  C287  1  0.472900  0.673500  0.000000  1.0  0.7108
  C  C288  1  0.497600  0.740800  0.000000  1.0  -0.1156
  C  C289  1  0.464600  0.464600  0.334600  1.0  -0.1268
  C  C290  1  0.445500  0.445500  0.386400  1.0  0.379
  C  C291  1  0.527100  0.527100  0.200600  1.0  0.7045
  C  C292  1  0.502400  0.502400  0.243200  1.0  -0.1117
  C  C293  1  0.130000  0.130000  0.665400  1.0  -0.1131
  C  C294  1  0.059100  0.059100  0.613600  1.0  0.3867
  C  C295  1  0.326500  0.326500  0.799400  1.0  0.7031
  C  C296  1  0.259200  0.259200  0.756800  1.0  -0.1184
  C  C297  1  0.870000  0.535400  0.000000  1.0  -0.1249
  C  C298  1  0.940900  0.554500  0.000000  1.0  0.3757
  C  C299  1  0.673500  0.472900  0.000000  1.0  0.7114
  C  C300  1  0.740800  0.497600  0.000000  1.0  -0.114
  N  N301  1  0.598600  0.598600  0.534000  1.0  -0.432
  N  N302  1  0.064600  0.064600  0.466000  1.0  -0.423
  N  N303  1  0.935400  0.401400  0.000000  1.0  -0.4296
  N  N304  1  0.401400  0.935400  0.000000  1.0  -0.4282
  N  N305  1  0.000000  0.935400  0.401400  1.0  -0.4241
  N  N306  1  0.000000  0.401400  0.935400  1.0  -0.4313
  N  N307  1  0.534000  0.598600  0.598600  1.0  -0.4262
  N  N308  1  0.466000  0.064600  0.064600  1.0  -0.4277
  N  N309  1  0.064600  0.466000  0.064600  1.0  -0.4291
  N  N310  1  0.598600  0.534000  0.598600  1.0  -0.4239
  N  N311  1  0.935400  0.000000  0.401400  1.0  -0.4239
  N  N312  1  0.401400  0.000000  0.935400  1.0  -0.4287
  N  N313  1  0.401400  0.401400  0.466000  1.0  -0.4295
  N  N314  1  0.935400  0.935400  0.534000  1.0  -0.4247
  N  N315  1  0.598600  0.064600  0.000000  1.0  -0.4258
  N  N316  1  0.064600  0.598600  0.000000  1.0  -0.4308
  N  N317  1  0.064600  0.000000  0.598600  1.0  -0.4253
  N  N318  1  0.598600  0.000000  0.064600  1.0  -0.4245
  N  N319  1  0.401400  0.466000  0.401400  1.0  -0.4241
  N  N320  1  0.935400  0.534000  0.935400  1.0  -0.4279
  N  N321  1  0.534000  0.935400  0.935400  1.0  -0.4267
  N  N322  1  0.466000  0.401400  0.401400  1.0  -0.4262
  N  N323  1  0.000000  0.064600  0.598600  1.0  -0.4252
  N  N324  1  0.000000  0.598600  0.064600  1.0  -0.4297
  O  O325  1  0.817900  0.495200  0.433500  1.0  -0.6683
  O  O326  1  0.061700  0.384400  0.566500  1.0  -0.6735
  O  O327  1  0.938300  0.504800  0.322700  1.0  -0.6662
  O  O328  1  0.182100  0.615600  0.677300  1.0  -0.6679
  O  O329  1  0.322700  0.938300  0.504800  1.0  -0.6655
  O  O330  1  0.677300  0.182100  0.615600  1.0  -0.6676
  O  O331  1  0.433500  0.817900  0.495200  1.0  -0.6691
  O  O332  1  0.566500  0.061700  0.384400  1.0  -0.6729
  O  O333  1  0.384400  0.566500  0.061700  1.0  -0.6728
  O  O334  1  0.495200  0.433500  0.817900  1.0  -0.6707
  O  O335  1  0.615600  0.677300  0.182100  1.0  -0.6702
  O  O336  1  0.504800  0.322700  0.938300  1.0  -0.664
  O  O337  1  0.504800  0.182100  0.566500  1.0  -0.6678
  O  O338  1  0.615600  0.938300  0.433500  1.0  -0.6723
  O  O339  1  0.495200  0.061700  0.677300  1.0  -0.6691
  O  O340  1  0.384400  0.817900  0.322700  1.0  -0.6676
  O  O341  1  0.061700  0.677300  0.495200  1.0  -0.6678
  O  O342  1  0.817900  0.322700  0.384400  1.0  -0.6667
  O  O343  1  0.182100  0.566500  0.504800  1.0  -0.669
  O  O344  1  0.938300  0.433500  0.615600  1.0  -0.6731
  O  O345  1  0.433500  0.615600  0.938300  1.0  -0.6736
  O  O346  1  0.566500  0.504800  0.182100  1.0  -0.6691
  O  O347  1  0.322700  0.384400  0.817900  1.0  -0.6699
  O  O348  1  0.677300  0.495200  0.061700  1.0  -0.6664
  O  O349  1  0.182100  0.504800  0.566500  1.0  -0.6671
  O  O350  1  0.938300  0.615600  0.433500  1.0  -0.6733
  O  O351  1  0.061700  0.495200  0.677300  1.0  -0.6659
  O  O352  1  0.817900  0.384400  0.322700  1.0  -0.6705
  O  O353  1  0.677300  0.061700  0.495200  1.0  -0.6664
  O  O354  1  0.322700  0.817900  0.384400  1.0  -0.6688
  O  O355  1  0.566500  0.182100  0.504800  1.0  -0.6695
  O  O356  1  0.433500  0.938300  0.615600  1.0  -0.6727
  O  O357  1  0.615600  0.433500  0.938300  1.0  -0.6725
  O  O358  1  0.504800  0.566500  0.182100  1.0  -0.6701
  O  O359  1  0.384400  0.322700  0.817900  1.0  -0.6684
  O  O360  1  0.495200  0.677300  0.061700  1.0  -0.6645
  O  O361  1  0.495200  0.817900  0.433500  1.0  -0.6676
  O  O362  1  0.384400  0.061700  0.566500  1.0  -0.6718
  O  O363  1  0.504800  0.938300  0.322700  1.0  -0.6682
  O  O364  1  0.615600  0.182100  0.677300  1.0  -0.6673
  O  O365  1  0.938300  0.322700  0.504800  1.0  -0.6686
  O  O366  1  0.182100  0.677300  0.615600  1.0  -0.6681
  O  O367  1  0.817900  0.433500  0.495200  1.0  -0.6693
  O  O368  1  0.061700  0.566500  0.384400  1.0  -0.6734
  O  O369  1  0.566500  0.384400  0.061700  1.0  -0.6733
  O  O370  1  0.433500  0.495200  0.817900  1.0  -0.6692
  O  O371  1  0.677300  0.615600  0.182100  1.0  -0.6703
  O  O372  1  0.322700  0.504800  0.938300  1.0  -0.6665
  O  O373  1  0.000000  0.500000  0.500000  1.0  -0.6193
  O  O374  1  0.500000  0.000000  0.500000  1.0  -0.6193
  O  O375  1  0.500000  0.500000  0.000000  1.0  -0.6193
