# generated using pymatgen
data_Li3Co2C30(NO3)6
_symmetry_space_group_name_H-M   'P 1'
_cell_length_a   18.65800000
_cell_length_b   18.65800000
_cell_length_c   14.84000000
_cell_angle_alpha   90.00000000
_cell_angle_beta   90.00000000
_cell_angle_gamma   120.00000000
_symmetry_Int_Tables_number   1
_chemical_formula_structural   Li3Co2C30(NO3)6
_chemical_formula_sum   'Li6 Co4 C60 N12 O36'
_cell_volume   4473.98692046
_cell_formula_units_Z   2
loop_
 _symmetry_equiv_pos_site_id
 _symmetry_equiv_pos_as_xyz
  1  'x, y, z'
loop_
 _atom_site_type_symbol
 _atom_site_label
 _atom_site_symmetry_multiplicity
 _atom_site_fract_x
 _atom_site_fract_y
 _atom_site_fract_z
 _atom_site_occupancy
 _atom_site_charge
  Li  Li1  1  0.500000  0.500000  0.000000  1.0  0.9588
  Li  Li2  1  0.500000  0.000000  0.000000  1.0  0.9588
  Li  Li3  1  0.000000  0.500000  0.000000  1.0  0.9588
  Li  Li4  1  0.500000  0.500000  0.500000  1.0  0.9588
  Li  Li5  1  0.500000  0.000000  0.500000  1.0  0.9588
  Li  Li6  1  0.000000  0.500000  0.500000  1.0  0.9588
  Co  Co7  1  0.333333  0.666667  0.019180  1.0  0.9189
  Co  Co8  1  0.666667  0.333333  0.519180  1.0  0.9189
  Co  Co9  1  0.666667  0.333333  0.980820  1.0  0.9194
  Co  Co10  1  0.333333  0.666667  0.480820  1.0  0.9194
  C  C11  1  0.304400  0.535100  0.168200  1.0  0.1367
  C  C12  1  0.223200  0.470000  0.169300  1.0  -0.0094
  C  C13  1  0.398000  0.556500  0.053000  1.0  0.5705
  C  C14  1  0.438400  0.603500  0.965800  1.0  0.5784
  C  C15  1  0.464900  0.769300  0.168200  1.0  0.1358
  C  C16  1  0.530000  0.753200  0.169300  1.0  -0.0115
  C  C17  1  0.443500  0.841500  0.053000  1.0  0.5699
  C  C18  1  0.396500  0.834900  0.965800  1.0  0.5774
  C  C19  1  0.230700  0.695600  0.168200  1.0  0.1347
  C  C20  1  0.246800  0.776800  0.169300  1.0  -0.0049
  C  C21  1  0.158500  0.602000  0.053000  1.0  0.5718
  C  C22  1  0.165100  0.561600  0.965800  1.0  0.5749
  C  C23  1  0.695600  0.464900  0.668200  1.0  0.1363
  C  C24  1  0.776800  0.530000  0.669300  1.0  -0.0089
  C  C25  1  0.602000  0.443500  0.553000  1.0  0.5707
  C  C26  1  0.561600  0.396500  0.465800  1.0  0.5783
  C  C27  1  0.535100  0.230700  0.668200  1.0  0.1362
  C  C28  1  0.470000  0.246800  0.669300  1.0  -0.0109
  C  C29  1  0.556500  0.158500  0.553000  1.0  0.5696
  C  C30  1  0.603500  0.165100  0.465800  1.0  0.5765
  C  C31  1  0.769300  0.304400  0.668200  1.0  0.1324
  C  C32  1  0.753200  0.223200  0.669300  1.0  -0.0027
  C  C33  1  0.841500  0.398000  0.553000  1.0  0.5735
  C  C34  1  0.834900  0.438400  0.465800  1.0  0.5776
  C  C35  1  0.695600  0.464900  0.831800  1.0  0.1389
  C  C36  1  0.776800  0.530000  0.830700  1.0  -0.012
  C  C37  1  0.602000  0.443500  0.947000  1.0  0.5709
  C  C38  1  0.561600  0.396500  0.034200  1.0  0.5784
  C  C39  1  0.535100  0.230700  0.831800  1.0  0.139
  C  C40  1  0.470000  0.246800  0.830700  1.0  -0.0145
  C  C41  1  0.556500  0.158500  0.947000  1.0  0.5696
  C  C42  1  0.603500  0.165100  0.034200  1.0  0.5797
  C  C43  1  0.769300  0.304400  0.831800  1.0  0.1349
  C  C44  1  0.753200  0.223200  0.830700  1.0  -0.006
  C  C45  1  0.841500  0.398000  0.947000  1.0  0.5738
  C  C46  1  0.834900  0.438400  0.034200  1.0  0.5786
  C  C47  1  0.304400  0.535100  0.331800  1.0  0.1398
  C  C48  1  0.223200  0.470000  0.330700  1.0  -0.0109
  C  C49  1  0.398000  0.556500  0.447000  1.0  0.5709
  C  C50  1  0.438400  0.603500  0.534200  1.0  0.5809
  C  C51  1  0.464900  0.769300  0.331800  1.0  0.1382
  C  C52  1  0.530000  0.753200  0.330700  1.0  -0.0153
  C  C53  1  0.443500  0.841500  0.447000  1.0  0.57
  C  C54  1  0.396500  0.834900  0.534200  1.0  0.5771
  C  C55  1  0.230700  0.695600  0.331800  1.0  0.1374
  C  C56  1  0.246800  0.776800  0.330700  1.0  -0.0077
  C  C57  1  0.158500  0.602000  0.447000  1.0  0.5721
  C  C58  1  0.165100  0.561600  0.534200  1.0  0.5769
  C  C59  1  0.346500  0.566600  0.250000  1.0  -0.0433
  C  C60  1  0.184300  0.438700  0.250000  1.0  -0.0075
  C  C61  1  0.433400  0.779900  0.250000  1.0  -0.0451
  C  C62  1  0.561300  0.745600  0.250000  1.0  -0.0184
  C  C63  1  0.220100  0.653500  0.250000  1.0  -0.0445
  C  C64  1  0.254400  0.815700  0.250000  1.0  0.0045
  C  C65  1  0.653500  0.433400  0.750000  1.0  -0.0439
  C  C66  1  0.815700  0.561300  0.750000  1.0  -0.0025
  C  C67  1  0.566600  0.220100  0.750000  1.0  -0.0428
  C  C68  1  0.438700  0.254400  0.750000  1.0  -0.0194
  C  C69  1  0.779900  0.346500  0.750000  1.0  -0.0463
  C  C70  1  0.745600  0.184300  0.750000  1.0  0.0056
  N  N71  1  0.344400  0.573400  0.086800  1.0  -0.3808
  N  N72  1  0.426600  0.771000  0.086800  1.0  -0.3806
  N  N73  1  0.229000  0.655600  0.086800  1.0  -0.3802
  N  N74  1  0.655600  0.426600  0.586800  1.0  -0.3811
  N  N75  1  0.573400  0.229000  0.586800  1.0  -0.3808
  N  N76  1  0.771000  0.344400  0.586800  1.0  -0.3805
  N  N77  1  0.655600  0.426600  0.913200  1.0  -0.3812
  N  N78  1  0.573400  0.229000  0.913200  1.0  -0.381
  N  N79  1  0.771000  0.344400  0.913200  1.0  -0.3799
  N  N80  1  0.344400  0.573400  0.413200  1.0  -0.3811
  N  N81  1  0.426600  0.771000  0.413200  1.0  -0.3801
  N  N82  1  0.229000  0.655600  0.413200  1.0  -0.3799
  O  O83  1  0.420700  0.505800  0.082100  1.0  -0.5565
  O  O84  1  0.493200  0.590700  0.930400  1.0  -0.5741
  O  O85  1  0.419900  0.653900  0.936300  1.0  -0.5282
  O  O86  1  0.494200  0.914900  0.082100  1.0  -0.5543
  O  O87  1  0.409300  0.902500  0.930400  1.0  -0.5766
  O  O88  1  0.346100  0.766000  0.936300  1.0  -0.5279
  O  O89  1  0.085100  0.579300  0.082100  1.0  -0.5549
  O  O90  1  0.097500  0.506800  0.930400  1.0  -0.5727
  O  O91  1  0.234000  0.580100  0.936300  1.0  -0.5267
  O  O92  1  0.579300  0.494200  0.582100  1.0  -0.5559
  O  O93  1  0.506800  0.409300  0.430400  1.0  -0.5751
  O  O94  1  0.580100  0.346100  0.436300  1.0  -0.5277
  O  O95  1  0.505800  0.085100  0.582100  1.0  -0.5559
  O  O96  1  0.590700  0.097500  0.430400  1.0  -0.5741
  O  O97  1  0.653900  0.234000  0.436300  1.0  -0.5274
  O  O98  1  0.914900  0.420700  0.582100  1.0  -0.555
  O  O99  1  0.902500  0.493200  0.430400  1.0  -0.5759
  O  O100  1  0.766000  0.419900  0.436300  1.0  -0.526
  O  O101  1  0.579300  0.494200  0.917900  1.0  -0.5565
  O  O102  1  0.506800  0.409300  0.069600  1.0  -0.5758
  O  O103  1  0.580100  0.346100  0.063700  1.0  -0.5269
  O  O104  1  0.505800  0.085100  0.917900  1.0  -0.5556
  O  O105  1  0.590700  0.097500  0.069600  1.0  -0.573
  O  O106  1  0.653900  0.234000  0.063700  1.0  -0.5246
  O  O107  1  0.914900  0.420700  0.917900  1.0  -0.5548
  O  O108  1  0.902500  0.493200  0.069600  1.0  -0.5737
  O  O109  1  0.766000  0.419900  0.063700  1.0  -0.5243
  O  O110  1  0.420700  0.505800  0.417900  1.0  -0.5559
  O  O111  1  0.493200  0.590700  0.569600  1.0  -0.5725
  O  O112  1  0.419900  0.653900  0.563700  1.0  -0.5247
  O  O113  1  0.494200  0.914900  0.417900  1.0  -0.5547
  O  O114  1  0.409300  0.902500  0.569600  1.0  -0.5761
  O  O115  1  0.346100  0.766000  0.563700  1.0  -0.5269
  O  O116  1  0.085100  0.579300  0.417900  1.0  -0.5546
  O  O117  1  0.097500  0.506800  0.569600  1.0  -0.5727
  O  O118  1  0.234000  0.580100  0.563700  1.0  -0.5238
