# generated using pymatgen
data_Ni6PH19W9C12(NO24)2
_symmetry_space_group_name_H-M   'P 1'
_cell_length_a   15.54190000
_cell_length_b   15.54190000
_cell_length_c   26.48930000
_cell_angle_alpha   90.00000000
_cell_angle_beta   90.00000000
_cell_angle_gamma   90.00000000
_symmetry_Int_Tables_number   1
_chemical_formula_structural   Ni6PH19W9C12(NO24)2
_chemical_formula_sum   'Ni24 P4 H76 W36 C48 N8 O192'
_cell_volume   6398.50778165
_cell_formula_units_Z   4
loop_
 _symmetry_equiv_pos_site_id
 _symmetry_equiv_pos_as_xyz
  1  'x, y, z'
loop_
 _atom_site_type_symbol
 _atom_site_label
 _atom_site_symmetry_multiplicity
 _atom_site_fract_x
 _atom_site_fract_y
 _atom_site_fract_z
 _atom_site_occupancy
 _atom_site_charge
  Ni  Ni1  1  0.370360  0.154990  0.252590  1.0  1.0764
  Ni  Ni2  1  0.197800  0.155600  0.312930  1.0  0.9997
  Ni  Ni3  1  0.346030  0.287400  0.331700  1.0  0.9284
  Ni  Ni4  1  0.041600  0.163250  0.385720  1.0  1.0215
  Ni  Ni5  1  0.185220  0.294770  0.398990  1.0  0.9634
  Ni  Ni6  1  0.586030  0.328100  0.170590  1.0  1.0718
  Ni  Ni7  1  0.629640  0.845010  0.752590  1.0  1.0733
  Ni  Ni8  1  0.802200  0.844400  0.812930  1.0  0.9956
  Ni  Ni9  1  0.653970  0.712600  0.831700  1.0  0.9285
  Ni  Ni10  1  0.958400  0.836750  0.885720  1.0  1.0193
  Ni  Ni11  1  0.814780  0.705230  0.898990  1.0  0.9633
  Ni  Ni12  1  0.413970  0.671900  0.670590  1.0  1.0691
  Ni  Ni13  1  0.845010  0.370360  0.002590  1.0  1.074
  Ni  Ni14  1  0.844400  0.197800  0.062930  1.0  0.998
  Ni  Ni15  1  0.712600  0.346030  0.081700  1.0  0.9291
  Ni  Ni16  1  0.836750  0.041600  0.135720  1.0  1.0208
  Ni  Ni17  1  0.705230  0.185220  0.148990  1.0  0.9647
  Ni  Ni18  1  0.671900  0.586030  0.920590  1.0  1.0748
  Ni  Ni19  1  0.154990  0.629640  0.502590  1.0  1.0757
  Ni  Ni20  1  0.155600  0.802200  0.562930  1.0  0.9993
  Ni  Ni21  1  0.287400  0.653970  0.581700  1.0  0.9295
  Ni  Ni22  1  0.163250  0.958400  0.635720  1.0  1.0241
  Ni  Ni23  1  0.294770  0.814780  0.648990  1.0  0.9643
  Ni  Ni24  1  0.328100  0.413970  0.420590  1.0  1.0732
  P  P25  1  0.169500  0.361080  0.281530  1.0  1.5415
  P  P26  1  0.830500  0.638920  0.781530  1.0  1.5415
  P  P27  1  0.638920  0.169500  0.031530  1.0  1.541
  P  P28  1  0.361080  0.830500  0.531530  1.0  1.5423
  H  H29  1  0.347700  0.122800  0.347600  1.0  0.3102
  H  H30  1  0.199800  0.128400  0.411300  1.0  0.3926
  H  H31  1  0.340000  0.248300  0.425600  1.0  0.3681
  H  H32  1  0.910300  0.146400  0.457100  1.0  0.4147
  H  H33  1  0.566800  0.167900  0.411900  1.0  0.1037
  H  H34  1  0.698300  0.145600  0.443700  1.0  0.1179
  H  H35  1  0.805400  0.202300  0.309800  1.0  0.1199
  H  H36  1  0.652300  0.877200  0.847600  1.0  0.3078
  H  H37  1  0.800200  0.871600  0.911300  1.0  0.3916
  H  H38  1  0.660000  0.751700  0.925600  1.0  0.369
  H  H39  1  0.089700  0.853600  0.957100  1.0  0.415
  H  H40  1  0.433200  0.832100  0.911900  1.0  0.1038
  H  H41  1  0.301700  0.854400  0.943700  1.0  0.1178
  H  H42  1  0.194600  0.797700  0.809800  1.0  0.1195
  H  H43  1  0.877200  0.347700  0.097600  1.0  0.3111
  H  H44  1  0.871600  0.199800  0.161300  1.0  0.3931
  H  H45  1  0.751700  0.340000  0.175600  1.0  0.3682
  H  H46  1  0.853600  0.910300  0.207100  1.0  0.4142
  H  H47  1  0.832100  0.566800  0.161900  1.0  0.1052
  H  H48  1  0.854400  0.698300  0.193700  1.0  0.1181
  H  H49  1  0.797700  0.805400  0.059800  1.0  0.1199
  H  H50  1  0.122800  0.652300  0.597600  1.0  0.3113
  H  H51  1  0.128400  0.800200  0.661300  1.0  0.3951
  H  H52  1  0.248300  0.660000  0.675600  1.0  0.369
  H  H53  1  0.146400  0.089700  0.707100  1.0  0.4135
  H  H54  1  0.167900  0.433200  0.661900  1.0  0.1043
  H  H55  1  0.145600  0.301700  0.693700  1.0  0.1181
  H  H56  1  0.202300  0.194600  0.559800  1.0  0.1197
  H  H57  1  0.673500  0.021400  0.255000  1.0  0.091
  H  H58  1  0.605800  0.984000  0.217000  1.0  0.1076
  H  H59  1  0.599500  0.080200  0.234400  1.0  0.1146
  H  H60  1  0.526200  0.040900  0.307400  1.0  0.1831
  H  H61  1  0.567100  0.863500  0.297700  1.0  0.1436
  H  H62  1  0.479600  0.899000  0.317900  1.0  0.103
  H  H63  1  0.419600  0.844800  0.244500  1.0  0.3207
  H  H64  1  0.462000  0.912400  0.215800  1.0  0.2499
  H  H65  1  0.502800  0.828800  0.221300  1.0  0.3052
  H  H66  1  0.680400  0.981200  0.301500  1.0  0.1541
  H  H67  1  0.629600  0.963700  0.346400  1.0  0.1929
  H  H68  1  0.634000  0.900400  0.306100  1.0  0.1782
  H  H69  1  0.326500  0.978600  0.755000  1.0  0.0861
  H  H70  1  0.394200  0.016000  0.717000  1.0  0.109
  H  H71  1  0.400500  0.919800  0.734400  1.0  0.1142
  H  H72  1  0.473800  0.959100  0.807400  1.0  0.1825
  H  H73  1  0.432900  0.136500  0.797700  1.0  0.1439
  H  H74  1  0.520400  0.101000  0.817900  1.0  0.1019
  H  H75  1  0.580400  0.155200  0.744500  1.0  0.3234
  H  H76  1  0.538000  0.087600  0.715800  1.0  0.2523
  H  H77  1  0.497200  0.171200  0.721300  1.0  0.309
  H  H78  1  0.319600  0.018800  0.801500  1.0  0.1551
  H  H79  1  0.370400  0.036300  0.846400  1.0  0.194
  H  H80  1  0.366000  0.099600  0.806100  1.0  0.1804
  H  H81  1  0.978600  0.673500  0.005000  1.0  0.0867
  H  H82  1  0.016000  0.605800  0.967000  1.0  0.1088
  H  H83  1  0.919800  0.599500  0.984400  1.0  0.1152
  H  H84  1  0.959100  0.526200  0.057400  1.0  0.1818
  H  H85  1  0.136500  0.567100  0.047700  1.0  0.1464
  H  H86  1  0.101000  0.479600  0.067900  1.0  0.1024
  H  H87  1  0.155200  0.419600  0.994500  1.0  0.3173
  H  H88  1  0.087600  0.462000  0.965800  1.0  0.2508
  H  H89  1  0.171200  0.502800  0.971300  1.0  0.3094
  H  H90  1  0.018800  0.680400  0.051500  1.0  0.1549
  H  H91  1  0.036300  0.629600  0.096400  1.0  0.1927
  H  H92  1  0.099600  0.634000  0.056100  1.0  0.1807
  H  H93  1  0.021400  0.326500  0.505000  1.0  0.0837
  H  H94  1  0.984000  0.394200  0.467000  1.0  0.1073
  H  H95  1  0.080200  0.400500  0.484400  1.0  0.116
  H  H96  1  0.040900  0.473800  0.557400  1.0  0.1805
  H  H97  1  0.863500  0.432900  0.547700  1.0  0.146
  H  H98  1  0.899000  0.520400  0.567900  1.0  0.1011
  H  H99  1  0.844800  0.580400  0.494500  1.0  0.32
  H  H100  1  0.912400  0.538000  0.465800  1.0  0.2512
  H  H101  1  0.828800  0.497200  0.471300  1.0  0.3054
  H  H102  1  0.981200  0.319600  0.551500  1.0  0.1575
  H  H103  1  0.963700  0.370400  0.596400  1.0  0.1943
  H  H104  1  0.900400  0.366000  0.556100  1.0  0.184
  W  W105  1  0.359830  0.365170  0.206590  1.0  2.3546
  W  W106  1  0.141050  0.518650  0.378850  1.0  2.0175
  W  W107  1  0.018820  0.539280  0.271100  1.0  2.4658
  W  W108  1  0.979600  0.373490  0.354520  1.0  2.0189
  W  W109  1  0.038100  0.375950  0.169000  1.0  2.0631
  W  W110  1  0.336980  0.513700  0.301070  1.0  2.4837
  W  W111  1  0.216260  0.531560  0.191510  1.0  2.3114
  W  W112  1  0.003770  0.211930  0.254230  1.0  2.0591
  W  W113  1  0.185960  0.209780  0.180440  1.0  2.3119
  W  W114  1  0.640170  0.634830  0.706590  1.0  2.3555
  W  W115  1  0.858950  0.481350  0.878850  1.0  2.0143
  W  W116  1  0.981180  0.460720  0.771100  1.0  2.4637
  W  W117  1  0.020400  0.626510  0.854520  1.0  2.0152
  W  W118  1  0.961900  0.624050  0.669000  1.0  2.0626
  W  W119  1  0.663020  0.486300  0.801070  1.0  2.484
  W  W120  1  0.783740  0.468440  0.691510  1.0  2.3085
  W  W121  1  0.996230  0.788070  0.754230  1.0  2.0597
  W  W122  1  0.814040  0.790220  0.680440  1.0  2.3119
  W  W123  1  0.634830  0.359830  0.956590  1.0  2.3564
  W  W124  1  0.481350  0.141050  0.128850  1.0  2.0143
  W  W125  1  0.460720  0.018820  0.021100  1.0  2.4635
  W  W126  1  0.626510  0.979600  0.104520  1.0  2.0197
  W  W127  1  0.624050  0.038100  0.919000  1.0  2.0613
  W  W128  1  0.486300  0.336980  0.051070  1.0  2.4843
  W  W129  1  0.468440  0.216260  0.941510  1.0  2.3088
  W  W130  1  0.788070  0.003770  0.004230  1.0  2.0596
  W  W131  1  0.790220  0.185960  0.930440  1.0  2.3131
  W  W132  1  0.365170  0.640170  0.456590  1.0  2.3536
  W  W133  1  0.518650  0.858950  0.628850  1.0  2.0127
  W  W134  1  0.539280  0.981180  0.521100  1.0  2.4623
  W  W135  1  0.373490  0.020400  0.604520  1.0  2.0202
  W  W136  1  0.375950  0.961900  0.419000  1.0  2.0616
  W  W137  1  0.513700  0.663020  0.551070  1.0  2.4796
  W  W138  1  0.531560  0.783740  0.441510  1.0  2.3091
  W  W139  1  0.211930  0.996230  0.504230  1.0  2.0609
  W  W140  1  0.209780  0.814040  0.430440  1.0  2.3133
  C  C141  1  0.602900  0.196200  0.340700  1.0  -0.046
  C  C142  1  0.614600  0.174200  0.391100  1.0  -0.0566
  C  C143  1  0.692200  0.161900  0.410100  1.0  -0.0576
  C  C144  1  0.765100  0.173200  0.380100  1.0  -0.129
  C  C145  1  0.756800  0.194700  0.329800  1.0  -0.0421
  C  C146  1  0.675000  0.204800  0.309200  1.0  -0.0724
  C  C147  1  0.514200  0.209700  0.319300  1.0  0.6791
  C  C148  1  0.662900  0.225200  0.254200  1.0  0.6534
  C  C149  1  0.853600  0.162600  0.402900  1.0  0.6638
  C  C150  1  0.397100  0.803800  0.840700  1.0  -0.045
  C  C151  1  0.385400  0.825800  0.891100  1.0  -0.0543
  C  C152  1  0.307800  0.838100  0.910100  1.0  -0.058
  C  C153  1  0.234900  0.826800  0.880100  1.0  -0.1285
  C  C154  1  0.243200  0.805300  0.829800  1.0  -0.0421
  C  C155  1  0.325000  0.795200  0.809200  1.0  -0.0724
  C  C156  1  0.485800  0.790300  0.819300  1.0  0.6803
  C  C157  1  0.337100  0.774800  0.754200  1.0  0.6518
  C  C158  1  0.146400  0.837400  0.902900  1.0  0.6614
  C  C159  1  0.803800  0.602900  0.090700  1.0  -0.0492
  C  C160  1  0.825800  0.614600  0.141100  1.0  -0.0565
  C  C161  1  0.838100  0.692200  0.160100  1.0  -0.0578
  C  C162  1  0.826800  0.765100  0.130100  1.0  -0.125
  C  C163  1  0.805300  0.756800  0.079800  1.0  -0.0419
  C  C164  1  0.795200  0.675000  0.059200  1.0  -0.0746
  C  C165  1  0.790300  0.514200  0.069300  1.0  0.6795
  C  C166  1  0.774800  0.662900  0.004200  1.0  0.6505
  C  C167  1  0.837400  0.853600  0.152900  1.0  0.6624
  C  C168  1  0.196200  0.397100  0.590700  1.0  -0.048
  C  C169  1  0.174200  0.385400  0.641100  1.0  -0.0563
  C  C170  1  0.161900  0.307800  0.660100  1.0  -0.0596
  C  C171  1  0.173200  0.234900  0.630100  1.0  -0.1242
  C  C172  1  0.194700  0.243200  0.579800  1.0  -0.0401
  C  C173  1  0.204800  0.325000  0.559200  1.0  -0.0731
  C  C174  1  0.209700  0.485800  0.569300  1.0  0.6812
  C  C175  1  0.225200  0.337100  0.504200  1.0  0.6512
  C  C176  1  0.162600  0.146400  0.652900  1.0  0.6632
  C  C177  1  0.614300  0.022900  0.244700  1.0  -0.3082
  C  C178  1  0.557000  0.996000  0.289000  1.0  0.1269
  C  C179  1  0.520000  0.903000  0.290300  1.0  -0.1025
  C  C180  1  0.385700  0.977100  0.744700  1.0  -0.3069
  C  C181  1  0.443000  0.004000  0.789000  1.0  0.1289
  C  C182  1  0.480000  0.097000  0.790300  1.0  -0.1023
  C  C183  1  0.977100  0.614300  0.994700  1.0  -0.307
  C  C184  1  0.004000  0.557000  0.039000  1.0  0.1304
  C  C185  1  0.097000  0.520000  0.040300  1.0  -0.0996
  C  C186  1  0.022900  0.385700  0.494700  1.0  -0.3105
  C  C187  1  0.996000  0.443000  0.539000  1.0  0.1316
  C  C188  1  0.903000  0.480000  0.540300  1.0  -0.0967
  N  N189  1  0.470000  0.868000  0.236500  1.0  -0.4392
  N  N190  1  0.633000  0.956000  0.313000  1.0  -0.2137
  N  N191  1  0.530000  0.132000  0.736500  1.0  -0.4426
  N  N192  1  0.367000  0.044000  0.813000  1.0  -0.2123
  N  N193  1  0.132000  0.470000  0.986500  1.0  -0.4419
  N  N194  1  0.044000  0.633000  0.063000  1.0  -0.2144
  N  N195  1  0.868000  0.530000  0.486500  1.0  -0.4415
  N  N196  1  0.956000  0.367000  0.563000  1.0  -0.2143
  O  O197  1  0.235300  0.162900  0.236100  1.0  -0.7933
  O  O198  1  0.322700  0.161800  0.322500  1.0  -0.8855
  O  O199  1  0.364200  0.287300  0.256100  1.0  -0.8917
  O  O200  1  0.069300  0.168000  0.304400  1.0  -0.7755
  O  O201  1  0.170400  0.167500  0.387900  1.0  -0.9838
  O  O202  1  0.313900  0.291000  0.403000  1.0  -0.9485
  O  O203  1  0.353800  0.422300  0.342100  1.0  -0.7925
  O  O204  1  0.055300  0.298900  0.382600  1.0  -0.7905
  O  O205  1  0.574200  0.200300  0.150000  1.0  -0.8971
  O  O206  1  0.209500  0.296700  0.319100  1.0  -0.7864
  O  O207  1  0.490800  0.160500  0.284400  1.0  -0.5801
  O  O208  1  0.471100  0.265100  0.341400  1.0  -0.5805
  O  O209  1  0.614700  0.289400  0.242800  1.0  -0.5879
  O  O210  1  0.704500  0.177200  0.224300  1.0  -0.5838
  O  O211  1  0.916900  0.162100  0.371700  1.0  -0.5983
  O  O212  1  0.859500  0.151100  0.449300  1.0  -0.484
  O  O213  1  0.455200  0.344800  0.174200  1.0  -0.7377
  O  O214  1  0.290000  0.576500  0.241800  1.0  -0.6954
  O  O215  1  0.110900  0.289900  0.141800  1.0  -0.6831
  O  O216  1  0.272900  0.294300  0.174500  1.0  -0.7064
  O  O217  1  0.952700  0.622200  0.254200  1.0  -0.6203
  O  O218  1  0.213100  0.139900  0.132600  1.0  -0.6033
  O  O219  1  0.072200  0.584800  0.329400  1.0  -0.6751
  O  O220  1  0.236500  0.549100  0.335500  1.0  -0.7469
  O  O221  1  0.916900  0.144600  0.251700  1.0  -0.5753
  O  O222  1  0.106400  0.421600  0.308800  1.0  -0.7496
  O  O223  1  0.075500  0.163000  0.202400  1.0  -0.674
  O  O224  1  0.886900  0.360900  0.387900  1.0  -0.6078
  O  O225  1  0.035700  0.465800  0.396200  1.0  -0.708
  O  O226  1  0.121700  0.564700  0.234900  1.0  -0.7134
  O  O227  1  0.408500  0.150500  0.178500  1.0  -0.7069
  O  O228  1  0.238300  0.417800  0.256700  1.0  -0.7398
  O  O229  1  0.966900  0.291000  0.197900  1.0  -0.7128
  O  O230  1  0.000300  0.455400  0.219000  1.0  -0.7637
  O  O231  1  0.308500  0.460400  0.168600  1.0  -0.6646
  O  O232  1  0.136900  0.451300  0.164900  1.0  -0.6879
  O  O233  1  0.980000  0.407800  0.117700  1.0  -0.6577
  O  O234  1  0.119500  0.311900  0.240000  1.0  -0.7419
  O  O235  1  0.411800  0.588300  0.320100  1.0  -0.6009
  O  O236  1  0.962800  0.303900  0.296900  1.0  -0.7236
  O  O237  1  0.402300  0.453100  0.249400  1.0  -0.6924
  O  O238  1  0.945100  0.473300  0.312200  1.0  -0.6495
  O  O239  1  0.216500  0.611800  0.147600  1.0  -0.5745
  O  O240  1  0.377900  0.022600  0.251000  1.0  -0.4619
  O  O241  1  0.192700  0.021400  0.311600  1.0  -0.2814
  O  O242  1  0.043800  0.028400  0.390500  1.0  -0.2953
  O  O243  1  0.023100  0.182200  0.462200  1.0  -0.6394
  O  O244  1  0.600300  0.457000  0.188200  1.0  -0.2767
  O  O245  1  0.764700  0.837100  0.736100  1.0  -0.7947
  O  O246  1  0.677300  0.838200  0.822500  1.0  -0.8856
  O  O247  1  0.635800  0.712700  0.756100  1.0  -0.8912
  O  O248  1  0.930700  0.832000  0.804400  1.0  -0.7751
  O  O249  1  0.829600  0.832500  0.887900  1.0  -0.9833
  O  O250  1  0.686100  0.709000  0.903000  1.0  -0.9476
  O  O251  1  0.646200  0.577700  0.842100  1.0  -0.7973
  O  O252  1  0.944700  0.701100  0.882600  1.0  -0.7897
  O  O253  1  0.425800  0.799700  0.650000  1.0  -0.8969
  O  O254  1  0.790500  0.703300  0.819100  1.0  -0.7862
  O  O255  1  0.509200  0.839500  0.784400  1.0  -0.5805
  O  O256  1  0.528900  0.734900  0.841400  1.0  -0.5801
  O  O257  1  0.385300  0.710600  0.742800  1.0  -0.5888
  O  O258  1  0.295500  0.822800  0.724300  1.0  -0.5836
  O  O259  1  0.083100  0.837900  0.871700  1.0  -0.5984
  O  O260  1  0.140500  0.848900  0.949300  1.0  -0.4827
  O  O261  1  0.544800  0.655200  0.674200  1.0  -0.7375
  O  O262  1  0.710000  0.423500  0.741800  1.0  -0.7022
  O  O263  1  0.889100  0.710100  0.641800  1.0  -0.6822
  O  O264  1  0.727100  0.705700  0.674500  1.0  -0.7071
  O  O265  1  0.047300  0.377800  0.754200  1.0  -0.6193
  O  O266  1  0.786900  0.860100  0.632600  1.0  -0.6045
  O  O267  1  0.927800  0.415200  0.829400  1.0  -0.6844
  O  O268  1  0.763500  0.450900  0.835500  1.0  -0.7479
  O  O269  1  0.083100  0.855400  0.751700  1.0  -0.5743
  O  O270  1  0.893600  0.578400  0.808800  1.0  -0.7492
  O  O271  1  0.924500  0.837000  0.702400  1.0  -0.6748
  O  O272  1  0.113100  0.639100  0.887900  1.0  -0.6085
  O  O273  1  0.964300  0.534200  0.896200  1.0  -0.7067
  O  O274  1  0.878300  0.435300  0.734900  1.0  -0.7112
  O  O275  1  0.591500  0.849500  0.678500  1.0  -0.707
  O  O276  1  0.761700  0.582200  0.756700  1.0  -0.741
  O  O277  1  0.033100  0.709000  0.697900  1.0  -0.7107
  O  O278  1  0.999700  0.544600  0.719000  1.0  -0.7605
  O  O279  1  0.691500  0.539600  0.668600  1.0  -0.6645
  O  O280  1  0.863100  0.548700  0.664900  1.0  -0.6879
  O  O281  1  0.020000  0.592200  0.617700  1.0  -0.6578
  O  O282  1  0.880500  0.688100  0.740000  1.0  -0.7416
  O  O283  1  0.588200  0.411700  0.820100  1.0  -0.6005
  O  O284  1  0.037200  0.696100  0.796900  1.0  -0.7207
  O  O285  1  0.597700  0.546900  0.749400  1.0  -0.6904
  O  O286  1  0.054900  0.526700  0.812200  1.0  -0.6526
  O  O287  1  0.783500  0.388200  0.647600  1.0  -0.5751
  O  O288  1  0.622100  0.977400  0.751000  1.0  -0.4594
  O  O289  1  0.807300  0.978600  0.811600  1.0  -0.2816
  O  O290  1  0.956200  0.971600  0.890500  1.0  -0.2938
  O  O291  1  0.976900  0.817800  0.962200  1.0  -0.637
  O  O292  1  0.399700  0.543000  0.688200  1.0  -0.2773
  O  O293  1  0.837100  0.235300  0.986100  1.0  -0.7905
  O  O294  1  0.838200  0.322700  0.072500  1.0  -0.8848
  O  O295  1  0.712700  0.364200  0.006100  1.0  -0.8917
  O  O296  1  0.832000  0.069300  0.054400  1.0  -0.7721
  O  O297  1  0.832500  0.170400  0.137900  1.0  -0.981
  O  O298  1  0.709000  0.313900  0.153000  1.0  -0.9489
  O  O299  1  0.577700  0.353800  0.092100  1.0  -0.7982
  O  O300  1  0.701100  0.055300  0.132600  1.0  -0.7912
  O  O301  1  0.799700  0.574200  0.900000  1.0  -0.8959
  O  O302  1  0.703300  0.209500  0.069100  1.0  -0.7863
  O  O303  1  0.839500  0.490800  0.034400  1.0  -0.5819
  O  O304  1  0.734900  0.471100  0.091400  1.0  -0.5785
  O  O305  1  0.710600  0.614700  0.992800  1.0  -0.5856
  O  O306  1  0.822800  0.704500  0.974300  1.0  -0.5851
  O  O307  1  0.837900  0.916900  0.121700  1.0  -0.5982
  O  O308  1  0.848900  0.859500  0.199300  1.0  -0.4846
  O  O309  1  0.655200  0.455200  0.924200  1.0  -0.7349
  O  O310  1  0.423500  0.290000  0.991800  1.0  -0.705
  O  O311  1  0.710100  0.110900  0.891800  1.0  -0.6809
  O  O312  1  0.705700  0.272900  0.924500  1.0  -0.7069
  O  O313  1  0.377800  0.952700  0.004200  1.0  -0.6184
  O  O314  1  0.860100  0.213100  0.882600  1.0  -0.6018
  O  O315  1  0.415200  0.072200  0.079400  1.0  -0.6842
  O  O316  1  0.450900  0.236500  0.085500  1.0  -0.7415
  O  O317  1  0.855400  0.916900  0.001700  1.0  -0.5759
  O  O318  1  0.578400  0.106400  0.058800  1.0  -0.7494
  O  O319  1  0.837000  0.075500  0.952400  1.0  -0.6722
  O  O320  1  0.639100  0.886900  0.137900  1.0  -0.6083
  O  O321  1  0.534200  0.035700  0.146200  1.0  -0.7045
  O  O322  1  0.435300  0.121700  0.984900  1.0  -0.7054
  O  O323  1  0.849500  0.408500  0.928500  1.0  -0.7127
  O  O324  1  0.582200  0.238300  0.006700  1.0  -0.7402
  O  O325  1  0.709000  0.966900  0.947900  1.0  -0.7092
  O  O326  1  0.544600  0.000300  0.969000  1.0  -0.7681
  O  O327  1  0.539600  0.308500  0.918600  1.0  -0.6665
  O  O328  1  0.548700  0.136900  0.914900  1.0  -0.6883
  O  O329  1  0.592200  0.980000  0.867700  1.0  -0.657
  O  O330  1  0.688100  0.119500  0.990000  1.0  -0.7422
  O  O331  1  0.411700  0.411800  0.070100  1.0  -0.6021
  O  O332  1  0.696100  0.962800  0.046900  1.0  -0.7253
  O  O333  1  0.546900  0.402300  0.999400  1.0  -0.6869
  O  O334  1  0.526700  0.945100  0.062200  1.0  -0.6476
  O  O335  1  0.388200  0.216500  0.897600  1.0  -0.5718
  O  O336  1  0.977400  0.377900  0.001000  1.0  -0.4632
  O  O337  1  0.978600  0.192700  0.061600  1.0  -0.2785
  O  O338  1  0.971600  0.043800  0.140500  1.0  -0.2904
  O  O339  1  0.817800  0.023100  0.212200  1.0  -0.6378
  O  O340  1  0.543000  0.600300  0.938200  1.0  -0.2763
  O  O341  1  0.162900  0.764700  0.486100  1.0  -0.7942
  O  O342  1  0.161800  0.677300  0.572500  1.0  -0.885
  O  O343  1  0.287300  0.635800  0.506100  1.0  -0.8913
  O  O344  1  0.168000  0.930700  0.554400  1.0  -0.7719
  O  O345  1  0.167500  0.829600  0.637900  1.0  -0.9823
  O  O346  1  0.291000  0.686100  0.653000  1.0  -0.9483
  O  O347  1  0.422300  0.646200  0.592100  1.0  -0.7969
  O  O348  1  0.298900  0.944700  0.632600  1.0  -0.7911
  O  O349  1  0.200300  0.425800  0.400000  1.0  -0.8971
  O  O350  1  0.296700  0.790500  0.569100  1.0  -0.7869
  O  O351  1  0.160500  0.509200  0.534400  1.0  -0.5808
  O  O352  1  0.265100  0.528900  0.591400  1.0  -0.5781
  O  O353  1  0.289400  0.385300  0.492800  1.0  -0.5867
  O  O354  1  0.177200  0.295500  0.474300  1.0  -0.5851
  O  O355  1  0.162100  0.083100  0.621700  1.0  -0.5983
  O  O356  1  0.151100  0.140500  0.699300  1.0  -0.4819
  O  O357  1  0.344800  0.544800  0.424200  1.0  -0.7337
  O  O358  1  0.576500  0.710000  0.491800  1.0  -0.7079
  O  O359  1  0.289900  0.889100  0.391800  1.0  -0.6815
  O  O360  1  0.294300  0.727100  0.424500  1.0  -0.7069
  O  O361  1  0.622200  0.047300  0.504200  1.0  -0.6183
  O  O362  1  0.139900  0.786900  0.382600  1.0  -0.6031
  O  O363  1  0.584800  0.927800  0.579400  1.0  -0.6844
  O  O364  1  0.549100  0.763500  0.585500  1.0  -0.7364
  O  O365  1  0.144600  0.083100  0.501700  1.0  -0.5743
  O  O366  1  0.421600  0.893600  0.558800  1.0  -0.7483
  O  O367  1  0.163000  0.924500  0.452400  1.0  -0.6668
  O  O368  1  0.360900  0.113100  0.637900  1.0  -0.6075
  O  O369  1  0.465800  0.964300  0.646200  1.0  -0.7054
  O  O370  1  0.564700  0.878300  0.484900  1.0  -0.7009
  O  O371  1  0.150500  0.591500  0.428500  1.0  -0.7138
  O  O372  1  0.417800  0.761700  0.506700  1.0  -0.7395
  O  O373  1  0.291000  0.033100  0.447900  1.0  -0.7111
  O  O374  1  0.455400  0.999700  0.469000  1.0  -0.7661
  O  O375  1  0.460400  0.691500  0.418600  1.0  -0.6643
  O  O376  1  0.451300  0.863100  0.414900  1.0  -0.6883
  O  O377  1  0.407800  0.020000  0.367700  1.0  -0.6572
  O  O378  1  0.311900  0.880500  0.490000  1.0  -0.7418
  O  O379  1  0.588300  0.588200  0.570100  1.0  -0.6022
  O  O380  1  0.303900  0.037200  0.546900  1.0  -0.7261
  O  O381  1  0.453100  0.597700  0.499400  1.0  -0.6885
  O  O382  1  0.473300  0.054900  0.562200  1.0  -0.6387
  O  O383  1  0.611800  0.783500  0.397600  1.0  -0.5713
  O  O384  1  0.022600  0.622100  0.501000  1.0  -0.4604
  O  O385  1  0.021400  0.807300  0.561600  1.0  -0.281
  O  O386  1  0.028400  0.956200  0.640500  1.0  -0.2918
  O  O387  1  0.182200  0.976900  0.712200  1.0  -0.6378
  O  O388  1  0.457000  0.399700  0.438200  1.0  -0.277
