# generated using pymatgen
data_Co2H36C40N8O13
_symmetry_space_group_name_H-M   'P 1'
_cell_length_a   13.54220000
_cell_length_b   21.15730000
_cell_length_c   24.01120000
_cell_angle_alpha   90.00000000
_cell_angle_beta   90.00000000
_cell_angle_gamma   90.00000000
_symmetry_Int_Tables_number   1
_chemical_formula_structural   Co2H36C40N8O13
_chemical_formula_sum   'Co8 H144 C160 N32 O52'
_cell_volume   6879.60229699
_cell_formula_units_Z   4
loop_
 _symmetry_equiv_pos_site_id
 _symmetry_equiv_pos_as_xyz
  1  'x, y, z'
loop_
 _atom_site_type_symbol
 _atom_site_label
 _atom_site_symmetry_multiplicity
 _atom_site_fract_x
 _atom_site_fract_y
 _atom_site_fract_z
 _atom_site_occupancy
 _atom_site_charge
  Co  Co1  1  0.362700  0.031430  0.198400  1.0  0.969
  Co  Co2  1  0.366360  0.180470  0.124070  1.0  0.9553
  Co  Co3  1  0.637300  0.968570  0.698400  1.0  0.9706
  Co  Co4  1  0.633640  0.819530  0.624070  1.0  0.9521
  Co  Co5  1  0.137300  0.531430  0.198400  1.0  0.9683
  Co  Co6  1  0.133640  0.680470  0.124070  1.0  0.9544
  Co  Co7  1  0.862700  0.468570  0.698400  1.0  0.9713
  Co  Co8  1  0.866360  0.319530  0.624070  1.0  0.9532
  H  H9  1  0.492200  0.090200  0.136800  1.0  0.3231
  H  H10  1  0.485000  0.126500  0.193300  1.0  0.2095
  H  H11  1  0.112100  0.970100  0.105300  1.0  0.1204
  H  H12  1  0.928700  0.005000  0.976900  1.0  0.1248
  H  H13  1  0.150000  0.126500  0.013100  1.0  0.1204
  H  H14  1  0.142500  0.092600  0.312300  1.0  0.1148
  H  H15  1  0.919400  0.214500  0.340200  1.0  0.1183
  H  H16  1  0.104000  0.240800  0.210800  1.0  0.1184
  H  H17  1  0.735000  0.992400  0.808400  1.0  0.0774
  H  H18  1  0.790800  0.068900  0.866700  1.0  0.1318
  H  H19  1  0.742500  0.193900  0.746000  1.0  0.1034
  H  H20  1  0.686600  0.113900  0.690500  1.0  0.0867
  H  H21  1  0.870700  0.192000  0.859400  1.0  0.1069
  H  H22  1  0.786200  0.234800  0.835500  1.0  0.1017
  H  H23  1  0.774700  0.222200  0.934500  1.0  0.0728
  H  H24  1  0.755100  0.149800  0.925500  1.0  0.0845
  H  H25  1  0.630600  0.247000  0.889700  1.0  0.0953
  H  H26  1  0.612200  0.175600  0.875600  1.0  0.0906
  H  H27  1  0.016000  0.554500  0.754700  1.0  0.0765
  H  H28  1  0.104800  0.565300  0.835000  1.0  0.1381
  H  H29  1  0.017200  0.390200  0.875600  1.0  0.1199
  H  H30  1  0.932000  0.386500  0.795800  1.0  0.0834
  H  H31  1  0.096300  0.508800  0.944800  1.0  0.1128
  H  H32  1  0.193900  0.505500  0.909900  1.0  0.0921
  H  H33  1  0.096500  0.399100  0.956000  1.0  0.0739
  H  H34  1  0.189000  0.392900  0.917100  1.0  0.0731
  H  H35  1  0.191700  0.455400  0.018300  1.0  0.0877
  H  H36  1  0.283700  0.443900  0.980200  1.0  0.0886
  H  H37  1  0.441600  0.099100  0.023400  1.0  0.0826
  H  H38  1  0.528300  0.109400  0.942800  1.0  0.1191
  H  H39  1  0.618100  0.278900  0.993000  1.0  0.1222
  H  H40  1  0.529400  0.265900  0.072700  1.0  0.0946
  H  H41  1  0.285900  0.216200  0.007500  1.0  0.081
  H  H42  1  0.245300  0.305000  0.958600  1.0  0.1174
  H  H43  1  0.237500  0.401600  0.099900  1.0  0.1228
  H  H44  1  0.289500  0.313100  0.144600  1.0  0.0783
  H  H45  1  0.507800  0.909800  0.636800  1.0  0.3237
  H  H46  1  0.515000  0.873500  0.693300  1.0  0.2093
  H  H47  1  0.887900  0.029900  0.605300  1.0  0.1198
  H  H48  1  0.071300  0.995000  0.476900  1.0  0.1251
  H  H49  1  0.850000  0.873500  0.513100  1.0  0.1206
  H  H50  1  0.857500  0.907400  0.812300  1.0  0.1142
  H  H51  1  0.080600  0.785500  0.840200  1.0  0.119
  H  H52  1  0.896000  0.759200  0.710800  1.0  0.1198
  H  H53  1  0.265000  0.007600  0.308400  1.0  0.0771
  H  H54  1  0.209200  0.931100  0.366700  1.0  0.132
  H  H55  1  0.257500  0.806100  0.246000  1.0  0.1031
  H  H56  1  0.313400  0.886100  0.190500  1.0  0.0866
  H  H57  1  0.129300  0.808000  0.359400  1.0  0.1101
  H  H58  1  0.213800  0.765200  0.335500  1.0  0.1037
  H  H59  1  0.225300  0.777800  0.434500  1.0  0.074
  H  H60  1  0.244900  0.850200  0.425500  1.0  0.0833
  H  H61  1  0.369400  0.753000  0.389700  1.0  0.0947
  H  H62  1  0.387800  0.824400  0.375600  1.0  0.0896
  H  H63  1  0.984000  0.445500  0.254700  1.0  0.0769
  H  H64  1  0.895200  0.434700  0.335000  1.0  0.1379
  H  H65  1  0.982800  0.609800  0.375600  1.0  0.1202
  H  H66  1  0.068000  0.613500  0.295800  1.0  0.0836
  H  H67  1  0.903700  0.491200  0.444800  1.0  0.1123
  H  H68  1  0.806100  0.494500  0.409900  1.0  0.0899
  H  H69  1  0.903500  0.600900  0.456000  1.0  0.0724
  H  H70  1  0.811000  0.607100  0.417100  1.0  0.0751
  H  H71  1  0.808300  0.544600  0.518300  1.0  0.088
  H  H72  1  0.716300  0.556100  0.480200  1.0  0.0937
  H  H73  1  0.558400  0.900900  0.523400  1.0  0.0826
  H  H74  1  0.471700  0.890600  0.442800  1.0  0.1196
  H  H75  1  0.381900  0.721100  0.493000  1.0  0.1221
  H  H76  1  0.470600  0.734100  0.572700  1.0  0.0956
  H  H77  1  0.714100  0.783800  0.507500  1.0  0.081
  H  H78  1  0.754700  0.695000  0.458600  1.0  0.1174
  H  H79  1  0.762500  0.598400  0.599900  1.0  0.123
  H  H80  1  0.710500  0.686900  0.644600  1.0  0.0778
  H  H81  1  0.007800  0.590200  0.136800  1.0  0.3235
  H  H82  1  0.015000  0.626500  0.193300  1.0  0.2094
  H  H83  1  0.387900  0.470100  0.105300  1.0  0.1203
  H  H84  1  0.571300  0.505000  0.976900  1.0  0.1253
  H  H85  1  0.350000  0.626500  0.013100  1.0  0.1209
  H  H86  1  0.357500  0.592600  0.312300  1.0  0.1146
  H  H87  1  0.580600  0.714500  0.340200  1.0  0.1191
  H  H88  1  0.396000  0.740800  0.210800  1.0  0.1195
  H  H89  1  0.765000  0.492400  0.808400  1.0  0.0774
  H  H90  1  0.709200  0.568900  0.866700  1.0  0.1322
  H  H91  1  0.757500  0.693900  0.746000  1.0  0.1031
  H  H92  1  0.813400  0.613900  0.690500  1.0  0.0865
  H  H93  1  0.629300  0.692000  0.859400  1.0  0.1093
  H  H94  1  0.713800  0.734800  0.835500  1.0  0.1029
  H  H95  1  0.725300  0.722200  0.934500  1.0  0.0734
  H  H96  1  0.744900  0.649800  0.925500  1.0  0.0851
  H  H97  1  0.869400  0.747000  0.889700  1.0  0.0952
  H  H98  1  0.887800  0.675600  0.875600  1.0  0.0899
  H  H99  1  0.484000  0.054500  0.754700  1.0  0.077
  H  H100  1  0.395200  0.065300  0.835000  1.0  0.1385
  H  H101  1  0.482800  0.890200  0.875600  1.0  0.1201
  H  H102  1  0.568000  0.886500  0.795800  1.0  0.0832
  H  H103  1  0.403700  0.008800  0.944800  1.0  0.1124
  H  H104  1  0.306100  0.005500  0.909900  1.0  0.0883
  H  H105  1  0.403500  0.899100  0.956000  1.0  0.0724
  H  H106  1  0.311000  0.892900  0.917100  1.0  0.0736
  H  H107  1  0.308300  0.955400  0.018300  1.0  0.0874
  H  H108  1  0.216300  0.943900  0.980200  1.0  0.0938
  H  H109  1  0.058400  0.599100  0.023400  1.0  0.0824
  H  H110  1  0.971700  0.609400  0.942800  1.0  0.1194
  H  H111  1  0.881900  0.778900  0.993000  1.0  0.1222
  H  H112  1  0.970600  0.765900  0.072700  1.0  0.0957
  H  H113  1  0.214100  0.716200  0.007500  1.0  0.0811
  H  H114  1  0.254700  0.805000  0.958600  1.0  0.1164
  H  H115  1  0.262500  0.901600  0.099900  1.0  0.1228
  H  H116  1  0.210500  0.813100  0.144600  1.0  0.078
  H  H117  1  0.992200  0.409800  0.636800  1.0  0.3236
  H  H118  1  0.985000  0.373500  0.693300  1.0  0.2091
  H  H119  1  0.612100  0.529900  0.605300  1.0  0.1198
  H  H120  1  0.428700  0.495000  0.476900  1.0  0.1249
  H  H121  1  0.650000  0.373500  0.513100  1.0  0.12
  H  H122  1  0.642500  0.407400  0.812300  1.0  0.1139
  H  H123  1  0.419400  0.285500  0.840200  1.0  0.1181
  H  H124  1  0.604000  0.259200  0.710800  1.0  0.1188
  H  H125  1  0.235000  0.507600  0.308400  1.0  0.0772
  H  H126  1  0.290800  0.431100  0.366700  1.0  0.1318
  H  H127  1  0.242500  0.306100  0.246000  1.0  0.103
  H  H128  1  0.186600  0.386100  0.190500  1.0  0.087
  H  H129  1  0.370700  0.308000  0.359400  1.0  0.1063
  H  H130  1  0.286200  0.265200  0.335500  1.0  0.1049
  H  H131  1  0.274700  0.277800  0.434500  1.0  0.0728
  H  H132  1  0.255100  0.350200  0.425500  1.0  0.0833
  H  H133  1  0.130600  0.253000  0.389700  1.0  0.095
  H  H134  1  0.112200  0.324400  0.375600  1.0  0.0909
  H  H135  1  0.516000  0.945500  0.254700  1.0  0.0764
  H  H136  1  0.604800  0.934700  0.335000  1.0  0.1381
  H  H137  1  0.517200  0.109800  0.375600  1.0  0.1201
  H  H138  1  0.432000  0.113500  0.295800  1.0  0.0837
  H  H139  1  0.596300  0.991200  0.444800  1.0  0.1126
  H  H140  1  0.693900  0.994500  0.409900  1.0  0.0911
  H  H141  1  0.596500  0.100900  0.456000  1.0  0.0729
  H  H142  1  0.689000  0.107100  0.417100  1.0  0.0743
  H  H143  1  0.691700  0.044600  0.518300  1.0  0.0878
  H  H144  1  0.783700  0.056100  0.480200  1.0  0.0882
  H  H145  1  0.941600  0.400900  0.523400  1.0  0.0829
  H  H146  1  0.028300  0.390600  0.442800  1.0  0.1192
  H  H147  1  0.118100  0.221100  0.493000  1.0  0.1224
  H  H148  1  0.029400  0.234100  0.572700  1.0  0.0946
  H  H149  1  0.785900  0.283800  0.507500  1.0  0.0809
  H  H150  1  0.745300  0.195000  0.458600  1.0  0.1177
  H  H151  1  0.737500  0.098400  0.599900  1.0  0.1229
  H  H152  1  0.789500  0.186900  0.644600  1.0  0.078
  C  C153  1  0.236600  0.066500  0.096100  1.0  0.6777
  C  C154  1  0.145800  0.050800  0.064000  1.0  -0.1562
  C  C155  1  0.093400  0.996000  0.075800  1.0  -0.0148
  C  C156  1  0.012700  0.980600  0.042800  1.0  -0.0478
  C  C157  1  0.981900  0.016900  0.999100  1.0  -0.0874
  C  C158  1  0.033300  0.071900  0.989700  1.0  -0.025
  C  C159  1  0.115900  0.089400  0.021100  1.0  -0.0315
  C  C160  1  0.230900  0.146200  0.224500  1.0  0.6913
  C  C161  1  0.139000  0.164500  0.256800  1.0  -0.1367
  C  C162  1  0.108400  0.129000  0.302100  1.0  -0.0677
  C  C163  1  0.027700  0.148000  0.331700  1.0  -0.0055
  C  C164  1  0.973500  0.201700  0.319100  1.0  -0.0784
  C  C165  1  0.005900  0.235000  0.272800  1.0  -0.044
  C  C166  1  0.085700  0.217300  0.241800  1.0  -0.0694
  C  C167  1  0.736800  0.033800  0.795500  1.0  0.1904
  C  C168  1  0.769400  0.079400  0.831100  1.0  -0.2555
  C  C169  1  0.770200  0.141600  0.813300  1.0  0.1337
  C  C170  1  0.740700  0.152900  0.759900  1.0  -0.164
  C  C171  1  0.708400  0.104500  0.726300  1.0  0.1588
  C  C172  1  0.800100  0.194400  0.852900  1.0  -0.214
  C  C173  1  0.746000  0.191400  0.909300  1.0  -0.0895
  C  C174  1  0.639400  0.204200  0.903300  1.0  -0.1639
  C  C175  1  0.015900  0.521300  0.780100  1.0  0.1869
  C  C176  1  0.070500  0.528000  0.828000  1.0  -0.2214
  C  C177  1  0.073500  0.478200  0.865800  1.0  0.1424
  C  C178  1  0.018400  0.424900  0.851700  1.0  -0.296
  C  C179  1  0.967000  0.423200  0.803900  1.0  0.1624
  C  C180  1  0.132800  0.483500  0.918100  1.0  -0.2488
  C  C181  1  0.157300  0.419600  0.944700  1.0  -0.0953
  C  C182  1  0.221600  0.425800  0.992500  1.0  -0.1961
  C  C183  1  0.476600  0.136300  0.017300  1.0  0.1543
  C  C184  1  0.528900  0.142200  0.968500  1.0  -0.1787
  C  C185  1  0.582400  0.196500  0.957100  1.0  0.122
  C  C186  1  0.581700  0.242100  0.998000  1.0  -0.1877
  C  C187  1  0.528200  0.233900  0.046100  1.0  0.1757
  C  C188  1  0.280300  0.254500  0.026400  1.0  0.1716
  C  C189  1  0.254800  0.307700  0.996800  1.0  -0.2095
  C  C190  1  0.243300  0.365100  0.023400  1.0  0.1479
  C  C191  1  0.251500  0.365200  0.079600  1.0  -0.2317
  C  C192  1  0.280600  0.311200  0.106200  1.0  0.1797
  C  C193  1  0.763400  0.933500  0.596100  1.0  0.6782
  C  C194  1  0.854200  0.949200  0.564000  1.0  -0.1573
  C  C195  1  0.906600  0.004000  0.575800  1.0  -0.0171
  C  C196  1  0.987300  0.019400  0.542800  1.0  -0.0493
  C  C197  1  0.018100  0.983100  0.499100  1.0  -0.0888
  C  C198  1  0.966700  0.928100  0.489700  1.0  -0.0239
  C  C199  1  0.884100  0.910600  0.521100  1.0  -0.0328
  C  C200  1  0.769100  0.853800  0.724500  1.0  0.6919
  C  C201  1  0.861000  0.835500  0.756800  1.0  -0.1338
  C  C202  1  0.891600  0.871000  0.802100  1.0  -0.067
  C  C203  1  0.972300  0.852000  0.831700  1.0  -0.0062
  C  C204  1  0.026500  0.798300  0.819100  1.0  -0.077
  C  C205  1  0.994100  0.765000  0.772800  1.0  -0.0431
  C  C206  1  0.914300  0.782700  0.741800  1.0  -0.0695
  C  C207  1  0.263200  0.966200  0.295500  1.0  0.1898
  C  C208  1  0.230600  0.920600  0.331100  1.0  -0.258
  C  C209  1  0.229800  0.858400  0.313300  1.0  0.1329
  C  C210  1  0.259300  0.847100  0.259900  1.0  -0.1644
  C  C211  1  0.291600  0.895500  0.226300  1.0  0.1587
  C  C212  1  0.199900  0.805600  0.352900  1.0  -0.2155
  C  C213  1  0.254000  0.808600  0.409300  1.0  -0.0893
  C  C214  1  0.360600  0.795800  0.403300  1.0  -0.1637
  C  C215  1  0.984100  0.478700  0.280100  1.0  0.1865
  C  C216  1  0.929500  0.472000  0.328000  1.0  -0.22
  C  C217  1  0.926500  0.521800  0.365800  1.0  0.1424
  C  C218  1  0.981600  0.575100  0.351700  1.0  -0.2984
  C  C219  1  0.033000  0.576800  0.303900  1.0  0.1614
  C  C220  1  0.867200  0.516500  0.418100  1.0  -0.2487
  C  C221  1  0.842700  0.580400  0.444700  1.0  -0.0942
  C  C222  1  0.778400  0.574200  0.492500  1.0  -0.1977
  C  C223  1  0.523400  0.863700  0.517300  1.0  0.1548
  C  C224  1  0.471100  0.857800  0.468500  1.0  -0.1772
  C  C225  1  0.417600  0.803500  0.457100  1.0  0.1221
  C  C226  1  0.418300  0.757900  0.498000  1.0  -0.1877
  C  C227  1  0.471800  0.766100  0.546100  1.0  0.1755
  C  C228  1  0.719700  0.745500  0.526400  1.0  0.1716
  C  C229  1  0.745200  0.692300  0.496800  1.0  -0.2097
  C  C230  1  0.756700  0.634900  0.523400  1.0  0.1478
  C  C231  1  0.748500  0.634800  0.579600  1.0  -0.2317
  C  C232  1  0.719400  0.688800  0.606200  1.0  0.1792
  C  C233  1  0.263400  0.566500  0.096100  1.0  0.6779
  C  C234  1  0.354200  0.550800  0.064000  1.0  -0.1574
  C  C235  1  0.406600  0.496000  0.075800  1.0  -0.0172
  C  C236  1  0.487300  0.480600  0.042800  1.0  -0.049
  C  C237  1  0.518100  0.516900  0.999100  1.0  -0.0891
  C  C238  1  0.466700  0.571900  0.989700  1.0  -0.0245
  C  C239  1  0.384100  0.589400  0.021100  1.0  -0.0316
  C  C240  1  0.269100  0.646200  0.224500  1.0  0.6919
  C  C241  1  0.361000  0.664500  0.256800  1.0  -0.1367
  C  C242  1  0.391600  0.629000  0.302100  1.0  -0.0689
  C  C243  1  0.472300  0.648000  0.331700  1.0  -0.0066
  C  C244  1  0.526500  0.701700  0.319100  1.0  -0.0767
  C  C245  1  0.494100  0.735000  0.272800  1.0  -0.0427
  C  C246  1  0.414300  0.717300  0.241800  1.0  -0.0693
  C  C247  1  0.763200  0.533800  0.795500  1.0  0.1905
  C  C248  1  0.730600  0.579400  0.831100  1.0  -0.2564
  C  C249  1  0.729800  0.641600  0.813300  1.0  0.1326
  C  C250  1  0.759300  0.652900  0.759900  1.0  -0.1641
  C  C251  1  0.791600  0.604500  0.726300  1.0  0.1588
  C  C252  1  0.699900  0.694400  0.852900  1.0  -0.2146
  C  C253  1  0.754000  0.691400  0.909300  1.0  -0.09
  C  C254  1  0.860600  0.704200  0.903300  1.0  -0.1635
  C  C255  1  0.484100  0.021300  0.780100  1.0  0.1849
  C  C256  1  0.429500  0.028000  0.828000  1.0  -0.2206
  C  C257  1  0.426500  0.978200  0.865800  1.0  0.1424
  C  C258  1  0.481600  0.924900  0.851700  1.0  -0.2967
  C  C259  1  0.533000  0.923200  0.803900  1.0  0.1605
  C  C260  1  0.367200  0.983500  0.918100  1.0  -0.2494
  C  C261  1  0.342700  0.919600  0.944700  1.0  -0.0959
  C  C262  1  0.278400  0.925800  0.992500  1.0  -0.1965
  C  C263  1  0.023400  0.636300  0.017300  1.0  0.1539
  C  C264  1  0.971100  0.642200  0.968500  1.0  -0.1781
  C  C265  1  0.917600  0.696500  0.957100  1.0  0.1221
  C  C266  1  0.918300  0.742100  0.998000  1.0  -0.1885
  C  C267  1  0.971800  0.733900  0.046100  1.0  0.175
  C  C268  1  0.219700  0.754500  0.026400  1.0  0.1722
  C  C269  1  0.245200  0.807700  0.996800  1.0  -0.2097
  C  C270  1  0.256700  0.865100  0.023400  1.0  0.1477
  C  C271  1  0.248500  0.865200  0.079600  1.0  -0.2307
  C  C272  1  0.219400  0.811200  0.106200  1.0  0.18
  C  C273  1  0.736600  0.433500  0.596100  1.0  0.678
  C  C274  1  0.645800  0.449200  0.564000  1.0  -0.1559
  C  C275  1  0.593400  0.504000  0.575800  1.0  -0.015
  C  C276  1  0.512700  0.519400  0.542800  1.0  -0.0484
  C  C277  1  0.481900  0.483100  0.499100  1.0  -0.0869
  C  C278  1  0.533300  0.428100  0.489700  1.0  -0.025
  C  C279  1  0.615900  0.410600  0.521100  1.0  -0.0343
  C  C280  1  0.730900  0.353800  0.724500  1.0  0.6913
  C  C281  1  0.639000  0.335500  0.756800  1.0  -0.1344
  C  C282  1  0.608400  0.371000  0.802100  1.0  -0.0659
  C  C283  1  0.527700  0.352000  0.831700  1.0  -0.0046
  C  C284  1  0.473500  0.298300  0.819100  1.0  -0.0781
  C  C285  1  0.505900  0.265000  0.772800  1.0  -0.0449
  C  C286  1  0.585700  0.282700  0.741800  1.0  -0.0692
  C  C287  1  0.236800  0.466200  0.295500  1.0  0.1888
  C  C288  1  0.269400  0.420600  0.331100  1.0  -0.257
  C  C289  1  0.270200  0.358400  0.313300  1.0  0.134
  C  C290  1  0.240700  0.347100  0.259900  1.0  -0.1647
  C  C291  1  0.208400  0.395500  0.226300  1.0  0.1594
  C  C292  1  0.300100  0.305600  0.352900  1.0  -0.2151
  C  C293  1  0.246000  0.308600  0.409300  1.0  -0.089
  C  C294  1  0.139400  0.295800  0.403300  1.0  -0.1638
  C  C295  1  0.515900  0.978700  0.280100  1.0  0.188
  C  C296  1  0.570500  0.972000  0.328000  1.0  -0.2213
  C  C297  1  0.573500  0.021800  0.365800  1.0  0.1423
  C  C298  1  0.518400  0.075100  0.351700  1.0  -0.2977
  C  C299  1  0.467000  0.076800  0.303900  1.0  0.162
  C  C300  1  0.632800  0.016500  0.418100  1.0  -0.2486
  C  C301  1  0.657300  0.080400  0.444700  1.0  -0.0931
  C  C302  1  0.721600  0.074200  0.492500  1.0  -0.1973
  C  C303  1  0.976600  0.363700  0.517300  1.0  0.1547
  C  C304  1  0.028900  0.357800  0.468500  1.0  -0.1776
  C  C305  1  0.082400  0.303500  0.457100  1.0  0.122
  C  C306  1  0.081700  0.257900  0.498000  1.0  -0.1869
  C  C307  1  0.028200  0.266100  0.546100  1.0  0.1757
  C  C308  1  0.780300  0.245500  0.526400  1.0  0.1712
  C  C309  1  0.754800  0.192300  0.496800  1.0  -0.2095
  C  C310  1  0.743300  0.134900  0.523400  1.0  0.1479
  C  C311  1  0.751500  0.134800  0.579600  1.0  -0.2327
  C  C312  1  0.780600  0.188800  0.606200  1.0  0.1795
  N  N313  1  0.960300  0.920200  0.053100  1.0  0.5721
  N  N314  1  0.003500  0.113300  0.943800  1.0  0.6344
  N  N315  1  0.995700  0.109300  0.379500  1.0  0.5674
  N  N316  1  0.952900  0.294200  0.259600  1.0  0.5394
  N  N317  1  0.707300  0.044500  0.743240  1.0  -0.3192
  N  N318  1  0.962800  0.470000  0.767600  1.0  -0.3323
  N  N319  1  0.473400  0.181300  0.056600  1.0  -0.3343
  N  N320  1  0.297100  0.255800  0.080860  1.0  -0.3192
  N  N321  1  0.039700  0.079800  0.553100  1.0  0.5777
  N  N322  1  0.996500  0.886700  0.443800  1.0  0.6325
  N  N323  1  0.004300  0.890700  0.879500  1.0  0.5686
  N  N324  1  0.047100  0.705800  0.759600  1.0  0.5354
  N  N325  1  0.292700  0.955500  0.243240  1.0  -0.3197
  N  N326  1  0.037200  0.530000  0.267600  1.0  -0.3317
  N  N327  1  0.526600  0.818700  0.556600  1.0  -0.3352
  N  N328  1  0.702900  0.744200  0.580860  1.0  -0.3199
  N  N329  1  0.539700  0.420200  0.053100  1.0  0.5763
  N  N330  1  0.496500  0.613300  0.943800  1.0  0.6336
  N  N331  1  0.504300  0.609300  0.379500  1.0  0.5684
  N  N332  1  0.547100  0.794200  0.259600  1.0  0.5395
  N  N333  1  0.792700  0.544500  0.743240  1.0  -0.3193
  N  N334  1  0.537200  0.970000  0.767600  1.0  -0.3316
  N  N335  1  0.026600  0.681300  0.056600  1.0  -0.3349
  N  N336  1  0.202900  0.755800  0.080860  1.0  -0.3196
  N  N337  1  0.460300  0.579800  0.553100  1.0  0.5719
  N  N338  1  0.503500  0.386700  0.443800  1.0  0.6336
  N  N339  1  0.495700  0.390700  0.879500  1.0  0.5675
  N  N340  1  0.452900  0.205800  0.759600  1.0  0.5342
  N  N341  1  0.207300  0.455500  0.243240  1.0  -0.3193
  N  N342  1  0.462800  0.030000  0.267600  1.0  -0.3324
  N  N343  1  0.973400  0.318700  0.556600  1.0  -0.3344
  N  N344  1  0.797100  0.244200  0.580860  1.0  -0.3193
  O  O345  1  0.446200  0.107720  0.163660  1.0  -0.8198
  O  O346  1  0.260500  0.029220  0.134460  1.0  -0.612
  O  O347  1  0.282300  0.115080  0.081180  1.0  -0.5966
  O  O348  1  0.899400  0.903400  0.018600  1.0  -0.4294
  O  O349  1  0.980300  0.891000  0.094900  1.0  -0.479
  O  O350  1  0.942600  0.092900  0.911700  1.0  -0.4709
  O  O351  1  0.041400  0.165000  0.939700  1.0  -0.3799
  O  O352  1  0.273400  0.096160  0.239250  1.0  -0.5877
  O  O353  1  0.257400  0.182780  0.186660  1.0  -0.6057
  O  O354  1  0.933400  0.130600  0.410100  1.0  -0.4008
  O  O355  1  0.033200  0.058700  0.386500  1.0  -0.4138
  O  O356  1  0.889100  0.313200  0.290500  1.0  -0.4367
  O  O357  1  0.979100  0.322500  0.218400  1.0  -0.443
  O  O358  1  0.553800  0.892280  0.663660  1.0  -0.8164
  O  O359  1  0.739500  0.970780  0.634460  1.0  -0.6113
  O  O360  1  0.717700  0.884920  0.581180  1.0  -0.5971
  O  O361  1  0.100600  0.096600  0.518600  1.0  -0.4314
  O  O362  1  0.019700  0.109000  0.594900  1.0  -0.4801
  O  O363  1  0.057400  0.907100  0.411700  1.0  -0.4714
  O  O364  1  0.958600  0.835000  0.439700  1.0  -0.3814
  O  O365  1  0.726600  0.903840  0.739250  1.0  -0.5878
  O  O366  1  0.742600  0.817220  0.686660  1.0  -0.6056
  O  O367  1  0.066600  0.869400  0.910100  1.0  -0.4021
  O  O368  1  0.966800  0.941300  0.886500  1.0  -0.4133
  O  O369  1  0.110900  0.686800  0.790500  1.0  -0.4343
  O  O370  1  0.020900  0.677500  0.718400  1.0  -0.4411
  O  O371  1  0.053800  0.607720  0.163660  1.0  -0.8164
  O  O372  1  0.239500  0.529220  0.134460  1.0  -0.6094
  O  O373  1  0.217700  0.615080  0.081180  1.0  -0.5968
  O  O374  1  0.600600  0.403400  0.018600  1.0  -0.4311
  O  O375  1  0.519700  0.391000  0.094900  1.0  -0.4804
  O  O376  1  0.557400  0.592900  0.911700  1.0  -0.4714
  O  O377  1  0.458600  0.665000  0.939700  1.0  -0.3798
  O  O378  1  0.226600  0.596160  0.239250  1.0  -0.588
  O  O379  1  0.242600  0.682780  0.186660  1.0  -0.6056
  O  O380  1  0.566600  0.630600  0.410100  1.0  -0.402
  O  O381  1  0.466800  0.558700  0.386500  1.0  -0.413
  O  O382  1  0.610900  0.813200  0.290500  1.0  -0.4342
  O  O383  1  0.520900  0.822500  0.218400  1.0  -0.4405
  O  O384  1  0.946200  0.392280  0.663660  1.0  -0.8199
  O  O385  1  0.760500  0.470780  0.634460  1.0  -0.61
  O  O386  1  0.782300  0.384920  0.581180  1.0  -0.5967
  O  O387  1  0.399400  0.596600  0.518600  1.0  -0.43
  O  O388  1  0.480300  0.609000  0.594900  1.0  -0.4787
  O  O389  1  0.442600  0.407100  0.411700  1.0  -0.4708
  O  O390  1  0.541400  0.335000  0.439700  1.0  -0.3813
  O  O391  1  0.773400  0.403840  0.739250  1.0  -0.5875
  O  O392  1  0.757400  0.317220  0.686660  1.0  -0.6057
  O  O393  1  0.433400  0.369400  0.910100  1.0  -0.4011
  O  O394  1  0.533200  0.441300  0.886500  1.0  -0.4144
  O  O395  1  0.389100  0.186800  0.790500  1.0  -0.4368
  O  O396  1  0.479100  0.177500  0.718400  1.0  -0.4443
