# generated using pymatgen
data_U2CuP4H19C28(NO6)2
_symmetry_space_group_name_H-M   'P 1'
_cell_length_a   9.23550000
_cell_length_b   11.27800000
_cell_length_c   18.64000000
_cell_angle_alpha   93.94800000
_cell_angle_beta   98.27300000
_cell_angle_gamma   109.09000000
_symmetry_Int_Tables_number   1
_chemical_formula_structural   U2CuP4H19C28(NO6)2
_chemical_formula_sum   'U4 Cu2 P8 H38 C56 N4 O24'
_cell_volume   1801.64024217
_cell_formula_units_Z   2
loop_
 _symmetry_equiv_pos_site_id
 _symmetry_equiv_pos_as_xyz
  1  'x, y, z'
loop_
 _atom_site_type_symbol
 _atom_site_label
 _atom_site_symmetry_multiplicity
 _atom_site_fract_x
 _atom_site_fract_y
 _atom_site_fract_z
 _atom_site_occupancy
 _atom_site_charge
  U  U1  1  0.591840  0.457430  0.313430  1.0  1.8388
  U  U2  1  0.658010  0.976870  0.309520  1.0  1.61
  U  U3  1  0.341990  0.023130  0.690480  1.0  1.6081
  U  U4  1  0.408160  0.542570  0.686570  1.0  1.837
  Cu  Cu5  1  0.868760  0.045950  0.617790  1.0  0.7712
  Cu  Cu6  1  0.131240  0.954050  0.382210  1.0  0.7716
  P  P7  1  0.646000  0.867940  0.713950  1.0  1.5428
  P  P8  1  0.879400  0.304530  0.285460  1.0  1.4792
  P  P9  1  0.349200  0.664270  0.288740  1.0  1.4677
  P  P10  1  0.120600  0.695470  0.714540  1.0  1.4748
  P  P11  1  0.650800  0.335730  0.711260  1.0  1.4723
  P  P12  1  0.124400  0.232270  0.718860  1.0  1.5263
  P  P13  1  0.354000  0.132060  0.286050  1.0  1.5526
  P  P14  1  0.875600  0.767730  0.281140  1.0  1.5288
  H  H15  1  0.754300  0.177700  0.802300  1.0  0.0994
  H  H16  1  0.076800  0.496100  0.804000  1.0  0.1026
  H  H17  1  0.119700  0.484500  0.928300  1.0  0.1025
  H  H18  1  0.731700  0.496300  0.963700  1.0  0.1042
  H  H19  1  0.849500  0.771800  0.801100  1.0  0.101
  H  H20  1  0.602600  0.642800  0.033900  1.0  0.1017
  H  H21  1  0.807700  0.171100  0.925000  1.0  0.107
  H  H22  1  0.328900  0.498600  0.160800  1.0  0.111
  H  H23  1  0.208700  0.255100  0.398900  1.0  0.0982
  H  H24  1  0.899500  0.744700  0.921600  1.0  0.1008
  H  H25  1  0.923200  0.503900  0.196000  1.0  0.1017
  H  H26  1  0.861600  0.605300  0.528600  1.0  0.1242
  H  H27  1  0.100500  0.255300  0.078400  1.0  0.1006
  H  H28  1  0.997100  0.319700  0.561100  1.0  0.1019
  H  H29  1  0.002900  0.680300  0.438900  1.0  0.1016
  H  H30  1  0.880300  0.515500  0.071700  1.0  0.1027
  H  H31  1  0.412900  0.101500  0.034700  1.0  0.102
  H  H32  1  0.736400  0.137900  0.032600  1.0  0.1123
  H  H33  1  0.016100  0.939700  0.186700  1.0  0.0943
  H  H34  1  0.983900  0.060300  0.813300  1.0  0.0942
  H  H35  1  0.347300  0.380000  0.843400  1.0  0.0971
  H  H36  1  0.268300  0.503700  0.036300  1.0  0.105
  H  H37  1  0.397400  0.357200  0.966100  1.0  0.1016
  H  H38  1  0.791300  0.744900  0.601100  1.0  0.0978
  H  H39  1  0.671100  0.501400  0.839200  1.0  0.1111
  H  H40  1  0.138400  0.394700  0.471400  1.0  0.1245
  H  H41  1  0.245700  0.822300  0.197700  1.0  0.0997
  H  H42  1  0.538800  0.930900  0.844600  1.0  0.1033
  H  H43  1  0.150500  0.228200  0.198900  1.0  0.1011
  H  H44  1  0.192300  0.828900  0.075000  1.0  0.1075
  H  H45  1  0.974000  0.956500  0.065000  1.0  0.0951
  H  H46  1  0.220000  0.874300  0.842800  1.0  0.1051
  H  H47  1  0.780000  0.125700  0.157200  1.0  0.1056
  H  H48  1  0.652700  0.620000  0.156600  1.0  0.0973
  H  H49  1  0.587100  0.898500  0.965300  1.0  0.1015
  H  H50  1  0.263600  0.862100  0.967400  1.0  0.1134
  H  H51  1  0.461200  0.069100  0.155400  1.0  0.1038
  H  H52  1  0.026000  0.043500  0.935000  1.0  0.0956
  C  C53  1  0.718200  0.688300  0.138300  1.0  -0.0399
  C  C54  1  0.302700  0.565700  0.143700  1.0  -0.0638
  C  C55  1  0.746100  0.240900  0.834500  1.0  -0.0298
  C  C56  1  0.310400  0.144800  0.190500  1.0  -0.2612
  C  C57  1  0.201700  0.795900  0.859700  1.0  -0.0386
  C  C58  1  0.155400  0.225300  0.815300  1.0  -0.2788
  C  C59  1  0.065300  0.122800  0.844100  1.0  -0.0421
  C  C60  1  0.934700  0.877200  0.155900  1.0  -0.0438
  C  C61  1  0.850300  0.313100  0.189200  1.0  -0.293
  C  C62  1  0.689600  0.855200  0.809500  1.0  -0.2604
  C  C63  1  0.700500  0.335700  0.807200  1.0  -0.2993
  C  C64  1  0.253900  0.759100  0.165500  1.0  -0.0313
  C  C65  1  0.388500  0.107200  0.140400  1.0  -0.05
  C  C66  1  0.024700  0.264300  0.531100  1.0  0.1807
  C  C67  1  0.975300  0.735700  0.468900  1.0  0.1803
  C  C68  1  0.299500  0.664300  0.192800  1.0  -0.2984
  C  C69  1  0.149600  0.225600  0.434500  1.0  0.2034
  C  C70  1  0.975600  0.933000  0.504100  1.0  0.3444
  C  C71  1  0.251500  0.180300  0.043100  1.0  0.0191
  C  C72  1  0.149700  0.686900  0.810800  1.0  -0.2924
  C  C73  1  0.141200  0.563200  0.911500  1.0  -0.1132
  C  C74  1  0.890800  0.690300  0.522000  1.0  -0.1507
  C  C75  1  0.802100  0.328000  0.038300  1.0  0.0243
  C  C76  1  0.358400  0.126300  0.067600  1.0  -0.0956
  C  C77  1  0.850400  0.774400  0.565500  1.0  0.2034
  C  C78  1  0.779800  0.237700  0.908100  1.0  -0.1351
  C  C79  1  0.826200  0.782000  0.906300  1.0  -0.0944
  C  C80  1  0.641600  0.873700  0.932400  1.0  -0.0993
  C  C81  1  0.687800  0.702200  0.064400  1.0  -0.0846
  C  C82  1  0.109200  0.309700  0.478000  1.0  -0.1531
  C  C83  1  0.748500  0.819700  0.956900  1.0  0.0178
  C  C84  1  0.197900  0.672000  0.961700  1.0  0.0246
  C  C85  1  0.611500  0.892800  0.859600  1.0  -0.0485
  C  C86  1  0.227000  0.666500  0.041200  1.0  -1e-04
  C  C87  1  0.858800  0.436800  0.088500  1.0  -0.113
  C  C88  1  0.173800  0.218000  0.093700  1.0  -0.0888
  C  C89  1  0.907000  0.888900  0.083200  1.0  -0.0895
  C  C90  1  0.773200  0.211900  0.065200  1.0  -0.0817
  C  C91  1  0.203300  0.201200  0.165900  1.0  -0.0439
  C  C92  1  0.733900  0.430600  0.931300  1.0  -0.0762
  C  C93  1  0.116100  0.569900  0.836700  1.0  -0.0166
  C  C94  1  0.024400  0.067000  0.495900  1.0  0.3456
  C  C95  1  0.093000  0.111100  0.916800  1.0  -0.0894
  C  C96  1  0.217200  0.196700  0.963800  1.0  0.0283
  C  C97  1  0.312200  0.297800  0.935600  1.0  -0.0855
  C  C98  1  0.226800  0.788100  0.934800  1.0  -0.0815
  C  C99  1  0.281800  0.311700  0.861700  1.0  -0.0396
  C  C100  1  0.796700  0.798800  0.834100  1.0  -0.0453
  C  C101  1  0.883900  0.430100  0.163300  1.0  -0.0163
  C  C102  1  0.844600  0.774700  0.184700  1.0  -0.279
  C  C103  1  0.782800  0.803300  0.036200  1.0  0.028
  C  C104  1  0.773000  0.333500  0.958800  1.0  0.0002
  C  C105  1  0.220200  0.762300  0.091900  1.0  -0.1352
  C  C106  1  0.266100  0.569400  0.068700  1.0  -0.0766
  C  C107  1  0.697300  0.434300  0.856300  1.0  -0.0614
  C  C108  1  0.798300  0.204100  0.140300  1.0  -0.0359
  N  N109  1  0.980800  0.140200  0.540700  1.0  -0.2875
  N  N110  1  0.894500  0.897400  0.557400  1.0  -0.3054
  N  N111  1  0.105500  0.102600  0.442600  1.0  -0.3021
  N  N112  1  0.019200  0.859800  0.459300  1.0  -0.2877
  O  O113  1  0.789200  0.373100  0.321800  1.0  -0.9285
  O  O114  1  0.455000  0.794400  0.322600  1.0  -0.9228
  O  O115  1  0.190700  0.632900  0.320100  1.0  -0.5586
  O  O116  1  0.842300  0.169400  0.299500  1.0  -0.8885
  O  O117  1  0.204100  0.056500  0.309000  1.0  -0.8223
  O  O118  1  0.522800  0.930500  0.703300  1.0  -0.9166
  O  O119  1  0.795900  0.943500  0.691000  1.0  -0.8227
  O  O120  1  0.579400  0.733100  0.672800  1.0  -0.8827
  O  O121  1  0.157700  0.830600  0.700500  1.0  -0.8904
  O  O122  1  0.420600  0.266900  0.327200  1.0  -0.8853
  O  O123  1  0.224100  0.361400  0.704000  1.0  -0.9046
  O  O124  1  0.167400  0.126800  0.681900  1.0  -0.9424
  O  O125  1  0.775900  0.638600  0.296000  1.0  -0.9048
  O  O126  1  0.049000  0.794300  0.310200  1.0  -0.7646
  O  O127  1  0.809300  0.367100  0.679900  1.0  -0.5576
  O  O128  1  0.942300  0.627600  0.683600  1.0  -0.576
  O  O129  1  0.545000  0.205600  0.677400  1.0  -0.9269
  O  O130  1  0.411500  0.559800  0.304500  1.0  -0.9247
  O  O131  1  0.477200  0.069500  0.296700  1.0  -0.9184
  O  O132  1  0.832600  0.873200  0.318100  1.0  -0.943
  O  O133  1  0.951000  0.205700  0.689800  1.0  -0.7651
  O  O134  1  0.588500  0.440200  0.695500  1.0  -0.9232
  O  O135  1  0.057700  0.372400  0.316400  1.0  -0.5757
  O  O136  1  0.210800  0.626900  0.678200  1.0  -0.9308
