# generated using pymatgen
data_U2CuP4H19C28N2O12F
_symmetry_space_group_name_H-M   'P 1'
_cell_length_a   9.91490000
_cell_length_b   18.60800000
_cell_length_c   19.97900000
_cell_angle_alpha   93.92600000
_cell_angle_beta   90.00000000
_cell_angle_gamma   90.00000000
_symmetry_Int_Tables_number   1
_chemical_formula_structural   U2CuP4H19C28N2O12F
_chemical_formula_sum   'U8 Cu4 P16 H76 C112 N8 O48 F4'
_cell_volume   3677.40473698
_cell_formula_units_Z   4
loop_
 _symmetry_equiv_pos_site_id
 _symmetry_equiv_pos_as_xyz
  1  'x, y, z'
loop_
 _atom_site_type_symbol
 _atom_site_label
 _atom_site_symmetry_multiplicity
 _atom_site_fract_x
 _atom_site_fract_y
 _atom_site_fract_z
 _atom_site_occupancy
 _atom_site_charge
  U  U1  1  0.031960  0.185820  0.708080  1.0  2.0618
  U  U2  1  0.531960  0.814180  0.791920  1.0  2.0642
  U  U3  1  0.868730  0.190340  0.256640  1.0  2.1212
  U  U4  1  0.968040  0.814180  0.291920  1.0  2.0645
  U  U5  1  0.368730  0.809660  0.243360  1.0  2.1207
  U  U6  1  0.131270  0.809660  0.743360  1.0  2.1207
  U  U7  1  0.468040  0.185820  0.208080  1.0  2.062
  U  U8  1  0.631270  0.190340  0.756640  1.0  2.1213
  Cu  Cu9  1  0.871850  0.126670  0.982710  1.0  0.8677
  Cu  Cu10  1  0.628150  0.126670  0.482710  1.0  0.8678
  Cu  Cu11  1  0.371850  0.873330  0.517290  1.0  0.8678
  Cu  Cu12  1  0.128150  0.873330  0.017290  1.0  0.8678
  P  P13  1  0.403900  0.794160  0.958970  1.0  1.423
  P  P14  1  0.372500  0.189160  0.626310  1.0  1.5234
  P  P15  1  0.797200  0.771980  0.658450  1.0  1.4173
  P  P16  1  0.096100  0.794160  0.458970  1.0  1.4237
  P  P17  1  0.167000  0.763370  0.127210  1.0  1.3764
  P  P18  1  0.833000  0.236630  0.872790  1.0  1.3769
  P  P19  1  0.202800  0.228020  0.341550  1.0  1.4135
  P  P20  1  0.627500  0.810840  0.373690  1.0  1.523
  P  P21  1  0.127500  0.189160  0.126310  1.0  1.5245
  P  P22  1  0.903900  0.205840  0.541030  1.0  1.4209
  P  P23  1  0.702800  0.771980  0.158450  1.0  1.4172
  P  P24  1  0.872500  0.810840  0.873690  1.0  1.5224
  P  P25  1  0.333000  0.763370  0.627210  1.0  1.3763
  P  P26  1  0.596100  0.205840  0.041030  1.0  1.4214
  P  P27  1  0.667000  0.236630  0.372790  1.0  1.3778
  P  P28  1  0.297200  0.228020  0.841550  1.0  1.4142
  H  H29  1  0.647500  0.528500  0.622900  1.0  0.0926
  H  H30  1  0.089600  0.413800  0.020100  1.0  0.0988
  H  H31  1  0.260100  0.925900  0.881700  1.0  0.0959
  H  H32  1  0.310300  0.305200  0.715600  1.0  0.0977
  H  H33  1  0.543800  0.547900  0.950100  1.0  0.1109
  H  H34  1  0.783900  0.294100  0.116700  1.0  0.092
  H  H35  1  0.076600  0.113500  0.860000  1.0  0.0719
  H  H36  1  0.277000  0.025600  0.317700  1.0  0.122
  H  H37  1  0.078700  0.290200  0.021700  1.0  0.0945
  H  H38  1  0.456200  0.452100  0.049900  1.0  0.1109
  H  H39  1  0.410400  0.413800  0.520100  1.0  0.0985
  H  H40  1  0.868700  0.342700  0.777700  1.0  0.094
  H  H41  1  0.452500  0.552700  0.119600  1.0  0.1095
  H  H42  1  0.171500  0.525700  0.018100  1.0  0.1001
  H  H43  1  0.879400  0.650000  0.145700  1.0  0.0978
  H  H44  1  0.198300  0.427600  0.213500  1.0  0.1059
  H  H45  1  0.760100  0.074100  0.618300  1.0  0.0955
  H  H46  1  0.379300  0.532200  0.718400  1.0  0.1226
  H  H47  1  0.195100  0.585800  0.852000  1.0  0.1124
  H  H48  1  0.325700  0.649800  0.521500  1.0  0.1021
  H  H49  1  0.825700  0.350200  0.978500  1.0  0.1023
  H  H50  1  0.578700  0.709800  0.478300  1.0  0.0948
  H  H51  1  0.978100  0.324600  0.365100  1.0  0.1033
  H  H52  1  0.801700  0.572400  0.786500  1.0  0.1059
  H  H53  1  0.174300  0.649800  0.021500  1.0  0.1019
  H  H54  1  0.379400  0.350000  0.354300  1.0  0.0973
  H  H55  1  0.810300  0.694800  0.784400  1.0  0.0974
  H  H56  1  0.043800  0.452100  0.549900  1.0  0.1104
  H  H57  1  0.956200  0.547900  0.450100  1.0  0.1109
  H  H58  1  0.120600  0.350000  0.854300  1.0  0.097
  H  H59  1  0.879300  0.467800  0.781600  1.0  0.1228
  H  H60  1  0.952500  0.447300  0.380400  1.0  0.1084
  H  H61  1  0.923400  0.886500  0.140000  1.0  0.0718
  H  H62  1  0.301700  0.427600  0.713500  1.0  0.1056
  H  H63  1  0.723000  0.974400  0.682300  1.0  0.1224
  H  H64  1  0.423400  0.113500  0.360000  1.0  0.0705
  H  H65  1  0.921300  0.709800  0.978300  1.0  0.0946
  H  H66  1  0.216100  0.705900  0.883300  1.0  0.0923
  H  H67  1  0.478100  0.675400  0.134900  1.0  0.1044
  H  H68  1  0.368700  0.657300  0.722300  1.0  0.0934
  H  H69  1  0.283900  0.705900  0.383300  1.0  0.0918
  H  H70  1  0.047500  0.552700  0.619600  1.0  0.1096
  H  H71  1  0.716100  0.294100  0.616700  1.0  0.0919
  H  H72  1  0.620600  0.650000  0.645700  1.0  0.0978
  H  H73  1  0.120700  0.532200  0.218400  1.0  0.1228
  H  H74  1  0.328500  0.525700  0.518100  1.0  0.1005
  H  H75  1  0.189700  0.305200  0.215600  1.0  0.0975
  H  H76  1  0.239900  0.925900  0.381700  1.0  0.0956
  H  H77  1  0.021900  0.675400  0.634900  1.0  0.1038
  H  H78  1  0.804900  0.414200  0.148000  1.0  0.1129
  H  H79  1  0.421300  0.290200  0.521700  1.0  0.0945
  H  H80  1  0.620700  0.467800  0.281600  1.0  0.1231
  H  H81  1  0.852500  0.528500  0.122900  1.0  0.0928
  H  H82  1  0.689700  0.694800  0.284400  1.0  0.0972
  H  H83  1  0.739900  0.074100  0.118300  1.0  0.0957
  H  H84  1  0.147500  0.471500  0.877100  1.0  0.0922
  H  H85  1  0.777000  0.974400  0.182300  1.0  0.1227
  H  H86  1  0.671500  0.474300  0.481900  1.0  0.1
  H  H87  1  0.061800  0.332200  0.522400  1.0  0.0922
  H  H88  1  0.547500  0.447300  0.880400  1.0  0.1086
  H  H89  1  0.910400  0.586200  0.979900  1.0  0.0978
  H  H90  1  0.304900  0.585800  0.352000  1.0  0.1125
  H  H91  1  0.589600  0.586200  0.479900  1.0  0.0981
  H  H92  1  0.131300  0.657300  0.222300  1.0  0.0935
  H  H93  1  0.674300  0.350200  0.478500  1.0  0.1022
  H  H94  1  0.521900  0.324600  0.865100  1.0  0.1033
  H  H95  1  0.352500  0.471500  0.377100  1.0  0.0923
  H  H96  1  0.695100  0.414200  0.648000  1.0  0.1127
  H  H97  1  0.576600  0.886500  0.640000  1.0  0.0714
  H  H98  1  0.631300  0.342700  0.277700  1.0  0.0942
  H  H99  1  0.438200  0.332200  0.022400  1.0  0.0925
  H  H100  1  0.828500  0.474300  0.981900  1.0  0.1004
  H  H101  1  0.223000  0.025600  0.817700  1.0  0.1218
  H  H102  1  0.561800  0.667800  0.977600  1.0  0.093
  H  H103  1  0.938200  0.667800  0.477600  1.0  0.0933
  H  H104  1  0.698300  0.572400  0.286500  1.0  0.106
  C  C105  1  0.723400  0.557800  0.626500  1.0  -0.094
  C  C106  1  0.349200  0.473100  0.881700  1.0  0.0307
  C  C107  1  0.151900  0.666500  0.123200  1.0  -0.3117
  C  C108  1  0.173800  0.400000  0.174900  1.0  -0.0962
  C  C109  1  0.397600  0.317800  0.560500  1.0  -0.0424
  C  C110  1  0.335300  0.626500  0.560900  1.0  -0.0675
  C  C111  1  0.513000  0.349000  0.046800  1.0  -0.0463
  C  C112  1  0.538500  0.994600  0.530200  1.0  0.3522
  C  C113  1  0.633300  0.444500  0.320900  1.0  -0.1016
  C  C114  1  0.197600  0.961000  0.895900  1.0  0.1825
  C  C115  1  0.389700  0.701100  0.935500  1.0  -0.2556
  C  C116  1  0.553400  0.645600  0.134500  1.0  -0.0669
  C  C117  1  0.133300  0.555500  0.179100  1.0  -0.1006
  C  C118  1  0.461400  0.427700  0.876400  1.0  -0.1068
  C  C119  1  0.961500  0.994600  0.030200  1.0  0.3525
  C  C120  1  0.862100  0.369100  0.818800  1.0  -0.026
  C  C121  1  0.776600  0.557800  0.126500  1.0  -0.0944
  C  C122  1  0.022300  0.579200  0.436500  1.0  -0.1397
  C  C123  1  0.869000  0.715900  0.881600  1.0  -0.2774
  C  C124  1  0.087700  0.071900  0.882700  1.0  0.182
  C  C125  1  0.848100  0.333500  0.876800  1.0  -0.3098
  C  C126  1  0.697600  0.039000  0.604100  1.0  0.1827
  C  C127  1  0.673800  0.600000  0.325100  1.0  -0.0963
  C  C128  1  0.182000  0.324700  0.355000  1.0  -0.3251
  C  C129  1  0.793300  0.630800  0.140000  1.0  -0.0515
  C  C130  1  0.356500  0.434100  0.617400  1.0  0.018
  C  C131  1  0.650800  0.526900  0.118300  1.0  0.0316
  C  C132  1  0.362100  0.630900  0.681200  1.0  -0.0265
  C  C133  1  0.366700  0.555500  0.679100  1.0  -0.1025
  C  C134  1  0.849200  0.526900  0.618300  1.0  0.0309
  C  C135  1  0.461500  0.005400  0.469800  1.0  0.3515
  C  C136  1  0.487000  0.651000  0.953200  1.0  -0.0476
  C  C137  1  0.326200  0.400000  0.674900  1.0  -0.0953
  C  C138  1  0.835300  0.373500  0.939100  1.0  -0.0655
  C  C139  1  0.891300  0.608100  0.940500  1.0  -0.1056
  C  C140  1  0.477700  0.579200  0.936500  1.0  -0.1407
  C  C141  1  0.668500  0.673200  0.323600  1.0  -0.0723
  C  C142  1  0.587700  0.928100  0.617300  1.0  0.1813
  C  C143  1  0.331500  0.326800  0.676400  1.0  -0.0772
  C  C144  1  0.131000  0.284100  0.118400  1.0  -0.2758
  C  C145  1  0.446600  0.354400  0.865500  1.0  -0.0675
  C  C146  1  0.281400  0.674000  0.896800  1.0  -0.0525
  C  C147  1  0.602400  0.682200  0.439500  1.0  -0.0461
  C  C148  1  0.164700  0.626500  0.060900  1.0  -0.0653
  C  C149  1  0.352100  0.515300  0.617500  1.0  0.0093
  C  C150  1  0.150800  0.473100  0.381700  1.0  0.0313
  C  C151  1  0.147900  0.515300  0.117500  1.0  0.0086
  C  C152  1  0.223400  0.442200  0.873500  1.0  -0.0934
  C  C153  1  0.365900  0.552600  0.898100  1.0  0.0153
  C  C154  1  0.177500  0.020900  0.857800  1.0  -0.1732
  C  C155  1  0.634100  0.447400  0.101900  1.0  0.015
  C  C156  1  0.608700  0.608100  0.440500  1.0  -0.1064
  C  C157  1  0.038500  0.005400  0.969800  1.0  0.3528
  C  C158  1  0.218600  0.674000  0.396800  1.0  -0.0525
  C  C159  1  0.322500  0.020900  0.357800  1.0  -0.1701
  C  C160  1  0.206700  0.369200  0.860000  1.0  -0.0522
  C  C161  1  0.102400  0.317800  0.060500  1.0  -0.0406
  C  C162  1  0.143500  0.434100  0.117400  1.0  0.0176
  C  C163  1  0.631000  0.715900  0.381600  1.0  -0.2775
  C  C164  1  0.987000  0.349000  0.546800  1.0  -0.0469
  C  C165  1  0.664700  0.373500  0.439100  1.0  -0.0671
  C  C166  1  0.946600  0.645600  0.634500  1.0  -0.0667
  C  C167  1  0.162700  0.552000  0.059100  1.0  -0.0825
  C  C168  1  0.293300  0.369200  0.360000  1.0  -0.0522
  C  C169  1  0.865900  0.447400  0.601900  1.0  0.0148
  C  C170  1  0.822500  0.979100  0.142200  1.0  -0.1748
  C  C171  1  0.231800  0.602000  0.378000  1.0  -0.1234
  C  C172  1  0.889700  0.298900  0.564500  1.0  -0.2522
  C  C173  1  0.682000  0.675300  0.145000  1.0  -0.3271
  C  C174  1  0.412300  0.071900  0.382700  1.0  0.1821
  C  C175  1  0.637900  0.369100  0.318800  1.0  -0.0274
  C  C176  1  0.110300  0.701100  0.435500  1.0  -0.2552
  C  C177  1  0.837300  0.448000  0.940900  1.0  -0.0837
  C  C178  1  0.337300  0.552000  0.559100  1.0  -0.0829
  C  C179  1  0.391300  0.391900  0.559500  1.0  -0.1037
  C  C180  1  0.348100  0.666500  0.623200  1.0  -0.3117
  C  C181  1  0.538600  0.572300  0.123600  1.0  -0.1059
  C  C182  1  0.961400  0.572300  0.623600  1.0  -0.1064
  C  C183  1  0.647900  0.484700  0.382500  1.0  0.0073
  C  C184  1  0.369000  0.284100  0.618400  1.0  -0.2755
  C  C185  1  0.053400  0.354400  0.365500  1.0  -0.0671
  C  C186  1  0.134100  0.552600  0.398100  1.0  0.0152
  C  C187  1  0.852100  0.484700  0.882500  1.0  0.0081
  C  C188  1  0.108700  0.391900  0.059500  1.0  -0.1046
  C  C189  1  0.302400  0.961000  0.395900  1.0  0.1819
  C  C190  1  0.781400  0.326000  0.603200  1.0  -0.0526
  C  C191  1  0.038600  0.427700  0.376400  1.0  -0.1066
  C  C192  1  0.643500  0.565900  0.382600  1.0  0.018
  C  C193  1  0.662700  0.448000  0.440900  1.0  -0.0834
  C  C194  1  0.168500  0.326800  0.176400  1.0  -0.0738
  C  C195  1  0.276600  0.442200  0.373500  1.0  -0.094
  C  C196  1  0.677500  0.979100  0.642200  1.0  -0.174
  C  C197  1  0.651900  0.333500  0.376800  1.0  -0.3096
  C  C198  1  0.268200  0.602000  0.878000  1.0  -0.1225
  C  C199  1  0.013000  0.651000  0.453200  1.0  -0.0461
  C  C200  1  0.818000  0.675300  0.645000  1.0  -0.3271
  C  C201  1  0.731800  0.398000  0.122000  1.0  -0.1205
  C  C202  1  0.318000  0.324700  0.855000  1.0  -0.3251
  C  C203  1  0.522300  0.420800  0.063500  1.0  -0.14
  C  C204  1  0.856500  0.565900  0.882600  1.0  0.0184
  C  C205  1  0.610300  0.298900  0.064500  1.0  -0.2518
  C  C206  1  0.831500  0.673200  0.823600  1.0  -0.0728
  C  C207  1  0.768200  0.398000  0.622000  1.0  -0.1222
  C  C208  1  0.718600  0.326000  0.103200  1.0  -0.0528
  C  C209  1  0.826200  0.600000  0.825100  1.0  -0.0961
  C  C210  1  0.977700  0.420800  0.563500  1.0  -0.1404
  C  C211  1  0.897600  0.682200  0.939500  1.0  -0.0414
  C  C212  1  0.802400  0.039000  0.104100  1.0  0.1822
  C  C213  1  0.706700  0.630800  0.640000  1.0  -0.0492
  C  C214  1  0.912300  0.928100  0.117300  1.0  0.1816
  C  C215  1  0.137900  0.630900  0.181200  1.0  -0.0269
  C  C216  1  0.866700  0.444500  0.820900  1.0  -0.1012
  N  N217  1  0.516000  0.935700  0.562100  1.0  -0.2842
  N  N218  1  0.484000  0.064300  0.437900  1.0  -0.2855
  N  N219  1  0.627400  0.046300  0.547200  1.0  -0.2985
  N  N220  1  0.016000  0.064300  0.937900  1.0  -0.2841
  N  N221  1  0.372600  0.953700  0.452800  1.0  -0.2985
  N  N222  1  0.127400  0.953700  0.952800  1.0  -0.2953
  N  N223  1  0.872600  0.046300  0.047200  1.0  -0.3003
  N  N224  1  0.984000  0.935700  0.062100  1.0  -0.2832
  O  O225  1  0.669400  0.788800  0.697800  1.0  -0.877
  O  O226  1  0.075900  0.195200  0.309900  1.0  -0.9373
  O  O227  1  0.021600  0.800100  0.529300  1.0  -0.5831
  O  O228  1  0.978400  0.199900  0.470700  1.0  -0.579
  O  O229  1  0.879300  0.846900  0.946400  1.0  -0.608
  O  O230  1  0.424100  0.195200  0.809900  1.0  -0.9392
  O  O231  1  0.410600  0.793700  0.571300  1.0  -0.8099
  O  O232  1  0.910600  0.206300  0.928700  1.0  -0.8085
  O  O233  1  0.997600  0.832000  0.836600  1.0  -0.9322
  O  O234  1  0.180500  0.781600  0.625900  1.0  -0.8667
  O  O235  1  0.725800  0.803300  0.087300  1.0  -0.5921
  O  O236  1  0.169400  0.211200  0.802200  1.0  -0.876
  O  O237  1  0.319500  0.781600  0.125900  1.0  -0.8685
  O  O238  1  0.620700  0.846900  0.446400  1.0  -0.6075
  O  O239  1  0.497600  0.168000  0.663400  1.0  -0.9337
  O  O240  1  0.252300  0.166800  0.162600  1.0  -0.9215
  O  O241  1  0.235500  0.824900  0.465500  1.0  -0.8713
  O  O242  1  0.274200  0.196700  0.912700  1.0  -0.5946
  O  O243  1  0.752300  0.833200  0.337400  1.0  -0.9232
  O  O244  1  0.379300  0.153100  0.553600  1.0  -0.6089
  O  O245  1  0.502400  0.832000  0.336600  1.0  -0.9313
  O  O246  1  0.873900  0.208700  0.801400  1.0  -0.9544
  O  O247  1  0.747700  0.833200  0.837400  1.0  -0.9228
  O  O248  1  0.680500  0.218400  0.874100  1.0  -0.8654
  O  O249  1  0.330600  0.211200  0.302200  1.0  -0.8773
  O  O250  1  0.626100  0.208700  0.301400  1.0  -0.9542
  O  O251  1  0.002000  0.831400  0.411500  1.0  -0.9064
  O  O252  1  0.002400  0.168000  0.163400  1.0  -0.9328
  O  O253  1  0.998000  0.168600  0.588500  1.0  -0.9092
  O  O254  1  0.774200  0.803300  0.587300  1.0  -0.5919
  O  O255  1  0.478400  0.800100  0.029300  1.0  -0.5849
  O  O256  1  0.120700  0.153100  0.053600  1.0  -0.6086
  O  O257  1  0.126100  0.791300  0.198600  1.0  -0.9569
  O  O258  1  0.924100  0.804800  0.690100  1.0  -0.9401
  O  O259  1  0.819500  0.218400  0.374100  1.0  -0.8673
  O  O260  1  0.264500  0.824900  0.965500  1.0  -0.8705
  O  O261  1  0.521600  0.199900  0.970700  1.0  -0.5815
  O  O262  1  0.247700  0.166800  0.662600  1.0  -0.9201
  O  O263  1  0.089400  0.793700  0.071300  1.0  -0.8093
  O  O264  1  0.225800  0.196700  0.412700  1.0  -0.5941
  O  O265  1  0.764500  0.175100  0.534500  1.0  -0.8705
  O  O266  1  0.830600  0.788800  0.197800  1.0  -0.8776
  O  O267  1  0.589400  0.206300  0.428700  1.0  -0.8082
  O  O268  1  0.502000  0.168600  0.088500  1.0  -0.9084
  O  O269  1  0.575900  0.804800  0.190100  1.0  -0.941
  O  O270  1  0.735500  0.175100  0.034500  1.0  -0.8716
  O  O271  1  0.373900  0.791300  0.698600  1.0  -0.9569
  O  O272  1  0.498000  0.831400  0.911500  1.0  -0.9084
  F  F273  1  0.198300  0.822200  0.319200  1.0  -0.4333
  F  F274  1  0.698300  0.177800  0.180800  1.0  -0.4295
  F  F275  1  0.801700  0.177800  0.680800  1.0  -0.4284
  F  F276  1  0.301700  0.822200  0.819200  1.0  -0.432
