# generated using pymatgen
data_Zn2H33C48N7O6
_symmetry_space_group_name_H-M   'P 1'
_cell_length_a   8.48040000
_cell_length_b   14.10170000
_cell_length_c   20.76170000
_cell_angle_alpha   83.47200000
_cell_angle_beta   81.24100000
_cell_angle_gamma   82.82300000
_symmetry_Int_Tables_number   1
_chemical_formula_structural   Zn2H33C48N7O6
_chemical_formula_sum   'Zn4 H66 C96 N14 O12'
_cell_volume   2423.29749532
_cell_formula_units_Z   2
loop_
 _symmetry_equiv_pos_site_id
 _symmetry_equiv_pos_as_xyz
  1  'x, y, z'
loop_
 _atom_site_type_symbol
 _atom_site_label
 _atom_site_symmetry_multiplicity
 _atom_site_fract_x
 _atom_site_fract_y
 _atom_site_fract_z
 _atom_site_occupancy
 _atom_site_charge
  Zn  Zn1  1  0.959770  0.360780  0.276340  1.0  0.8411
  Zn  Zn2  1  0.802400  0.385280  0.084530  1.0  0.8433
  Zn  Zn3  1  0.040230  0.639220  0.723660  1.0  0.8401
  Zn  Zn4  1  0.197600  0.614720  0.915470  1.0  0.8439
  H  H5  1  0.740500  0.171800  0.505700  1.0  0.1238
  H  H6  1  0.965700  0.959700  0.139000  1.0  0.0996
  H  H7  1  0.513600  0.411100  0.208300  1.0  0.1043
  H  H8  1  0.397700  0.354000  0.649700  1.0  0.0957
  H  H9  1  0.405800  0.276300  0.275600  1.0  0.12
  H  H10  1  0.954300  0.933600  0.003100  1.0  0.0921
  H  H11  1  0.896100  0.735300  0.303000  1.0  0.1077
  H  H12  1  0.611900  0.924100  0.836900  1.0  0.1176
  H  H13  1  0.038200  0.849500  0.320400  1.0  0.1149
  H  H14  1  0.583300  0.695300  0.090900  1.0  0.1002
  H  H15  1  0.709600  0.179900  0.127900  1.0  0.0975
  H  H16  1  0.635700  0.919500  0.335700  1.0  0.1187
  H  H17  1  0.012600  0.336600  0.911800  1.0  0.0997
  H  H18  1  0.534800  0.141400  0.029700  1.0  0.1065
  H  H19  1  0.058200  0.999900  0.346300  1.0  0.0983
  H  H20  1  0.267100  0.956200  0.981500  1.0  0.1119
  H  H21  1  0.658100  0.080500  0.304800  1.0  0.1234
  H  H22  1  0.305400  0.882900  0.384900  1.0  0.1015
  H  H23  1  0.146700  0.412400  0.721100  1.0  0.1056
  H  H24  1  0.790500  0.564100  0.969300  1.0  0.099
  H  H25  1  0.364300  0.080500  0.664300  1.0  0.12
  H  H26  1  0.290400  0.820100  0.872100  1.0  0.0961
  H  H27  1  0.034300  0.040300  0.861000  1.0  0.0998
  H  H28  1  0.987400  0.663400  0.088200  1.0  0.0999
  H  H29  1  0.564000  0.574800  0.574600  1.0  0.131
  H  H30  1  0.486400  0.588900  0.791700  1.0  0.1049
  H  H31  1  0.436000  0.425200  0.425400  1.0  0.1302
  H  H32  1  0.632000  0.787000  0.169700  1.0  0.1127
  H  H33  1  0.991800  0.111300  0.165900  1.0  0.0906
  H  H34  1  0.041200  0.809200  0.113200  1.0  0.1022
  H  H35  1  0.368000  0.213000  0.830300  1.0  0.1127
  H  H36  1  0.309900  0.248500  0.050700  1.0  0.0923
  H  H37  1  0.008200  0.888700  0.834100  1.0  0.0904
  H  H38  1  0.259500  0.828200  0.494300  1.0  0.1239
  H  H39  1  0.408700  0.544000  0.683300  1.0  0.0987
  H  H40  1  0.705800  0.332900  0.702400  1.0  0.1054
  H  H41  1  0.341900  0.919500  0.695200  1.0  0.1234
  H  H42  1  0.862200  0.275300  0.419000  1.0  0.0974
  H  H43  1  0.137800  0.724700  0.581000  1.0  0.0974
  H  H44  1  0.961800  0.150500  0.679600  1.0  0.1138
  H  H45  1  0.103900  0.264700  0.697000  1.0  0.1065
  H  H46  1  0.620100  0.316400  0.981200  1.0  0.0916
  H  H47  1  0.694600  0.117100  0.615100  1.0  0.1015
  H  H48  1  0.379900  0.683600  0.018800  1.0  0.0922
  H  H49  1  0.361100  0.915200  0.195600  1.0  0.1001
  H  H50  1  0.416700  0.304700  0.909100  1.0  0.1003
  H  H51  1  0.045700  0.066400  0.996900  1.0  0.0926
  H  H52  1  0.550100  0.588800  0.458400  1.0  0.1059
  H  H53  1  0.853300  0.587600  0.278900  1.0  0.1053
  H  H54  1  0.732900  0.043800  0.018500  1.0  0.1132
  H  H55  1  0.941800  0.000100  0.653700  1.0  0.0999
  H  H56  1  0.713200  0.548300  0.863400  1.0  0.1331
  H  H57  1  0.244800  0.575400  0.218200  1.0  0.1089
  H  H58  1  0.449900  0.411200  0.541600  1.0  0.1059
  H  H59  1  0.209500  0.435900  0.030700  1.0  0.0991
  H  H60  1  0.465200  0.858600  0.970300  1.0  0.1064
  H  H61  1  0.594200  0.723700  0.724400  1.0  0.1201
  H  H62  1  0.388100  0.075900  0.163100  1.0  0.1181
  H  H63  1  0.602300  0.646000  0.350300  1.0  0.0964
  H  H64  1  0.958800  0.190800  0.886800  1.0  0.1026
  H  H65  1  0.294200  0.667100  0.297600  1.0  0.1042
  H  H66  1  0.638900  0.084800  0.804400  1.0  0.1
  H  H67  1  0.755200  0.424600  0.781800  1.0  0.1089
  H  H68  1  0.286800  0.451700  0.136600  1.0  0.1334
  H  H69  1  0.690100  0.751500  0.949300  1.0  0.0915
  H  H70  1  0.591300  0.456000  0.316700  1.0  0.0974
  C  C71  1  0.084900  0.278900  0.740300  1.0  -0.1297
  C  C72  1  0.601400  0.298500  0.513200  1.0  0.1148
  C  C73  1  0.022500  0.072100  0.260400  1.0  -0.1776
  C  C74  1  0.499300  0.351700  0.556300  1.0  -0.1841
  C  C75  1  0.405800  0.630000  0.146500  1.0  0.1576
  C  C76  1  0.887600  0.633000  0.245200  1.0  -0.0856
  C  C77  1  0.961500  0.007800  0.695500  1.0  -0.0421
  C  C78  1  0.984000  0.967300  0.181000  1.0  -0.095
  C  C79  1  0.699900  0.810300  0.963800  1.0  -0.0913
  C  C80  1  0.414700  0.049200  0.698800  1.0  -0.1628
  C  C81  1  0.519800  0.726700  0.762200  1.0  -0.0972
  C  C82  1  0.028500  0.209100  0.789400  1.0  0.0547
  C  C83  1  0.679400  0.381000  0.791700  1.0  -0.1729
  C  C84  1  0.112400  0.367000  0.754800  1.0  -0.0891
  C  C85  1  0.001600  0.941100  0.802700  1.0  -0.0408
  C  C86  1  0.460200  0.601100  0.588900  1.0  -0.1492
  C  C87  1  0.277600  0.015300  0.995200  1.0  -0.1271
  C  C88  1  0.973600  0.098400  0.710900  1.0  -0.1614
  C  C89  1  0.539800  0.398900  0.411100  1.0  -0.1497
  C  C90  1  0.702600  0.503900  0.900100  1.0  -0.135
  C  C91  1  0.000000  0.234400  0.853300  1.0  -0.1152
  C  C92  1  0.543800  0.230300  0.644200  1.0  0.1693
  C  C93  1  0.998300  0.765900  0.958900  1.0  0.6809
  C  C94  1  0.496300  0.900700  0.268600  1.0  0.1569
  C  C95  1  0.016000  0.032700  0.819000  1.0  -0.0932
  C  C96  1  0.563000  0.955600  0.802100  1.0  -0.1624
  C  C97  1  0.540400  0.346900  0.200800  1.0  0.0353
  C  C98  1  0.552000  0.746000  0.179200  1.0  -0.1801
  C  C99  1  0.526400  0.092900  0.231500  1.0  0.1663
  C  C100  1  0.435500  0.124200  0.024400  1.0  -0.1122
  C  C101  1  0.915100  0.721100  0.259700  1.0  -0.1294
  C  C102  1  0.746100  0.512000  0.958500  1.0  0.0497
  C  C103  1  0.297400  0.496100  0.099900  1.0  -0.1345
  C  C104  1  0.400800  0.953000  0.717400  1.0  -0.1013
  C  C105  1  0.968900  0.677600  0.131600  1.0  -0.0828
  C  C106  1  0.971500  0.790900  0.210600  1.0  0.0557
  C  C107  1  0.038500  0.992200  0.304500  1.0  -0.0404
  C  C108  1  0.300100  0.189700  0.036200  1.0  -0.093
  C  C109  1  0.026400  0.901600  0.289100  1.0  -0.158
  C  C110  1  0.448000  0.254000  0.820800  1.0  -0.1796
  C  C111  1  0.578100  0.051800  0.782700  1.0  -0.1548
  C  C112  1  0.224600  0.683100  0.593300  1.0  0.1218
  C  C113  1  0.326500  0.790700  0.465100  1.0  -0.1901
  C  C114  1  0.469100  0.317800  0.621000  1.0  -0.1443
  C  C115  1  0.320600  0.619000  0.208300  1.0  -0.1725
  C  C116  1  0.564500  0.875800  0.975600  1.0  -0.1098
  C  C117  1  0.031100  0.322400  0.868400  1.0  -0.0858
  C  C118  1  0.594200  0.370000  0.853500  1.0  0.1572
  C  C119  1  0.996500  0.886700  0.226700  1.0  0.045
  C  C120  1  0.421900  0.948200  0.217300  1.0  -0.1541
  C  C121  1  0.456200  0.769700  0.355800  1.0  0.1688
  C  C122  1  0.848200  0.831700  0.973200  1.0  -0.109
  C  C123  1  0.571700  0.964200  0.994800  1.0  0.029
  C  C124  1  0.975400  0.829100  0.720600  1.0  0.68
  C  C125  1  0.000000  0.765600  0.146700  1.0  -0.1135
  C  C126  1  0.652000  0.376500  0.965400  1.0  0.1746
  C  C127  1  0.648300  0.220900  0.156500  1.0  0.1755
  C  C128  1  0.253900  0.488000  0.041500  1.0  0.0505
  C  C129  1  0.437000  0.044400  0.197900  1.0  -0.1606
  C  C130  1  0.001700  0.234100  0.041100  1.0  0.6783
  C  C131  1  0.428300  0.035800  0.005200  1.0  0.0296
  C  C132  1  0.003500  0.113300  0.773300  1.0  0.0447
  C  C133  1  0.351700  0.779100  0.843500  1.0  0.1765
  C  C134  1  0.473600  0.907100  0.768500  1.0  0.1678
  C  C135  1  0.856100  0.918500  0.994800  1.0  -0.1435
  C  C136  1  0.350200  0.674400  0.255500  1.0  -0.1181
  C  C137  1  0.460700  0.739800  0.241100  1.0  0.143
  C  C138  1  0.722400  0.984700  0.004800  1.0  -0.1262
  C  C139  1  0.775400  0.316900  0.406700  1.0  0.1238
  C  C140  1  0.503700  0.099300  0.731400  1.0  0.1564
  C  C141  1  0.372500  0.584600  0.648800  1.0  0.0446
  C  C142  1  0.599200  0.047000  0.282600  1.0  -0.1029
  C  C143  1  0.872200  0.516100  0.164100  1.0  0.6786
  C  C144  1  0.348000  0.623500  0.034600  1.0  0.1748
  C  C145  1  0.398600  0.701500  0.486800  1.0  0.1147
  C  C146  1  0.539300  0.260200  0.758900  1.0  0.143
  C  C147  1  0.476900  0.309000  0.867700  1.0  -0.1716
  C  C148  1  0.127800  0.483900  0.835900  1.0  0.6778
  C  C149  1  0.459600  0.653100  0.799200  1.0  0.0342
  C  C150  1  0.024600  0.170900  0.279400  1.0  0.6802
  C  C151  1  0.151800  0.168300  0.026800  1.0  -0.1095
  C  C152  1  0.530900  0.682200  0.379000  1.0  -0.1445
  C  C153  1  0.523100  0.691000  0.132300  1.0  -0.176
  C  C154  1  0.143900  0.081500  0.005200  1.0  -0.1433
  C  C155  1  0.500700  0.648300  0.443700  1.0  -0.1859
  C  C156  1  0.673500  0.209300  0.534900  1.0  -0.192
  C  C157  1  0.998400  0.058900  0.197300  1.0  -0.0402
  C  C158  1  0.910400  0.610100  0.180300  1.0  -0.1782
  C  C159  1  0.355100  0.823500  0.399600  1.0  -0.2153
  C  C160  1  0.649800  0.325600  0.744500  1.0  -0.1119
  C  C161  1  0.089600  0.389900  0.819700  1.0  -0.1785
  C  C162  1  0.644900  0.176500  0.600400  1.0  -0.2155
  C  C163  1  0.977500  0.927900  0.739600  1.0  -0.1772
  C  C164  1  0.480200  0.273300  0.237800  1.0  -0.0973
  C  C165  1  0.585300  0.950800  0.301200  1.0  -0.1626
  C  C166  1  0.627500  0.415400  0.351200  1.0  0.0449
  N  N167  1  0.483400  0.801500  0.287900  1.0  -0.171
  N  N168  1  0.360900  0.582800  0.095450  1.0  0.0342
  N  N169  1  0.285700  0.569600  0.999820  1.0  -0.3905
  N  N170  1  0.714300  0.430400  0.000180  1.0  -0.3922
  N  N171  1  0.225200  0.635500  0.651600  1.0  -0.4004
  N  N172  1  0.639100  0.417200  0.904550  1.0  0.0338
  N  N173  1  0.351400  0.686100  0.850150  1.0  -0.3855
  N  N174  1  0.548800  0.191600  0.209500  1.0  0.0143
  N  N175  1  0.648600  0.313900  0.149850  1.0  -0.3871
  N  N176  1  0.516600  0.198500  0.712100  1.0  -0.1714
  N  N177  1  0.361000  0.665500  0.554140  1.0  0.0515
  N  N178  1  0.774800  0.364500  0.348400  1.0  -0.4007
  N  N179  1  0.451200  0.808400  0.790500  1.0  0.0144
  N  N180  1  0.639000  0.334500  0.445860  1.0  0.0511
  O  O181  1  0.860000  0.447000  0.207330  1.0  -0.6642
  O  O182  1  0.845200  0.511100  0.107040  1.0  -0.5914
  O  O183  1  0.127600  0.790500  0.968690  1.0  -0.5613
  O  O184  1  0.949400  0.817600  0.665900  1.0  -0.5548
  O  O185  1  0.154800  0.488900  0.892960  1.0  -0.5904
  O  O186  1  0.140000  0.553000  0.792670  1.0  -0.6654
  O  O187  1  0.985900  0.686300  0.937060  1.0  -0.6079
  O  O188  1  0.014100  0.313700  0.062940  1.0  -0.608
  O  O189  1  0.050600  0.182400  0.334100  1.0  -0.5568
  O  O190  1  0.872400  0.209500  0.031310  1.0  -0.5611
  O  O191  1  0.993700  0.240600  0.236800  1.0  -0.6118
  O  O192  1  0.006300  0.759400  0.763200  1.0  -0.6108
