# generated using pymatgen
data_Li2H3(C3O2)3
_symmetry_space_group_name_H-M   'P 1'
_cell_length_a   21.12880000
_cell_length_b   21.12880000
_cell_length_c   21.12880000
_cell_angle_alpha   90.00000000
_cell_angle_beta   90.00000000
_cell_angle_gamma   90.00000000
_symmetry_Int_Tables_number   1
_chemical_formula_structural   Li2H3(C3O2)3
_chemical_formula_sum   'Li48 H72 C216 O144'
_cell_volume   9432.44967144
_cell_formula_units_Z   24
loop_
 _symmetry_equiv_pos_site_id
 _symmetry_equiv_pos_as_xyz
  1  'x, y, z'
loop_
 _atom_site_type_symbol
 _atom_site_label
 _atom_site_symmetry_multiplicity
 _atom_site_fract_x
 _atom_site_fract_y
 _atom_site_fract_z
 _atom_site_occupancy
 _atom_site_charge
  Li  Li1  1  0.028200  0.842000  0.627700  1.0  0.869
  Li  Li2  1  0.528200  0.342000  0.127700  1.0  0.869
  Li  Li3  1  0.471800  0.158000  0.127700  1.0  0.8706
  Li  Li4  1  0.971800  0.658000  0.627700  1.0  0.8706
  Li  Li5  1  0.971800  0.342000  0.872300  1.0  0.8699
  Li  Li6  1  0.471800  0.842000  0.372300  1.0  0.8699
  Li  Li7  1  0.528200  0.658000  0.372300  1.0  0.8698
  Li  Li8  1  0.028200  0.158000  0.872300  1.0  0.8698
  Li  Li9  1  0.627700  0.028200  0.842000  1.0  0.8646
  Li  Li10  1  0.127700  0.528200  0.342000  1.0  0.8646
  Li  Li11  1  0.127700  0.471800  0.158000  1.0  0.8555
  Li  Li12  1  0.627700  0.971800  0.658000  1.0  0.8555
  Li  Li13  1  0.872300  0.971800  0.342000  1.0  0.8647
  Li  Li14  1  0.372300  0.471800  0.842000  1.0  0.8647
  Li  Li15  1  0.372300  0.528200  0.658000  1.0  0.8559
  Li  Li16  1  0.872300  0.028200  0.158000  1.0  0.8559
  Li  Li17  1  0.842000  0.627700  0.028200  1.0  0.8677
  Li  Li18  1  0.342000  0.127700  0.528200  1.0  0.8677
  Li  Li19  1  0.158000  0.127700  0.471800  1.0  0.868
  Li  Li20  1  0.658000  0.627700  0.971800  1.0  0.868
  Li  Li21  1  0.342000  0.872300  0.971800  1.0  0.8679
  Li  Li22  1  0.842000  0.372300  0.471800  1.0  0.8679
  Li  Li23  1  0.658000  0.372300  0.528200  1.0  0.8676
  Li  Li24  1  0.158000  0.872300  0.028200  1.0  0.8676
  Li  Li25  1  0.092000  0.278200  0.877700  1.0  0.869
  Li  Li26  1  0.592000  0.778200  0.377700  1.0  0.869
  Li  Li27  1  0.408000  0.721800  0.377700  1.0  0.8689
  Li  Li28  1  0.908000  0.221800  0.877700  1.0  0.8689
  Li  Li29  1  0.592000  0.221800  0.122300  1.0  0.8683
  Li  Li30  1  0.092000  0.721800  0.622300  1.0  0.8683
  Li  Li31  1  0.908000  0.778200  0.622300  1.0  0.8687
  Li  Li32  1  0.408000  0.278200  0.122300  1.0  0.8687
  Li  Li33  1  0.278200  0.877700  0.092000  1.0  0.8621
  Li  Li34  1  0.778200  0.377700  0.592000  1.0  0.8621
  Li  Li35  1  0.721800  0.377700  0.408000  1.0  0.8543
  Li  Li36  1  0.221800  0.877700  0.908000  1.0  0.8543
  Li  Li37  1  0.221800  0.122300  0.592000  1.0  0.8628
  Li  Li38  1  0.721800  0.622300  0.092000  1.0  0.8628
  Li  Li39  1  0.778200  0.622300  0.908000  1.0  0.8533
  Li  Li40  1  0.278200  0.122300  0.408000  1.0  0.8533
  Li  Li41  1  0.877700  0.092000  0.278200  1.0  0.8707
  Li  Li42  1  0.377700  0.592000  0.778200  1.0  0.8707
  Li  Li43  1  0.377700  0.408000  0.721800  1.0  0.8718
  Li  Li44  1  0.877700  0.908000  0.221800  1.0  0.8718
  Li  Li45  1  0.122300  0.592000  0.221800  1.0  0.8704
  Li  Li46  1  0.622300  0.092000  0.721800  1.0  0.8704
  Li  Li47  1  0.622300  0.908000  0.778200  1.0  0.871
  Li  Li48  1  0.122300  0.408000  0.278200  1.0  0.871
  H  H49  1  0.059000  0.666000  0.454000  1.0  0.1223
  H  H50  1  0.559000  0.166000  0.954000  1.0  0.1223
  H  H51  1  0.441000  0.334000  0.954000  1.0  0.1229
  H  H52  1  0.941000  0.834000  0.454000  1.0  0.1229
  H  H53  1  0.941000  0.166000  0.046000  1.0  0.122
  H  H54  1  0.441000  0.666000  0.546000  1.0  0.122
  H  H55  1  0.559000  0.834000  0.546000  1.0  0.122
  H  H56  1  0.059000  0.334000  0.046000  1.0  0.122
  H  H57  1  0.454000  0.059000  0.666000  1.0  0.1203
  H  H58  1  0.954000  0.559000  0.166000  1.0  0.1203
  H  H59  1  0.954000  0.441000  0.334000  1.0  0.1211
  H  H60  1  0.454000  0.941000  0.834000  1.0  0.1211
  H  H61  1  0.046000  0.941000  0.166000  1.0  0.1203
  H  H62  1  0.546000  0.441000  0.666000  1.0  0.1203
  H  H63  1  0.546000  0.559000  0.834000  1.0  0.121
  H  H64  1  0.046000  0.059000  0.334000  1.0  0.121
  H  H65  1  0.666000  0.454000  0.059000  1.0  0.1207
  H  H66  1  0.166000  0.954000  0.559000  1.0  0.1207
  H  H67  1  0.334000  0.954000  0.441000  1.0  0.1196
  H  H68  1  0.834000  0.454000  0.941000  1.0  0.1196
  H  H69  1  0.166000  0.046000  0.941000  1.0  0.1194
  H  H70  1  0.666000  0.546000  0.441000  1.0  0.1194
  H  H71  1  0.834000  0.546000  0.559000  1.0  0.1204
  H  H72  1  0.334000  0.046000  0.059000  1.0  0.1204
  H  H73  1  0.916000  0.309000  0.704000  1.0  0.1208
  H  H74  1  0.416000  0.809000  0.204000  1.0  0.1208
  H  H75  1  0.584000  0.691000  0.204000  1.0  0.1206
  H  H76  1  0.084000  0.191000  0.704000  1.0  0.1206
  H  H77  1  0.416000  0.191000  0.296000  1.0  0.12
  H  H78  1  0.916000  0.691000  0.796000  1.0  0.12
  H  H79  1  0.084000  0.809000  0.796000  1.0  0.1199
  H  H80  1  0.584000  0.309000  0.296000  1.0  0.1199
  H  H81  1  0.309000  0.704000  0.916000  1.0  0.1191
  H  H82  1  0.809000  0.204000  0.416000  1.0  0.1191
  H  H83  1  0.691000  0.204000  0.584000  1.0  0.1201
  H  H84  1  0.191000  0.704000  0.084000  1.0  0.1201
  H  H85  1  0.191000  0.296000  0.416000  1.0  0.1194
  H  H86  1  0.691000  0.796000  0.916000  1.0  0.1194
  H  H87  1  0.809000  0.796000  0.084000  1.0  0.1201
  H  H88  1  0.309000  0.296000  0.584000  1.0  0.1201
  H  H89  1  0.704000  0.916000  0.309000  1.0  0.1233
  H  H90  1  0.204000  0.416000  0.809000  1.0  0.1233
  H  H91  1  0.204000  0.584000  0.691000  1.0  0.1226
  H  H92  1  0.704000  0.084000  0.191000  1.0  0.1226
  H  H93  1  0.296000  0.416000  0.191000  1.0  0.1222
  H  H94  1  0.796000  0.916000  0.691000  1.0  0.1222
  H  H95  1  0.796000  0.084000  0.809000  1.0  0.124
  H  H96  1  0.296000  0.584000  0.309000  1.0  0.124
  H  H97  1  0.000000  0.750000  0.275000  1.0  0.1145
  H  H98  1  0.500000  0.250000  0.775000  1.0  0.1145
  H  H99  1  0.000000  0.250000  0.225000  1.0  0.1162
  H  H100  1  0.500000  0.750000  0.725000  1.0  0.1162
  H  H101  1  0.275000  0.000000  0.750000  1.0  0.1147
  H  H102  1  0.775000  0.500000  0.250000  1.0  0.1147
  H  H103  1  0.225000  0.000000  0.250000  1.0  0.1158
  H  H104  1  0.725000  0.500000  0.750000  1.0  0.1158
  H  H105  1  0.750000  0.275000  0.000000  1.0  0.1167
  H  H106  1  0.250000  0.775000  0.500000  1.0  0.1167
  H  H107  1  0.250000  0.225000  0.000000  1.0  0.1172
  H  H108  1  0.750000  0.725000  0.500000  1.0  0.1172
  H  H109  1  0.000000  0.250000  0.525000  1.0  0.1145
  H  H110  1  0.500000  0.750000  0.025000  1.0  0.1145
  H  H111  1  0.500000  0.250000  0.475000  1.0  0.1162
  H  H112  1  0.000000  0.750000  0.975000  1.0  0.1162
  H  H113  1  0.250000  0.525000  0.000000  1.0  0.1167
  H  H114  1  0.750000  0.025000  0.500000  1.0  0.1167
  H  H115  1  0.250000  0.475000  0.500000  1.0  0.1172
  H  H116  1  0.750000  0.975000  0.000000  1.0  0.1172
  H  H117  1  0.525000  0.000000  0.250000  1.0  0.1147
  H  H118  1  0.025000  0.500000  0.750000  1.0  0.1147
  H  H119  1  0.475000  0.500000  0.250000  1.0  0.1158
  H  H120  1  0.975000  0.000000  0.750000  1.0  0.1158
  C  C121  1  0.070600  0.651800  0.327100  1.0  0.7074
  C  C122  1  0.033000  0.704400  0.427600  1.0  -0.0856
  C  C123  1  0.033700  0.703800  0.361300  1.0  -0.0984
  C  C124  1  0.570600  0.151800  0.827100  1.0  0.7074
  C  C125  1  0.533000  0.204400  0.927600  1.0  -0.0856
  C  C126  1  0.533700  0.203800  0.861300  1.0  -0.0984
  C  C127  1  0.429400  0.348200  0.827100  1.0  0.709
  C  C128  1  0.467000  0.295600  0.927600  1.0  -0.0882
  C  C129  1  0.466300  0.296200  0.861300  1.0  -0.0986
  C  C130  1  0.929400  0.848200  0.327100  1.0  0.709
  C  C131  1  0.967000  0.795600  0.427600  1.0  -0.0882
  C  C132  1  0.966300  0.796200  0.361300  1.0  -0.0986
  C  C133  1  0.929400  0.151800  0.172900  1.0  0.7083
  C  C134  1  0.967000  0.204400  0.072400  1.0  -0.0879
  C  C135  1  0.966300  0.203800  0.138700  1.0  -0.0989
  C  C136  1  0.429400  0.651800  0.672900  1.0  0.7083
  C  C137  1  0.467000  0.704400  0.572400  1.0  -0.0879
  C  C138  1  0.466300  0.703800  0.638700  1.0  -0.0989
  C  C139  1  0.570600  0.848200  0.672900  1.0  0.7084
  C  C140  1  0.533000  0.795600  0.572400  1.0  -0.0865
  C  C141  1  0.533700  0.796200  0.638700  1.0  -0.0995
  C  C142  1  0.070600  0.348200  0.172900  1.0  0.7084
  C  C143  1  0.033000  0.295600  0.072400  1.0  -0.0865
  C  C144  1  0.033700  0.296200  0.138700  1.0  -0.0995
  C  C145  1  0.327100  0.070600  0.651800  1.0  0.7066
  C  C146  1  0.427600  0.033000  0.704400  1.0  -0.0876
  C  C147  1  0.361300  0.033700  0.703800  1.0  -0.0997
  C  C148  1  0.827100  0.570600  0.151800  1.0  0.7066
  C  C149  1  0.927600  0.533000  0.204400  1.0  -0.0876
  C  C150  1  0.861300  0.533700  0.203800  1.0  -0.0997
  C  C151  1  0.827100  0.429400  0.348200  1.0  0.7069
  C  C152  1  0.927600  0.467000  0.295600  1.0  -0.0871
  C  C153  1  0.861300  0.466300  0.296200  1.0  -0.0997
  C  C154  1  0.327100  0.929400  0.848200  1.0  0.7069
  C  C155  1  0.427600  0.967000  0.795600  1.0  -0.0871
  C  C156  1  0.361300  0.966300  0.796200  1.0  -0.0997
  C  C157  1  0.172900  0.929400  0.151800  1.0  0.7063
  C  C158  1  0.072400  0.967000  0.204400  1.0  -0.0883
  C  C159  1  0.138700  0.966300  0.203800  1.0  -0.0991
  C  C160  1  0.672900  0.429400  0.651800  1.0  0.7063
  C  C161  1  0.572400  0.467000  0.704400  1.0  -0.0883
  C  C162  1  0.638700  0.466300  0.703800  1.0  -0.0991
  C  C163  1  0.672900  0.570600  0.848200  1.0  0.7066
  C  C164  1  0.572400  0.533000  0.795600  1.0  -0.0883
  C  C165  1  0.638700  0.533700  0.796200  1.0  -0.1004
  C  C166  1  0.172900  0.070600  0.348200  1.0  0.7066
  C  C167  1  0.072400  0.033000  0.295600  1.0  -0.0883
  C  C168  1  0.138700  0.033700  0.296200  1.0  -0.1004
  C  C169  1  0.651800  0.327100  0.070600  1.0  0.7068
  C  C170  1  0.704400  0.427600  0.033000  1.0  -0.0885
  C  C171  1  0.703800  0.361300  0.033700  1.0  -0.0976
  C  C172  1  0.151800  0.827100  0.570600  1.0  0.7068
  C  C173  1  0.204400  0.927600  0.533000  1.0  -0.0885
  C  C174  1  0.203800  0.861300  0.533700  1.0  -0.0976
  C  C175  1  0.348200  0.827100  0.429400  1.0  0.7075
  C  C176  1  0.295600  0.927600  0.467000  1.0  -0.0876
  C  C177  1  0.296200  0.861300  0.466300  1.0  -0.0973
  C  C178  1  0.848200  0.327100  0.929400  1.0  0.7075
  C  C179  1  0.795600  0.427600  0.967000  1.0  -0.0876
  C  C180  1  0.796200  0.361300  0.966300  1.0  -0.0973
  C  C181  1  0.151800  0.172900  0.929400  1.0  0.7071
  C  C182  1  0.204400  0.072400  0.967000  1.0  -0.0889
  C  C183  1  0.203800  0.138700  0.966300  1.0  -0.0977
  C  C184  1  0.651800  0.672900  0.429400  1.0  0.7071
  C  C185  1  0.704400  0.572400  0.467000  1.0  -0.0889
  C  C186  1  0.703800  0.638700  0.466300  1.0  -0.0977
  C  C187  1  0.848200  0.672900  0.570600  1.0  0.7076
  C  C188  1  0.795600  0.572400  0.533000  1.0  -0.0868
  C  C189  1  0.796200  0.638700  0.533700  1.0  -0.0979
  C  C190  1  0.348200  0.172900  0.070600  1.0  0.7076
  C  C191  1  0.295600  0.072400  0.033000  1.0  -0.0868
  C  C192  1  0.296200  0.138700  0.033700  1.0  -0.0979
  C  C193  1  0.901800  0.320600  0.577100  1.0  0.7069
  C  C194  1  0.954400  0.283000  0.677600  1.0  -0.0869
  C  C195  1  0.953800  0.283700  0.611300  1.0  -0.0975
  C  C196  1  0.401800  0.820600  0.077100  1.0  0.7069
  C  C197  1  0.454400  0.783000  0.177600  1.0  -0.0869
  C  C198  1  0.453800  0.783700  0.111300  1.0  -0.0975
  C  C199  1  0.598200  0.679400  0.077100  1.0  0.708
  C  C200  1  0.545600  0.717000  0.177600  1.0  -0.0852
  C  C201  1  0.546200  0.716300  0.111300  1.0  -0.0971
  C  C202  1  0.098200  0.179400  0.577100  1.0  0.708
  C  C203  1  0.045600  0.217000  0.677600  1.0  -0.0852
  C  C204  1  0.046200  0.216300  0.611300  1.0  -0.0971
  C  C205  1  0.401800  0.179400  0.422900  1.0  0.7076
  C  C206  1  0.454400  0.217000  0.322400  1.0  -0.0871
  C  C207  1  0.453800  0.216300  0.388700  1.0  -0.0977
  C  C208  1  0.901800  0.679400  0.922900  1.0  0.7076
  C  C209  1  0.954400  0.717000  0.822400  1.0  -0.0871
  C  C210  1  0.953800  0.716300  0.888700  1.0  -0.0977
  C  C211  1  0.098200  0.820600  0.922900  1.0  0.7079
  C  C212  1  0.045600  0.783000  0.822400  1.0  -0.0854
  C  C213  1  0.046200  0.783700  0.888700  1.0  -0.0981
  C  C214  1  0.598200  0.320600  0.422900  1.0  0.7079
  C  C215  1  0.545600  0.283000  0.322400  1.0  -0.0854
  C  C216  1  0.546200  0.283700  0.388700  1.0  -0.0981
  C  C217  1  0.320600  0.577100  0.901800  1.0  0.7068
  C  C218  1  0.283000  0.677600  0.954400  1.0  -0.0871
  C  C219  1  0.283700  0.611300  0.953800  1.0  -0.099
  C  C220  1  0.820600  0.077100  0.401800  1.0  0.7068
  C  C221  1  0.783000  0.177600  0.454400  1.0  -0.0871
  C  C222  1  0.783700  0.111300  0.453800  1.0  -0.099
  C  C223  1  0.679400  0.077100  0.598200  1.0  0.7077
  C  C224  1  0.717000  0.177600  0.545600  1.0  -0.0883
  C  C225  1  0.716300  0.111300  0.546200  1.0  -0.0993
  C  C226  1  0.179400  0.577100  0.098200  1.0  0.7077
  C  C227  1  0.217000  0.677600  0.045600  1.0  -0.0883
  C  C228  1  0.216300  0.611300  0.046200  1.0  -0.0993
  C  C229  1  0.179400  0.422900  0.401800  1.0  0.7076
  C  C230  1  0.217000  0.322400  0.454400  1.0  -0.0884
  C  C231  1  0.216300  0.388700  0.453800  1.0  -0.0991
  C  C232  1  0.679400  0.922900  0.901800  1.0  0.7076
  C  C233  1  0.717000  0.822400  0.954400  1.0  -0.0884
  C  C234  1  0.716300  0.888700  0.953800  1.0  -0.0991
  C  C235  1  0.820600  0.922900  0.098200  1.0  0.7076
  C  C236  1  0.783000  0.822400  0.045600  1.0  -0.0861
  C  C237  1  0.783700  0.888700  0.046200  1.0  -0.1
  C  C238  1  0.320600  0.422900  0.598200  1.0  0.7076
  C  C239  1  0.283000  0.322400  0.545600  1.0  -0.0861
  C  C240  1  0.283700  0.388700  0.546200  1.0  -0.1
  C  C241  1  0.577100  0.901800  0.320600  1.0  0.7068
  C  C242  1  0.677600  0.954400  0.283000  1.0  -0.088
  C  C243  1  0.611300  0.953800  0.283700  1.0  -0.0991
  C  C244  1  0.077100  0.401800  0.820600  1.0  0.7068
  C  C245  1  0.177600  0.454400  0.783000  1.0  -0.088
  C  C246  1  0.111300  0.453800  0.783700  1.0  -0.0991
  C  C247  1  0.077100  0.598200  0.679400  1.0  0.7077
  C  C248  1  0.177600  0.545600  0.717000  1.0  -0.0891
  C  C249  1  0.111300  0.546200  0.716300  1.0  -0.0995
  C  C250  1  0.577100  0.098200  0.179400  1.0  0.7077
  C  C251  1  0.677600  0.045600  0.217000  1.0  -0.0891
  C  C252  1  0.611300  0.046200  0.216300  1.0  -0.0995
  C  C253  1  0.422900  0.401800  0.179400  1.0  0.7065
  C  C254  1  0.322400  0.454400  0.217000  1.0  -0.0896
  C  C255  1  0.388700  0.453800  0.216300  1.0  -0.0988
  C  C256  1  0.922900  0.901800  0.679400  1.0  0.7065
  C  C257  1  0.822400  0.954400  0.717000  1.0  -0.0896
  C  C258  1  0.888700  0.953800  0.716300  1.0  -0.0988
  C  C259  1  0.922900  0.098200  0.820600  1.0  0.7073
  C  C260  1  0.822400  0.045600  0.783000  1.0  -0.0903
  C  C261  1  0.888700  0.046200  0.783700  1.0  -0.0997
  C  C262  1  0.422900  0.598200  0.320600  1.0  0.7073
  C  C263  1  0.322400  0.545600  0.283000  1.0  -0.0903
  C  C264  1  0.388700  0.546200  0.283700  1.0  -0.0997
  C  C265  1  0.000000  0.750000  0.460600  1.0  -0.07
  C  C266  1  0.000000  0.750000  0.329900  1.0  0.0511
  C  C267  1  0.000000  0.750000  0.531800  1.0  0.6507
  C  C268  1  0.500000  0.250000  0.960600  1.0  -0.07
  C  C269  1  0.500000  0.250000  0.829900  1.0  0.0511
  C  C270  1  0.500000  0.250000  0.031800  1.0  0.6507
  C  C271  1  0.000000  0.250000  0.039400  1.0  -0.0706
  C  C272  1  0.000000  0.250000  0.170100  1.0  0.0513
  C  C273  1  0.000000  0.250000  0.968200  1.0  0.6516
  C  C274  1  0.500000  0.750000  0.539400  1.0  -0.0706
  C  C275  1  0.500000  0.750000  0.670100  1.0  0.0513
  C  C276  1  0.500000  0.750000  0.468200  1.0  0.6516
  C  C277  1  0.460600  0.000000  0.750000  1.0  -0.0711
  C  C278  1  0.329900  0.000000  0.750000  1.0  0.0498
  C  C279  1  0.531800  0.000000  0.750000  1.0  0.6495
  C  C280  1  0.960600  0.500000  0.250000  1.0  -0.0711
  C  C281  1  0.829900  0.500000  0.250000  1.0  0.0498
  C  C282  1  0.031800  0.500000  0.250000  1.0  0.6495
  C  C283  1  0.039400  0.000000  0.250000  1.0  -0.0713
  C  C284  1  0.170100  0.000000  0.250000  1.0  0.0501
  C  C285  1  0.968200  0.000000  0.250000  1.0  0.6487
  C  C286  1  0.539400  0.500000  0.750000  1.0  -0.0713
  C  C287  1  0.670100  0.500000  0.750000  1.0  0.0501
  C  C288  1  0.468200  0.500000  0.750000  1.0  0.6487
  C  C289  1  0.750000  0.460600  0.000000  1.0  -0.0692
  C  C290  1  0.750000  0.329900  0.000000  1.0  0.0491
  C  C291  1  0.750000  0.531800  0.000000  1.0  0.6512
  C  C292  1  0.250000  0.960600  0.500000  1.0  -0.0692
  C  C293  1  0.250000  0.829900  0.500000  1.0  0.0491
  C  C294  1  0.250000  0.031800  0.500000  1.0  0.6512
  C  C295  1  0.250000  0.039400  0.000000  1.0  -0.0692
  C  C296  1  0.250000  0.170100  0.000000  1.0  0.0506
  C  C297  1  0.250000  0.968200  0.000000  1.0  0.6514
  C  C298  1  0.750000  0.539400  0.500000  1.0  -0.0692
  C  C299  1  0.750000  0.670100  0.500000  1.0  0.0506
  C  C300  1  0.750000  0.468200  0.500000  1.0  0.6514
  C  C301  1  0.000000  0.250000  0.710600  1.0  -0.07
  C  C302  1  0.000000  0.250000  0.579900  1.0  0.0511
  C  C303  1  0.000000  0.250000  0.781800  1.0  0.6507
  C  C304  1  0.500000  0.750000  0.210600  1.0  -0.07
  C  C305  1  0.500000  0.750000  0.079900  1.0  0.0511
  C  C306  1  0.500000  0.750000  0.281800  1.0  0.6507
  C  C307  1  0.500000  0.250000  0.289400  1.0  -0.0706
  C  C308  1  0.500000  0.250000  0.420100  1.0  0.0513
  C  C309  1  0.500000  0.250000  0.218200  1.0  0.6516
  C  C310  1  0.000000  0.750000  0.789400  1.0  -0.0706
  C  C311  1  0.000000  0.750000  0.920100  1.0  0.0513
  C  C312  1  0.000000  0.750000  0.718200  1.0  0.6516
  C  C313  1  0.250000  0.710600  0.000000  1.0  -0.0692
  C  C314  1  0.250000  0.579900  0.000000  1.0  0.0491
  C  C315  1  0.250000  0.781800  0.000000  1.0  0.6512
  C  C316  1  0.750000  0.210600  0.500000  1.0  -0.0692
  C  C317  1  0.750000  0.079900  0.500000  1.0  0.0491
  C  C318  1  0.750000  0.281800  0.500000  1.0  0.6512
  C  C319  1  0.250000  0.289400  0.500000  1.0  -0.0692
  C  C320  1  0.250000  0.420100  0.500000  1.0  0.0506
  C  C321  1  0.250000  0.218200  0.500000  1.0  0.6514
  C  C322  1  0.750000  0.789400  0.000000  1.0  -0.0692
  C  C323  1  0.750000  0.920100  0.000000  1.0  0.0506
  C  C324  1  0.750000  0.718200  0.000000  1.0  0.6514
  C  C325  1  0.710600  0.000000  0.250000  1.0  -0.0711
  C  C326  1  0.579900  0.000000  0.250000  1.0  0.0498
  C  C327  1  0.781800  0.000000  0.250000  1.0  0.6495
  C  C328  1  0.210600  0.500000  0.750000  1.0  -0.0711
  C  C329  1  0.079900  0.500000  0.750000  1.0  0.0498
  C  C330  1  0.281800  0.500000  0.750000  1.0  0.6495
  C  C331  1  0.289400  0.500000  0.250000  1.0  -0.0713
  C  C332  1  0.420100  0.500000  0.250000  1.0  0.0501
  C  C333  1  0.218200  0.500000  0.250000  1.0  0.6487
  C  C334  1  0.789400  0.000000  0.750000  1.0  -0.0713
  C  C335  1  0.920100  0.000000  0.750000  1.0  0.0501
  C  C336  1  0.718200  0.000000  0.750000  1.0  0.6487
  O  O337  1  0.977550  0.797650  0.559500  1.0  -0.6987
  O  O338  1  0.091800  0.608470  0.360500  1.0  -0.5929
  O  O339  1  0.077900  0.657570  0.268420  1.0  -0.5883
  O  O340  1  0.477550  0.297650  0.059500  1.0  -0.6987
  O  O341  1  0.591800  0.108470  0.860500  1.0  -0.5929
  O  O342  1  0.577900  0.157570  0.768420  1.0  -0.5883
  O  O343  1  0.522450  0.202350  0.059500  1.0  -0.6991
  O  O344  1  0.408200  0.391530  0.860500  1.0  -0.5942
  O  O345  1  0.422100  0.342430  0.768420  1.0  -0.5871
  O  O346  1  0.022450  0.702350  0.559500  1.0  -0.6991
  O  O347  1  0.908200  0.891530  0.360500  1.0  -0.5942
  O  O348  1  0.922100  0.842430  0.268420  1.0  -0.5871
  O  O349  1  0.022450  0.297650  0.940500  1.0  -0.6979
  O  O350  1  0.908200  0.108470  0.139500  1.0  -0.5929
  O  O351  1  0.922100  0.157570  0.231580  1.0  -0.5889
  O  O352  1  0.522450  0.797650  0.440500  1.0  -0.6979
  O  O353  1  0.408200  0.608470  0.639500  1.0  -0.5929
  O  O354  1  0.422100  0.657570  0.731580  1.0  -0.5889
  O  O355  1  0.477550  0.702350  0.440500  1.0  -0.7004
  O  O356  1  0.591800  0.891530  0.639500  1.0  -0.5945
  O  O357  1  0.577900  0.842430  0.731580  1.0  -0.5889
  O  O358  1  0.977550  0.202350  0.940500  1.0  -0.7004
  O  O359  1  0.091800  0.391530  0.139500  1.0  -0.5945
  O  O360  1  0.077900  0.342430  0.231580  1.0  -0.5889
  O  O361  1  0.559500  0.977550  0.797650  1.0  -0.7001
  O  O362  1  0.360500  0.091800  0.608470  1.0  -0.5936
  O  O363  1  0.268420  0.077900  0.657570  1.0  -0.585
  O  O364  1  0.059500  0.477550  0.297650  1.0  -0.7001
  O  O365  1  0.860500  0.591800  0.108470  1.0  -0.5936
  O  O366  1  0.768420  0.577900  0.157570  1.0  -0.585
  O  O367  1  0.059500  0.522450  0.202350  1.0  -0.7014
  O  O368  1  0.860500  0.408200  0.391530  1.0  -0.5938
  O  O369  1  0.768420  0.422100  0.342430  1.0  -0.5838
  O  O370  1  0.559500  0.022450  0.702350  1.0  -0.7014
  O  O371  1  0.360500  0.908200  0.891530  1.0  -0.5938
  O  O372  1  0.268420  0.922100  0.842430  1.0  -0.5838
  O  O373  1  0.940500  0.022450  0.297650  1.0  -0.6988
  O  O374  1  0.139500  0.908200  0.108470  1.0  -0.5939
  O  O375  1  0.231580  0.922100  0.157570  1.0  -0.5845
  O  O376  1  0.440500  0.522450  0.797650  1.0  -0.6988
  O  O377  1  0.639500  0.408200  0.608470  1.0  -0.5939
  O  O378  1  0.731580  0.422100  0.657570  1.0  -0.5845
  O  O379  1  0.440500  0.477550  0.702350  1.0  -0.7009
  O  O380  1  0.639500  0.591800  0.891530  1.0  -0.5944
  O  O381  1  0.731580  0.577900  0.842430  1.0  -0.5845
  O  O382  1  0.940500  0.977550  0.202350  1.0  -0.7009
  O  O383  1  0.139500  0.091800  0.391530  1.0  -0.5944
  O  O384  1  0.231580  0.077900  0.342430  1.0  -0.5845
  O  O385  1  0.797650  0.559500  0.977550  1.0  -0.7037
  O  O386  1  0.608470  0.360500  0.091800  1.0  -0.593
  O  O387  1  0.657570  0.268420  0.077900  1.0  -0.5879
  O  O388  1  0.297650  0.059500  0.477550  1.0  -0.7037
  O  O389  1  0.108470  0.860500  0.591800  1.0  -0.593
  O  O390  1  0.157570  0.768420  0.577900  1.0  -0.5879
  O  O391  1  0.202350  0.059500  0.522450  1.0  -0.7023
  O  O392  1  0.391530  0.860500  0.408200  1.0  -0.594
  O  O393  1  0.342430  0.768420  0.422100  1.0  -0.5877
  O  O394  1  0.702350  0.559500  0.022450  1.0  -0.7023
  O  O395  1  0.891530  0.360500  0.908200  1.0  -0.594
  O  O396  1  0.842430  0.268420  0.922100  1.0  -0.5877
  O  O397  1  0.297650  0.940500  0.022450  1.0  -0.7039
  O  O398  1  0.108470  0.139500  0.908200  1.0  -0.5931
  O  O399  1  0.157570  0.231580  0.922100  1.0  -0.587
  O  O400  1  0.797650  0.440500  0.522450  1.0  -0.7039
  O  O401  1  0.608470  0.639500  0.408200  1.0  -0.5931
  O  O402  1  0.657570  0.731580  0.422100  1.0  -0.587
  O  O403  1  0.702350  0.440500  0.477550  1.0  -0.7029
  O  O404  1  0.891530  0.639500  0.591800  1.0  -0.5936
  O  O405  1  0.842430  0.731580  0.577900  1.0  -0.5893
  O  O406  1  0.202350  0.940500  0.977550  1.0  -0.7029
  O  O407  1  0.391530  0.139500  0.091800  1.0  -0.5936
  O  O408  1  0.342430  0.231580  0.077900  1.0  -0.5893
  O  O409  1  0.047650  0.227550  0.809500  1.0  -0.7033
  O  O410  1  0.858470  0.341800  0.610500  1.0  -0.5917
  O  O411  1  0.907570  0.327900  0.518420  1.0  -0.5864
  O  O412  1  0.547650  0.727550  0.309500  1.0  -0.7033
  O  O413  1  0.358470  0.841800  0.110500  1.0  -0.5917
  O  O414  1  0.407570  0.827900  0.018420  1.0  -0.5864
  O  O415  1  0.452350  0.772450  0.309500  1.0  -0.7025
  O  O416  1  0.641530  0.658200  0.110500  1.0  -0.5917
  O  O417  1  0.592430  0.672100  0.018420  1.0  -0.5871
  O  O418  1  0.952350  0.272450  0.809500  1.0  -0.7025
  O  O419  1  0.141530  0.158200  0.610500  1.0  -0.5917
  O  O420  1  0.092430  0.172100  0.518420  1.0  -0.5871
  O  O421  1  0.547650  0.272450  0.190500  1.0  -0.7037
  O  O422  1  0.358470  0.158200  0.389500  1.0  -0.5916
  O  O423  1  0.407570  0.172100  0.481580  1.0  -0.5867
  O  O424  1  0.047650  0.772450  0.690500  1.0  -0.7037
  O  O425  1  0.858470  0.658200  0.889500  1.0  -0.5916
  O  O426  1  0.907570  0.672100  0.981580  1.0  -0.5867
  O  O427  1  0.952350  0.727550  0.690500  1.0  -0.703
  O  O428  1  0.141530  0.841800  0.889500  1.0  -0.5929
  O  O429  1  0.092430  0.827900  0.981580  1.0  -0.5881
  O  O430  1  0.452350  0.227550  0.190500  1.0  -0.703
  O  O431  1  0.641530  0.341800  0.389500  1.0  -0.5929
  O  O432  1  0.592430  0.327900  0.481580  1.0  -0.5881
  O  O433  1  0.227550  0.809500  0.047650  1.0  -0.6999
  O  O434  1  0.341800  0.610500  0.858470  1.0  -0.5943
  O  O435  1  0.327900  0.518420  0.907570  1.0  -0.586
  O  O436  1  0.727550  0.309500  0.547650  1.0  -0.6999
  O  O437  1  0.841800  0.110500  0.358470  1.0  -0.5943
  O  O438  1  0.827900  0.018420  0.407570  1.0  -0.586
  O  O439  1  0.772450  0.309500  0.452350  1.0  -0.6999
  O  O440  1  0.658200  0.110500  0.641530  1.0  -0.5944
  O  O441  1  0.672100  0.018420  0.592430  1.0  -0.5856
  O  O442  1  0.272450  0.809500  0.952350  1.0  -0.6999
  O  O443  1  0.158200  0.610500  0.141530  1.0  -0.5944
  O  O444  1  0.172100  0.518420  0.092430  1.0  -0.5856
  O  O445  1  0.272450  0.190500  0.547650  1.0  -0.6983
  O  O446  1  0.158200  0.389500  0.358470  1.0  -0.594
  O  O447  1  0.172100  0.481580  0.407570  1.0  -0.587
  O  O448  1  0.772450  0.690500  0.047650  1.0  -0.6983
  O  O449  1  0.658200  0.889500  0.858470  1.0  -0.594
  O  O450  1  0.672100  0.981580  0.907570  1.0  -0.587
  O  O451  1  0.727550  0.690500  0.952350  1.0  -0.7014
  O  O452  1  0.841800  0.889500  0.141530  1.0  -0.5955
  O  O453  1  0.827900  0.981580  0.092430  1.0  -0.5873
  O  O454  1  0.227550  0.190500  0.452350  1.0  -0.7014
  O  O455  1  0.341800  0.389500  0.641530  1.0  -0.5955
  O  O456  1  0.327900  0.481580  0.592430  1.0  -0.5873
  O  O457  1  0.809500  0.047650  0.227550  1.0  -0.6998
  O  O458  1  0.610500  0.858470  0.341800  1.0  -0.5938
  O  O459  1  0.518420  0.907570  0.327900  1.0  -0.5856
  O  O460  1  0.309500  0.547650  0.727550  1.0  -0.6998
  O  O461  1  0.110500  0.358470  0.841800  1.0  -0.5938
  O  O462  1  0.018420  0.407570  0.827900  1.0  -0.5856
  O  O463  1  0.309500  0.452350  0.772450  1.0  -0.7007
  O  O464  1  0.110500  0.641530  0.658200  1.0  -0.5947
  O  O465  1  0.018420  0.592430  0.672100  1.0  -0.5849
  O  O466  1  0.809500  0.952350  0.272450  1.0  -0.7007
  O  O467  1  0.610500  0.141530  0.158200  1.0  -0.5947
  O  O468  1  0.518420  0.092430  0.172100  1.0  -0.5849
  O  O469  1  0.190500  0.547650  0.272450  1.0  -0.6992
  O  O470  1  0.389500  0.358470  0.158200  1.0  -0.5939
  O  O471  1  0.481580  0.407570  0.172100  1.0  -0.5851
  O  O472  1  0.690500  0.047650  0.772450  1.0  -0.6992
  O  O473  1  0.889500  0.858470  0.658200  1.0  -0.5939
  O  O474  1  0.981580  0.907570  0.672100  1.0  -0.5851
  O  O475  1  0.690500  0.952350  0.727550  1.0  -0.7008
  O  O476  1  0.889500  0.141530  0.841800  1.0  -0.5948
  O  O477  1  0.981580  0.092430  0.827900  1.0  -0.5854
  O  O478  1  0.190500  0.452350  0.227550  1.0  -0.7008
  O  O479  1  0.389500  0.641530  0.341800  1.0  -0.5948
  O  O480  1  0.481580  0.592430  0.327900  1.0  -0.5854
