# generated using pymatgen
data_FeAg3H12(C3N)7
_symmetry_space_group_name_H-M   'P 1'
_cell_length_a   12.01440000
_cell_length_b   16.98920000
_cell_length_c   31.27160000
_cell_angle_alpha   90.00000000
_cell_angle_beta   90.00000000
_cell_angle_gamma   90.00000000
_symmetry_Int_Tables_number   1
_chemical_formula_structural   FeAg3H12(C3N)7
_chemical_formula_sum   'Fe8 Ag24 H96 C168 N56'
_cell_volume   6383.00402496
_cell_formula_units_Z   8
loop_
 _symmetry_equiv_pos_site_id
 _symmetry_equiv_pos_as_xyz
  1  'x, y, z'
loop_
 _atom_site_type_symbol
 _atom_site_label
 _atom_site_symmetry_multiplicity
 _atom_site_fract_x
 _atom_site_fract_y
 _atom_site_fract_z
 _atom_site_occupancy
 _atom_site_charge
  Fe  Fe1  1  0.250000  0.000000  0.423480  1.0  0.9539
  Fe  Fe2  1  0.750000  0.000000  0.076520  1.0  0.9557
  Fe  Fe3  1  0.750000  0.000000  0.576520  1.0  0.9557
  Fe  Fe4  1  0.250000  0.000000  0.923480  1.0  0.9539
  Fe  Fe5  1  0.750000  0.500000  0.428200  1.0  0.9802
  Fe  Fe6  1  0.250000  0.500000  0.071800  1.0  0.982
  Fe  Fe7  1  0.250000  0.500000  0.571800  1.0  0.982
  Fe  Fe8  1  0.750000  0.500000  0.928200  1.0  0.9802
  Ag  Ag9  1  0.487900  0.256940  0.432230  1.0  0.3582
  Ag  Ag10  1  0.906300  0.175970  0.453660  1.0  0.3328
  Ag  Ag11  1  0.571110  0.308940  0.534430  1.0  0.4378
  Ag  Ag12  1  0.012100  0.743060  0.432230  1.0  0.3583
  Ag  Ag13  1  0.593700  0.824030  0.453660  1.0  0.3373
  Ag  Ag14  1  0.928890  0.691060  0.534430  1.0  0.4365
  Ag  Ag15  1  0.512100  0.256940  0.067770  1.0  0.3587
  Ag  Ag16  1  0.093700  0.175970  0.046340  1.0  0.3321
  Ag  Ag17  1  0.428890  0.308940  0.965570  1.0  0.4362
  Ag  Ag18  1  0.987900  0.743060  0.067770  1.0  0.3581
  Ag  Ag19  1  0.406300  0.824030  0.046340  1.0  0.337
  Ag  Ag20  1  0.071110  0.691060  0.965570  1.0  0.4355
  Ag  Ag21  1  0.512100  0.743060  0.567770  1.0  0.3584
  Ag  Ag22  1  0.093700  0.824030  0.546340  1.0  0.3369
  Ag  Ag23  1  0.428890  0.691060  0.465570  1.0  0.4351
  Ag  Ag24  1  0.987900  0.256940  0.567770  1.0  0.3583
  Ag  Ag25  1  0.406300  0.175970  0.546340  1.0  0.3321
  Ag  Ag26  1  0.071110  0.308940  0.465570  1.0  0.4367
  Ag  Ag27  1  0.487900  0.743060  0.932230  1.0  0.3581
  Ag  Ag28  1  0.906300  0.824030  0.953660  1.0  0.3374
  Ag  Ag29  1  0.571110  0.691060  0.034430  1.0  0.4368
  Ag  Ag30  1  0.012100  0.256940  0.932230  1.0  0.3584
  Ag  Ag31  1  0.593700  0.175970  0.953660  1.0  0.3329
  Ag  Ag32  1  0.928890  0.308940  0.034430  1.0  0.4374
  H  H33  1  0.403500  0.039500  0.349700  1.0  0.0956
  H  H34  1  0.407300  0.038800  0.275300  1.0  0.0913
  H  H35  1  0.403400  0.951800  0.210500  1.0  0.1033
  H  H36  1  0.407400  0.955100  0.137100  1.0  0.113
  H  H37  1  0.413400  0.030200  0.072100  1.0  0.1056
  H  H38  1  0.408500  0.028100  0.998200  1.0  0.0685
  H  H39  1  0.590200  0.523800  0.353800  1.0  0.0762
  H  H40  1  0.585500  0.524400  0.280400  1.0  0.1092
  H  H41  1  0.609000  0.435200  0.216200  1.0  0.0994
  H  H42  1  0.606000  0.438900  0.141500  1.0  0.1153
  H  H43  1  0.588500  0.491900  0.077500  1.0  0.085
  H  H44  1  0.590900  0.488700  0.002500  1.0  0.0845
  H  H45  1  0.096500  0.960500  0.349700  1.0  0.0951
  H  H46  1  0.092700  0.961200  0.275300  1.0  0.0912
  H  H47  1  0.096600  0.048200  0.210500  1.0  0.1036
  H  H48  1  0.092600  0.044900  0.137100  1.0  0.1129
  H  H49  1  0.086600  0.969800  0.072100  1.0  0.1057
  H  H50  1  0.091500  0.971900  0.998200  1.0  0.0686
  H  H51  1  0.909800  0.476200  0.353800  1.0  0.0767
  H  H52  1  0.914500  0.475600  0.280400  1.0  0.109
  H  H53  1  0.891000  0.564800  0.216200  1.0  0.0992
  H  H54  1  0.894000  0.561100  0.141500  1.0  0.1153
  H  H55  1  0.911500  0.508100  0.077500  1.0  0.0853
  H  H56  1  0.909100  0.511300  0.002500  1.0  0.084
  H  H57  1  0.596500  0.039500  0.150300  1.0  0.095
  H  H58  1  0.592700  0.038800  0.224700  1.0  0.0914
  H  H59  1  0.596600  0.951800  0.289500  1.0  0.1028
  H  H60  1  0.592600  0.955100  0.362900  1.0  0.1129
  H  H61  1  0.586600  0.030200  0.427900  1.0  0.1059
  H  H62  1  0.591500  0.028100  0.501800  1.0  0.0689
  H  H63  1  0.409800  0.523800  0.146200  1.0  0.0764
  H  H64  1  0.414500  0.524400  0.219600  1.0  0.1091
  H  H65  1  0.391000  0.435200  0.283800  1.0  0.0999
  H  H66  1  0.394000  0.438900  0.358500  1.0  0.1156
  H  H67  1  0.411500  0.491900  0.422500  1.0  0.0844
  H  H68  1  0.409100  0.488700  0.497500  1.0  0.0838
  H  H69  1  0.903500  0.960500  0.150300  1.0  0.0953
  H  H70  1  0.907300  0.961200  0.224700  1.0  0.0914
  H  H71  1  0.903400  0.048200  0.289500  1.0  0.1032
  H  H72  1  0.907400  0.044900  0.362900  1.0  0.1132
  H  H73  1  0.913400  0.969800  0.427900  1.0  0.1053
  H  H74  1  0.908500  0.971900  0.501800  1.0  0.0688
  H  H75  1  0.090200  0.476200  0.146200  1.0  0.0764
  H  H76  1  0.085500  0.475600  0.219600  1.0  0.1095
  H  H77  1  0.109000  0.564800  0.283800  1.0  0.0987
  H  H78  1  0.106000  0.561100  0.358500  1.0  0.115
  H  H79  1  0.088500  0.508100  0.422500  1.0  0.0843
  H  H80  1  0.090900  0.511300  0.497500  1.0  0.0847
  H  H81  1  0.596500  0.960500  0.650300  1.0  0.0948
  H  H82  1  0.592700  0.961200  0.724700  1.0  0.0915
  H  H83  1  0.596600  0.048200  0.789500  1.0  0.1035
  H  H84  1  0.592600  0.044900  0.862900  1.0  0.113
  H  H85  1  0.586600  0.969800  0.927900  1.0  0.1054
  H  H86  1  0.591500  0.971900  0.001800  1.0  0.0691
  H  H87  1  0.409800  0.476200  0.646200  1.0  0.0764
  H  H88  1  0.414500  0.475600  0.719600  1.0  0.1094
  H  H89  1  0.391000  0.564800  0.783800  1.0  0.0992
  H  H90  1  0.394000  0.561100  0.858500  1.0  0.1152
  H  H91  1  0.411500  0.508100  0.922500  1.0  0.0845
  H  H92  1  0.409100  0.511300  0.997500  1.0  0.0839
  H  H93  1  0.903500  0.039500  0.650300  1.0  0.0954
  H  H94  1  0.907300  0.038800  0.724700  1.0  0.0912
  H  H95  1  0.903400  0.951800  0.789500  1.0  0.103
  H  H96  1  0.907400  0.955100  0.862900  1.0  0.1132
  H  H97  1  0.913400  0.030200  0.927900  1.0  0.1056
  H  H98  1  0.908500  0.028100  0.001800  1.0  0.0687
  H  H99  1  0.090200  0.523800  0.646200  1.0  0.0764
  H  H100  1  0.085500  0.524400  0.719600  1.0  0.1092
  H  H101  1  0.109000  0.435200  0.783800  1.0  0.0993
  H  H102  1  0.106000  0.438900  0.858500  1.0  0.1152
  H  H103  1  0.088500  0.491900  0.922500  1.0  0.0842
  H  H104  1  0.090900  0.488700  0.997500  1.0  0.0847
  H  H105  1  0.403500  0.960500  0.849700  1.0  0.0959
  H  H106  1  0.407300  0.961200  0.775300  1.0  0.0911
  H  H107  1  0.403400  0.048200  0.710500  1.0  0.1033
  H  H108  1  0.407400  0.044900  0.637100  1.0  0.1129
  H  H109  1  0.413400  0.969800  0.572100  1.0  0.1056
  H  H110  1  0.408500  0.971900  0.498200  1.0  0.0682
  H  H111  1  0.590200  0.476200  0.853800  1.0  0.0765
  H  H112  1  0.585500  0.475600  0.780400  1.0  0.1091
  H  H113  1  0.609000  0.564800  0.716200  1.0  0.0988
  H  H114  1  0.606000  0.561100  0.641500  1.0  0.1152
  H  H115  1  0.588500  0.508100  0.577500  1.0  0.0849
  H  H116  1  0.590900  0.511300  0.502500  1.0  0.085
  H  H117  1  0.096500  0.039500  0.849700  1.0  0.095
  H  H118  1  0.092700  0.038800  0.775300  1.0  0.0916
  H  H119  1  0.096600  0.951800  0.710500  1.0  0.1032
  H  H120  1  0.092600  0.955100  0.637100  1.0  0.1128
  H  H121  1  0.086600  0.030200  0.572100  1.0  0.1058
  H  H122  1  0.091500  0.028100  0.498200  1.0  0.0689
  H  H123  1  0.909800  0.523800  0.853800  1.0  0.0764
  H  H124  1  0.914500  0.524400  0.780400  1.0  0.1089
  H  H125  1  0.891000  0.435200  0.716200  1.0  0.1
  H  H126  1  0.894000  0.438900  0.641500  1.0  0.1156
  H  H127  1  0.911500  0.491900  0.577500  1.0  0.0854
  H  H128  1  0.909100  0.488700  0.502500  1.0  0.0838
  C  C129  1  0.406100  0.148900  0.427900  1.0  0.0663
  C  C130  1  0.571500  0.361300  0.429800  1.0  -0.0356
  C  C131  1  0.046000  0.118900  0.429900  1.0  -0.0774
  C  C132  1  0.700500  0.251100  0.506200  1.0  -0.0421
  C  C133  1  0.442500  0.372200  0.560400  1.0  -0.0591
  C  C134  1  0.339500  0.022800  0.334400  1.0  0.1348
  C  C135  1  0.341400  0.022800  0.289600  1.0  -0.1894
  C  C136  1  0.341200  0.972000  0.195300  1.0  -0.1451
  C  C137  1  0.343100  0.972800  0.151900  1.0  -0.1567
  C  C138  1  0.345800  0.017600  0.057900  1.0  -0.2175
  C  C139  1  0.342000  0.016500  0.013400  1.0  0.1706
  C  C140  1  0.657000  0.513800  0.338500  1.0  0.1765
  C  C141  1  0.653800  0.514300  0.294700  1.0  -0.224
  C  C142  1  0.666400  0.462200  0.201300  1.0  -0.148
  C  C143  1  0.665200  0.463300  0.156600  1.0  -0.1605
  C  C144  1  0.658000  0.495000  0.063200  1.0  -0.183
  C  C145  1  0.659000  0.494000  0.017400  1.0  0.1277
  C  C146  1  0.093900  0.851100  0.427900  1.0  0.0681
  C  C147  1  0.928500  0.638700  0.429800  1.0  -0.039
  C  C148  1  0.454000  0.881100  0.429900  1.0  -0.0763
  C  C149  1  0.799500  0.748900  0.506200  1.0  -0.042
  C  C150  1  0.057500  0.627800  0.560400  1.0  -0.0576
  C  C151  1  0.160500  0.977200  0.334400  1.0  0.1387
  C  C152  1  0.158600  0.977200  0.289600  1.0  -0.1884
  C  C153  1  0.158800  0.028000  0.195300  1.0  -0.1459
  C  C154  1  0.156900  0.027200  0.151900  1.0  -0.1551
  C  C155  1  0.154200  0.982400  0.057900  1.0  -0.2176
  C  C156  1  0.158000  0.983500  0.013400  1.0  0.1705
  C  C157  1  0.843000  0.486200  0.338500  1.0  0.1789
  C  C158  1  0.846200  0.485700  0.294700  1.0  -0.2236
  C  C159  1  0.833600  0.537800  0.201300  1.0  -0.1489
  C  C160  1  0.834800  0.536700  0.156600  1.0  -0.1608
  C  C161  1  0.842000  0.505000  0.063200  1.0  -0.182
  C  C162  1  0.841000  0.506000  0.017400  1.0  0.128
  C  C163  1  0.593900  0.148900  0.072100  1.0  0.0697
  C  C164  1  0.428500  0.361300  0.070200  1.0  -0.0343
  C  C165  1  0.954000  0.118900  0.070100  1.0  -0.0781
  C  C166  1  0.299500  0.251100  0.993800  1.0  -0.0419
  C  C167  1  0.557500  0.372200  0.939600  1.0  -0.059
  C  C168  1  0.660500  0.022800  0.165600  1.0  0.135
  C  C169  1  0.658600  0.022800  0.210400  1.0  -0.1901
  C  C170  1  0.658800  0.972000  0.304700  1.0  -0.1443
  C  C171  1  0.656900  0.972800  0.348100  1.0  -0.1569
  C  C172  1  0.654200  0.017600  0.442100  1.0  -0.2174
  C  C173  1  0.658000  0.016500  0.486600  1.0  0.1698
  C  C174  1  0.343000  0.513800  0.161500  1.0  0.1758
  C  C175  1  0.346200  0.514300  0.205300  1.0  -0.2247
  C  C176  1  0.333600  0.462200  0.298700  1.0  -0.1476
  C  C177  1  0.334800  0.463300  0.343400  1.0  -0.1604
  C  C178  1  0.342000  0.495000  0.436800  1.0  -0.1835
  C  C179  1  0.341000  0.494000  0.482600  1.0  0.1278
  C  C180  1  0.906100  0.851100  0.072100  1.0  0.0682
  C  C181  1  0.071500  0.638700  0.070200  1.0  -0.0388
  C  C182  1  0.546000  0.881100  0.070100  1.0  -0.0768
  C  C183  1  0.200500  0.748900  0.993800  1.0  -0.041
  C  C184  1  0.942500  0.627800  0.939600  1.0  -0.0593
  C  C185  1  0.839500  0.977200  0.165600  1.0  0.1379
  C  C186  1  0.841400  0.977200  0.210400  1.0  -0.189
  C  C187  1  0.841200  0.028000  0.304700  1.0  -0.1463
  C  C188  1  0.843100  0.027200  0.348100  1.0  -0.1559
  C  C189  1  0.845800  0.982400  0.442100  1.0  -0.2173
  C  C190  1  0.842000  0.983500  0.486600  1.0  0.1705
  C  C191  1  0.157000  0.486200  0.161500  1.0  0.1792
  C  C192  1  0.153800  0.485700  0.205300  1.0  -0.2237
  C  C193  1  0.166400  0.537800  0.298700  1.0  -0.1497
  C  C194  1  0.165200  0.536700  0.343400  1.0  -0.1615
  C  C195  1  0.158000  0.505000  0.436800  1.0  -0.1823
  C  C196  1  0.159000  0.506000  0.482600  1.0  0.1281
  C  C197  1  0.593900  0.851100  0.572100  1.0  0.0693
  C  C198  1  0.428500  0.638700  0.570200  1.0  -0.0394
  C  C199  1  0.954000  0.881100  0.570100  1.0  -0.0761
  C  C200  1  0.299500  0.748900  0.493800  1.0  -0.0414
  C  C201  1  0.557500  0.627800  0.439600  1.0  -0.0582
  C  C202  1  0.660500  0.977200  0.665600  1.0  0.1348
  C  C203  1  0.658600  0.977200  0.710400  1.0  -0.1899
  C  C204  1  0.658800  0.028000  0.804700  1.0  -0.1452
  C  C205  1  0.656900  0.027200  0.848100  1.0  -0.1575
  C  C206  1  0.654200  0.982400  0.942100  1.0  -0.2171
  C  C207  1  0.658000  0.983500  0.986600  1.0  0.1704
  C  C208  1  0.343000  0.486200  0.661500  1.0  0.1757
  C  C209  1  0.346200  0.485700  0.705300  1.0  -0.2248
  C  C210  1  0.333600  0.537800  0.798700  1.0  -0.1463
  C  C211  1  0.334800  0.536700  0.843400  1.0  -0.1609
  C  C212  1  0.342000  0.505000  0.936800  1.0  -0.1835
  C  C213  1  0.341000  0.506000  0.982600  1.0  0.1279
  C  C214  1  0.906100  0.148900  0.572100  1.0  0.0671
  C  C215  1  0.071500  0.361300  0.570200  1.0  -0.0353
  C  C216  1  0.546000  0.118900  0.570100  1.0  -0.0775
  C  C217  1  0.200500  0.251100  0.493800  1.0  -0.0412
  C  C218  1  0.942500  0.372200  0.439600  1.0  -0.0584
  C  C219  1  0.839500  0.022800  0.665600  1.0  0.138
  C  C220  1  0.841400  0.022800  0.710400  1.0  -0.1891
  C  C221  1  0.841200  0.972000  0.804700  1.0  -0.1457
  C  C222  1  0.843100  0.972800  0.848100  1.0  -0.1559
  C  C223  1  0.845800  0.017600  0.942100  1.0  -0.2175
  C  C224  1  0.842000  0.016500  0.986600  1.0  0.1702
  C  C225  1  0.157000  0.513800  0.661500  1.0  0.1793
  C  C226  1  0.153800  0.514300  0.705300  1.0  -0.2238
  C  C227  1  0.166400  0.462200  0.798700  1.0  -0.1503
  C  C228  1  0.165200  0.463300  0.843400  1.0  -0.1605
  C  C229  1  0.158000  0.495000  0.936800  1.0  -0.1823
  C  C230  1  0.159000  0.494000  0.982600  1.0  0.1281
  C  C231  1  0.406100  0.851100  0.927900  1.0  0.0678
  C  C232  1  0.571500  0.638700  0.929800  1.0  -0.0394
  C  C233  1  0.046000  0.881100  0.929900  1.0  -0.0771
  C  C234  1  0.700500  0.748900  0.006200  1.0  -0.0414
  C  C235  1  0.442500  0.627800  0.060400  1.0  -0.0592
  C  C236  1  0.339500  0.977200  0.834400  1.0  0.135
  C  C237  1  0.341400  0.977200  0.789600  1.0  -0.1896
  C  C238  1  0.341200  0.028000  0.695300  1.0  -0.1457
  C  C239  1  0.343100  0.027200  0.651900  1.0  -0.1569
  C  C240  1  0.345800  0.982400  0.557900  1.0  -0.2169
  C  C241  1  0.342000  0.983500  0.513400  1.0  0.1705
  C  C242  1  0.657000  0.486200  0.838500  1.0  0.1767
  C  C243  1  0.653800  0.485700  0.794700  1.0  -0.2241
  C  C244  1  0.666400  0.537800  0.701300  1.0  -0.1478
  C  C245  1  0.665200  0.536700  0.656600  1.0  -0.1615
  C  C246  1  0.658000  0.505000  0.563200  1.0  -0.183
  C  C247  1  0.659000  0.506000  0.517400  1.0  0.1279
  C  C248  1  0.093900  0.148900  0.927900  1.0  0.0687
  C  C249  1  0.928500  0.361300  0.929800  1.0  -0.0356
  C  C250  1  0.454000  0.118900  0.929900  1.0  -0.078
  C  C251  1  0.799500  0.251100  0.006200  1.0  -0.0429
  C  C252  1  0.057500  0.372200  0.060400  1.0  -0.059
  C  C253  1  0.160500  0.022800  0.834400  1.0  0.1385
  C  C254  1  0.158600  0.022800  0.789600  1.0  -0.1883
  C  C255  1  0.158800  0.972000  0.695300  1.0  -0.1448
  C  C256  1  0.156900  0.972800  0.651900  1.0  -0.1547
  C  C257  1  0.154200  0.017600  0.557900  1.0  -0.2183
  C  C258  1  0.158000  0.016500  0.513400  1.0  0.1702
  C  C259  1  0.843000  0.513800  0.838500  1.0  0.1789
  C  C260  1  0.846200  0.514300  0.794700  1.0  -0.2234
  C  C261  1  0.833600  0.462200  0.701300  1.0  -0.15
  C  C262  1  0.834800  0.463300  0.656600  1.0  -0.1602
  C  C263  1  0.842000  0.495000  0.563200  1.0  -0.1819
  C  C264  1  0.841000  0.494000  0.517400  1.0  0.1279
  C  C265  1  0.250000  0.000000  0.265600  1.0  0.0579
  C  C266  1  0.250000  0.000000  0.217900  1.0  0.0578
  C  C267  1  0.250000  0.000000  0.128800  1.0  0.0521
  C  C268  1  0.250000  0.000000  0.082100  1.0  0.086
  C  C269  1  0.750000  0.000000  0.234400  1.0  0.0585
  C  C270  1  0.750000  0.000000  0.282100  1.0  0.0588
  C  C271  1  0.750000  0.000000  0.371200  1.0  0.0521
  C  C272  1  0.750000  0.000000  0.417900  1.0  0.0872
  C  C273  1  0.750000  0.000000  0.734400  1.0  0.0585
  C  C274  1  0.750000  0.000000  0.782100  1.0  0.0588
  C  C275  1  0.750000  0.000000  0.871200  1.0  0.0521
  C  C276  1  0.750000  0.000000  0.917900  1.0  0.0872
  C  C277  1  0.250000  0.000000  0.765600  1.0  0.0579
  C  C278  1  0.250000  0.000000  0.717900  1.0  0.0578
  C  C279  1  0.250000  0.000000  0.628800  1.0  0.0521
  C  C280  1  0.250000  0.000000  0.582100  1.0  0.086
  C  C281  1  0.750000  0.500000  0.270800  1.0  0.1042
  C  C282  1  0.750000  0.500000  0.224500  1.0  0.0606
  C  C283  1  0.750000  0.500000  0.134300  1.0  0.0601
  C  C284  1  0.750000  0.500000  0.086500  1.0  0.1387
  C  C285  1  0.250000  0.500000  0.229200  1.0  0.1045
  C  C286  1  0.250000  0.500000  0.275500  1.0  0.0609
  C  C287  1  0.250000  0.500000  0.365700  1.0  0.0601
  C  C288  1  0.250000  0.500000  0.413500  1.0  0.1379
  C  C289  1  0.250000  0.500000  0.729200  1.0  0.1045
  C  C290  1  0.250000  0.500000  0.775500  1.0  0.0609
  C  C291  1  0.250000  0.500000  0.865700  1.0  0.0601
  C  C292  1  0.250000  0.500000  0.913500  1.0  0.1379
  C  C293  1  0.750000  0.500000  0.770800  1.0  0.1042
  C  C294  1  0.750000  0.500000  0.724500  1.0  0.0606
  C  C295  1  0.750000  0.500000  0.634300  1.0  0.0601
  C  C296  1  0.750000  0.500000  0.586500  1.0  0.1387
  N  N297  1  0.356200  0.094500  0.425200  1.0  -0.3327
  N  N298  1  0.631200  0.413100  0.428600  1.0  -0.4238
  N  N299  1  0.121000  0.078200  0.422800  1.0  -0.4307
  N  N300  1  0.769600  0.224400  0.486800  1.0  -0.4206
  N  N301  1  0.370700  0.415800  0.569900  1.0  -0.4102
  N  N302  1  0.143800  0.905500  0.425200  1.0  -0.3317
  N  N303  1  0.868800  0.586900  0.428600  1.0  -0.4236
  N  N304  1  0.379000  0.921800  0.422800  1.0  -0.4296
  N  N305  1  0.730400  0.775600  0.486800  1.0  -0.4203
  N  N306  1  0.129300  0.584200  0.569900  1.0  -0.411
  N  N307  1  0.643800  0.094500  0.074800  1.0  -0.3323
  N  N308  1  0.368800  0.413100  0.071400  1.0  -0.4231
  N  N309  1  0.879000  0.078200  0.077200  1.0  -0.4309
  N  N310  1  0.230400  0.224400  0.013200  1.0  -0.4206
  N  N311  1  0.629300  0.415800  0.930100  1.0  -0.4094
  N  N312  1  0.856200  0.905500  0.074800  1.0  -0.3323
  N  N313  1  0.131200  0.586900  0.071400  1.0  -0.4238
  N  N314  1  0.621000  0.921800  0.077200  1.0  -0.4306
  N  N315  1  0.269600  0.775600  0.013200  1.0  -0.4198
  N  N316  1  0.870700  0.584200  0.930100  1.0  -0.4104
  N  N317  1  0.643800  0.905500  0.574800  1.0  -0.3316
  N  N318  1  0.368800  0.586900  0.571400  1.0  -0.4232
  N  N319  1  0.879000  0.921800  0.577200  1.0  -0.4302
  N  N320  1  0.230400  0.775600  0.513200  1.0  -0.4194
  N  N321  1  0.629300  0.584200  0.430100  1.0  -0.4108
  N  N322  1  0.856200  0.094500  0.574800  1.0  -0.3322
  N  N323  1  0.131200  0.413100  0.571400  1.0  -0.4234
  N  N324  1  0.621000  0.078200  0.577200  1.0  -0.4315
  N  N325  1  0.269600  0.224400  0.513200  1.0  -0.4204
  N  N326  1  0.870700  0.415800  0.430100  1.0  -0.4095
  N  N327  1  0.356200  0.905500  0.925200  1.0  -0.3326
  N  N328  1  0.631200  0.586900  0.928600  1.0  -0.4241
  N  N329  1  0.121000  0.921800  0.922800  1.0  -0.4301
  N  N330  1  0.769600  0.775600  0.986800  1.0  -0.4205
  N  N331  1  0.370700  0.584200  0.069900  1.0  -0.4107
  N  N332  1  0.143800  0.094500  0.925200  1.0  -0.3327
  N  N333  1  0.868800  0.413100  0.928600  1.0  -0.4238
  N  N334  1  0.379000  0.078200  0.922800  1.0  -0.43
  N  N335  1  0.730400  0.224400  0.986800  1.0  -0.4209
  N  N336  1  0.129300  0.415800  0.069900  1.0  -0.41
  N  N337  1  0.250000  0.000000  0.355600  1.0  -0.2908
  N  N338  1  0.250000  0.000000  0.990800  1.0  -0.3027
  N  N339  1  0.750000  0.000000  0.144400  1.0  -0.2913
  N  N340  1  0.750000  0.000000  0.509200  1.0  -0.3033
  N  N341  1  0.750000  0.000000  0.644400  1.0  -0.2913
  N  N342  1  0.750000  0.000000  0.009200  1.0  -0.3033
  N  N343  1  0.250000  0.000000  0.855600  1.0  -0.2908
  N  N344  1  0.250000  0.000000  0.490800  1.0  -0.3027
  N  N345  1  0.750000  0.500000  0.360500  1.0  -0.2968
  N  N346  1  0.750000  0.500000  0.996000  1.0  -0.2658
  N  N347  1  0.250000  0.500000  0.139500  1.0  -0.2973
  N  N348  1  0.250000  0.500000  0.504000  1.0  -0.2638
  N  N349  1  0.250000  0.500000  0.639500  1.0  -0.2973
  N  N350  1  0.250000  0.500000  0.004000  1.0  -0.2638
  N  N351  1  0.750000  0.500000  0.860500  1.0  -0.2968
  N  N352  1  0.750000  0.500000  0.496000  1.0  -0.2658
