# generated using pymatgen
data_TbH4(C2O)6
_symmetry_space_group_name_H-M   'P 1'
_cell_length_a   8.72800000
_cell_length_b   9.28900000
_cell_length_c   18.91100000
_cell_angle_alpha   90.00000000
_cell_angle_beta   90.00000000
_cell_angle_gamma   109.30700000
_symmetry_Int_Tables_number   1
_chemical_formula_structural   TbH4(C2O)6
_chemical_formula_sum   'Tb4 H16 C48 O24'
_cell_volume   1446.97164694
_cell_formula_units_Z   4
loop_
 _symmetry_equiv_pos_site_id
 _symmetry_equiv_pos_as_xyz
  1  'x, y, z'
loop_
 _atom_site_type_symbol
 _atom_site_label
 _atom_site_symmetry_multiplicity
 _atom_site_fract_x
 _atom_site_fract_y
 _atom_site_fract_z
 _atom_site_occupancy
 _atom_site_charge
  Tb  Tb1  1  0.209420  0.483940  0.446840  1.0  2.259
  Tb  Tb2  1  0.790580  0.516060  0.553160  1.0  2.2594
  Tb  Tb3  1  0.209420  0.983940  0.053160  1.0  2.2593
  Tb  Tb4  1  0.790580  0.016060  0.946840  1.0  2.2592
  H  H5  1  0.796800  0.059700  0.440200  1.0  0.1041
  H  H6  1  0.586000  0.577400  0.290200  1.0  0.0989
  H  H7  1  0.744000  0.668200  0.191900  1.0  0.1139
  H  H8  1  0.414000  0.922600  0.790200  1.0  0.0997
  H  H9  1  0.796800  0.559700  0.059800  1.0  0.1041
  H  H10  1  0.256000  0.831800  0.691900  1.0  0.1138
  H  H11  1  0.586000  0.077400  0.209800  1.0  0.099
  H  H12  1  0.059900  0.985600  0.312700  1.0  0.1081
  H  H13  1  0.203200  0.440300  0.940200  1.0  0.1044
  H  H14  1  0.940100  0.014400  0.687300  1.0  0.1079
  H  H15  1  0.940100  0.514400  0.812700  1.0  0.1073
  H  H16  1  0.256000  0.331800  0.808100  1.0  0.1138
  H  H17  1  0.059900  0.485600  0.187300  1.0  0.1078
  H  H18  1  0.203200  0.940300  0.559800  1.0  0.1038
  H  H19  1  0.744000  0.168200  0.308100  1.0  0.1142
  H  H20  1  0.414000  0.422600  0.709800  1.0  0.099
  C  C21  1  0.128400  0.655200  0.867600  1.0  -0.0104
  C  C22  1  0.727100  0.224900  0.138700  1.0  -0.1178
  C  C23  1  0.934000  0.922400  0.437600  1.0  -0.0155
  C  C24  1  0.035300  0.597000  0.808100  1.0  -0.0679
  C  C25  1  0.945300  0.613900  0.974400  1.0  -0.0896
  C  C26  1  0.035300  0.097000  0.691900  1.0  -0.067
  C  C27  1  0.272900  0.275100  0.638700  1.0  -0.1184
  C  C28  1  0.616000  0.159000  0.076900  1.0  0.7456
  C  C29  1  0.934000  0.422400  0.062400  1.0  -0.0155
  C  C30  1  0.066000  0.077600  0.562400  1.0  -0.0156
  C  C31  1  0.384000  0.841000  0.923100  1.0  0.744
  C  C32  1  0.082600  0.660400  0.742300  1.0  -0.1325
  C  C33  1  0.775100  0.714200  0.235700  1.0  -0.0629
  C  C34  1  0.016600  0.900900  0.177300  1.0  0.6459
  C  C35  1  0.681600  0.159600  0.205300  1.0  -0.0546
  C  C36  1  0.121400  0.464300  0.963800  1.0  -0.0436
  C  C37  1  0.318400  0.840400  0.794700  1.0  -0.0554
  C  C38  1  0.727100  0.724900  0.361300  1.0  -0.1186
  C  C39  1  0.318400  0.340400  0.705300  1.0  -0.0556
  C  C40  1  0.964700  0.403000  0.191900  1.0  -0.0676
  C  C41  1  0.895100  0.745500  0.952100  1.0  0.7022
  C  C42  1  0.983400  0.099100  0.822700  1.0  0.6452
  C  C43  1  0.681600  0.659600  0.294700  1.0  -0.0552
  C  C44  1  0.066000  0.577600  0.937600  1.0  -0.0156
  C  C45  1  0.272900  0.775100  0.861300  1.0  -0.1187
  C  C46  1  0.128400  0.155200  0.632400  1.0  -0.0106
  C  C47  1  0.917400  0.839600  0.242300  1.0  -0.1317
  C  C48  1  0.917400  0.339600  0.257700  1.0  -0.1328
  C  C49  1  0.121400  0.964300  0.536200  1.0  -0.0428
  C  C50  1  0.104900  0.254500  0.047900  1.0  0.7013
  C  C51  1  0.104900  0.754500  0.452100  1.0  0.7007
  C  C52  1  0.224900  0.785800  0.735700  1.0  -0.0642
  C  C53  1  0.054700  0.886100  0.474400  1.0  -0.0893
  C  C54  1  0.082600  0.160400  0.757700  1.0  -0.132
  C  C55  1  0.871600  0.844800  0.367600  1.0  -0.0102
  C  C56  1  0.871600  0.344800  0.132400  1.0  -0.0103
  C  C57  1  0.054700  0.386100  0.025600  1.0  -0.0892
  C  C58  1  0.224900  0.285800  0.764300  1.0  -0.0618
  C  C59  1  0.964700  0.903000  0.308100  1.0  -0.0674
  C  C60  1  0.895100  0.245500  0.547900  1.0  0.7022
  C  C61  1  0.016600  0.400900  0.322700  1.0  0.6457
  C  C62  1  0.384000  0.341000  0.576900  1.0  0.744
  C  C63  1  0.945300  0.113900  0.525600  1.0  -0.0894
  C  C64  1  0.616000  0.659000  0.423100  1.0  0.7457
  C  C65  1  0.775100  0.214200  0.264300  1.0  -0.0605
  C  C66  1  0.878600  0.535700  0.036200  1.0  -0.0429
  C  C67  1  0.983400  0.599100  0.677300  1.0  0.6459
  C  C68  1  0.878600  0.035700  0.463800  1.0  -0.043
  O  O69  1  0.152400  0.004400  0.181900  1.0  -0.6446
  O  O70  1  0.239600  0.770800  0.424800  1.0  -0.6377
  O  O71  1  0.847600  0.495600  0.681900  1.0  -0.6406
  O  O72  1  0.962100  0.345500  0.382000  1.0  -0.6886
  O  O73  1  0.006000  0.120600  0.035400  1.0  -0.7613
  O  O74  1  0.962100  0.845500  0.118000  1.0  -0.6877
  O  O75  1  0.674900  0.160300  0.016700  1.0  -0.7395
  O  O76  1  0.674900  0.660300  0.483300  1.0  -0.7359
  O  O77  1  0.037900  0.654500  0.618000  1.0  -0.6883
  O  O78  1  0.006000  0.620600  0.464600  1.0  -0.7615
  O  O79  1  0.760400  0.729200  0.924800  1.0  -0.6379
  O  O80  1  0.239600  0.270800  0.075200  1.0  -0.6387
  O  O81  1  0.994000  0.379400  0.535400  1.0  -0.7605
  O  O82  1  0.152400  0.504400  0.318100  1.0  -0.6453
  O  O83  1  0.760400  0.229200  0.575200  1.0  -0.6361
  O  O84  1  0.847600  0.995600  0.818100  1.0  -0.6434
  O  O85  1  0.467200  0.608500  0.409000  1.0  -0.7141
  O  O86  1  0.532800  0.391500  0.591000  1.0  -0.7153
  O  O87  1  0.994000  0.879400  0.964600  1.0  -0.761
  O  O88  1  0.532800  0.891500  0.909000  1.0  -0.7147
  O  O89  1  0.325100  0.839700  0.983300  1.0  -0.7364
  O  O90  1  0.037900  0.154500  0.882000  1.0  -0.6892
  O  O91  1  0.325100  0.339700  0.516700  1.0  -0.7361
  O  O92  1  0.467200  0.108500  0.091000  1.0  -0.7144
