# generated using pymatgen
data_EuH4(C2O)6
_symmetry_space_group_name_H-M   'P 1'
_cell_length_a   8.82100000
_cell_length_b   9.28800000
_cell_length_c   18.95500000
_cell_angle_alpha   90.00000000
_cell_angle_beta   90.00000000
_cell_angle_gamma   109.55700000
_symmetry_Int_Tables_number   1
_chemical_formula_structural   EuH4(C2O)6
_chemical_formula_sum   'Eu4 H16 C48 O24'
_cell_volume   1463.38004800
_cell_formula_units_Z   4
loop_
 _symmetry_equiv_pos_site_id
 _symmetry_equiv_pos_as_xyz
  1  'x, y, z'
loop_
 _atom_site_type_symbol
 _atom_site_label
 _atom_site_symmetry_multiplicity
 _atom_site_fract_x
 _atom_site_fract_y
 _atom_site_fract_z
 _atom_site_occupancy
 _atom_site_charge
  Eu  Eu1  1  0.289730  0.515520  0.946790  1.0  2.1596
  Eu  Eu2  1  0.710270  0.984480  0.446790  1.0  2.1592
  Eu  Eu3  1  0.289730  0.015520  0.553210  1.0  2.1595
  Eu  Eu4  1  0.710270  0.484480  0.053210  1.0  2.159
  H  H5  1  0.297700  0.058600  0.059000  1.0  0.1169
  H  H6  1  0.913900  0.421500  0.789700  1.0  0.1142
  H  H7  1  0.244800  0.669100  0.307700  1.0  0.1146
  H  H8  1  0.702300  0.441400  0.559000  1.0  0.1177
  H  H9  1  0.561600  0.982600  0.186500  1.0  0.1151
  H  H10  1  0.297700  0.558600  0.441000  1.0  0.1171
  H  H11  1  0.086100  0.078500  0.289700  1.0  0.1132
  H  H12  1  0.913900  0.921500  0.710300  1.0  0.1135
  H  H13  1  0.702300  0.941400  0.941000  1.0  0.1173
  H  H14  1  0.755200  0.330900  0.692300  1.0  0.1141
  H  H15  1  0.438400  0.517400  0.686500  1.0  0.1153
  H  H16  1  0.244800  0.169100  0.192300  1.0  0.1143
  H  H17  1  0.438400  0.017400  0.813500  1.0  0.115
  H  H18  1  0.561600  0.482600  0.313500  1.0  0.1154
  H  H19  1  0.755200  0.830900  0.807700  1.0  0.114
  H  H20  1  0.086100  0.578500  0.210300  1.0  0.1135
  C  C21  1  0.724100  0.285500  0.736100  1.0  -0.0445
  C  C22  1  0.394400  0.744900  0.548900  1.0  0.7007
  C  C23  1  0.534300  0.098700  0.808900  1.0  -0.0561
  C  C24  1  0.582400  0.162200  0.742700  1.0  -0.126
  C  C25  1  0.566300  0.078200  0.938100  1.0  0.0071
  C  C26  1  0.116300  0.160500  0.422600  1.0  0.7326
  C  C27  1  0.417600  0.837800  0.257300  1.0  -0.1263
  C  C28  1  0.228400  0.225000  0.361100  1.0  -0.1032
  C  C29  1  0.275900  0.714500  0.263900  1.0  -0.042
  C  C30  1  0.818100  0.840200  0.705500  1.0  -0.0691
  C  C31  1  0.444900  0.111700  0.974200  1.0  -0.0901
  C  C32  1  0.275900  0.214500  0.236100  1.0  -0.0426
  C  C33  1  0.621200  0.465400  0.535600  1.0  -0.0281
  C  C34  1  0.465700  0.401300  0.308900  1.0  -0.0553
  C  C35  1  0.394400  0.244900  0.951100  1.0  0.7008
  C  C36  1  0.555100  0.888300  0.025800  1.0  -0.0887
  C  C37  1  0.517700  0.400500  0.178100  1.0  0.6606
  C  C38  1  0.373500  0.845600  0.132400  1.0  -0.0112
  C  C39  1  0.433700  0.921800  0.061900  1.0  0.0068
  C  C40  1  0.621200  0.965400  0.964400  1.0  -0.0286
  C  C41  1  0.181900  0.659800  0.205500  1.0  -0.0676
  C  C42  1  0.724100  0.785500  0.763900  1.0  -0.0431
  C  C43  1  0.818100  0.340200  0.794500  1.0  -0.0687
  C  C44  1  0.444900  0.611700  0.525800  1.0  -0.0896
  C  C45  1  0.883700  0.339500  0.922600  1.0  0.7315
  C  C46  1  0.605600  0.255100  0.451100  1.0  0.7015
  C  C47  1  0.378800  0.034600  0.035600  1.0  -0.0264
  C  C48  1  0.482300  0.599500  0.821900  1.0  0.6596
  C  C49  1  0.771600  0.775000  0.638900  1.0  -0.1056
  C  C50  1  0.605600  0.755100  0.048900  1.0  0.7018
  C  C51  1  0.378800  0.534600  0.464400  1.0  -0.0274
  C  C52  1  0.626500  0.154400  0.867600  1.0  -0.0107
  C  C53  1  0.771600  0.275000  0.861100  1.0  -0.1042
  C  C54  1  0.116300  0.660500  0.077400  1.0  0.7325
  C  C55  1  0.482300  0.099500  0.678100  1.0  0.6602
  C  C56  1  0.228400  0.725000  0.138900  1.0  -0.1046
  C  C57  1  0.626500  0.654400  0.632400  1.0  -0.0116
  C  C58  1  0.433700  0.421800  0.438100  1.0  0.007
  C  C59  1  0.517700  0.900500  0.321900  1.0  0.6607
  C  C60  1  0.566300  0.578200  0.561900  1.0  0.0068
  C  C61  1  0.465700  0.901300  0.191100  1.0  -0.0567
  C  C62  1  0.534300  0.598700  0.691100  1.0  -0.0537
  C  C63  1  0.181900  0.159800  0.294500  1.0  -0.0675
  C  C64  1  0.417600  0.337800  0.242700  1.0  -0.1249
  C  C65  1  0.555100  0.388300  0.474200  1.0  -0.0893
  C  C66  1  0.883700  0.839500  0.577400  1.0  0.7322
  C  C67  1  0.582400  0.662200  0.757300  1.0  -0.1258
  C  C68  1  0.373500  0.345600  0.367600  1.0  -0.0105
  O  O69  1  0.494300  0.878800  0.536200  1.0  -0.8013
  O  O70  1  0.260900  0.227700  0.925100  1.0  -0.6146
  O  O71  1  0.739100  0.772300  0.074900  1.0  -0.6147
  O  O72  1  0.537200  0.155200  0.618710  1.0  -0.6823
  O  O73  1  0.462800  0.844800  0.381290  1.0  -0.6832
  O  O74  1  0.175000  0.661600  0.017000  1.0  -0.7476
  O  O75  1  0.175000  0.161600  0.483000  1.0  -0.7467
  O  O76  1  0.968900  0.612900  0.091500  1.0  -0.7321
  O  O77  1  0.348100  0.997400  0.682800  1.0  -0.6156
  O  O78  1  0.462800  0.344800  0.118710  1.0  -0.6818
  O  O79  1  0.505700  0.121200  0.463800  1.0  -0.8019
  O  O80  1  0.825000  0.338400  0.983000  1.0  -0.7457
  O  O81  1  0.494300  0.378800  0.963800  1.0  -0.8015
  O  O82  1  0.825000  0.838400  0.517000  1.0  -0.7473
  O  O83  1  0.031100  0.387100  0.908500  1.0  -0.7316
  O  O84  1  0.260900  0.727700  0.574900  1.0  -0.6129
  O  O85  1  0.968900  0.112900  0.408500  1.0  -0.7316
  O  O86  1  0.651900  0.002600  0.317200  1.0  -0.6196
  O  O87  1  0.348100  0.497400  0.817200  1.0  -0.6177
  O  O88  1  0.651900  0.502600  0.182800  1.0  -0.6185
  O  O89  1  0.505700  0.621200  0.036200  1.0  -0.8018
  O  O90  1  0.739100  0.272300  0.425100  1.0  -0.6149
  O  O91  1  0.537200  0.655200  0.881290  1.0  -0.6837
  O  O92  1  0.031100  0.887100  0.591500  1.0  -0.7322
