# generated using pymatgen
data_GdH4(C2O)6
_symmetry_space_group_name_H-M   'P 1'
_cell_length_a   8.78300000
_cell_length_b   9.28500000
_cell_length_c   18.95200000
_cell_angle_alpha   90.00000000
_cell_angle_beta   90.00000000
_cell_angle_gamma   109.39800000
_symmetry_Int_Tables_number   1
_chemical_formula_structural   GdH4(C2O)6
_chemical_formula_sum   'Gd4 H16 C48 O24'
_cell_volume   1457.80488639
_cell_formula_units_Z   4
loop_
 _symmetry_equiv_pos_site_id
 _symmetry_equiv_pos_as_xyz
  1  'x, y, z'
loop_
 _atom_site_type_symbol
 _atom_site_label
 _atom_site_symmetry_multiplicity
 _atom_site_fract_x
 _atom_site_fract_y
 _atom_site_fract_z
 _atom_site_occupancy
 _atom_site_charge
  Gd  Gd1  1  0.210260  0.484890  0.553120  1.0  2.1939
  Gd  Gd2  1  0.789740  0.015110  0.053120  1.0  2.1941
  Gd  Gd3  1  0.210260  0.984890  0.946880  1.0  2.1941
  Gd  Gd4  1  0.789740  0.515110  0.446880  1.0  2.1942
  H  H5  1  0.201400  0.440900  0.058900  1.0  0.1081
  H  H6  1  0.201400  0.940900  0.441100  1.0  0.1079
  H  H7  1  0.589700  0.574100  0.709500  1.0  0.1084
  H  H8  1  0.589700  0.074100  0.790500  1.0  0.1082
  H  H9  1  0.745100  0.169000  0.691800  1.0  0.1171
  H  H10  1  0.798600  0.559100  0.941100  1.0  0.1077
  H  H11  1  0.410300  0.425900  0.290500  1.0  0.109
  H  H12  1  0.254900  0.331000  0.191800  1.0  0.1168
  H  H13  1  0.938500  0.016300  0.312900  1.0  0.1142
  H  H14  1  0.061500  0.983700  0.687100  1.0  0.1143
  H  H15  1  0.745100  0.669000  0.808200  1.0  0.1174
  H  H16  1  0.938500  0.516300  0.187100  1.0  0.1145
  H  H17  1  0.254900  0.831000  0.308200  1.0  0.1167
  H  H18  1  0.410300  0.925900  0.209500  1.0  0.1085
  H  H19  1  0.061500  0.483700  0.812900  1.0  0.1145
  H  H20  1  0.798600  0.059100  0.558900  1.0  0.1074
  C  C21  1  0.272200  0.275200  0.361000  1.0  -0.1186
  C  C22  1  0.017800  0.900600  0.821800  1.0  0.6654
  C  C23  1  0.223500  0.285900  0.235700  1.0  -0.0509
  C  C24  1  0.383600  0.840000  0.077400  1.0  0.6825
  C  C25  1  0.683500  0.157900  0.794900  1.0  -0.0651
  C  C26  1  0.017800  0.400600  0.678200  1.0  0.6656
  C  C27  1  0.727800  0.724800  0.639000  1.0  -0.1172
  C  C28  1  0.943900  0.613000  0.025900  1.0  -0.0782
  C  C29  1  0.120300  0.465300  0.035400  1.0  -0.0284
  C  C30  1  0.223500  0.785900  0.264300  1.0  -0.0501
  C  C31  1  0.683500  0.657900  0.705100  1.0  -0.0652
  C  C32  1  0.272200  0.775200  0.139000  1.0  -0.119
  C  C33  1  0.067300  0.078500  0.437400  1.0  -0.0226
  C  C34  1  0.917300  0.338600  0.742400  1.0  -0.1384
  C  C35  1  0.917300  0.838600  0.757600  1.0  -0.1389
  C  C36  1  0.896300  0.744900  0.048600  1.0  0.7069
  C  C37  1  0.965800  0.902200  0.691500  1.0  -0.0674
  C  C38  1  0.316500  0.342100  0.294900  1.0  -0.0656
  C  C39  1  0.127800  0.655100  0.131600  1.0  0.0094
  C  C40  1  0.872200  0.844900  0.631600  1.0  0.0097
  C  C41  1  0.879700  0.034700  0.535400  1.0  -0.0286
  C  C42  1  0.056100  0.387000  0.974100  1.0  -0.077
  C  C43  1  0.082700  0.161400  0.242400  1.0  -0.1393
  C  C44  1  0.965800  0.402200  0.808500  1.0  -0.0671
  C  C45  1  0.943900  0.113000  0.474100  1.0  -0.0785
  C  C46  1  0.776500  0.714100  0.764300  1.0  -0.0488
  C  C47  1  0.872200  0.344900  0.868400  1.0  0.0101
  C  C48  1  0.067300  0.578500  0.062600  1.0  -0.0228
  C  C49  1  0.879700  0.534700  0.964600  1.0  -0.0291
  C  C50  1  0.616400  0.160000  0.922600  1.0  0.6851
  C  C51  1  0.982200  0.099400  0.178200  1.0  0.6656
  C  C52  1  0.082700  0.661400  0.257600  1.0  -0.138
  C  C53  1  0.982200  0.599400  0.321800  1.0  0.6654
  C  C54  1  0.120300  0.965300  0.464600  1.0  -0.029
  C  C55  1  0.932700  0.421500  0.937400  1.0  -0.0222
  C  C56  1  0.776500  0.214100  0.735700  1.0  -0.0489
  C  C57  1  0.127800  0.155100  0.368400  1.0  0.0099
  C  C58  1  0.727800  0.224800  0.861000  1.0  -0.1169
  C  C59  1  0.034200  0.097800  0.308500  1.0  -0.0654
  C  C60  1  0.103700  0.255100  0.951400  1.0  0.7037
  C  C61  1  0.056100  0.887000  0.525900  1.0  -0.0769
  C  C62  1  0.616400  0.660000  0.577400  1.0  0.6851
  C  C63  1  0.896300  0.244900  0.451400  1.0  0.707
  C  C64  1  0.316500  0.842100  0.205100  1.0  -0.0662
  C  C65  1  0.034200  0.597800  0.191500  1.0  -0.065
  C  C66  1  0.932700  0.921500  0.562600  1.0  -0.0224
  C  C67  1  0.383600  0.340000  0.422600  1.0  0.6828
  C  C68  1  0.103700  0.755100  0.548600  1.0  0.7043
  O  O69  1  0.239100  0.271200  0.925000  1.0  -0.6399
  O  O70  1  0.674500  0.660000  0.516700  1.0  -0.7189
  O  O71  1  0.239100  0.771200  0.575000  1.0  -0.6404
  O  O72  1  0.468000  0.611700  0.592000  1.0  -0.702
  O  O73  1  0.325500  0.840000  0.016700  1.0  -0.7198
  O  O74  1  0.005200  0.621600  0.535400  1.0  -0.8084
  O  O75  1  0.151800  0.502700  0.682600  1.0  -0.6238
  O  O76  1  0.005200  0.121600  0.964600  1.0  -0.8084
  O  O77  1  0.760900  0.228800  0.425000  1.0  -0.6396
  O  O78  1  0.532000  0.888300  0.092000  1.0  -0.7009
  O  O79  1  0.848200  0.997300  0.182600  1.0  -0.6218
  O  O80  1  0.848200  0.497300  0.317400  1.0  -0.6237
  O  O81  1  0.532000  0.388300  0.408000  1.0  -0.7005
  O  O82  1  0.994800  0.878400  0.035400  1.0  -0.8086
  O  O83  1  0.036900  0.155100  0.118200  1.0  -0.6474
  O  O84  1  0.468000  0.111700  0.908000  1.0  -0.7017
  O  O85  1  0.325500  0.340000  0.483300  1.0  -0.7177
  O  O86  1  0.963100  0.844900  0.881800  1.0  -0.6483
  O  O87  1  0.994800  0.378400  0.464600  1.0  -0.8088
  O  O88  1  0.674500  0.160000  0.983300  1.0  -0.721
  O  O89  1  0.151800  0.002700  0.817400  1.0  -0.6246
  O  O90  1  0.760900  0.728800  0.075000  1.0  -0.636
  O  O91  1  0.036900  0.655100  0.381800  1.0  -0.6493
  O  O92  1  0.963100  0.344900  0.618200  1.0  -0.6465
