# generated using pymatgen
data_Co5H52C101(N2O9)2
_symmetry_space_group_name_H-M   'P 1'
_cell_length_a   21.87290000
_cell_length_b   21.87290000
_cell_length_c   28.68040000
_cell_angle_alpha   90.00000000
_cell_angle_beta   90.00000000
_cell_angle_gamma   90.00000000
_symmetry_Int_Tables_number   1
_chemical_formula_structural   Co5H52C101(N2O9)2
_chemical_formula_sum   'Co10 H104 C202 N8 O36'
_cell_volume   13721.38464598
_cell_formula_units_Z   2
loop_
 _symmetry_equiv_pos_site_id
 _symmetry_equiv_pos_as_xyz
  1  'x, y, z'
loop_
 _atom_site_type_symbol
 _atom_site_label
 _atom_site_symmetry_multiplicity
 _atom_site_fract_x
 _atom_site_fract_y
 _atom_site_fract_z
 _atom_site_occupancy
 _atom_site_charge
  Co  Co1  1  0.000000  0.000000  0.250000  1.0  0.7454
  Co  Co2  1  0.000000  0.000000  0.750000  1.0  0.7396
  Co  Co3  1  0.500000  0.138620  0.500000  1.0  1.0582
  Co  Co4  1  0.500000  0.272160  0.500000  1.0  0.9956
  Co  Co5  1  0.500000  0.861380  0.500000  1.0  1.0593
  Co  Co6  1  0.500000  0.727840  0.500000  1.0  0.9928
  Co  Co7  1  0.861380  0.500000  0.000000  1.0  1.0595
  Co  Co8  1  0.727840  0.500000  0.000000  1.0  0.9938
  Co  Co9  1  0.138620  0.500000  0.000000  1.0  1.0612
  Co  Co10  1  0.272160  0.500000  0.000000  1.0  0.9938
  H  H11  1  0.224200  0.055700  0.234800  1.0  0.1172
  H  H12  1  0.196900  0.134100  0.312200  1.0  0.1173
  H  H13  1  0.300500  0.111700  0.328400  1.0  0.1123
  H  H14  1  0.366400  0.112200  0.392900  1.0  0.1086
  H  H15  1  0.369300  0.299800  0.390100  1.0  0.1175
  H  H16  1  0.300400  0.299100  0.329500  1.0  0.1072
  H  H17  1  0.775800  0.944300  0.234800  1.0  0.1173
  H  H18  1  0.803100  0.865900  0.312200  1.0  0.1172
  H  H19  1  0.699500  0.888300  0.328400  1.0  0.1124
  H  H20  1  0.633600  0.887800  0.392900  1.0  0.1089
  H  H21  1  0.630700  0.700200  0.390100  1.0  0.1171
  H  H22  1  0.699600  0.700900  0.329500  1.0  0.1065
  H  H23  1  0.944300  0.224200  0.734800  1.0  0.1178
  H  H24  1  0.865900  0.196900  0.812200  1.0  0.117
  H  H25  1  0.888300  0.300500  0.828400  1.0  0.1128
  H  H26  1  0.887800  0.366400  0.892900  1.0  0.1083
  H  H27  1  0.700200  0.369300  0.890100  1.0  0.1167
  H  H28  1  0.700900  0.300400  0.829500  1.0  0.1075
  H  H29  1  0.055700  0.775800  0.734800  1.0  0.1171
  H  H30  1  0.134100  0.803100  0.812200  1.0  0.1173
  H  H31  1  0.111700  0.699500  0.828400  1.0  0.1126
  H  H32  1  0.112200  0.633600  0.892900  1.0  0.1081
  H  H33  1  0.299800  0.630700  0.890100  1.0  0.1168
  H  H34  1  0.299100  0.699600  0.829500  1.0  0.1066
  H  H35  1  0.775800  0.055700  0.765200  1.0  0.1171
  H  H36  1  0.803100  0.134100  0.687800  1.0  0.1163
  H  H37  1  0.699500  0.111700  0.671600  1.0  0.112
  H  H38  1  0.633600  0.112200  0.607100  1.0  0.1087
  H  H39  1  0.630700  0.299800  0.609900  1.0  0.1177
  H  H40  1  0.699600  0.299100  0.670500  1.0  0.1069
  H  H41  1  0.224200  0.944300  0.765200  1.0  0.1171
  H  H42  1  0.196900  0.865900  0.687800  1.0  0.1161
  H  H43  1  0.300500  0.888300  0.671600  1.0  0.1125
  H  H44  1  0.366400  0.887800  0.607100  1.0  0.1089
  H  H45  1  0.369300  0.700200  0.609900  1.0  0.1174
  H  H46  1  0.300400  0.700900  0.670500  1.0  0.1063
  H  H47  1  0.055700  0.224200  0.265200  1.0  0.1172
  H  H48  1  0.134100  0.196900  0.187800  1.0  0.1163
  H  H49  1  0.111700  0.300500  0.171600  1.0  0.1121
  H  H50  1  0.112200  0.366400  0.107100  1.0  0.1081
  H  H51  1  0.299800  0.369300  0.109900  1.0  0.1174
  H  H52  1  0.299100  0.300400  0.170500  1.0  0.1061
  H  H53  1  0.944300  0.775800  0.265200  1.0  0.1172
  H  H54  1  0.865900  0.803100  0.187800  1.0  0.1159
  H  H55  1  0.888300  0.699500  0.171600  1.0  0.1129
  H  H56  1  0.887800  0.633600  0.107100  1.0  0.1083
  H  H57  1  0.700200  0.630700  0.109900  1.0  0.1168
  H  H58  1  0.700900  0.699600  0.170500  1.0  0.1072
  H  H59  1  0.775800  0.944300  0.765200  1.0  0.1173
  H  H60  1  0.803100  0.865900  0.687800  1.0  0.116
  H  H61  1  0.699500  0.888300  0.671600  1.0  0.1124
  H  H62  1  0.633600  0.887800  0.607100  1.0  0.109
  H  H63  1  0.630700  0.700200  0.609900  1.0  0.1172
  H  H64  1  0.699600  0.700900  0.670500  1.0  0.1066
  H  H65  1  0.224200  0.055700  0.765200  1.0  0.1171
  H  H66  1  0.196900  0.134100  0.687800  1.0  0.1164
  H  H67  1  0.300500  0.111700  0.671600  1.0  0.1122
  H  H68  1  0.366400  0.112200  0.607100  1.0  0.1087
  H  H69  1  0.369300  0.299800  0.609900  1.0  0.1177
  H  H70  1  0.300400  0.299100  0.670500  1.0  0.1068
  H  H71  1  0.055700  0.775800  0.265200  1.0  0.1171
  H  H72  1  0.134100  0.803100  0.187800  1.0  0.1164
  H  H73  1  0.111700  0.699500  0.171600  1.0  0.1126
  H  H74  1  0.112200  0.633600  0.107100  1.0  0.1081
  H  H75  1  0.299800  0.630700  0.109900  1.0  0.1172
  H  H76  1  0.299100  0.699600  0.170500  1.0  0.1062
  H  H77  1  0.944300  0.224200  0.265200  1.0  0.1177
  H  H78  1  0.865900  0.196900  0.187800  1.0  0.116
  H  H79  1  0.888300  0.300500  0.171600  1.0  0.1124
  H  H80  1  0.887800  0.366400  0.107100  1.0  0.1083
  H  H81  1  0.700200  0.369300  0.109900  1.0  0.117
  H  H82  1  0.700900  0.300400  0.170500  1.0  0.1072
  H  H83  1  0.224200  0.944300  0.234800  1.0  0.1174
  H  H84  1  0.196900  0.865900  0.312200  1.0  0.1172
  H  H85  1  0.300500  0.888300  0.328400  1.0  0.1126
  H  H86  1  0.366400  0.887800  0.392900  1.0  0.1087
  H  H87  1  0.369300  0.700200  0.390100  1.0  0.1171
  H  H88  1  0.300400  0.700900  0.329500  1.0  0.1065
  H  H89  1  0.775800  0.055700  0.234800  1.0  0.1171
  H  H90  1  0.803100  0.134100  0.312200  1.0  0.117
  H  H91  1  0.699500  0.111700  0.328400  1.0  0.1121
  H  H92  1  0.633600  0.112200  0.392900  1.0  0.1086
  H  H93  1  0.630700  0.299800  0.390100  1.0  0.1175
  H  H94  1  0.699600  0.299100  0.329500  1.0  0.1071
  H  H95  1  0.944300  0.775800  0.734800  1.0  0.1173
  H  H96  1  0.865900  0.803100  0.812200  1.0  0.1168
  H  H97  1  0.888300  0.699500  0.828400  1.0  0.1128
  H  H98  1  0.887800  0.633600  0.892900  1.0  0.1084
  H  H99  1  0.700200  0.630700  0.890100  1.0  0.1165
  H  H100  1  0.700900  0.699600  0.829500  1.0  0.1075
  H  H101  1  0.055700  0.224200  0.734800  1.0  0.1172
  H  H102  1  0.134100  0.196900  0.812200  1.0  0.1172
  H  H103  1  0.111700  0.300500  0.828400  1.0  0.1125
  H  H104  1  0.112200  0.366400  0.892900  1.0  0.1079
  H  H105  1  0.299800  0.369300  0.890100  1.0  0.117
  H  H106  1  0.299100  0.300400  0.829500  1.0  0.1065
  H  H107  1  0.278600  0.278600  0.250000  1.0  0.1175
  H  H108  1  0.721400  0.721400  0.250000  1.0  0.1182
  H  H109  1  0.721400  0.278600  0.750000  1.0  0.1178
  H  H110  1  0.278600  0.721400  0.750000  1.0  0.1181
  H  H111  1  0.721400  0.721400  0.750000  1.0  0.1182
  H  H112  1  0.278600  0.278600  0.750000  1.0  0.1175
  H  H113  1  0.278600  0.721400  0.250000  1.0  0.1181
  H  H114  1  0.721400  0.278600  0.250000  1.0  0.1178
  C  C115  1  0.127600  0.049300  0.246400  1.0  0.2536
  C  C116  1  0.189700  0.029900  0.238900  1.0  -0.1543
  C  C117  1  0.200000  0.161800  0.286800  1.0  -0.1266
  C  C118  1  0.245500  0.205200  0.286300  1.0  0.0239
  C  C119  1  0.290400  0.206200  0.324600  1.0  0.0403
  C  C120  1  0.313100  0.149300  0.342100  1.0  -0.1538
  C  C121  1  0.353500  0.149600  0.379300  1.0  -0.0566
  C  C122  1  0.374700  0.204500  0.396200  1.0  -0.1165
  C  C123  1  0.354400  0.262300  0.377800  1.0  -0.1046
  C  C124  1  0.313700  0.261500  0.342600  1.0  -0.0999
  C  C125  1  0.419200  0.206300  0.436600  1.0  0.6865
  C  C126  1  0.872400  0.950700  0.246400  1.0  0.2543
  C  C127  1  0.810300  0.970100  0.238900  1.0  -0.1537
  C  C128  1  0.800000  0.838200  0.286800  1.0  -0.1259
  C  C129  1  0.754500  0.794800  0.286300  1.0  0.0234
  C  C130  1  0.709600  0.793800  0.324600  1.0  0.0402
  C  C131  1  0.686900  0.850700  0.342100  1.0  -0.154
  C  C132  1  0.646500  0.850400  0.379300  1.0  -0.0553
  C  C133  1  0.625300  0.795500  0.396200  1.0  -0.1175
  C  C134  1  0.645600  0.737700  0.377800  1.0  -0.1058
  C  C135  1  0.686300  0.738500  0.342600  1.0  -0.1001
  C  C136  1  0.580800  0.793700  0.436600  1.0  0.6873
  C  C137  1  0.950700  0.127600  0.746400  1.0  0.2524
  C  C138  1  0.970100  0.189700  0.738900  1.0  -0.1581
  C  C139  1  0.838200  0.200000  0.786800  1.0  -0.1265
  C  C140  1  0.794800  0.245500  0.786300  1.0  0.024
  C  C141  1  0.793800  0.290400  0.824600  1.0  0.0406
  C  C142  1  0.850700  0.313100  0.842100  1.0  -0.1524
  C  C143  1  0.850400  0.353500  0.879300  1.0  -0.0557
  C  C144  1  0.795500  0.374700  0.896200  1.0  -0.1168
  C  C145  1  0.737700  0.354400  0.877800  1.0  -0.1058
  C  C146  1  0.738500  0.313700  0.842600  1.0  -0.096
  C  C147  1  0.793700  0.419200  0.936600  1.0  0.687
  C  C148  1  0.049300  0.872400  0.746400  1.0  0.2528
  C  C149  1  0.029900  0.810300  0.738900  1.0  -0.1572
  C  C150  1  0.161800  0.800000  0.786800  1.0  -0.1277
  C  C151  1  0.205200  0.754500  0.786300  1.0  0.0233
  C  C152  1  0.206200  0.709600  0.824600  1.0  0.0406
  C  C153  1  0.149300  0.686900  0.842100  1.0  -0.1529
  C  C154  1  0.149600  0.646500  0.879300  1.0  -0.0563
  C  C155  1  0.204500  0.625300  0.896200  1.0  -0.1166
  C  C156  1  0.262300  0.645600  0.877800  1.0  -0.1054
  C  C157  1  0.261500  0.686300  0.842600  1.0  -0.0952
  C  C158  1  0.206300  0.580800  0.936600  1.0  0.6867
  C  C159  1  0.872400  0.049300  0.753600  1.0  0.2545
  C  C160  1  0.810300  0.029900  0.761100  1.0  -0.1533
  C  C161  1  0.800000  0.161800  0.713200  1.0  -0.1264
  C  C162  1  0.754500  0.205200  0.713700  1.0  0.0243
  C  C163  1  0.709600  0.206200  0.675400  1.0  0.0402
  C  C164  1  0.686900  0.149300  0.657900  1.0  -0.1543
  C  C165  1  0.646500  0.149600  0.620700  1.0  -0.0565
  C  C166  1  0.625300  0.204500  0.603800  1.0  -0.1174
  C  C167  1  0.645600  0.262300  0.622200  1.0  -0.1057
  C  C168  1  0.686300  0.261500  0.657400  1.0  -0.0992
  C  C169  1  0.580800  0.206300  0.563400  1.0  0.6862
  C  C170  1  0.127600  0.950700  0.753600  1.0  0.253
  C  C171  1  0.189700  0.970100  0.761100  1.0  -0.154
  C  C172  1  0.200000  0.838200  0.713200  1.0  -0.1265
  C  C173  1  0.245500  0.794800  0.713700  1.0  0.0238
  C  C174  1  0.290400  0.793800  0.675400  1.0  0.0406
  C  C175  1  0.313100  0.850700  0.657900  1.0  -0.1544
  C  C176  1  0.353500  0.850400  0.620700  1.0  -0.0549
  C  C177  1  0.374700  0.795500  0.603800  1.0  -0.1166
  C  C178  1  0.354400  0.737700  0.622200  1.0  -0.106
  C  C179  1  0.313700  0.738500  0.657400  1.0  -0.1016
  C  C180  1  0.419200  0.793700  0.563400  1.0  0.6862
  C  C181  1  0.049300  0.127600  0.253600  1.0  0.2528
  C  C182  1  0.029900  0.189700  0.261100  1.0  -0.1567
  C  C183  1  0.161800  0.200000  0.213200  1.0  -0.1283
  C  C184  1  0.205200  0.245500  0.213700  1.0  0.0239
  C  C185  1  0.206200  0.290400  0.175400  1.0  0.0407
  C  C186  1  0.149300  0.313100  0.157900  1.0  -0.1538
  C  C187  1  0.149600  0.353500  0.120700  1.0  -0.0558
  C  C188  1  0.204500  0.374700  0.103800  1.0  -0.1167
  C  C189  1  0.262300  0.354400  0.122200  1.0  -0.1061
  C  C190  1  0.261500  0.313700  0.157400  1.0  -0.0946
  C  C191  1  0.206300  0.419200  0.063400  1.0  0.6867
  C  C192  1  0.950700  0.872400  0.253600  1.0  0.2522
  C  C193  1  0.970100  0.810300  0.261100  1.0  -0.1577
  C  C194  1  0.838200  0.800000  0.213200  1.0  -0.1267
  C  C195  1  0.794800  0.754500  0.213700  1.0  0.0233
  C  C196  1  0.793800  0.709600  0.175400  1.0  0.0408
  C  C197  1  0.850700  0.686900  0.157900  1.0  -0.1521
  C  C198  1  0.850400  0.646500  0.120700  1.0  -0.0567
  C  C199  1  0.795500  0.625300  0.103800  1.0  -0.1171
  C  C200  1  0.737700  0.645600  0.122200  1.0  -0.1066
  C  C201  1  0.738500  0.686300  0.157400  1.0  -0.0966
  C  C202  1  0.793700  0.580800  0.063400  1.0  0.6856
  C  C203  1  0.872400  0.950700  0.753600  1.0  0.2537
  C  C204  1  0.810300  0.970100  0.761100  1.0  -0.154
  C  C205  1  0.800000  0.838200  0.713200  1.0  -0.1272
  C  C206  1  0.754500  0.794800  0.713700  1.0  0.0235
  C  C207  1  0.709600  0.793800  0.675400  1.0  0.0403
  C  C208  1  0.686900  0.850700  0.657900  1.0  -0.1544
  C  C209  1  0.646500  0.850400  0.620700  1.0  -0.0553
  C  C210  1  0.625300  0.795500  0.603800  1.0  -0.1177
  C  C211  1  0.645600  0.737700  0.622200  1.0  -0.106
  C  C212  1  0.686300  0.738500  0.657400  1.0  -0.1004
  C  C213  1  0.580800  0.793700  0.563400  1.0  0.6865
  C  C214  1  0.127600  0.049300  0.753600  1.0  0.2532
  C  C215  1  0.189700  0.029900  0.761100  1.0  -0.1537
  C  C216  1  0.200000  0.161800  0.713200  1.0  -0.127
  C  C217  1  0.245500  0.205200  0.713700  1.0  0.0241
  C  C218  1  0.290400  0.206200  0.675400  1.0  0.0405
  C  C219  1  0.313100  0.149300  0.657900  1.0  -0.1545
  C  C220  1  0.353500  0.149600  0.620700  1.0  -0.0567
  C  C221  1  0.374700  0.204500  0.603800  1.0  -0.1165
  C  C222  1  0.354400  0.262300  0.622200  1.0  -0.1055
  C  C223  1  0.313700  0.261500  0.657400  1.0  -0.0998
  C  C224  1  0.419200  0.206300  0.563400  1.0  0.6859
  C  C225  1  0.049300  0.872400  0.253600  1.0  0.2524
  C  C226  1  0.029900  0.810300  0.261100  1.0  -0.1563
  C  C227  1  0.161800  0.800000  0.213200  1.0  -0.1282
  C  C228  1  0.205200  0.754500  0.213700  1.0  0.0234
  C  C229  1  0.206200  0.709600  0.175400  1.0  0.0408
  C  C230  1  0.149300  0.686900  0.157900  1.0  -0.1537
  C  C231  1  0.149600  0.646500  0.120700  1.0  -0.0563
  C  C232  1  0.204500  0.625300  0.103800  1.0  -0.1168
  C  C233  1  0.262300  0.645600  0.122200  1.0  -0.1063
  C  C234  1  0.261500  0.686300  0.157400  1.0  -0.0943
  C  C235  1  0.206300  0.580800  0.063400  1.0  0.686
  C  C236  1  0.950700  0.127600  0.253600  1.0  0.252
  C  C237  1  0.970100  0.189700  0.261100  1.0  -0.1581
  C  C238  1  0.838200  0.200000  0.213200  1.0  -0.1282
  C  C239  1  0.794800  0.245500  0.213700  1.0  0.0241
  C  C240  1  0.793800  0.290400  0.175400  1.0  0.0408
  C  C241  1  0.850700  0.313100  0.157900  1.0  -0.1518
  C  C242  1  0.850400  0.353500  0.120700  1.0  -0.0564
  C  C243  1  0.795500  0.374700  0.103800  1.0  -0.117
  C  C244  1  0.737700  0.354400  0.122200  1.0  -0.1062
  C  C245  1  0.738500  0.313700  0.157400  1.0  -0.0961
  C  C246  1  0.793700  0.419200  0.063400  1.0  0.6864
  C  C247  1  0.127600  0.950700  0.246400  1.0  0.2526
  C  C248  1  0.189700  0.970100  0.238900  1.0  -0.1546
  C  C249  1  0.200000  0.838200  0.286800  1.0  -0.1259
  C  C250  1  0.245500  0.794800  0.286300  1.0  0.0235
  C  C251  1  0.290400  0.793800  0.324600  1.0  0.0404
  C  C252  1  0.313100  0.850700  0.342100  1.0  -0.154
  C  C253  1  0.353500  0.850400  0.379300  1.0  -0.0546
  C  C254  1  0.374700  0.795500  0.396200  1.0  -0.1165
  C  C255  1  0.354400  0.737700  0.377800  1.0  -0.1056
  C  C256  1  0.313700  0.738500  0.342600  1.0  -0.1015
  C  C257  1  0.419200  0.793700  0.436600  1.0  0.6868
  C  C258  1  0.872400  0.049300  0.246400  1.0  0.2541
  C  C259  1  0.810300  0.029900  0.238900  1.0  -0.1533
  C  C260  1  0.800000  0.161800  0.286800  1.0  -0.1249
  C  C261  1  0.754500  0.205200  0.286300  1.0  0.0242
  C  C262  1  0.709600  0.206200  0.324600  1.0  0.04
  C  C263  1  0.686900  0.149300  0.342100  1.0  -0.1536
  C  C264  1  0.646500  0.149600  0.379300  1.0  -0.0566
  C  C265  1  0.625300  0.204500  0.396200  1.0  -0.1173
  C  C266  1  0.645600  0.262300  0.377800  1.0  -0.1051
  C  C267  1  0.686300  0.261500  0.342600  1.0  -0.099
  C  C268  1  0.580800  0.206300  0.436600  1.0  0.6869
  C  C269  1  0.950700  0.872400  0.746400  1.0  0.2518
  C  C270  1  0.970100  0.810300  0.738900  1.0  -0.1584
  C  C271  1  0.838200  0.800000  0.786800  1.0  -0.1255
  C  C272  1  0.794800  0.754500  0.786300  1.0  0.0234
  C  C273  1  0.793800  0.709600  0.824600  1.0  0.0407
  C  C274  1  0.850700  0.686900  0.842100  1.0  -0.1524
  C  C275  1  0.850400  0.646500  0.879300  1.0  -0.056
  C  C276  1  0.795500  0.625300  0.896200  1.0  -0.1169
  C  C277  1  0.737700  0.645600  0.877800  1.0  -0.1057
  C  C278  1  0.738500  0.686300  0.842600  1.0  -0.0963
  C  C279  1  0.793700  0.580800  0.936600  1.0  0.6863
  C  C280  1  0.049300  0.127600  0.746400  1.0  0.2523
  C  C281  1  0.029900  0.189700  0.738900  1.0  -0.1571
  C  C282  1  0.161800  0.200000  0.786800  1.0  -0.1271
  C  C283  1  0.205200  0.245500  0.786300  1.0  0.0237
  C  C284  1  0.206200  0.290400  0.824600  1.0  0.0405
  C  C285  1  0.149300  0.313100  0.842100  1.0  -0.1531
  C  C286  1  0.149600  0.353500  0.879300  1.0  -0.0559
  C  C287  1  0.204500  0.374700  0.896200  1.0  -0.1165
  C  C288  1  0.262300  0.354400  0.877800  1.0  -0.1054
  C  C289  1  0.261500  0.313700  0.842600  1.0  -0.0955
  C  C290  1  0.206300  0.419200  0.936600  1.0  0.6875
  C  C291  1  0.500000  0.000000  0.500000  1.0  0.3131
  C  C292  1  0.000000  0.500000  0.000000  1.0  0.3131
  C  C293  1  0.108900  0.108900  0.250000  1.0  -0.1007
  C  C294  1  0.158400  0.158400  0.250000  1.0  0.0858
  C  C295  1  0.247900  0.247900  0.250000  1.0  -0.1123
  C  C296  1  0.891100  0.891100  0.250000  1.0  -0.099
  C  C297  1  0.841600  0.841600  0.250000  1.0  0.0857
  C  C298  1  0.752100  0.752100  0.250000  1.0  -0.1143
  C  C299  1  0.891100  0.108900  0.750000  1.0  -0.0996
  C  C300  1  0.841600  0.158400  0.750000  1.0  0.0857
  C  C301  1  0.752100  0.247900  0.750000  1.0  -0.1135
  C  C302  1  0.108900  0.891100  0.750000  1.0  -0.1002
  C  C303  1  0.158400  0.841600  0.750000  1.0  0.0861
  C  C304  1  0.247900  0.752100  0.750000  1.0  -0.1123
  C  C305  1  0.891100  0.891100  0.750000  1.0  -0.099
  C  C306  1  0.841600  0.841600  0.750000  1.0  0.0857
  C  C307  1  0.752100  0.752100  0.750000  1.0  -0.1143
  C  C308  1  0.108900  0.108900  0.750000  1.0  -0.1007
  C  C309  1  0.158400  0.158400  0.750000  1.0  0.0858
  C  C310  1  0.247900  0.247900  0.750000  1.0  -0.1123
  C  C311  1  0.108900  0.891100  0.250000  1.0  -0.1002
  C  C312  1  0.158400  0.841600  0.250000  1.0  0.0861
  C  C313  1  0.247900  0.752100  0.250000  1.0  -0.1123
  C  C314  1  0.891100  0.108900  0.250000  1.0  -0.0996
  C  C315  1  0.841600  0.158400  0.250000  1.0  0.0857
  C  C316  1  0.752100  0.247900  0.250000  1.0  -0.1135
  N  N317  1  0.090400  0.000000  0.248700  1.0  -0.4049
  N  N318  1  0.909600  0.000000  0.248700  1.0  -0.4056
  N  N319  1  0.000000  0.090400  0.748700  1.0  -0.4018
  N  N320  1  0.000000  0.909600  0.748700  1.0  -0.4006
  N  N321  1  0.909600  0.000000  0.751300  1.0  -0.4059
  N  N322  1  0.090400  0.000000  0.751300  1.0  -0.405
  N  N323  1  0.000000  0.090400  0.251300  1.0  -0.4021
  N  N324  1  0.000000  0.909600  0.251300  1.0  -0.4007
  O  O325  1  0.435900  0.154900  0.451000  1.0  -0.5685
  O  O326  1  0.435800  0.258100  0.451100  1.0  -0.5903
  O  O327  1  0.564100  0.845100  0.451000  1.0  -0.5686
  O  O328  1  0.564200  0.741900  0.451100  1.0  -0.5929
  O  O329  1  0.845100  0.435900  0.951000  1.0  -0.5698
  O  O330  1  0.741900  0.435800  0.951100  1.0  -0.5902
  O  O331  1  0.154900  0.564100  0.951000  1.0  -0.5679
  O  O332  1  0.258100  0.564200  0.951100  1.0  -0.5902
  O  O333  1  0.564100  0.154900  0.549000  1.0  -0.5689
  O  O334  1  0.564200  0.258100  0.548900  1.0  -0.5902
  O  O335  1  0.435900  0.845100  0.549000  1.0  -0.5684
  O  O336  1  0.435800  0.741900  0.548900  1.0  -0.5927
  O  O337  1  0.154900  0.435900  0.049000  1.0  -0.5682
  O  O338  1  0.258100  0.435800  0.048900  1.0  -0.59
  O  O339  1  0.845100  0.564100  0.049000  1.0  -0.5695
  O  O340  1  0.741900  0.564200  0.048900  1.0  -0.5907
  O  O341  1  0.564100  0.845100  0.549000  1.0  -0.5685
  O  O342  1  0.564200  0.741900  0.548900  1.0  -0.593
  O  O343  1  0.435900  0.154900  0.549000  1.0  -0.5685
  O  O344  1  0.435800  0.258100  0.548900  1.0  -0.5907
  O  O345  1  0.154900  0.564100  0.049000  1.0  -0.5683
  O  O346  1  0.258100  0.564200  0.048900  1.0  -0.5902
  O  O347  1  0.845100  0.435900  0.049000  1.0  -0.5696
  O  O348  1  0.741900  0.435800  0.048900  1.0  -0.5909
  O  O349  1  0.435900  0.845100  0.451000  1.0  -0.5682
  O  O350  1  0.435800  0.741900  0.451100  1.0  -0.5926
  O  O351  1  0.564100  0.154900  0.451000  1.0  -0.569
  O  O352  1  0.564200  0.258100  0.451100  1.0  -0.5902
  O  O353  1  0.845100  0.564100  0.951000  1.0  -0.5694
  O  O354  1  0.741900  0.564200  0.951100  1.0  -0.5905
  O  O355  1  0.154900  0.435900  0.951000  1.0  -0.5681
  O  O356  1  0.258100  0.435800  0.951100  1.0  -0.5899
  O  O357  1  0.500000  0.048100  0.500000  1.0  -0.5983
  O  O358  1  0.500000  0.951900  0.500000  1.0  -0.5949
  O  O359  1  0.951900  0.500000  0.000000  1.0  -0.6015
  O  O360  1  0.048100  0.500000  0.000000  1.0  -0.5987
