# generated using pymatgen
data_K2CoH2(C5O4)2
_symmetry_space_group_name_H-M   'P 1'
_cell_length_a   11.33460000
_cell_length_b   15.36800000
_cell_length_c   11.16700000
_cell_angle_alpha   90.00000000
_cell_angle_beta   90.94900000
_cell_angle_gamma   90.00000000
_symmetry_Int_Tables_number   1
_chemical_formula_structural   K2CoH2(C5O4)2
_chemical_formula_sum   'K8 Co4 H8 C40 O32'
_cell_volume   1944.91439978
_cell_formula_units_Z   4
loop_
 _symmetry_equiv_pos_site_id
 _symmetry_equiv_pos_as_xyz
  1  'x, y, z'
loop_
 _atom_site_type_symbol
 _atom_site_label
 _atom_site_symmetry_multiplicity
 _atom_site_fract_x
 _atom_site_fract_y
 _atom_site_fract_z
 _atom_site_occupancy
 _atom_site_charge
  K  K1  1  0.285840  0.074580  0.010470  1.0  0.947
  K  K2  1  0.785840  0.574580  0.010470  1.0  0.947
  K  K3  1  0.714160  0.074580  0.489530  1.0  0.9476
  K  K4  1  0.214160  0.574580  0.489530  1.0  0.9476
  K  K5  1  0.714160  0.925420  0.989530  1.0  0.9473
  K  K6  1  0.214160  0.425420  0.989530  1.0  0.9473
  K  K7  1  0.285840  0.925420  0.510470  1.0  0.9472
  K  K8  1  0.785840  0.425420  0.510470  1.0  0.9472
  Co  Co9  1  0.500000  0.002820  0.250000  1.0  1.0059
  Co  Co10  1  0.000000  0.502820  0.250000  1.0  1.0059
  Co  Co11  1  0.500000  0.997180  0.750000  1.0  1.0057
  Co  Co12  1  0.000000  0.497180  0.750000  1.0  1.0057
  H  H13  1  0.703400  0.752400  0.298300  1.0  0.1016
  H  H14  1  0.203400  0.252400  0.298300  1.0  0.1016
  H  H15  1  0.296600  0.752400  0.201700  1.0  0.1012
  H  H16  1  0.796600  0.252400  0.201700  1.0  0.1012
  H  H17  1  0.296600  0.247600  0.701700  1.0  0.1011
  H  H18  1  0.796600  0.747600  0.701700  1.0  0.1011
  H  H19  1  0.703400  0.247600  0.798300  1.0  0.1017
  H  H20  1  0.203400  0.747600  0.798300  1.0  0.1017
  C  C21  1  0.722100  0.751400  0.379700  1.0  -0.0381
  C  C22  1  0.667300  0.810000  0.455400  1.0  -0.0733
  C  C23  1  0.695600  0.809100  0.577400  1.0  -0.1447
  C  C24  1  0.577700  0.870600  0.399300  1.0  0.7015
  C  C25  1  0.641100  0.871300  0.664500  1.0  0.706
  C  C26  1  0.222100  0.251400  0.379700  1.0  -0.0381
  C  C27  1  0.167300  0.310000  0.455400  1.0  -0.0733
  C  C28  1  0.195600  0.309100  0.577400  1.0  -0.1447
  C  C29  1  0.077700  0.370600  0.399300  1.0  0.7015
  C  C30  1  0.141100  0.371300  0.664500  1.0  0.706
  C  C31  1  0.277900  0.751400  0.120300  1.0  -0.0378
  C  C32  1  0.332700  0.810000  0.044600  1.0  -0.0732
  C  C33  1  0.304400  0.809100  0.922600  1.0  -0.1444
  C  C34  1  0.422300  0.870600  0.100700  1.0  0.7025
  C  C35  1  0.358900  0.871300  0.835500  1.0  0.7039
  C  C36  1  0.777900  0.251400  0.120300  1.0  -0.0378
  C  C37  1  0.832700  0.310000  0.044600  1.0  -0.0732
  C  C38  1  0.804400  0.309100  0.922600  1.0  -0.1444
  C  C39  1  0.922300  0.370600  0.100700  1.0  0.7025
  C  C40  1  0.858900  0.371300  0.835500  1.0  0.7039
  C  C41  1  0.277900  0.248600  0.620300  1.0  -0.0377
  C  C42  1  0.332700  0.190000  0.544600  1.0  -0.0729
  C  C43  1  0.304400  0.190900  0.422600  1.0  -0.1457
  C  C44  1  0.422300  0.129400  0.600700  1.0  0.7017
  C  C45  1  0.358900  0.128700  0.335500  1.0  0.7032
  C  C46  1  0.777900  0.748600  0.620300  1.0  -0.0377
  C  C47  1  0.832700  0.690000  0.544600  1.0  -0.0729
  C  C48  1  0.804400  0.690900  0.422600  1.0  -0.1457
  C  C49  1  0.922300  0.629400  0.600700  1.0  0.7017
  C  C50  1  0.858900  0.628700  0.335500  1.0  0.7032
  C  C51  1  0.722100  0.248600  0.879700  1.0  -0.0387
  C  C52  1  0.667300  0.190000  0.955400  1.0  -0.0731
  C  C53  1  0.695600  0.190900  0.077400  1.0  -0.1457
  C  C54  1  0.577700  0.129400  0.899300  1.0  0.701
  C  C55  1  0.641100  0.128700  0.164500  1.0  0.7051
  C  C56  1  0.222100  0.748600  0.879700  1.0  -0.0387
  C  C57  1  0.167300  0.690000  0.955400  1.0  -0.0731
  C  C58  1  0.195600  0.690900  0.077400  1.0  -0.1457
  C  C59  1  0.077700  0.629400  0.899300  1.0  0.701
  C  C60  1  0.141100  0.628700  0.164500  1.0  0.7051
  O  O61  1  0.472000  0.851930  0.399700  1.0  -0.6948
  O  O62  1  0.620000  0.936930  0.345500  1.0  -0.6793
  O  O63  1  0.647700  0.856500  0.773400  1.0  -0.6647
  O  O64  1  0.588700  0.937390  0.620800  1.0  -0.6626
  O  O65  1  0.972000  0.351930  0.399700  1.0  -0.6948
  O  O66  1  0.120000  0.436930  0.345500  1.0  -0.6793
  O  O67  1  0.147700  0.356500  0.773400  1.0  -0.6647
  O  O68  1  0.088700  0.437390  0.620800  1.0  -0.6626
  O  O69  1  0.528000  0.851930  0.100300  1.0  -0.6952
  O  O70  1  0.380000  0.936930  0.154500  1.0  -0.6799
  O  O71  1  0.352300  0.856500  0.726600  1.0  -0.6658
  O  O72  1  0.411300  0.937390  0.879200  1.0  -0.6636
  O  O73  1  0.028000  0.351930  0.100300  1.0  -0.6952
  O  O74  1  0.880000  0.436930  0.154500  1.0  -0.6799
  O  O75  1  0.852300  0.356500  0.726600  1.0  -0.6658
  O  O76  1  0.911300  0.437390  0.879200  1.0  -0.6636
  O  O77  1  0.528000  0.148070  0.600300  1.0  -0.6944
  O  O78  1  0.380000  0.063070  0.654500  1.0  -0.6783
  O  O79  1  0.352300  0.143500  0.226600  1.0  -0.6652
  O  O80  1  0.411300  0.062610  0.379200  1.0  -0.6619
  O  O81  1  0.028000  0.648070  0.600300  1.0  -0.6944
  O  O82  1  0.880000  0.563070  0.654500  1.0  -0.6783
  O  O83  1  0.852300  0.643500  0.226600  1.0  -0.6652
  O  O84  1  0.911300  0.562610  0.379200  1.0  -0.6619
  O  O85  1  0.472000  0.148070  0.899700  1.0  -0.6958
  O  O86  1  0.620000  0.063070  0.845500  1.0  -0.6782
  O  O87  1  0.647700  0.143500  0.273400  1.0  -0.6651
  O  O88  1  0.588700  0.062610  0.120800  1.0  -0.6607
  O  O89  1  0.972000  0.648070  0.899700  1.0  -0.6958
  O  O90  1  0.120000  0.563070  0.845500  1.0  -0.6782
  O  O91  1  0.147700  0.643500  0.273400  1.0  -0.6651
  O  O92  1  0.088700  0.562610  0.120800  1.0  -0.6607
