# generated using pymatgen
data_FeH4C8O5
_symmetry_space_group_name_H-M   'P 1'
_cell_length_a   6.83510000
_cell_length_b   15.03620000
_cell_length_c   19.31970000
_cell_angle_alpha   90.00000000
_cell_angle_beta   96.30500000
_cell_angle_gamma   90.00000000
_symmetry_Int_Tables_number   1
_chemical_formula_structural   FeH4C8O5
_chemical_formula_sum   'Fe8 H32 C64 O40'
_cell_volume   1973.55159151
_cell_formula_units_Z   8
loop_
 _symmetry_equiv_pos_site_id
 _symmetry_equiv_pos_as_xyz
  1  'x, y, z'
loop_
 _atom_site_type_symbol
 _atom_site_label
 _atom_site_symmetry_multiplicity
 _atom_site_fract_x
 _atom_site_fract_y
 _atom_site_fract_z
 _atom_site_occupancy
 _atom_site_charge
  Fe  Fe1  1  0.525100  0.744200  0.505600  1.0  1.3559
  Fe  Fe2  1  0.974900  0.244200  0.494400  1.0  1.3555
  Fe  Fe3  1  0.474900  0.255800  0.494400  1.0  1.3551
  Fe  Fe4  1  0.025100  0.755800  0.505600  1.0  1.3551
  Fe  Fe5  1  0.500000  0.000000  0.000000  1.0  1.324
  Fe  Fe6  1  0.000000  0.500000  0.000000  1.0  1.324
  Fe  Fe7  1  0.500000  0.500000  0.000000  1.0  1.3493
  Fe  Fe8  1  0.000000  0.000000  0.000000  1.0  1.3493
  H  H9  1  0.483900  0.630900  0.172000  1.0  0.1213
  H  H10  1  0.458300  0.665100  0.289400  1.0  0.1138
  H  H11  1  0.038100  0.605600  0.337800  1.0  0.1196
  H  H12  1  0.063700  0.571400  0.220500  1.0  0.1087
  H  H13  1  0.473800  0.614900  0.669600  1.0  0.1211
  H  H14  1  0.442600  0.588800  0.787800  1.0  0.1098
  H  H15  1  0.026500  0.639700  0.836100  1.0  0.1208
  H  H16  1  0.057700  0.665800  0.717900  1.0  0.11
  H  H17  1  0.016100  0.130900  0.828000  1.0  0.1214
  H  H18  1  0.041700  0.165100  0.710600  1.0  0.1143
  H  H19  1  0.461900  0.105600  0.662200  1.0  0.1194
  H  H20  1  0.436300  0.071400  0.779500  1.0  0.1085
  H  H21  1  0.026200  0.114900  0.330400  1.0  0.1213
  H  H22  1  0.057400  0.088800  0.212200  1.0  0.1101
  H  H23  1  0.473500  0.139700  0.163900  1.0  0.1206
  H  H24  1  0.442300  0.165800  0.282100  1.0  0.1099
  H  H25  1  0.516100  0.369100  0.828000  1.0  0.1217
  H  H26  1  0.541700  0.334900  0.710600  1.0  0.1144
  H  H27  1  0.961900  0.394400  0.662200  1.0  0.1196
  H  H28  1  0.936300  0.428600  0.779500  1.0  0.1086
  H  H29  1  0.526200  0.385100  0.330400  1.0  0.1211
  H  H30  1  0.557400  0.411200  0.212200  1.0  0.11
  H  H31  1  0.973500  0.360300  0.163900  1.0  0.1206
  H  H32  1  0.942300  0.334200  0.282100  1.0  0.11
  H  H33  1  0.983900  0.869100  0.172000  1.0  0.1211
  H  H34  1  0.958300  0.834900  0.289400  1.0  0.1139
  H  H35  1  0.538100  0.894400  0.337800  1.0  0.1194
  H  H36  1  0.563700  0.928600  0.220500  1.0  0.1087
  H  H37  1  0.973800  0.885100  0.669600  1.0  0.1212
  H  H38  1  0.942600  0.911200  0.787800  1.0  0.1097
  H  H39  1  0.526500  0.860300  0.836100  1.0  0.1211
  H  H40  1  0.557700  0.834200  0.717900  1.0  0.1101
  C  C41  1  0.775900  0.598300  0.186500  1.0  -0.0988
  C  C42  1  0.599400  0.625600  0.206600  1.0  -0.0525
  C  C43  1  0.584500  0.645600  0.275000  1.0  -0.0621
  C  C44  1  0.746100  0.638200  0.323400  1.0  -0.0854
  C  C45  1  0.922600  0.610900  0.303300  1.0  -0.0487
  C  C46  1  0.937500  0.590900  0.234900  1.0  -0.0603
  C  C47  1  0.792400  0.576200  0.111000  1.0  0.7034
  C  C48  1  0.729600  0.660200  0.398900  1.0  0.6865
  C  C49  1  0.768400  0.642600  0.683900  1.0  -0.1001
  C  C50  1  0.589100  0.620100  0.704300  1.0  -0.0511
  C  C51  1  0.570900  0.604800  0.773200  1.0  -0.0678
  C  C52  1  0.732000  0.612000  0.821800  1.0  -0.0925
  C  C53  1  0.911300  0.634500  0.801400  1.0  -0.0594
  C  C54  1  0.929500  0.649800  0.732500  1.0  -0.0615
  C  C55  1  0.788000  0.659000  0.609500  1.0  0.6908
  C  C56  1  0.212300  0.904400  0.896200  1.0  0.6866
  C  C57  1  0.724100  0.098300  0.813500  1.0  -0.0977
  C  C58  1  0.900600  0.125600  0.793400  1.0  -0.0527
  C  C59  1  0.915500  0.145600  0.725000  1.0  -0.0612
  C  C60  1  0.753900  0.138200  0.676600  1.0  -0.0854
  C  C61  1  0.577400  0.110900  0.696700  1.0  -0.0494
  C  C62  1  0.562500  0.090900  0.765100  1.0  -0.0601
  C  C63  1  0.707600  0.076200  0.889000  1.0  0.7026
  C  C64  1  0.770400  0.160200  0.601100  1.0  0.6871
  C  C65  1  0.731600  0.142600  0.316100  1.0  -0.0998
  C  C66  1  0.910900  0.120100  0.295700  1.0  -0.0512
  C  C67  1  0.929100  0.104800  0.226800  1.0  -0.0659
  C  C68  1  0.768000  0.112000  0.178200  1.0  -0.0921
  C  C69  1  0.588700  0.134500  0.198600  1.0  -0.0596
  C  C70  1  0.570500  0.149800  0.267500  1.0  -0.0632
  C  C71  1  0.712000  0.159000  0.390500  1.0  0.6906
  C  C72  1  0.287700  0.404400  0.103800  1.0  0.6865
  C  C73  1  0.224100  0.401700  0.813500  1.0  -0.0983
  C  C74  1  0.400600  0.374400  0.793400  1.0  -0.0522
  C  C75  1  0.415500  0.354400  0.725000  1.0  -0.0611
  C  C76  1  0.253900  0.361800  0.676600  1.0  -0.0855
  C  C77  1  0.077400  0.389100  0.696700  1.0  -0.0494
  C  C78  1  0.062500  0.409100  0.765100  1.0  -0.0606
  C  C79  1  0.207600  0.423800  0.889000  1.0  0.7031
  C  C80  1  0.270400  0.339800  0.601100  1.0  0.6871
  C  C81  1  0.231600  0.357400  0.316100  1.0  -0.0999
  C  C82  1  0.410900  0.379900  0.295700  1.0  -0.0519
  C  C83  1  0.429100  0.395200  0.226800  1.0  -0.0656
  C  C84  1  0.268000  0.388000  0.178200  1.0  -0.092
  C  C85  1  0.088700  0.365500  0.198600  1.0  -0.0596
  C  C86  1  0.070500  0.350200  0.267500  1.0  -0.0631
  C  C87  1  0.212000  0.341000  0.390500  1.0  0.6902
  C  C88  1  0.787700  0.095600  0.103800  1.0  0.6867
  C  C89  1  0.275900  0.901700  0.186500  1.0  -0.0989
  C  C90  1  0.099400  0.874400  0.206600  1.0  -0.0527
  C  C91  1  0.084500  0.854400  0.275000  1.0  -0.0618
  C  C92  1  0.246100  0.861800  0.323400  1.0  -0.0856
  C  C93  1  0.422600  0.889100  0.303300  1.0  -0.0494
  C  C94  1  0.437500  0.909100  0.234900  1.0  -0.0606
  C  C95  1  0.292400  0.923800  0.111000  1.0  0.7029
  C  C96  1  0.229600  0.839800  0.398900  1.0  0.6859
  C  C97  1  0.268400  0.857400  0.683900  1.0  -0.1002
  C  C98  1  0.089100  0.879900  0.704300  1.0  -0.0515
  C  C99  1  0.070900  0.895200  0.773200  1.0  -0.0676
  C  C100  1  0.232000  0.888000  0.821800  1.0  -0.0924
  C  C101  1  0.411300  0.865500  0.801400  1.0  -0.0591
  C  C102  1  0.429500  0.850200  0.732500  1.0  -0.0615
  C  C103  1  0.288000  0.841000  0.609500  1.0  0.691
  C  C104  1  0.712300  0.595600  0.896200  1.0  0.6855
  O  O105  1  0.278600  0.688400  0.505400  1.0  -0.5897
  O  O106  1  0.744400  0.933400  0.999600  1.0  -0.5702
  O  O107  1  0.640000  0.577400  0.067000  1.0  -0.5674
  O  O108  1  0.958500  0.556600  0.091500  1.0  -0.5341
  O  O109  1  0.567800  0.688300  0.417100  1.0  -0.5372
  O  O110  1  0.377700  0.849400  0.444100  1.0  -0.5602
  O  O111  1  0.639500  0.650700  0.564300  1.0  -0.5414
  O  O112  1  0.453400  0.818500  0.590800  1.0  -0.5513
  O  O113  1  0.044900  0.922300  0.915400  1.0  -0.5387
  O  O114  1  0.362900  0.900700  0.940900  1.0  -0.5541
  O  O115  1  0.221400  0.188400  0.494600  1.0  -0.5902
  O  O116  1  0.755600  0.433400  0.000400  1.0  -0.57
  O  O117  1  0.860000  0.077400  0.933000  1.0  -0.5672
  O  O118  1  0.541500  0.056600  0.908500  1.0  -0.5326
  O  O119  1  0.932200  0.188300  0.582900  1.0  -0.5383
  O  O120  1  0.122300  0.349400  0.555900  1.0  -0.5605
  O  O121  1  0.860500  0.150700  0.435700  1.0  -0.5391
  O  O122  1  0.046600  0.318500  0.409200  1.0  -0.5496
  O  O123  1  0.455100  0.422300  0.084600  1.0  -0.54
  O  O124  1  0.137100  0.400700  0.059100  1.0  -0.5544
  O  O125  1  0.721400  0.311600  0.494600  1.0  -0.5885
  O  O126  1  0.255600  0.066600  0.000400  1.0  -0.569
  O  O127  1  0.360000  0.422600  0.933000  1.0  -0.5661
  O  O128  1  0.041500  0.443400  0.908500  1.0  -0.5342
  O  O129  1  0.432200  0.311700  0.582900  1.0  -0.5386
  O  O130  1  0.622300  0.150600  0.555900  1.0  -0.5614
  O  O131  1  0.360500  0.349300  0.435700  1.0  -0.5405
  O  O132  1  0.546600  0.181500  0.409200  1.0  -0.5506
  O  O133  1  0.955100  0.077700  0.084600  1.0  -0.5399
  O  O134  1  0.637100  0.099300  0.059100  1.0  -0.5553
  O  O135  1  0.778600  0.811600  0.505400  1.0  -0.5883
  O  O136  1  0.244400  0.566600  0.999600  1.0  -0.5689
  O  O137  1  0.140000  0.922600  0.067000  1.0  -0.5669
  O  O138  1  0.458500  0.943400  0.091500  1.0  -0.5356
  O  O139  1  0.067800  0.811700  0.417100  1.0  -0.5375
  O  O140  1  0.877700  0.650600  0.444100  1.0  -0.5605
  O  O141  1  0.139500  0.849300  0.564300  1.0  -0.5433
  O  O142  1  0.953400  0.681500  0.590800  1.0  -0.5525
  O  O143  1  0.544900  0.577700  0.915400  1.0  -0.5393
  O  O144  1  0.862900  0.599300  0.940900  1.0  -0.5542
