# generated using pymatgen
data_NiH12C18(NO)4
_symmetry_space_group_name_H-M   'P 1'
_cell_length_a   14.49620000
_cell_length_b   14.49620000
_cell_length_c   16.11400000
_cell_angle_alpha   91.06980000
_cell_angle_beta   91.06980000
_cell_angle_gamma   94.76370000
_symmetry_Int_Tables_number   1
_chemical_formula_structural   NiH12C18(NO)4
_chemical_formula_sum   'Ni6 H72 C108 N24 O24'
_cell_volume   3373.21287489
_cell_formula_units_Z   6
loop_
 _symmetry_equiv_pos_site_id
 _symmetry_equiv_pos_as_xyz
  1  'x, y, z'
loop_
 _atom_site_type_symbol
 _atom_site_label
 _atom_site_symmetry_multiplicity
 _atom_site_fract_x
 _atom_site_fract_y
 _atom_site_fract_z
 _atom_site_occupancy
 _atom_site_charge
  Ni  Ni1  1  0.479690  0.186830  0.385720  1.0  0.7661
  Ni  Ni2  1  0.813170  0.520310  0.114280  1.0  0.7594
  Ni  Ni3  1  0.520310  0.813170  0.614280  1.0  0.7566
  Ni  Ni4  1  0.186830  0.479690  0.885720  1.0  0.763
  Ni  Ni5  1  0.883400  0.116600  0.250000  1.0  0.7419
  Ni  Ni6  1  0.116600  0.883400  0.750000  1.0  0.743
  H  H7  1  0.369400  0.039200  0.284700  1.0  0.1025
  H  H8  1  0.719800  0.995600  0.143700  1.0  0.0938
  H  H9  1  0.072200  0.262000  0.067900  1.0  0.0997
  H  H10  1  0.761200  0.264600  0.168500  1.0  0.0995
  H  H11  1  0.214800  0.169600  0.259500  1.0  0.1037
  H  H12  1  0.345300  0.330300  0.090800  1.0  0.114
  H  H13  1  0.301700  0.611900  0.005600  1.0  0.0949
  H  H14  1  0.032500  0.593900  0.992500  1.0  0.0965
  H  H15  1  0.080700  0.717100  0.094200  1.0  0.1352
  H  H16  1  0.635800  0.038600  0.323400  1.0  0.106
  H  H17  1  0.643200  0.941400  0.005300  1.0  0.1172
  H  H18  1  0.586000  0.896600  0.244400  1.0  0.1328
  H  H19  1  0.476100  0.134500  0.072100  1.0  0.1007
  H  H20  1  0.625300  0.233100  0.076800  1.0  0.1326
  H  H21  1  0.295600  0.960600  0.183300  1.0  0.1143
  H  H22  1  0.371700  0.666500  0.138200  1.0  0.1037
  H  H23  1  0.470600  0.770200  0.214000  1.0  0.119
  H  H24  1  0.195600  0.855200  0.110000  1.0  0.1184
  H  H25  1  0.960800  0.630600  0.215300  1.0  0.1018
  H  H26  1  0.004400  0.280200  0.356300  1.0  0.095
  H  H27  1  0.738000  0.927800  0.432100  1.0  0.0986
  H  H28  1  0.735400  0.238800  0.331500  1.0  0.1008
  H  H29  1  0.830400  0.785200  0.240500  1.0  0.103
  H  H30  1  0.669700  0.654700  0.409200  1.0  0.1151
  H  H31  1  0.388100  0.698300  0.494400  1.0  0.095
  H  H32  1  0.406100  0.967500  0.507500  1.0  0.0983
  H  H33  1  0.282900  0.919300  0.405800  1.0  0.1353
  H  H34  1  0.961400  0.364200  0.176600  1.0  0.1057
  H  H35  1  0.058600  0.356800  0.494700  1.0  0.1163
  H  H36  1  0.103400  0.414000  0.255600  1.0  0.1334
  H  H37  1  0.865500  0.523900  0.427900  1.0  0.1018
  H  H38  1  0.766900  0.374700  0.423200  1.0  0.1327
  H  H39  1  0.039400  0.704400  0.316700  1.0  0.1145
  H  H40  1  0.333500  0.628300  0.361800  1.0  0.1013
  H  H41  1  0.229800  0.529400  0.286000  1.0  0.1185
  H  H42  1  0.144800  0.804400  0.390000  1.0  0.1197
  H  H43  1  0.630600  0.960800  0.715300  1.0  0.1023
  H  H44  1  0.280200  0.004400  0.856300  1.0  0.094
  H  H45  1  0.927800  0.738000  0.932100  1.0  0.0993
  H  H46  1  0.238800  0.735400  0.831500  1.0  0.0996
  H  H47  1  0.785200  0.830400  0.740500  1.0  0.1036
  H  H48  1  0.654700  0.669700  0.909200  1.0  0.1137
  H  H49  1  0.698300  0.388100  0.994400  1.0  0.096
  H  H50  1  0.967500  0.406100  0.007500  1.0  0.0972
  H  H51  1  0.919300  0.282900  0.905800  1.0  0.1354
  H  H52  1  0.364200  0.961400  0.676600  1.0  0.1056
  H  H53  1  0.356800  0.058600  0.994700  1.0  0.117
  H  H54  1  0.414000  0.103400  0.755600  1.0  0.1331
  H  H55  1  0.523900  0.865500  0.927900  1.0  0.1011
  H  H56  1  0.374700  0.766900  0.923200  1.0  0.1322
  H  H57  1  0.704400  0.039400  0.816700  1.0  0.1143
  H  H58  1  0.628300  0.333500  0.861800  1.0  0.1028
  H  H59  1  0.529400  0.229800  0.786000  1.0  0.1178
  H  H60  1  0.804400  0.144800  0.890000  1.0  0.1197
  H  H61  1  0.039200  0.369400  0.784700  1.0  0.1014
  H  H62  1  0.995600  0.719800  0.643700  1.0  0.0942
  H  H63  1  0.262000  0.072200  0.567900  1.0  0.0985
  H  H64  1  0.264600  0.761200  0.668500  1.0  0.1005
  H  H65  1  0.169600  0.214800  0.759500  1.0  0.1034
  H  H66  1  0.330300  0.345300  0.590800  1.0  0.1145
  H  H67  1  0.611900  0.301700  0.505600  1.0  0.094
  H  H68  1  0.593900  0.032500  0.492500  1.0  0.0975
  H  H69  1  0.717100  0.080700  0.594200  1.0  0.136
  H  H70  1  0.038600  0.635800  0.823400  1.0  0.1061
  H  H71  1  0.941400  0.643200  0.505300  1.0  0.117
  H  H72  1  0.896600  0.586000  0.744400  1.0  0.134
  H  H73  1  0.134500  0.476100  0.572100  1.0  0.1025
  H  H74  1  0.233100  0.625300  0.576800  1.0  0.1332
  H  H75  1  0.960600  0.295600  0.683300  1.0  0.1137
  H  H76  1  0.666500  0.371700  0.638200  1.0  0.1022
  H  H77  1  0.770200  0.470600  0.714000  1.0  0.1177
  H  H78  1  0.855200  0.195600  0.610000  1.0  0.1197
  C  C79  1  0.429700  0.021700  0.284500  1.0  0.1423
  C  C80  1  0.041000  0.165000  0.201300  1.0  0.6675
  C  C81  1  0.202700  0.367700  0.995400  1.0  0.6547
  C  C82  1  0.712900  0.058700  0.139500  1.0  0.1454
  C  C83  1  0.393000  0.876000  0.204200  1.0  0.1168
  C  C84  1  0.127700  0.259500  0.097300  1.0  -0.0118
  C  C85  1  0.129600  0.208600  0.168600  1.0  -0.1711
  C  C86  1  0.735000  0.206200  0.152400  1.0  0.0287
  C  C87  1  0.274800  0.751200  0.116400  1.0  0.1623
  C  C88  1  0.207700  0.307100  0.068600  1.0  -0.1571
  C  C89  1  0.213000  0.203600  0.211200  1.0  0.018
  C  C90  1  0.293100  0.248700  0.182600  1.0  -0.1433
  C  C91  1  0.291100  0.300500  0.110600  1.0  0.0053
  C  C92  1  0.240300  0.622700  0.014800  1.0  0.1406
  C  C93  1  0.093300  0.613100  0.007700  1.0  0.0456
  C  C94  1  0.119300  0.681300  0.064300  1.0  -0.1407
  C  C95  1  0.571400  0.045800  0.046800  1.0  0.1481
  C  C96  1  0.382700  0.246700  0.231700  1.0  0.7016
  C  C97  1  0.575500  0.020900  0.305400  1.0  0.0452
  C  C98  1  0.585500  0.965100  0.003300  1.0  -0.1484
  C  C99  1  0.548700  0.942100  0.261900  1.0  -0.1496
  C  C100  1  0.485900  0.080300  0.043100  1.0  -0.1653
  C  C101  1  0.659900  0.189300  0.101400  1.0  -0.1433
  C  C102  1  0.311800  0.900600  0.174300  1.0  -0.1159
  C  C103  1  0.355600  0.726600  0.147300  1.0  -0.1262
  C  C104  1  0.415300  0.788700  0.192200  1.0  -0.1392
  C  C105  1  0.251800  0.837400  0.130100  1.0  -0.1529
  C  C106  1  0.978300  0.570300  0.215500  1.0  0.1425
  C  C107  1  0.835000  0.959000  0.298700  1.0  0.664
  C  C108  1  0.632300  0.797300  0.504600  1.0  0.6539
  C  C109  1  0.941300  0.287100  0.360500  1.0  0.1456
  C  C110  1  0.124000  0.607000  0.295800  1.0  0.1158
  C  C111  1  0.740500  0.872300  0.402700  1.0  -0.0099
  C  C112  1  0.791400  0.870400  0.331400  1.0  -0.1725
  C  C113  1  0.793800  0.265000  0.347600  1.0  0.0314
  C  C114  1  0.248800  0.725200  0.383600  1.0  0.1618
  C  C115  1  0.692900  0.792300  0.431400  1.0  -0.1596
  C  C116  1  0.796400  0.787000  0.288800  1.0  0.0154
  C  C117  1  0.751300  0.706900  0.317400  1.0  -0.1439
  C  C118  1  0.699500  0.708900  0.389400  1.0  0.004
  C  C119  1  0.377300  0.759700  0.485200  1.0  0.1395
  C  C120  1  0.386900  0.906700  0.492300  1.0  0.0434
  C  C121  1  0.318700  0.880700  0.435700  1.0  -0.1399
  C  C122  1  0.954200  0.428600  0.453200  1.0  0.1494
  C  C123  1  0.753300  0.617300  0.268300  1.0  0.704
  C  C124  1  0.979100  0.424500  0.194600  1.0  0.0446
  C  C125  1  0.034900  0.414500  0.496700  1.0  -0.1455
  C  C126  1  0.057900  0.451300  0.238100  1.0  -0.1486
  C  C127  1  0.919700  0.514100  0.456900  1.0  -0.1628
  C  C128  1  0.810700  0.340100  0.398600  1.0  -0.14
  C  C129  1  0.099400  0.688200  0.325700  1.0  -0.1173
  C  C130  1  0.273400  0.644400  0.352700  1.0  -0.1237
  C  C131  1  0.211300  0.584700  0.307800  1.0  -0.1411
  C  C132  1  0.162600  0.748200  0.369900  1.0  -0.1553
  C  C133  1  0.570300  0.978300  0.715500  1.0  0.1425
  C  C134  1  0.959000  0.835000  0.798700  1.0  0.6687
  C  C135  1  0.797300  0.632300  0.004600  1.0  0.6542
  C  C136  1  0.287100  0.941300  0.860500  1.0  0.1451
  C  C137  1  0.607000  0.124000  0.795800  1.0  0.1175
  C  C138  1  0.872300  0.740500  0.902700  1.0  -0.011
  C  C139  1  0.870400  0.791400  0.831400  1.0  -0.1684
  C  C140  1  0.265000  0.793800  0.847600  1.0  0.0293
  C  C141  1  0.725200  0.248800  0.883600  1.0  0.1615
  C  C142  1  0.792300  0.692900  0.931400  1.0  -0.1577
  C  C143  1  0.787000  0.796400  0.788800  1.0  0.0183
  C  C144  1  0.706900  0.751300  0.817400  1.0  -0.1439
  C  C145  1  0.708900  0.699500  0.889400  1.0  0.0058
  C  C146  1  0.759700  0.377300  0.985200  1.0  0.141
  C  C147  1  0.906700  0.386900  0.992300  1.0  0.0459
  C  C148  1  0.880700  0.318700  0.935700  1.0  -0.141
  C  C149  1  0.428600  0.954200  0.953200  1.0  0.148
  C  C150  1  0.617300  0.753300  0.768300  1.0  0.7015
  C  C151  1  0.424500  0.979100  0.694600  1.0  0.0455
  C  C152  1  0.414500  0.034900  0.996700  1.0  -0.1459
  C  C153  1  0.451300  0.057900  0.738100  1.0  -0.1493
  C  C154  1  0.514100  0.919700  0.956900  1.0  -0.1646
  C  C155  1  0.340100  0.810700  0.898600  1.0  -0.1427
  C  C156  1  0.688200  0.099400  0.825700  1.0  -0.1144
  C  C157  1  0.644400  0.273400  0.852700  1.0  -0.1258
  C  C158  1  0.584700  0.211300  0.807800  1.0  -0.1421
  C  C159  1  0.748200  0.162600  0.869900  1.0  -0.1547
  C  C160  1  0.021700  0.429700  0.784500  1.0  0.1418
  C  C161  1  0.165000  0.041000  0.701300  1.0  0.6641
  C  C162  1  0.367700  0.202700  0.495400  1.0  0.653
  C  C163  1  0.058700  0.712900  0.639500  1.0  0.1454
  C  C164  1  0.876000  0.393000  0.704200  1.0  0.1147
  C  C165  1  0.259500  0.127700  0.597300  1.0  -0.0094
  C  C166  1  0.208600  0.129600  0.668600  1.0  -0.1721
  C  C167  1  0.206200  0.735000  0.652400  1.0  0.0318
  C  C168  1  0.751200  0.274800  0.616400  1.0  0.1621
  C  C169  1  0.307100  0.207700  0.568600  1.0  -0.1579
  C  C170  1  0.203600  0.213000  0.711200  1.0  0.0153
  C  C171  1  0.248700  0.293100  0.682600  1.0  -0.1441
  C  C172  1  0.300500  0.291100  0.610600  1.0  0.0037
  C  C173  1  0.622700  0.240300  0.514800  1.0  0.1382
  C  C174  1  0.613100  0.093300  0.507700  1.0  0.0426
  C  C175  1  0.681300  0.119300  0.564300  1.0  -0.1392
  C  C176  1  0.045800  0.571400  0.546800  1.0  0.1494
  C  C177  1  0.246700  0.382700  0.731700  1.0  0.7045
  C  C178  1  0.020900  0.575500  0.805400  1.0  0.0453
  C  C179  1  0.965100  0.585500  0.503300  1.0  -0.144
  C  C180  1  0.942100  0.548700  0.761900  1.0  -0.1496
  C  C181  1  0.080300  0.485900  0.543100  1.0  -0.1636
  C  C182  1  0.189300  0.659900  0.601400  1.0  -0.139
  C  C183  1  0.900600  0.311800  0.674300  1.0  -0.1174
  C  C184  1  0.726600  0.355600  0.647300  1.0  -0.1229
  C  C185  1  0.788700  0.415300  0.692200  1.0  -0.1417
  C  C186  1  0.837400  0.251800  0.630100  1.0  -0.1566
  N  N187  1  0.766900  0.123700  0.176900  1.0  -0.3572
  N  N188  1  0.645300  0.094700  0.093400  1.0  0.0345
  N  N189  1  0.169700  0.577300  0.976500  1.0  -0.3617
  N  N190  1  0.214200  0.686600  0.068600  1.0  0.0373
  N  N191  1  0.501500  0.070300  0.318700  1.0  -0.3539
  N  N192  1  0.455000  0.943000  0.249100  1.0  0.0393
  N  N193  1  0.876300  0.233100  0.323100  1.0  -0.3578
  N  N194  1  0.905300  0.354700  0.406600  1.0  0.0358
  N  N195  1  0.422700  0.830300  0.523500  1.0  -0.36
  N  N196  1  0.313400  0.785800  0.431400  1.0  0.0379
  N  N197  1  0.929700  0.498500  0.181300  1.0  -0.3528
  N  N198  1  0.057000  0.545000  0.250900  1.0  0.0393
  N  N199  1  0.233100  0.876300  0.823100  1.0  -0.3619
  N  N200  1  0.354700  0.905300  0.906600  1.0  0.0344
  N  N201  1  0.830300  0.422700  0.023500  1.0  -0.3617
  N  N202  1  0.785800  0.313400  0.931400  1.0  0.0381
  N  N203  1  0.498500  0.929700  0.681300  1.0  -0.353
  N  N204  1  0.545000  0.057000  0.750900  1.0  0.0396
  N  N205  1  0.123700  0.766900  0.676900  1.0  -0.3573
  N  N206  1  0.094700  0.645300  0.593400  1.0  0.0357
  N  N207  1  0.577300  0.169700  0.476500  1.0  -0.3636
  N  N208  1  0.686600  0.214200  0.568600  1.0  0.0378
  N  N209  1  0.070300  0.501500  0.818700  1.0  -0.3523
  N  N210  1  0.943000  0.455000  0.749100  1.0  0.039
  O  O211  1  0.966730  0.172030  0.160200  1.0  -0.5614
  O  O212  1  0.038040  0.125900  0.270400  1.0  -0.5717
  O  O213  1  0.126640  0.374320  0.959400  1.0  -0.5796
  O  O214  1  0.274760  0.415780  0.972200  1.0  -0.5511
  O  O215  1  0.457100  0.276100  0.198700  1.0  -0.5492
  O  O216  1  0.377310  0.213990  0.302300  1.0  -0.602
  O  O217  1  0.827970  0.033270  0.339800  1.0  -0.5643
  O  O218  1  0.874100  0.961960  0.229600  1.0  -0.5694
  O  O219  1  0.625680  0.873360  0.540600  1.0  -0.5816
  O  O220  1  0.584220  0.725240  0.527800  1.0  -0.5549
  O  O221  1  0.723900  0.542900  0.301300  1.0  -0.548
  O  O222  1  0.786010  0.622690  0.197700  1.0  -0.603
  O  O223  1  0.033270  0.827970  0.839800  1.0  -0.5625
  O  O224  1  0.961960  0.874100  0.729600  1.0  -0.5702
  O  O225  1  0.873360  0.625680  0.040600  1.0  -0.5773
  O  O226  1  0.725240  0.584220  0.027800  1.0  -0.5501
  O  O227  1  0.542900  0.723900  0.801300  1.0  -0.5486
  O  O228  1  0.622690  0.786010  0.697700  1.0  -0.6011
  O  O229  1  0.172030  0.966730  0.660200  1.0  -0.5629
  O  O230  1  0.125900  0.038040  0.770400  1.0  -0.5703
  O  O231  1  0.374320  0.126640  0.459400  1.0  -0.578
  O  O232  1  0.415780  0.274760  0.472200  1.0  -0.5517
  O  O233  1  0.276100  0.457100  0.698700  1.0  -0.5452
  O  O234  1  0.213990  0.377310  0.802300  1.0  -0.6032
