# generated using pymatgen
data_Sm2CuH8C24(NO2)8
_symmetry_space_group_name_H-M   'P 1'
_cell_length_a   6.10690000
_cell_length_b   12.14120000
_cell_length_c   22.60250000
_cell_angle_alpha   90.00000000
_cell_angle_beta   90.00000000
_cell_angle_gamma   90.57050000
_symmetry_Int_Tables_number   1
_chemical_formula_structural   Sm2CuH8C24(NO2)8
_chemical_formula_sum   'Sm4 Cu2 H16 C48 N16 O32'
_cell_volume   1675.78141827
_cell_formula_units_Z   2
loop_
 _symmetry_equiv_pos_site_id
 _symmetry_equiv_pos_as_xyz
  1  'x, y, z'
loop_
 _atom_site_type_symbol
 _atom_site_label
 _atom_site_symmetry_multiplicity
 _atom_site_fract_x
 _atom_site_fract_y
 _atom_site_fract_z
 _atom_site_occupancy
 _atom_site_charge
  Sm  Sm1  1  0.454180  0.943050  0.850900  1.0  2.2394
  Sm  Sm2  1  0.954180  0.443050  0.649100  1.0  2.2439
  Sm  Sm3  1  0.045820  0.556950  0.350900  1.0  2.2397
  Sm  Sm4  1  0.545820  0.056950  0.149100  1.0  2.2464
  Cu  Cu5  1  0.500000  0.000000  0.500000  1.0  0.9515
  Cu  Cu6  1  0.000000  0.500000  0.000000  1.0  0.9515
  H  H7  1  0.670300  0.109300  0.383100  1.0  0.1074
  H  H8  1  0.063900  0.250000  0.158000  1.0  0.088
  H  H9  1  0.038800  0.923300  0.678200  1.0  0.0768
  H  H10  1  0.538800  0.423300  0.821800  1.0  0.0768
  H  H11  1  0.461200  0.576700  0.178200  1.0  0.077
  H  H12  1  0.329700  0.890700  0.616900  1.0  0.1077
  H  H13  1  0.426200  0.892400  0.287300  1.0  0.0792
  H  H14  1  0.829700  0.390700  0.883100  1.0  0.1078
  H  H15  1  0.961200  0.076700  0.321800  1.0  0.0772
  H  H16  1  0.563900  0.750000  0.342000  1.0  0.0883
  H  H17  1  0.170300  0.609300  0.116900  1.0  0.1075
  H  H18  1  0.926200  0.392400  0.212700  1.0  0.0793
  H  H19  1  0.073800  0.607600  0.787300  1.0  0.079
  H  H20  1  0.436100  0.250000  0.658000  1.0  0.0882
  H  H21  1  0.936100  0.750000  0.842000  1.0  0.0878
  H  H22  1  0.573800  0.107600  0.712700  1.0  0.0793
  C  C23  1  0.540800  0.715400  0.755810  1.0  0.0994
  C  C24  1  0.766600  0.052800  0.391960  1.0  0.127
  C  C25  1  0.459200  0.284600  0.244190  1.0  0.0994
  C  C26  1  0.340100  0.777900  0.736340  1.0  0.6406
  C  C27  1  0.280500  0.697700  0.922780  1.0  0.6978
  C  C28  1  0.840100  0.277900  0.763660  1.0  0.6406
  C  C29  1  0.066300  0.367100  0.220860  1.0  0.1489
  C  C30  1  0.123400  0.091000  0.548550  1.0  0.0096
  C  C31  1  0.546800  0.389300  0.087080  1.0  0.1433
  C  C32  1  0.525300  0.456400  0.311880  1.0  0.6738
  C  C33  1  0.376600  0.409000  0.048550  1.0  0.0102
  C  C34  1  0.645800  0.778700  0.310800  1.0  0.1462
  C  C35  1  0.611300  0.618400  0.728430  1.0  0.0473
  C  C36  1  0.933700  0.632900  0.779140  1.0  0.1458
  C  C37  1  0.559500  0.468100  0.854700  1.0  0.1644
  C  C38  1  0.440500  0.531900  0.145300  1.0  0.165
  C  C39  1  0.059500  0.968100  0.645300  1.0  0.1649
  C  C40  1  0.233400  0.947200  0.608040  1.0  0.1275
  C  C41  1  0.111300  0.118400  0.771570  1.0  0.0496
  C  C42  1  0.659900  0.222100  0.263660  1.0  0.6423
  C  C43  1  0.959200  0.784600  0.255810  1.0  0.0991
  C  C44  1  0.876600  0.909000  0.451450  1.0  0.0106
  C  C45  1  0.040800  0.215400  0.744190  1.0  0.0992
  C  C46  1  0.974700  0.043600  0.811880  1.0  0.6725
  C  C47  1  0.159900  0.722100  0.236340  1.0  0.6419
  C  C48  1  0.173600  0.153900  0.492170  1.0  0.6314
  C  C49  1  0.719500  0.302300  0.077220  1.0  0.6993
  C  C50  1  0.780500  0.197700  0.577220  1.0  0.7006
  C  C51  1  0.474700  0.543600  0.688120  1.0  0.6765
  C  C52  1  0.940500  0.031900  0.354700  1.0  0.165
  C  C53  1  0.453200  0.610700  0.912920  1.0  0.143
  C  C54  1  0.266600  0.552800  0.108040  1.0  0.1267
  C  C55  1  0.354200  0.221300  0.689200  1.0  0.1462
  C  C56  1  0.219500  0.802300  0.422780  1.0  0.7003
  C  C57  1  0.854200  0.721300  0.810800  1.0  0.1467
  C  C58  1  0.326400  0.346100  0.992170  1.0  0.6303
  C  C59  1  0.826400  0.846100  0.507830  1.0  0.6305
  C  C60  1  0.046800  0.889300  0.412920  1.0  0.1432
  C  C61  1  0.623400  0.591000  0.951450  1.0  0.0105
  C  C62  1  0.953200  0.110700  0.587080  1.0  0.1431
  C  C63  1  0.388700  0.381600  0.271570  1.0  0.0491
  C  C64  1  0.433700  0.132900  0.720860  1.0  0.1492
  C  C65  1  0.566300  0.867100  0.279140  1.0  0.1452
  C  C66  1  0.145800  0.278700  0.189200  1.0  0.1458
  C  C67  1  0.025300  0.956400  0.188120  1.0  0.6756
  C  C68  1  0.888700  0.881600  0.228430  1.0  0.0473
  C  C69  1  0.673600  0.653900  0.007830  1.0  0.6287
  C  C70  1  0.733400  0.447200  0.891960  1.0  0.1273
  N  N71  1  0.764000  0.507400  0.940300  1.0  -0.2931
  N  N72  1  0.338500  0.233600  0.202720  1.0  -0.4476
  N  N73  1  0.264000  0.007400  0.559700  1.0  -0.294
  N  N74  1  0.815900  0.582900  0.737380  1.0  -0.4125
  N  N75  1  0.236000  0.492600  0.059700  1.0  -0.2948
  N  N76  1  0.919900  0.050500  0.635830  1.0  -0.4395
  N  N77  1  0.838500  0.733600  0.297280  1.0  -0.4469
  N  N78  1  0.736000  0.992600  0.440300  1.0  -0.2935
  N  N79  1  0.684100  0.917100  0.237380  1.0  -0.4113
  N  N80  1  0.419900  0.550500  0.864170  1.0  -0.4437
  N  N81  1  0.661500  0.766400  0.797280  1.0  -0.4484
  N  N82  1  0.315900  0.082900  0.762620  1.0  -0.411
  N  N83  1  0.184100  0.417100  0.262620  1.0  -0.4112
  N  N84  1  0.161500  0.266400  0.702720  1.0  -0.4484
  N  N85  1  0.080100  0.949500  0.364170  1.0  -0.4435
  N  N86  1  0.580100  0.449500  0.135830  1.0  -0.444
  O  O87  1  0.282790  0.520790  0.701200  1.0  -0.697
  O  O88  1  0.625300  0.170900  0.544730  1.0  -0.6222
  O  O89  1  0.721100  0.146300  0.229850  1.0  -0.608
  O  O90  1  0.717210  0.479210  0.298800  1.0  -0.6969
  O  O91  1  0.800400  0.285800  0.605050  1.0  -0.7369
  O  O92  1  0.740600  0.246300  0.312250  1.0  -0.553
  O  O93  1  0.572800  0.739800  0.017510  1.0  -0.5515
  O  O94  1  0.778900  0.353700  0.729850  1.0  -0.6076
  O  O95  1  0.427200  0.260200  0.982490  1.0  -0.5511
  O  O96  1  0.374700  0.829100  0.455270  1.0  -0.6237
  O  O97  1  0.300400  0.785800  0.894950  1.0  -0.739
  O  O98  1  0.240600  0.746300  0.187750  1.0  -0.5552
  O  O99  1  0.259400  0.753700  0.687750  1.0  -0.5563
  O  O100  1  0.699600  0.214200  0.105050  1.0  -0.7367
  O  O101  1  0.199600  0.714200  0.394950  1.0  -0.7394
  O  O102  1  0.759400  0.253700  0.812250  1.0  -0.5547
  O  O103  1  0.182600  0.389300  0.959090  1.0  -0.5678
  O  O104  1  0.125300  0.670900  0.955270  1.0  -0.6224
  O  O105  1  0.317400  0.110700  0.459090  1.0  -0.5687
  O  O106  1  0.874700  0.329100  0.044730  1.0  -0.624
  O  O107  1  0.072800  0.239800  0.482490  1.0  -0.5521
  O  O108  1  0.920900  0.996400  0.144860  1.0  -0.6641
  O  O109  1  0.927200  0.760200  0.517510  1.0  -0.5504
  O  O110  1  0.079100  0.003600  0.855140  1.0  -0.6658
  O  O111  1  0.817400  0.610700  0.040910  1.0  -0.5692
  O  O112  1  0.682600  0.889300  0.540910  1.0  -0.5681
  O  O113  1  0.782790  0.020790  0.798800  1.0  -0.6971
  O  O114  1  0.217210  0.979210  0.201200  1.0  -0.697
  O  O115  1  0.579100  0.503600  0.644860  1.0  -0.6657
  O  O116  1  0.420900  0.496400  0.355140  1.0  -0.6652
  O  O117  1  0.221100  0.646300  0.270150  1.0  -0.6082
  O  O118  1  0.278900  0.853700  0.770150  1.0  -0.6096
