# generated using pymatgen
data_Tb2CuH8C24(NO2)8
_symmetry_space_group_name_H-M   'P 1'
_cell_length_a   6.11560000
_cell_length_b   12.41900000
_cell_length_c   23.42600000
_cell_angle_alpha   90.00000000
_cell_angle_beta   90.00000000
_cell_angle_gamma   94.42860000
_symmetry_Int_Tables_number   1
_chemical_formula_structural   Tb2CuH8C24(NO2)8
_chemical_formula_sum   'Tb4 Cu2 H16 C48 N16 O32'
_cell_volume   1773.88409431
_cell_formula_units_Z   2
loop_
 _symmetry_equiv_pos_site_id
 _symmetry_equiv_pos_as_xyz
  1  'x, y, z'
loop_
 _atom_site_type_symbol
 _atom_site_label
 _atom_site_symmetry_multiplicity
 _atom_site_fract_x
 _atom_site_fract_y
 _atom_site_fract_z
 _atom_site_occupancy
 _atom_site_charge
  Tb  Tb1  1  0.991990  0.891410  0.332730  1.0  2.2409
  Tb  Tb2  1  0.008010  0.108590  0.667270  1.0  2.2406
  Tb  Tb3  1  0.508010  0.608590  0.832730  1.0  2.2379
  Tb  Tb4  1  0.491990  0.391410  0.167270  1.0  2.2393
  Cu  Cu5  1  0.000000  0.000000  0.000000  1.0  0.8593
  Cu  Cu6  1  0.500000  0.500000  0.500000  1.0  0.8593
  H  H7  1  0.828900  0.856800  0.104200  1.0  0.0863
  H  H8  1  0.443300  0.129000  0.829200  1.0  0.0774
  H  H9  1  0.027500  0.775100  0.837000  1.0  0.0813
  H  H10  1  0.527500  0.275100  0.663000  1.0  0.0813
  H  H11  1  0.109300  0.076600  0.206300  1.0  0.0763
  H  H12  1  0.328900  0.356800  0.395800  1.0  0.0865
  H  H13  1  0.556700  0.871000  0.170800  1.0  0.0782
  H  H14  1  0.609300  0.576600  0.293700  1.0  0.0761
  H  H15  1  0.890700  0.923400  0.793700  1.0  0.0761
  H  H16  1  0.943300  0.629000  0.670800  1.0  0.0776
  H  H17  1  0.972500  0.224900  0.163000  1.0  0.0814
  H  H18  1  0.472500  0.724900  0.337000  1.0  0.0809
  H  H19  1  0.056700  0.371000  0.329200  1.0  0.0778
  H  H20  1  0.171100  0.143200  0.895800  1.0  0.0856
  H  H21  1  0.390700  0.423400  0.706300  1.0  0.0764
  H  H22  1  0.671100  0.643200  0.604200  1.0  0.0854
  C  C23  1  0.364500  0.935300  0.943300  1.0  0.066
  C  C24  1  0.519000  0.991100  0.304000  1.0  0.6924
  C  C25  1  0.635500  0.064700  0.056700  1.0  0.0654
  C  C26  1  0.317800  0.859000  0.992100  1.0  0.6332
  C  C27  1  0.968900  0.572600  0.403300  1.0  0.1021
  C  C28  1  0.585800  0.767900  0.721500  1.0  0.6667
  C  C29  1  0.604500  0.309500  0.692900  1.0  0.1407
  C  C30  1  0.307900  0.157900  0.095000  1.0  0.7028
  C  C31  1  0.426700  0.078100  0.858400  1.0  0.1553
  C  C32  1  0.895500  0.190500  0.192900  1.0  0.1417
  C  C33  1  0.526800  0.401900  0.717300  1.0  0.1538
  C  C34  1  0.135500  0.564700  0.443300  1.0  0.0695
  C  C35  1  0.737600  0.913100  0.101400  1.0  0.1322
  C  C36  1  0.414200  0.232100  0.278500  1.0  0.6676
  C  C37  1  0.659500  0.073600  0.270100  1.0  0.0754
  C  C38  1  0.182200  0.641000  0.492100  1.0  0.6337
  C  C39  1  0.981000  0.508900  0.804000  1.0  0.6943
  C  C40  1  0.682200  0.141000  0.007900  1.0  0.6347
  C  C41  1  0.973200  0.098100  0.217300  1.0  0.1536
  C  C42  1  0.481000  0.008900  0.696000  1.0  0.6943
  C  C43  1  0.026800  0.901900  0.782700  1.0  0.1532
  C  C44  1  0.073300  0.421900  0.358400  1.0  0.1545
  C  C45  1  0.237600  0.413100  0.398600  1.0  0.133
  C  C46  1  0.864500  0.435300  0.556700  1.0  0.0656
  C  C47  1  0.840500  0.426400  0.770100  1.0  0.0759
  C  C48  1  0.340500  0.926400  0.729900  1.0  0.0714
  C  C49  1  0.926700  0.578100  0.641600  1.0  0.1551
  C  C50  1  0.573300  0.921900  0.141600  1.0  0.1551
  C  C51  1  0.097300  0.672600  0.247900  1.0  0.0539
  C  C52  1  0.807900  0.657900  0.405000  1.0  0.7025
  C  C53  1  0.104500  0.809500  0.807100  1.0  0.141
  C  C54  1  0.085800  0.267900  0.778500  1.0  0.6674
  C  C55  1  0.262400  0.086900  0.898600  1.0  0.132
  C  C56  1  0.817800  0.359000  0.507900  1.0  0.6324
  C  C57  1  0.473200  0.598100  0.282700  1.0  0.1498
  C  C58  1  0.192100  0.342100  0.595000  1.0  0.7031
  C  C59  1  0.902700  0.327400  0.752100  1.0  0.054
  C  C60  1  0.597300  0.172600  0.252100  1.0  0.0543
  C  C61  1  0.402700  0.827400  0.747900  1.0  0.0531
  C  C62  1  0.692100  0.842100  0.905000  1.0  0.7043
  C  C63  1  0.031100  0.427400  0.596700  1.0  0.1012
  C  C64  1  0.531100  0.927400  0.903300  1.0  0.1014
  C  C65  1  0.019000  0.491100  0.196000  1.0  0.6944
  C  C66  1  0.395500  0.690500  0.307100  1.0  0.142
  C  C67  1  0.468900  0.072600  0.096700  1.0  0.1018
  C  C68  1  0.159500  0.573600  0.229900  1.0  0.071
  C  C69  1  0.914200  0.732100  0.221500  1.0  0.6671
  C  C70  1  0.762400  0.586900  0.601400  1.0  0.1324
  N  N71  1  0.233500  0.016900  0.940700  1.0  -0.2688
  N  N72  1  0.644100  0.460000  0.756000  1.0  -0.4158
  N  N73  1  0.855900  0.040000  0.256000  1.0  -0.4157
  N  N74  1  0.766500  0.983100  0.059300  1.0  -0.2672
  N  N75  1  0.144100  0.960000  0.744000  1.0  -0.4163
  N  N76  1  0.939500  0.500700  0.360300  1.0  -0.4422
  N  N77  1  0.713700  0.229800  0.211800  1.0  -0.4469
  N  N78  1  0.286300  0.770200  0.788200  1.0  -0.4457
  N  N79  1  0.355900  0.540000  0.244000  1.0  -0.4172
  N  N80  1  0.213700  0.729800  0.288200  1.0  -0.4472
  N  N81  1  0.560500  0.999300  0.860300  1.0  -0.4378
  N  N82  1  0.733500  0.516900  0.559300  1.0  -0.2673
  N  N83  1  0.266500  0.483100  0.440700  1.0  -0.2684
  N  N84  1  0.786300  0.270200  0.711800  1.0  -0.4448
  N  N85  1  0.060500  0.499300  0.639700  1.0  -0.4448
  N  N86  1  0.439500  0.000700  0.139700  1.0  -0.4427
  O  O87  1  0.647600  0.644100  0.436200  1.0  -0.6221
  O  O88  1  0.147600  0.144100  0.063800  1.0  -0.6221
  O  O89  1  0.174200  0.886300  0.027570  1.0  -0.5894
  O  O90  1  0.587800  0.224200  0.004500  1.0  -0.5206
  O  O91  1  0.912200  0.275800  0.504500  1.0  -0.5187
  O  O92  1  0.087800  0.724200  0.495500  1.0  -0.5193
  O  O93  1  0.325800  0.613700  0.527570  1.0  -0.5894
  O  O94  1  0.681400  0.019500  0.705810  1.0  -0.7279
  O  O95  1  0.621600  0.933800  0.337770  1.0  -0.6232
  O  O96  1  0.852400  0.855900  0.936200  1.0  -0.6221
  O  O97  1  0.825800  0.113700  0.972430  1.0  -0.5892
  O  O98  1  0.674200  0.386300  0.472430  1.0  -0.5865
  O  O99  1  0.121600  0.433800  0.162230  1.0  -0.6221
  O  O100  1  0.345600  0.235600  0.128100  1.0  -0.6978
  O  O101  1  0.154400  0.264400  0.628100  1.0  -0.6965
  O  O102  1  0.153900  0.191900  0.749800  1.0  -0.6466
  O  O103  1  0.818600  0.480500  0.205810  1.0  -0.7283
  O  O104  1  0.346100  0.308100  0.249800  1.0  -0.6477
  O  O105  1  0.846100  0.808100  0.250200  1.0  -0.6476
  O  O106  1  0.653900  0.691900  0.750200  1.0  -0.6464
  O  O107  1  0.644900  0.794500  0.672810  1.0  -0.5686
  O  O108  1  0.654400  0.764400  0.871900  1.0  -0.6962
  O  O109  1  0.355100  0.205500  0.327190  1.0  -0.5678
  O  O110  1  0.855100  0.705500  0.172810  1.0  -0.5684
  O  O111  1  0.181400  0.519500  0.794190  1.0  -0.7278
  O  O112  1  0.412200  0.775800  0.995500  1.0  -0.5176
  O  O113  1  0.144900  0.294500  0.827190  1.0  -0.5677
  O  O114  1  0.845600  0.735600  0.371900  1.0  -0.6971
  O  O115  1  0.352400  0.355900  0.563800  1.0  -0.6231
  O  O116  1  0.378400  0.066200  0.662230  1.0  -0.6224
  O  O117  1  0.318600  0.980500  0.294190  1.0  -0.7282
  O  O118  1  0.878400  0.566200  0.837770  1.0  -0.6233
