# generated using pymatgen
data_Tm2CuH8C24(NO2)8
_symmetry_space_group_name_H-M   'P 1'
_cell_length_a   6.04080000
_cell_length_b   12.33240000
_cell_length_c   23.57700000
_cell_angle_alpha   90.00000000
_cell_angle_beta   90.00000000
_cell_angle_gamma   94.11040000
_symmetry_Int_Tables_number   1
_chemical_formula_structural   Tm2CuH8C24(NO2)8
_chemical_formula_sum   'Tm4 Cu2 H16 C48 N16 O32'
_cell_volume   1751.91111081
_cell_formula_units_Z   2
loop_
 _symmetry_equiv_pos_site_id
 _symmetry_equiv_pos_as_xyz
  1  'x, y, z'
loop_
 _atom_site_type_symbol
 _atom_site_label
 _atom_site_symmetry_multiplicity
 _atom_site_fract_x
 _atom_site_fract_y
 _atom_site_fract_z
 _atom_site_occupancy
 _atom_site_charge
  Tm  Tm1  1  0.510170  0.609730  0.171450  1.0  2.1
  Tm  Tm2  1  0.010170  0.109730  0.328550  1.0  2.1001
  Tm  Tm3  1  0.489830  0.390270  0.828550  1.0  2.0996
  Tm  Tm4  1  0.989830  0.890270  0.671450  1.0  2.0978
  Cu  Cu5  1  0.000000  0.000000  0.000000  1.0  0.9143
  Cu  Cu6  1  0.500000  0.500000  0.500000  1.0  0.9143
  H  H7  1  0.529500  0.274500  0.335800  1.0  0.0907
  H  H8  1  0.951300  0.623400  0.328500  1.0  0.0764
  H  H9  1  0.112400  0.078200  0.792100  1.0  0.0777
  H  H10  1  0.451300  0.123400  0.171500  1.0  0.0765
  H  H11  1  0.048700  0.376600  0.671500  1.0  0.0773
  H  H12  1  0.174800  0.142900  0.103700  1.0  0.0934
  H  H13  1  0.548700  0.876600  0.828500  1.0  0.0771
  H  H14  1  0.612400  0.578200  0.707900  1.0  0.0778
  H  H15  1  0.970500  0.225500  0.835800  1.0  0.0906
  H  H16  1  0.825200  0.857100  0.896300  1.0  0.0945
  H  H17  1  0.887600  0.921800  0.207900  1.0  0.0777
  H  H18  1  0.387600  0.421800  0.292100  1.0  0.0775
  H  H19  1  0.470500  0.725500  0.664200  1.0  0.0908
  H  H20  1  0.029500  0.774500  0.164200  1.0  0.0907
  H  H21  1  0.325200  0.357100  0.603700  1.0  0.0935
  H  H22  1  0.674800  0.642900  0.396300  1.0  0.093
  C  C23  1  0.932900  0.573100  0.357800  1.0  0.1571
  C  C24  1  0.302400  0.166700  0.907300  1.0  0.7009
  C  C25  1  0.985100  0.511200  0.196400  1.0  0.6906
  C  C26  1  0.134300  0.569100  0.556200  1.0  0.1032
  C  C27  1  0.473100  0.598800  0.718400  1.0  0.1592
  C  C28  1  0.735400  0.915100  0.898800  1.0  0.1438
  C  C29  1  0.973100  0.098800  0.781600  1.0  0.1581
  C  C30  1  0.514900  0.988800  0.696400  1.0  0.6905
  C  C31  1  0.026900  0.901200  0.218400  1.0  0.1585
  C  C32  1  0.155500  0.572400  0.770000  1.0  0.0998
  C  C33  1  0.467500  0.079400  0.904300  1.0  0.073
  C  C34  1  0.892500  0.190700  0.806200  1.0  0.1321
  C  C35  1  0.526900  0.401200  0.281600  1.0  0.1575
  C  C36  1  0.911100  0.327600  0.248000  1.0  0.079
  C  C37  1  0.816400  0.354100  0.492100  1.0  0.6267
  C  C38  1  0.107500  0.809300  0.193800  1.0  0.1302
  C  C39  1  0.432900  0.073100  0.142200  1.0  0.1573
  C  C40  1  0.697600  0.833300  0.092700  1.0  0.7014
  C  C41  1  0.485100  0.011200  0.303600  1.0  0.691
  C  C42  1  0.567100  0.926900  0.857800  1.0  0.1557
  C  C43  1  0.411100  0.827600  0.252000  1.0  0.0795
  C  C44  1  0.402600  0.231200  0.722100  1.0  0.6503
  C  C45  1  0.802400  0.666667  0.592700  1.0  0.7018
  C  C46  1  0.097400  0.268800  0.222100  1.0  0.6506
  C  C47  1  0.655500  0.072400  0.730000  1.0  0.0955
  C  C48  1  0.264600  0.084900  0.101200  1.0  0.1438
  C  C49  1  0.865700  0.430900  0.443800  1.0  0.1036
  C  C50  1  0.532500  0.920600  0.095700  1.0  0.0722
  C  C51  1  0.088900  0.672400  0.752000  1.0  0.079
  C  C52  1  0.683600  0.145900  0.992100  1.0  0.6267
  C  C53  1  0.967500  0.579400  0.595700  1.0  0.073
  C  C54  1  0.607500  0.309300  0.306200  1.0  0.1312
  C  C55  1  0.764600  0.584900  0.398800  1.0  0.1428
  C  C56  1  0.634300  0.069100  0.943800  1.0  0.1042
  C  C57  1  0.344500  0.927600  0.270000  1.0  0.1003
  C  C58  1  0.067100  0.426900  0.642200  1.0  0.1566
  C  C59  1  0.183600  0.645900  0.507900  1.0  0.6284
  C  C60  1  0.365700  0.930900  0.056200  1.0  0.1038
  C  C61  1  0.392500  0.690700  0.693800  1.0  0.1318
  C  C62  1  0.588900  0.172400  0.748000  1.0  0.0785
  C  C63  1  0.316400  0.854100  0.007900  1.0  0.6266
  C  C64  1  0.235400  0.415100  0.601200  1.0  0.142
  C  C65  1  0.902600  0.731200  0.777900  1.0  0.6508
  C  C66  1  0.014900  0.488800  0.803600  1.0  0.6894
  C  C67  1  0.597400  0.768800  0.277900  1.0  0.6515
  C  C68  1  0.844500  0.427600  0.230000  1.0  0.0964
  C  C69  1  0.197600  0.333333  0.407300  1.0  0.703
  C  C70  1  0.032500  0.420600  0.404300  1.0  0.0723
  N  N71  1  0.702500  0.229700  0.787740  1.0  -0.4587
  N  N72  1  0.356300  0.540100  0.756520  1.0  -0.4084
  N  N73  1  0.564700  0.991400  0.139600  1.0  -0.4496
  N  N74  1  0.265400  0.486500  0.559430  1.0  -0.2526
  N  N75  1  0.202500  0.729700  0.712260  1.0  -0.4585
  N  N76  1  0.734600  0.513500  0.440570  1.0  -0.2531
  N  N77  1  0.797500  0.270300  0.287740  1.0  -0.4587
  N  N78  1  0.435300  0.008600  0.860400  1.0  -0.4476
  N  N79  1  0.643700  0.459900  0.243480  1.0  -0.4087
  N  N80  1  0.143700  0.959900  0.256520  1.0  -0.4095
  N  N81  1  0.297500  0.770300  0.212260  1.0  -0.4572
  N  N82  1  0.234600  0.013500  0.059430  1.0  -0.2528
  N  N83  1  0.064700  0.491400  0.360400  1.0  -0.4492
  N  N84  1  0.856300  0.040100  0.743480  1.0  -0.4091
  N  N85  1  0.935300  0.508600  0.639600  1.0  -0.4519
  N  N86  1  0.765400  0.986500  0.940570  1.0  -0.2531
  O  O87  1  0.336800  0.309400  0.750860  1.0  -0.6231
  O  O88  1  0.178000  0.887300  0.971210  1.0  -0.5948
  O  O89  1  0.187900  0.521700  0.206570  1.0  -0.7237
  O  O90  1  0.836800  0.809400  0.749140  1.0  -0.6233
  O  O91  1  0.338900  0.247400  0.874700  1.0  -0.6925
  O  O92  1  0.312100  0.978300  0.706570  1.0  -0.7242
  O  O93  1  0.322000  0.612700  0.471210  1.0  -0.597
  O  O94  1  0.381100  0.068800  0.337380  1.0  -0.6175
  O  O95  1  0.336300  0.204400  0.674010  1.0  -0.5737
  O  O96  1  0.407300  0.769200  0.005100  1.0  -0.5094
  O  O97  1  0.836300  0.704400  0.825990  1.0  -0.5764
  O  O98  1  0.358100  0.349800  0.438700  1.0  -0.6103
  O  O99  1  0.161100  0.252600  0.374700  1.0  -0.6785
  O  O100  1  0.618900  0.931200  0.662620  1.0  -0.6164
  O  O101  1  0.163200  0.190600  0.250860  1.0  -0.6233
  O  O102  1  0.822000  0.112700  0.028790  1.0  -0.5965
  O  O103  1  0.687900  0.021700  0.293430  1.0  -0.7246
  O  O104  1  0.592700  0.230800  0.994900  1.0  -0.5084
  O  O105  1  0.663700  0.795600  0.325990  1.0  -0.574
  O  O106  1  0.641900  0.650200  0.561300  1.0  -0.6105
  O  O107  1  0.141900  0.150200  0.938700  1.0  -0.6102
  O  O108  1  0.678000  0.387300  0.528790  1.0  -0.5963
  O  O109  1  0.881100  0.568800  0.162620  1.0  -0.6159
  O  O110  1  0.661100  0.752600  0.125300  1.0  -0.6899
  O  O111  1  0.838900  0.747400  0.625300  1.0  -0.6761
  O  O112  1  0.812100  0.478300  0.793430  1.0  -0.7249
  O  O113  1  0.858100  0.849800  0.061300  1.0  -0.6107
  O  O114  1  0.092700  0.730800  0.505100  1.0  -0.5086
  O  O115  1  0.907300  0.269200  0.494900  1.0  -0.5082
  O  O116  1  0.663200  0.690600  0.249140  1.0  -0.6235
  O  O117  1  0.118900  0.431200  0.837380  1.0  -0.6185
  O  O118  1  0.163700  0.295600  0.174010  1.0  -0.5733
