# generated using pymatgen
data_Y2CuH8C24(NO2)8
_symmetry_space_group_name_H-M   'P 1'
_cell_length_a   6.08530000
_cell_length_b   12.40400000
_cell_length_c   23.49700000
_cell_angle_alpha   90.00000000
_cell_angle_beta   90.00000000
_cell_angle_gamma   94.51520000
_symmetry_Int_Tables_number   1
_chemical_formula_structural   Y2CuH8C24(NO2)8
_chemical_formula_sum   'Y4 Cu2 H16 C48 N16 O32'
_cell_volume   1768.09759027
_cell_formula_units_Z   2
loop_
 _symmetry_equiv_pos_site_id
 _symmetry_equiv_pos_as_xyz
  1  'x, y, z'
loop_
 _atom_site_type_symbol
 _atom_site_label
 _atom_site_symmetry_multiplicity
 _atom_site_fract_x
 _atom_site_fract_y
 _atom_site_fract_z
 _atom_site_occupancy
 _atom_site_charge
  Y  Y1  1  0.008760  0.609250  0.668790  1.0  2.0714
  Y  Y2  1  0.491240  0.890750  0.168790  1.0  2.0685
  Y  Y3  1  0.991240  0.390750  0.331210  1.0  2.0699
  Y  Y4  1  0.508760  0.109250  0.831210  1.0  2.0691
  Cu  Cu5  1  0.500000  0.000000  0.500000  1.0  0.8679
  Cu  Cu6  1  0.000000  0.500000  0.000000  1.0  0.8679
  H  H7  1  0.443400  0.626900  0.829100  1.0  0.0851
  H  H8  1  0.527800  0.776400  0.663000  1.0  0.0941
  H  H9  1  0.825400  0.356200  0.103400  1.0  0.1037
  H  H10  1  0.472200  0.223600  0.337000  1.0  0.094
  H  H11  1  0.556600  0.373100  0.170900  1.0  0.0858
  H  H12  1  0.943400  0.126900  0.670900  1.0  0.0852
  H  H13  1  0.391000  0.922700  0.706500  1.0  0.0788
  H  H14  1  0.891000  0.422700  0.793500  1.0  0.0785
  H  H15  1  0.674600  0.143800  0.603400  1.0  0.1029
  H  H16  1  0.609000  0.077300  0.293500  1.0  0.0784
  H  H17  1  0.325400  0.856200  0.396600  1.0  0.1038
  H  H18  1  0.027800  0.276400  0.837000  1.0  0.0944
  H  H19  1  0.174600  0.643800  0.896600  1.0  0.1032
  H  H20  1  0.972200  0.723600  0.163000  1.0  0.0943
  H  H21  1  0.056600  0.873100  0.329100  1.0  0.0855
  H  H22  1  0.109000  0.577300  0.206500  1.0  0.0788
  C  C23  1  0.072700  0.923600  0.358400  1.0  0.172
  C  C24  1  0.032500  0.924800  0.596900  1.0  0.1214
  C  C25  1  0.365700  0.434200  0.943400  1.0  0.0517
  C  C26  1  0.263700  0.586400  0.898800  1.0  0.1433
  C  C27  1  0.307100  0.661000  0.094400  1.0  0.7256
  C  C28  1  0.158400  0.072600  0.229800  1.0  0.0199
  C  C29  1  0.532500  0.424800  0.903100  1.0  0.1216
  C  C30  1  0.692900  0.339000  0.905600  1.0  0.7264
  C  C31  1  0.394600  0.189700  0.307000  1.0  0.1363
  C  C32  1  0.905500  0.827500  0.751900  1.0  0.0748
  C  C33  1  0.634300  0.565800  0.056600  1.0  0.0498
  C  C34  1  0.315900  0.357600  0.992400  1.0  0.6596
  C  C35  1  0.971900  0.598300  0.217600  1.0  0.1664
  C  C36  1  0.763700  0.086400  0.601200  1.0  0.1429
  C  C37  1  0.894600  0.689700  0.193000  1.0  0.1366
  C  C38  1  0.236300  0.913600  0.398800  1.0  0.1424
  C  C39  1  0.427300  0.576400  0.858400  1.0  0.1719
  C  C40  1  0.192900  0.839000  0.594400  1.0  0.7254
  C  C41  1  0.594500  0.672500  0.251900  1.0  0.0741
  C  C42  1  0.909500  0.231800  0.221300  1.0  0.6504
  C  C43  1  0.134300  0.065800  0.443400  1.0  0.0518
  C  C44  1  0.471900  0.098300  0.282400  1.0  0.1684
  C  C45  1  0.409500  0.731800  0.278700  1.0  0.6511
  C  C46  1  0.518100  0.489700  0.304000  1.0  0.7261
  C  C47  1  0.481900  0.510300  0.696000  1.0  0.7281
  C  C48  1  0.841600  0.927400  0.770200  1.0  0.0225
  C  C49  1  0.184100  0.142400  0.492400  1.0  0.6585
  C  C50  1  0.590500  0.268200  0.721300  1.0  0.6504
  C  C51  1  0.528100  0.901700  0.717600  1.0  0.1696
  C  C52  1  0.467500  0.575200  0.096900  1.0  0.1222
  C  C53  1  0.028100  0.401700  0.782400  1.0  0.1681
  C  C54  1  0.605400  0.810300  0.693000  1.0  0.1359
  C  C55  1  0.927300  0.076400  0.641600  1.0  0.1715
  C  C56  1  0.341600  0.427400  0.729800  1.0  0.0189
  C  C57  1  0.094500  0.172500  0.248100  1.0  0.0742
  C  C58  1  0.865700  0.934200  0.556600  1.0  0.0513
  C  C59  1  0.090500  0.768200  0.778700  1.0  0.6516
  C  C60  1  0.658400  0.572600  0.270200  1.0  0.023
  C  C61  1  0.981900  0.010300  0.804000  1.0  0.7282
  C  C62  1  0.807100  0.161000  0.405600  1.0  0.725
  C  C63  1  0.684100  0.642400  0.007600  1.0  0.6594
  C  C64  1  0.736300  0.413600  0.101200  1.0  0.1432
  C  C65  1  0.967500  0.075200  0.403100  1.0  0.1225
  C  C66  1  0.572700  0.423600  0.141600  1.0  0.1723
  C  C67  1  0.018100  0.989700  0.196000  1.0  0.7279
  C  C68  1  0.105400  0.310300  0.807000  1.0  0.1361
  C  C69  1  0.405500  0.327500  0.748100  1.0  0.0745
  C  C70  1  0.815900  0.857600  0.507600  1.0  0.6588
  N  N71  1  0.210300  0.229600  0.288300  1.0  -0.4779
  N  N72  1  0.289700  0.270400  0.788300  1.0  -0.4775
  N  N73  1  0.266500  0.984200  0.440200  1.0  -0.2527
  N  N74  1  0.710300  0.729600  0.211700  1.0  -0.4777
  N  N75  1  0.937200  0.003800  0.360100  1.0  -0.456
  N  N76  1  0.358000  0.040100  0.244100  1.0  -0.4054
  N  N77  1  0.858000  0.540100  0.255900  1.0  -0.4039
  N  N78  1  0.233500  0.515800  0.940200  1.0  -0.2524
  N  N79  1  0.766500  0.484200  0.059800  1.0  -0.252
  N  N80  1  0.642000  0.959900  0.755900  1.0  -0.4065
  N  N81  1  0.562800  0.496200  0.860100  1.0  -0.4528
  N  N82  1  0.142000  0.459900  0.744100  1.0  -0.4065
  N  N83  1  0.733500  0.015800  0.559800  1.0  -0.2513
  N  N84  1  0.437200  0.503800  0.139900  1.0  -0.4524
  N  N85  1  0.062800  0.996200  0.639900  1.0  -0.4562
  N  N86  1  0.789700  0.770400  0.711700  1.0  -0.4764
  O  O87  1  0.655100  0.191300  0.750400  1.0  -0.6172
  O  O88  1  0.653100  0.294800  0.673070  1.0  -0.5562
  O  O89  1  0.844300  0.240100  0.372500  1.0  -0.6757
  O  O90  1  0.855200  0.354300  0.937200  1.0  -0.6341
  O  O91  1  0.090900  0.227100  0.495160  1.0  -0.526
  O  O92  1  0.155100  0.691300  0.749600  1.0  -0.6172
  O  O93  1  0.153100  0.794800  0.826930  1.0  -0.5554
  O  O94  1  0.909100  0.772900  0.504840  1.0  -0.5276
  O  O95  1  0.590900  0.727100  0.004840  1.0  -0.528
  O  O96  1  0.675800  0.886100  0.471860  1.0  -0.5794
  O  O97  1  0.344900  0.808700  0.249600  1.0  -0.6173
  O  O98  1  0.683900  0.521600  0.705880  1.0  -0.716
  O  O99  1  0.816100  0.978400  0.205880  1.0  -0.716
  O  O100  1  0.324200  0.113900  0.528140  1.0  -0.5809
  O  O101  1  0.346900  0.705200  0.326930  1.0  -0.5547
  O  O102  1  0.846900  0.205200  0.173070  1.0  -0.5557
  O  O103  1  0.844900  0.308700  0.250400  1.0  -0.6175
  O  O104  1  0.655700  0.259900  0.872500  1.0  -0.6764
  O  O105  1  0.409100  0.272900  0.995160  1.0  -0.5261
  O  O106  1  0.183900  0.021600  0.794120  1.0  -0.7172
  O  O107  1  0.379400  0.567800  0.662490  1.0  -0.6184
  O  O108  1  0.644800  0.145700  0.437200  1.0  -0.6351
  O  O109  1  0.316100  0.478400  0.294120  1.0  -0.717
  O  O110  1  0.879400  0.067800  0.837510  1.0  -0.6192
  O  O111  1  0.144800  0.645700  0.062800  1.0  -0.6354
  O  O112  1  0.355200  0.854300  0.562800  1.0  -0.635
  O  O113  1  0.175800  0.386100  0.028140  1.0  -0.5817
  O  O114  1  0.824200  0.613900  0.971860  1.0  -0.5803
  O  O115  1  0.344300  0.740100  0.127500  1.0  -0.6764
  O  O116  1  0.155700  0.759900  0.627500  1.0  -0.6762
  O  O117  1  0.120600  0.932200  0.162490  1.0  -0.6186
  O  O118  1  0.620600  0.432200  0.337510  1.0  -0.6191
