# generated using pymatgen
data_Yb2CuH8C24(NO2)8
_symmetry_space_group_name_H-M   'P 1'
_cell_length_a   6.02140000
_cell_length_b   12.31510000
_cell_length_c   23.59200000
_cell_angle_alpha   90.00000000
_cell_angle_beta   90.00000000
_cell_angle_gamma   94.01300000
_symmetry_Int_Tables_number   1
_chemical_formula_structural   Yb2CuH8C24(NO2)8
_chemical_formula_sum   'Yb4 Cu2 H16 C48 N16 O32'
_cell_volume   1745.15525217
_cell_formula_units_Z   2
loop_
 _symmetry_equiv_pos_site_id
 _symmetry_equiv_pos_as_xyz
  1  'x, y, z'
loop_
 _atom_site_type_symbol
 _atom_site_label
 _atom_site_symmetry_multiplicity
 _atom_site_fract_x
 _atom_site_fract_y
 _atom_site_fract_z
 _atom_site_occupancy
 _atom_site_charge
  Yb  Yb1  1  0.487850  0.390210  0.327820  1.0  1.5375
  Yb  Yb2  1  0.012150  0.109790  0.827820  1.0  1.5368
  Yb  Yb3  1  0.512150  0.609790  0.672180  1.0  1.5356
  Yb  Yb4  1  0.987850  0.890210  0.172180  1.0  1.5339
  Cu  Cu5  1  0.000000  0.000000  0.500000  1.0  0.8689
  Cu  Cu6  1  0.500000  0.500000  0.000000  1.0  0.8689
  H  H7  1  0.033000  0.774400  0.664400  1.0  0.102
  H  H8  1  0.533000  0.274400  0.835600  1.0  0.1017
  H  H9  1  0.676300  0.641200  0.895200  1.0  0.1036
  H  H10  1  0.176300  0.141200  0.604800  1.0  0.1035
  H  H11  1  0.823700  0.858800  0.395200  1.0  0.1038
  H  H12  1  0.390000  0.421500  0.792600  1.0  0.093
  H  H13  1  0.450600  0.121200  0.671500  1.0  0.1083
  H  H14  1  0.890000  0.921500  0.707400  1.0  0.0932
  H  H15  1  0.110000  0.078500  0.292600  1.0  0.0931
  H  H16  1  0.950600  0.621200  0.828500  1.0  0.1081
  H  H17  1  0.467000  0.725600  0.164400  1.0  0.1021
  H  H18  1  0.610000  0.578500  0.207400  1.0  0.0932
  H  H19  1  0.967000  0.225600  0.335600  1.0  0.1017
  H  H20  1  0.549400  0.878800  0.328500  1.0  0.1083
  H  H21  1  0.323700  0.358800  0.104800  1.0  0.1038
  H  H22  1  0.049400  0.378800  0.171500  1.0  0.1085
  C  C23  1  0.233600  0.416900  0.101900  1.0  0.1592
  C  C24  1  0.867100  0.429200  0.944200  1.0  0.0679
  C  C25  1  0.889100  0.190800  0.306000  1.0  0.1582
  C  C26  1  0.603600  0.768600  0.778300  1.0  0.6546
  C  C27  1  0.465600  0.081600  0.404300  1.0  0.1469
  C  C28  1  0.534400  0.918400  0.595700  1.0  0.147
  C  C29  1  0.034400  0.418400  0.904300  1.0  0.1468
  C  C30  1  0.068200  0.429000  0.142100  1.0  0.1709
  C  C31  1  0.801100  0.668700  0.091900  1.0  0.7348
  C  C32  1  0.414500  0.827100  0.752500  1.0  0.1006
  C  C33  1  0.389100  0.690800  0.194000  1.0  0.1583
  C  C34  1  0.610900  0.309200  0.806000  1.0  0.1577
  C  C35  1  0.103600  0.268600  0.721700  1.0  0.6532
  C  C36  1  0.931800  0.571000  0.857900  1.0  0.1721
  C  C37  1  0.965600  0.581600  0.095700  1.0  0.1469
  C  C38  1  0.152700  0.573100  0.270300  1.0  0.1213
  C  C39  1  0.815600  0.353500  0.992700  1.0  0.6571
  C  C40  1  0.529100  0.400600  0.781500  1.0  0.1672
  C  C41  1  0.896400  0.731400  0.278300  1.0  0.6533
  C  C42  1  0.632900  0.070800  0.444200  1.0  0.0694
  C  C43  1  0.470900  0.599400  0.218500  1.0  0.1688
  C  C44  1  0.367100  0.929200  0.555800  1.0  0.0683
  C  C45  1  0.914500  0.327100  0.747500  1.0  0.0993
  C  C46  1  0.970900  0.099400  0.281500  1.0  0.167
  C  C47  1  0.684400  0.146500  0.492700  1.0  0.6567
  C  C48  1  0.698900  0.831300  0.591900  1.0  0.735
  C  C49  1  0.085500  0.672900  0.252500  1.0  0.1002
  C  C50  1  0.486400  0.011400  0.803510  1.0  0.7305
  C  C51  1  0.568200  0.929000  0.357900  1.0  0.1705
  C  C52  1  0.733600  0.916900  0.398100  1.0  0.1598
  C  C53  1  0.986400  0.511400  0.696490  1.0  0.7293
  C  C54  1  0.301100  0.168700  0.408100  1.0  0.7338
  C  C55  1  0.110900  0.809200  0.694000  1.0  0.1569
  C  C56  1  0.513600  0.988600  0.196490  1.0  0.7296
  C  C57  1  0.315600  0.853500  0.507300  1.0  0.6569
  C  C58  1  0.013600  0.488600  0.303510  1.0  0.7288
  C  C59  1  0.198900  0.331300  0.908100  1.0  0.7357
  C  C60  1  0.652700  0.073100  0.229700  1.0  0.1178
  C  C61  1  0.029100  0.900600  0.718500  1.0  0.1688
  C  C62  1  0.847300  0.426900  0.729700  1.0  0.1169
  C  C63  1  0.585500  0.172900  0.247500  1.0  0.0988
  C  C64  1  0.431800  0.071000  0.642100  1.0  0.1722
  C  C65  1  0.132900  0.570800  0.055800  1.0  0.0691
  C  C66  1  0.266400  0.083100  0.601900  1.0  0.1613
  C  C67  1  0.766400  0.583100  0.898100  1.0  0.1599
  C  C68  1  0.396400  0.231400  0.221700  1.0  0.6526
  C  C69  1  0.184400  0.646500  0.007300  1.0  0.6586
  C  C70  1  0.347300  0.926900  0.770300  1.0  0.1211
  N  N71  1  0.934800  0.512400  0.139350  1.0  -0.4088
  N  N72  1  0.855500  0.040400  0.242510  1.0  -0.3986
  N  N73  1  0.735300  0.513400  0.940690  1.0  -0.2367
  N  N74  1  0.644500  0.459600  0.742510  1.0  -0.3972
  N  N75  1  0.699200  0.229900  0.287740  1.0  -0.4603
  N  N76  1  0.144500  0.959600  0.757490  1.0  -0.3991
  N  N77  1  0.065200  0.487600  0.860650  1.0  -0.4112
  N  N78  1  0.764700  0.986600  0.440690  1.0  -0.2358
  N  N79  1  0.264700  0.486600  0.059310  1.0  -0.2351
  N  N80  1  0.434800  0.012400  0.360650  1.0  -0.411
  N  N81  1  0.355500  0.540400  0.257490  1.0  -0.3987
  N  N82  1  0.800800  0.270100  0.787740  1.0  -0.4602
  N  N83  1  0.199200  0.729900  0.212260  1.0  -0.4602
  N  N84  1  0.300800  0.770100  0.712260  1.0  -0.4596
  N  N85  1  0.235300  0.013400  0.559310  1.0  -0.2357
  N  N86  1  0.565200  0.987600  0.639350  1.0  -0.4122
  O  O87  1  0.115700  0.430600  0.337040  1.0  -0.5997
  O  O88  1  0.336700  0.251400  0.376000  1.0  -0.669
  O  O89  1  0.807600  0.477700  0.293580  1.0  -0.6748
  O  O90  1  0.172800  0.296600  0.674790  1.0  -0.5309
  O  O91  1  0.668300  0.689900  0.749560  1.0  -0.5937
  O  O92  1  0.836700  0.751400  0.124000  1.0  -0.6684
  O  O93  1  0.831700  0.810100  0.249560  1.0  -0.5936
  O  O94  1  0.140300  0.152700  0.439740  1.0  -0.5959
  O  O95  1  0.327200  0.203400  0.174790  1.0  -0.5342
  O  O96  1  0.904900  0.267400  0.995170  1.0  -0.5032
  O  O97  1  0.095100  0.732600  0.004830  1.0  -0.5052
  O  O98  1  0.677500  0.386000  0.029450  1.0  -0.5696
  O  O99  1  0.359700  0.347300  0.939740  1.0  -0.5972
  O  O100  1  0.168300  0.189900  0.750440  1.0  -0.5939
  O  O101  1  0.177500  0.886000  0.470550  1.0  -0.5691
  O  O102  1  0.615700  0.930600  0.162960  1.0  -0.598
  O  O103  1  0.404900  0.767400  0.504830  1.0  -0.5043
  O  O104  1  0.884300  0.569400  0.662960  1.0  -0.5964
  O  O105  1  0.640300  0.652700  0.060260  1.0  -0.5964
  O  O106  1  0.192400  0.522300  0.706420  1.0  -0.6733
  O  O107  1  0.827200  0.703400  0.325210  1.0  -0.5333
  O  O108  1  0.595100  0.232600  0.495170  1.0  -0.5036
  O  O109  1  0.307600  0.977700  0.206420  1.0  -0.6746
  O  O110  1  0.859700  0.847300  0.560260  1.0  -0.5982
  O  O111  1  0.672800  0.796600  0.825210  1.0  -0.5308
  O  O112  1  0.822500  0.114000  0.529450  1.0  -0.571
  O  O113  1  0.692400  0.022300  0.793580  1.0  -0.6744
  O  O114  1  0.322500  0.614000  0.970550  1.0  -0.572
  O  O115  1  0.663300  0.748600  0.624000  1.0  -0.6697
  O  O116  1  0.384300  0.069400  0.837040  1.0  -0.597
  O  O117  1  0.163300  0.248600  0.876000  1.0  -0.6711
  O  O118  1  0.331700  0.310100  0.250440  1.0  -0.5939
