# generated using pymatgen
data_Pr2CuH8C24(NO2)8
_symmetry_space_group_name_H-M   'P 1'
_cell_length_a   6.13890000
_cell_length_b   12.21920000
_cell_length_c   22.72800000
_cell_angle_alpha   90.00000000
_cell_angle_beta   90.00000000
_cell_angle_gamma   89.58100000
_symmetry_Int_Tables_number   1
_chemical_formula_structural   Pr2CuH8C24(NO2)8
_chemical_formula_sum   'Pr4 Cu2 H16 C48 N16 O32'
_cell_volume   1704.83730523
_cell_formula_units_Z   2
loop_
 _symmetry_equiv_pos_site_id
 _symmetry_equiv_pos_as_xyz
  1  'x, y, z'
loop_
 _atom_site_type_symbol
 _atom_site_label
 _atom_site_symmetry_multiplicity
 _atom_site_fract_x
 _atom_site_fract_y
 _atom_site_fract_z
 _atom_site_occupancy
 _atom_site_charge
  Pr  Pr1  1  0.543000  0.443590  0.851510  1.0  2.1333
  Pr  Pr2  1  0.043000  0.943590  0.648490  1.0  2.1368
  Pr  Pr3  1  0.457000  0.556410  0.148490  1.0  2.1385
  Pr  Pr4  1  0.957000  0.056410  0.351510  1.0  2.1341
  Cu  Cu5  1  0.500000  0.500000  0.500000  1.0  0.9631
  Cu  Cu6  1  0.000000  0.000000  0.000000  1.0  0.9631
  H  H7  1  0.936200  0.749300  0.158600  1.0  0.089
  H  H8  1  0.045800  0.574400  0.321500  1.0  0.0887
  H  H9  1  0.072700  0.893400  0.212700  1.0  0.0845
  H  H10  1  0.436200  0.249300  0.341400  1.0  0.089
  H  H11  1  0.563800  0.750700  0.658600  1.0  0.0893
  H  H12  1  0.063800  0.250700  0.841400  1.0  0.0886
  H  H13  1  0.427300  0.606600  0.712700  1.0  0.0849
  H  H14  1  0.830100  0.107600  0.116800  1.0  0.0943
  H  H15  1  0.454200  0.925600  0.821500  1.0  0.0889
  H  H16  1  0.330100  0.607600  0.383200  1.0  0.0943
  H  H17  1  0.572700  0.393400  0.287300  1.0  0.0818
  H  H18  1  0.927300  0.106600  0.787300  1.0  0.082
  H  H19  1  0.954200  0.425600  0.678500  1.0  0.0893
  H  H20  1  0.169900  0.892400  0.883200  1.0  0.0938
  H  H21  1  0.545800  0.074400  0.178500  1.0  0.0885
  H  H22  1  0.669900  0.392400  0.616800  1.0  0.0937
  C  C23  1  0.781500  0.304400  0.423500  1.0  0.7001
  C  C24  1  0.112400  0.380600  0.228700  1.0  0.0555
  C  C25  1  0.625400  0.910300  0.048200  1.0  0.0214
  C  C26  1  0.218500  0.695600  0.576500  1.0  0.6998
  C  C27  1  0.456400  0.216000  0.755900  1.0  0.1312
  C  C28  1  0.281500  0.804400  0.076500  1.0  0.7059
  C  C29  1  0.977900  0.453900  0.188500  1.0  0.7028
  C  C30  1  0.234500  0.551200  0.391900  1.0  0.1334
  C  C31  1  0.477900  0.953900  0.311500  1.0  0.7012
  C  C32  1  0.956400  0.716000  0.744100  1.0  0.1315
  C  C33  1  0.354200  0.278400  0.310700  1.0  0.1335
  C  C34  1  0.158400  0.777900  0.763400  1.0  0.6539
  C  C35  1  0.765500  0.448800  0.608100  1.0  0.1336
  C  C36  1  0.545100  0.110100  0.913300  1.0  0.1342
  C  C37  1  0.874600  0.589700  0.548200  1.0  0.021
  C  C38  1  0.341600  0.722100  0.263400  1.0  0.6531
  C  C39  1  0.734500  0.051200  0.108100  1.0  0.1331
  C  C40  1  0.374600  0.089700  0.951800  1.0  0.0249
  C  C41  1  0.066200  0.132400  0.779000  1.0  0.1453
  C  C42  1  0.672500  0.847900  0.992000  1.0  0.6168
  C  C43  1  0.612400  0.880600  0.271300  1.0  0.0575
  C  C44  1  0.433800  0.367600  0.279000  1.0  0.1444
  C  C45  1  0.435800  0.969300  0.854600  1.0  0.1411
  C  C46  1  0.043600  0.284000  0.255900  1.0  0.1309
  C  C47  1  0.658400  0.277900  0.736600  1.0  0.6547
  C  C48  1  0.172500  0.347900  0.508000  1.0  0.6179
  C  C49  1  0.145800  0.221600  0.810700  1.0  0.132
  C  C50  1  0.841600  0.222100  0.236600  1.0  0.6537
  C  C51  1  0.522100  0.046100  0.688500  1.0  0.6988
  C  C52  1  0.265500  0.948800  0.891900  1.0  0.1335
  C  C53  1  0.933800  0.867600  0.221000  1.0  0.1451
  C  C54  1  0.954900  0.389900  0.413300  1.0  0.1344
  C  C55  1  0.022100  0.546100  0.811500  1.0  0.7025
  C  C56  1  0.327500  0.152100  0.008000  1.0  0.6132
  C  C57  1  0.854200  0.778400  0.189300  1.0  0.1318
  C  C58  1  0.125400  0.410300  0.451800  1.0  0.0217
  C  C59  1  0.064200  0.530700  0.354600  1.0  0.1412
  C  C60  1  0.718500  0.195600  0.923500  1.0  0.6997
  C  C61  1  0.045100  0.610100  0.586700  1.0  0.1345
  C  C62  1  0.645800  0.721600  0.689300  1.0  0.1327
  C  C63  1  0.454900  0.889900  0.086700  1.0  0.1344
  C  C64  1  0.887600  0.619400  0.771300  1.0  0.0575
  C  C65  1  0.543600  0.784000  0.244100  1.0  0.132
  C  C66  1  0.827500  0.652100  0.492000  1.0  0.616
  C  C67  1  0.566200  0.632400  0.721000  1.0  0.1461
  C  C68  1  0.935800  0.469300  0.645400  1.0  0.1416
  C  C69  1  0.387600  0.119400  0.728700  1.0  0.0556
  C  C70  1  0.564200  0.030700  0.145400  1.0  0.1406
  N  N71  1  0.315300  0.416800  0.237150  1.0  -0.3853
  N  N72  1  0.922900  0.449400  0.364700  1.0  -0.4312
  N  N73  1  0.838100  0.765600  0.702690  1.0  -0.4374
  N  N74  1  0.234100  0.007900  0.940240  1.0  -0.3016
  N  N75  1  0.077100  0.550600  0.635300  1.0  -0.4317
  N  N76  1  0.184700  0.083200  0.737150  1.0  -0.3865
  N  N77  1  0.577100  0.050600  0.864700  1.0  -0.4376
  N  N78  1  0.422900  0.949400  0.135300  1.0  -0.4385
  N  N79  1  0.265900  0.492100  0.440240  1.0  -0.3009
  N  N80  1  0.661900  0.734400  0.202690  1.0  -0.4386
  N  N81  1  0.765900  0.992100  0.059760  1.0  -0.3027
  N  N82  1  0.338100  0.265600  0.797310  1.0  -0.4376
  N  N83  1  0.734100  0.507900  0.559760  1.0  -0.3027
  N  N84  1  0.815300  0.916800  0.262850  1.0  -0.3834
  N  N85  1  0.161900  0.234400  0.297310  1.0  -0.4382
  N  N86  1  0.684700  0.583200  0.762850  1.0  -0.384
  O  O87  1  0.125600  0.829800  0.044310  1.0  -0.6181
  O  O88  1  0.578100  0.991600  0.355090  1.0  -0.6785
  O  O89  1  0.921900  0.508400  0.855090  1.0  -0.6775
  O  O90  1  0.181200  0.109200  0.040610  1.0  -0.5646
  O  O91  1  0.286800  0.977500  0.298080  1.0  -0.6802
  O  O92  1  0.237200  0.754000  0.811960  1.0  -0.5463
  O  O93  1  0.779000  0.148000  0.270110  1.0  -0.6308
  O  O94  1  0.221000  0.852000  0.729890  1.0  -0.6306
  O  O95  1  0.318800  0.390800  0.540610  1.0  -0.566
  O  O96  1  0.570300  0.764000  0.981840  1.0  -0.5264
  O  O97  1  0.874400  0.170200  0.955690  1.0  -0.6187
  O  O98  1  0.421900  0.008400  0.644910  1.0  -0.6771
  O  O99  1  0.801900  0.215000  0.396110  1.0  -0.7379
  O  O100  1  0.762800  0.246000  0.188040  1.0  -0.5481
  O  O101  1  0.625600  0.329800  0.455690  1.0  -0.6185
  O  O102  1  0.198100  0.785000  0.603890  1.0  -0.7361
  O  O103  1  0.279000  0.648000  0.229890  1.0  -0.6314
  O  O104  1  0.721000  0.352000  0.770110  1.0  -0.6311
  O  O105  1  0.786800  0.477500  0.201920  1.0  -0.6797
  O  O106  1  0.301900  0.715000  0.103890  1.0  -0.7358
  O  O107  1  0.070300  0.264000  0.518160  1.0  -0.5251
  O  O108  1  0.737200  0.254000  0.688040  1.0  -0.5472
  O  O109  1  0.681200  0.609200  0.459390  1.0  -0.5646
  O  O110  1  0.698100  0.285000  0.896110  1.0  -0.7379
  O  O111  1  0.262800  0.746000  0.311960  1.0  -0.5476
  O  O112  1  0.818800  0.890800  0.959390  1.0  -0.5646
  O  O113  1  0.374400  0.670200  0.544310  1.0  -0.6183
  O  O114  1  0.929700  0.736000  0.481840  1.0  -0.5273
  O  O115  1  0.078100  0.491600  0.144910  1.0  -0.6766
  O  O116  1  0.213200  0.522500  0.798080  1.0  -0.6792
  O  O117  1  0.429700  0.236000  0.018160  1.0  -0.528
  O  O118  1  0.713200  0.022500  0.701920  1.0  -0.6794
