# generated using pymatgen
data_Lu2CuH8C24(NO2)8
_symmetry_space_group_name_H-M   'P 1'
_cell_length_a   6.06170000
_cell_length_b   23.52800000
_cell_length_c   13.36010000
_cell_angle_alpha   90.00000000
_cell_angle_beta   112.65800000
_cell_angle_gamma   90.00000000
_symmetry_Int_Tables_number   1
_chemical_formula_structural   Lu2CuH8C24(NO2)8
_chemical_formula_sum   'Lu4 Cu2 H16 C48 N16 O32'
_cell_volume   1758.35474975
_cell_formula_units_Z   2
loop_
 _symmetry_equiv_pos_site_id
 _symmetry_equiv_pos_as_xyz
  1  'x, y, z'
loop_
 _atom_site_type_symbol
 _atom_site_label
 _atom_site_symmetry_multiplicity
 _atom_site_fract_x
 _atom_site_fract_y
 _atom_site_fract_z
 _atom_site_occupancy
 _atom_site_charge
  Lu  Lu1  1  0.400190  0.670030  0.390330  1.0  1.8957
  Lu  Lu2  1  0.599810  0.170030  0.109670  1.0  1.8961
  Lu  Lu3  1  0.599810  0.329970  0.609670  1.0  1.8953
  Lu  Lu4  1  0.400190  0.829970  0.890330  1.0  1.8954
  Cu  Cu5  1  0.500000  0.500000  0.000000  1.0  1.0603
  Cu  Cu6  1  0.500000  0.000000  0.500000  1.0  1.0603
  H  H7  1  0.466500  0.706500  0.077200  1.0  0.0901
  H  H8  1  0.755000  0.663100  0.223600  1.0  0.0881
  H  H9  1  0.529600  0.603400  0.856200  1.0  0.1122
  H  H10  1  0.821600  0.670100  0.873700  1.0  0.085
  H  H11  1  0.533500  0.206500  0.422800  1.0  0.0898
  H  H12  1  0.245000  0.163100  0.276400  1.0  0.088
  H  H13  1  0.470400  0.103400  0.643800  1.0  0.113
  H  H14  1  0.178400  0.170100  0.626300  1.0  0.0846
  H  H15  1  0.533500  0.293500  0.922800  1.0  0.0898
  H  H16  1  0.245000  0.336900  0.776400  1.0  0.0881
  H  H17  1  0.470400  0.396600  0.143800  1.0  0.1127
  H  H18  1  0.178400  0.329900  0.126300  1.0  0.0852
  H  H19  1  0.466500  0.793500  0.577200  1.0  0.09
  H  H20  1  0.755000  0.836900  0.723600  1.0  0.088
  H  H21  1  0.529600  0.896600  0.356200  1.0  0.1123
  H  H22  1  0.821600  0.829900  0.373700  1.0  0.085
  C  C23  1  0.326100  0.778500  0.232000  1.0  0.6575
  C  C24  1  0.081200  0.752000  0.172700  1.0  0.0512
  C  C25  1  0.916200  0.770100  0.072600  1.0  0.0278
  C  C26  1  0.972800  0.804000  0.988500  1.0  0.7163
  C  C27  1  0.625300  0.717500  0.098200  1.0  0.1664
  C  C28  1  0.797600  0.693100  0.189600  1.0  0.1563
  C  C29  1  0.358700  0.593700  0.163400  1.0  0.7168
  C  C30  1  0.109200  0.596500  0.076600  1.0  0.1186
  C  C31  1  0.932900  0.556400  0.067200  1.0  0.0757
  C  C32  1  0.960300  0.507800  0.144700  1.0  0.6432
  C  C33  1  0.677300  0.601000  0.913800  1.0  0.1354
  C  C34  1  0.854200  0.641100  0.924700  1.0  0.1779
  C  C35  1  0.673900  0.278500  0.268000  1.0  0.6556
  C  C36  1  0.918800  0.252000  0.327300  1.0  0.0516
  C  C37  1  0.083800  0.270100  0.427400  1.0  0.0275
  C  C38  1  0.027200  0.304000  0.511500  1.0  0.716
  C  C39  1  0.374700  0.217500  0.401800  1.0  0.1674
  C  C40  1  0.202400  0.193100  0.310400  1.0  0.1564
  C  C41  1  0.641300  0.093700  0.336600  1.0  0.7157
  C  C42  1  0.890800  0.096500  0.423400  1.0  0.1192
  C  C43  1  0.067100  0.056400  0.432800  1.0  0.0745
  C  C44  1  0.039700  0.007800  0.355300  1.0  0.6412
  C  C45  1  0.322700  0.101000  0.586200  1.0  0.1369
  C  C46  1  0.145800  0.141100  0.575300  1.0  0.1777
  C  C47  1  0.673900  0.221500  0.768000  1.0  0.656
  C  C48  1  0.918800  0.248000  0.827300  1.0  0.0505
  C  C49  1  0.083800  0.229900  0.927400  1.0  0.0276
  C  C50  1  0.027200  0.196000  0.011500  1.0  0.7164
  C  C51  1  0.374700  0.282500  0.901800  1.0  0.1666
  C  C52  1  0.202400  0.306900  0.810400  1.0  0.1566
  C  C53  1  0.641300  0.406300  0.836600  1.0  0.7149
  C  C54  1  0.890800  0.403500  0.923400  1.0  0.1191
  C  C55  1  0.067100  0.443600  0.932800  1.0  0.0741
  C  C56  1  0.039700  0.492200  0.855300  1.0  0.6411
  C  C57  1  0.322700  0.399000  0.086200  1.0  0.1373
  C  C58  1  0.145800  0.358900  0.075300  1.0  0.1772
  C  C59  1  0.326100  0.721500  0.732000  1.0  0.6577
  C  C60  1  0.081200  0.748000  0.672700  1.0  0.0511
  C  C61  1  0.916200  0.729900  0.572600  1.0  0.0278
  C  C62  1  0.972800  0.696000  0.488500  1.0  0.7163
  C  C63  1  0.625300  0.782500  0.598200  1.0  0.1665
  C  C64  1  0.797600  0.806900  0.689600  1.0  0.1565
  C  C65  1  0.358700  0.906300  0.663400  1.0  0.7157
  C  C66  1  0.109200  0.903500  0.576600  1.0  0.1185
  C  C67  1  0.932900  0.943600  0.567200  1.0  0.0745
  C  C68  1  0.960300  0.992200  0.644700  1.0  0.6407
  C  C69  1  0.677300  0.899000  0.413800  1.0  0.1356
  C  C70  1  0.854200  0.858900  0.424700  1.0  0.1778
  N  N71  1  0.021700  0.711710  0.229700  1.0  -0.4661
  N  N72  1  0.682800  0.756300  0.040000  1.0  -0.4315
  N  N73  1  0.068900  0.639400  0.005800  1.0  -0.4332
  N  N74  1  0.719800  0.559500  0.985300  1.0  -0.2547
  N  N75  1  0.978300  0.211710  0.270300  1.0  -0.4665
  N  N76  1  0.317200  0.256300  0.460000  1.0  -0.4308
  N  N77  1  0.931100  0.139400  0.494200  1.0  -0.4356
  N  N78  1  0.280200  0.059500  0.514700  1.0  -0.2526
  N  N79  1  0.978300  0.288290  0.770300  1.0  -0.4661
  N  N80  1  0.317200  0.243700  0.960000  1.0  -0.4295
  N  N81  1  0.931100  0.360600  0.994200  1.0  -0.4347
  N  N82  1  0.280200  0.440500  0.014700  1.0  -0.2536
  N  N83  1  0.021700  0.788290  0.729700  1.0  -0.4663
  N  N84  1  0.682800  0.743700  0.540000  1.0  -0.4314
  N  N85  1  0.068900  0.860600  0.505800  1.0  -0.4319
  N  N86  1  0.719800  0.940500  0.485300  1.0  -0.2545
  O  O87  1  0.468700  0.749690  0.309000  1.0  -0.6189
  O  O88  1  0.362800  0.826690  0.204700  1.0  -0.5659
  O  O89  1  0.811600  0.837240  0.931200  1.0  -0.6086
  O  O90  1  0.164300  0.793570  0.978000  1.0  -0.7127
  O  O91  1  0.504300  0.562200  0.147600  1.0  -0.6037
  O  O92  1  0.401500  0.626860  0.243100  1.0  -0.661
  O  O93  1  0.137500  0.504800  0.228800  1.0  -0.502
  O  O94  1  0.790500  0.471600  0.113900  1.0  -0.5807
  O  O95  1  0.531300  0.249690  0.191000  1.0  -0.6189
  O  O96  1  0.637200  0.326690  0.295300  1.0  -0.5666
  O  O97  1  0.188400  0.337240  0.568800  1.0  -0.6099
  O  O98  1  0.835700  0.293570  0.522000  1.0  -0.7131
  O  O99  1  0.495700  0.062200  0.352400  1.0  -0.6046
  O  O100  1  0.598500  0.126860  0.256900  1.0  -0.6637
  O  O101  1  0.862500  0.004800  0.271200  1.0  -0.5046
  O  O102  1  0.209500  0.971600  0.386100  1.0  -0.5783
  O  O103  1  0.531300  0.250310  0.691000  1.0  -0.6182
  O  O104  1  0.637200  0.173310  0.795300  1.0  -0.565
  O  O105  1  0.188400  0.162760  0.068800  1.0  -0.6104
  O  O106  1  0.835700  0.206430  0.022000  1.0  -0.7114
  O  O107  1  0.495700  0.437800  0.852400  1.0  -0.6048
  O  O108  1  0.598500  0.373140  0.756900  1.0  -0.6643
  O  O109  1  0.862500  0.495200  0.771200  1.0  -0.5047
  O  O110  1  0.209500  0.528400  0.886100  1.0  -0.578
  O  O111  1  0.468700  0.750310  0.809000  1.0  -0.6187
  O  O112  1  0.362800  0.673310  0.704700  1.0  -0.5648
  O  O113  1  0.811600  0.662760  0.431200  1.0  -0.6103
  O  O114  1  0.164300  0.706430  0.478000  1.0  -0.7128
  O  O115  1  0.504300  0.937800  0.647600  1.0  -0.6043
  O  O116  1  0.401500  0.873140  0.743100  1.0  -0.6613
  O  O117  1  0.137500  0.995200  0.728800  1.0  -0.5025
  O  O118  1  0.790500  0.028400  0.613900  1.0  -0.5802
