# generated using pymatgen
data_Nd2CuH8C24(NO2)8
_symmetry_space_group_name_H-M   'P 1'
_cell_length_a   6.12800000
_cell_length_b   12.19300000
_cell_length_c   22.67500000
_cell_angle_alpha   90.00000000
_cell_angle_beta   90.00000000
_cell_angle_gamma   89.68300000
_symmetry_Int_Tables_number   1
_chemical_formula_structural   Nd2CuH8C24(NO2)8
_chemical_formula_sum   'Nd4 Cu2 H16 C48 N16 O32'
_cell_volume   1694.22068223
_cell_formula_units_Z   2
loop_
 _symmetry_equiv_pos_site_id
 _symmetry_equiv_pos_as_xyz
  1  'x, y, z'
loop_
 _atom_site_type_symbol
 _atom_site_label
 _atom_site_symmetry_multiplicity
 _atom_site_fract_x
 _atom_site_fract_y
 _atom_site_fract_z
 _atom_site_occupancy
 _atom_site_charge
  Nd  Nd1  1  0.043960  0.443350  0.351300  1.0  2.2452
  Nd  Nd2  1  0.956040  0.556650  0.648700  1.0  2.2502
  Nd  Nd3  1  0.456040  0.056650  0.851300  1.0  2.2459
  Nd  Nd4  1  0.543960  0.943350  0.148700  1.0  2.2494
  Cu  Cu5  1  0.500000  0.000000  0.500000  1.0  0.9536
  Cu  Cu6  1  0.000000  0.500000  0.000000  1.0  0.9536
  H  H7  1  0.329200  0.108900  0.617000  1.0  0.1007
  H  H8  1  0.070400  0.395700  0.789300  1.0  0.0771
  H  H9  1  0.429600  0.104300  0.289300  1.0  0.0771
  H  H10  1  0.058400  0.756900  0.161700  1.0  0.0762
  H  H11  1  0.454700  0.425900  0.178600  1.0  0.0819
  H  H12  1  0.545300  0.574100  0.821400  1.0  0.0819
  H  H13  1  0.170800  0.391100  0.117000  1.0  0.1001
  H  H14  1  0.670800  0.891100  0.383000  1.0  0.1
  H  H15  1  0.941600  0.243100  0.838300  1.0  0.0765
  H  H16  1  0.829200  0.608900  0.883000  1.0  0.1006
  H  H17  1  0.558400  0.256900  0.338300  1.0  0.0762
  H  H18  1  0.954700  0.925900  0.321400  1.0  0.082
  H  H19  1  0.570400  0.895700  0.710700  1.0  0.0772
  H  H20  1  0.441600  0.743100  0.661700  1.0  0.0761
  H  H21  1  0.045300  0.074100  0.678600  1.0  0.0814
  H  H22  1  0.929600  0.604300  0.210700  1.0  0.0774
  C  C23  1  0.064300  0.030700  0.645300  1.0  0.1545
  C  C24  1  0.840400  0.723600  0.763300  1.0  0.6409
  C  C25  1  0.782400  0.802800  0.576200  1.0  0.6962
  C  C26  1  0.067200  0.631200  0.219900  1.0  0.1446
  C  C27  1  0.522400  0.545700  0.312700  1.0  0.7089
  C  C28  1  0.217600  0.197200  0.423800  1.0  0.6944
  C  C29  1  0.883400  0.120100  0.226300  1.0  0.0659
  C  C30  1  0.477600  0.454300  0.687300  1.0  0.7098
  C  C31  1  0.046500  0.110300  0.412700  1.0  0.1544
  C  C32  1  0.116600  0.879900  0.773700  1.0  0.0683
  C  C33  1  0.717600  0.697200  0.076200  1.0  0.6951
  C  C34  1  0.282400  0.302800  0.923800  1.0  0.6964
  C  C35  1  0.022400  0.045700  0.187300  1.0  0.7077
  C  C36  1  0.435700  0.469300  0.145300  1.0  0.1553
  C  C37  1  0.765900  0.948100  0.391600  1.0  0.1245
  C  C38  1  0.546500  0.610300  0.087300  1.0  0.1543
  C  C39  1  0.383400  0.620100  0.273700  1.0  0.0677
  C  C40  1  0.567200  0.131200  0.280100  1.0  0.1437
  C  C41  1  0.453500  0.389700  0.912700  1.0  0.1545
  C  C42  1  0.340400  0.223600  0.736700  1.0  0.6409
  C  C43  1  0.159600  0.276400  0.236700  1.0  0.6434
  C  C44  1  0.953500  0.889700  0.587300  1.0  0.1541
  C  C45  1  0.234100  0.051900  0.608400  1.0  0.1239
  C  C46  1  0.960700  0.213900  0.255800  1.0  0.029
  C  C47  1  0.977600  0.954300  0.812700  1.0  0.7098
  C  C48  1  0.539300  0.286100  0.755800  1.0  0.0294
  C  C49  1  0.932800  0.368800  0.780100  1.0  0.1437
  C  C50  1  0.460700  0.713900  0.244200  1.0  0.0278
  C  C51  1  0.432800  0.868800  0.719900  1.0  0.1441
  C  C52  1  0.144800  0.723700  0.190400  1.0  0.1339
  C  C53  1  0.935700  0.969300  0.354700  1.0  0.1546
  C  C54  1  0.734100  0.551900  0.891600  1.0  0.1242
  C  C55  1  0.823700  0.151300  0.508000  1.0  0.6391
  C  C56  1  0.855200  0.276300  0.809600  1.0  0.1354
  C  C57  1  0.323700  0.651300  0.992000  1.0  0.6416
  C  C58  1  0.126800  0.910000  0.548800  1.0  0.0295
  C  C59  1  0.564300  0.530700  0.854700  1.0  0.1548
  C  C60  1  0.265900  0.448100  0.108400  1.0  0.1247
  C  C61  1  0.355200  0.776300  0.690400  1.0  0.135
  C  C62  1  0.373200  0.590000  0.048800  1.0  0.0309
  C  C63  1  0.039300  0.786100  0.744200  1.0  0.0286
  C  C64  1  0.873200  0.090000  0.451200  1.0  0.03
  C  C65  1  0.176300  0.848700  0.492000  1.0  0.6415
  C  C66  1  0.644800  0.223700  0.309600  1.0  0.134
  C  C67  1  0.676300  0.348700  0.008000  1.0  0.6429
  C  C68  1  0.659600  0.776400  0.263300  1.0  0.6429
  C  C69  1  0.626800  0.410000  0.951200  1.0  0.0295
  C  C70  1  0.616600  0.379900  0.726300  1.0  0.0655
  N  N71  1  0.814500  0.418500  0.739400  1.0  -0.4038
  N  N72  1  0.314500  0.918500  0.760600  1.0  -0.4036
  N  N73  1  0.734600  0.008200  0.439700  1.0  -0.2709
  N  N74  1  0.660500  0.235000  0.797500  1.0  -0.4335
  N  N75  1  0.765400  0.491800  0.939700  1.0  -0.2702
  N  N76  1  0.265400  0.991800  0.560300  1.0  -0.2704
  N  N77  1  0.921600  0.949100  0.635000  1.0  -0.3986
  N  N78  1  0.578400  0.550900  0.135000  1.0  -0.3976
  N  N79  1  0.078400  0.050900  0.365000  1.0  -0.3965
  N  N80  1  0.234600  0.508200  0.060300  1.0  -0.2711
  N  N81  1  0.339500  0.765000  0.202500  1.0  -0.4342
  N  N82  1  0.685500  0.081500  0.239400  1.0  -0.4045
  N  N83  1  0.839500  0.265000  0.297500  1.0  -0.4346
  N  N84  1  0.421600  0.449100  0.865000  1.0  -0.3971
  N  N85  1  0.160500  0.735000  0.702500  1.0  -0.434
  N  N86  1  0.185500  0.581500  0.260600  1.0  -0.4035
  O  O87  1  0.715200  0.521600  0.298600  1.0  -0.7191
  O  O88  1  0.698900  0.785000  0.104400  1.0  -0.7656
  O  O89  1  0.721900  0.852600  0.230000  1.0  -0.5969
  O  O90  1  0.317900  0.891600  0.459200  1.0  -0.5733
  O  O91  1  0.682100  0.108400  0.540800  1.0  -0.5721
  O  O92  1  0.817900  0.391600  0.040800  1.0  -0.573
  O  O93  1  0.198900  0.285000  0.395600  1.0  -0.7675
  O  O94  1  0.739200  0.752700  0.311700  1.0  -0.5596
  O  O95  1  0.778100  0.647400  0.730000  1.0  -0.5966
  O  O96  1  0.077900  0.995100  0.855000  1.0  -0.6569
  O  O97  1  0.375300  0.170400  0.455400  1.0  -0.6323
  O  O98  1  0.922100  0.004900  0.145000  1.0  -0.6549
  O  O99  1  0.124700  0.329600  0.955400  1.0  -0.6328
  O  O100  1  0.239200  0.252700  0.188300  1.0  -0.5577
  O  O101  1  0.577900  0.495100  0.645000  1.0  -0.6551
  O  O102  1  0.215200  0.021600  0.201400  1.0  -0.7202
  O  O103  1  0.182100  0.608400  0.959200  1.0  -0.5729
  O  O104  1  0.422100  0.504900  0.355000  1.0  -0.6561
  O  O105  1  0.429400  0.735400  0.981500  1.0  -0.5767
  O  O106  1  0.301100  0.215000  0.895600  1.0  -0.7681
  O  O107  1  0.070600  0.764600  0.481500  1.0  -0.577
  O  O108  1  0.624700  0.829600  0.544600  1.0  -0.6336
  O  O109  1  0.284800  0.478400  0.701400  1.0  -0.7188
  O  O110  1  0.221900  0.352600  0.270000  1.0  -0.5984
  O  O111  1  0.801100  0.715000  0.604400  1.0  -0.7664
  O  O112  1  0.784800  0.978400  0.798600  1.0  -0.7191
  O  O113  1  0.278100  0.147400  0.770000  1.0  -0.5968
  O  O114  1  0.875300  0.670400  0.044600  1.0  -0.6327
  O  O115  1  0.260800  0.247300  0.688300  1.0  -0.5574
  O  O116  1  0.570600  0.264600  0.018500  1.0  -0.5749
  O  O117  1  0.760800  0.747300  0.811700  1.0  -0.5585
  O  O118  1  0.929400  0.235400  0.518500  1.0  -0.5769
