# generated using pymatgen
data_La2CuH8C24(NO2)8
_symmetry_space_group_name_H-M   'P 1'
_cell_length_a   6.16350000
_cell_length_b   12.28720000
_cell_length_c   22.82600000
_cell_angle_alpha   90.00000000
_cell_angle_beta   90.00000000
_cell_angle_gamma   89.64580000
_symmetry_Int_Tables_number   1
_chemical_formula_structural   La2CuH8C24(NO2)8
_chemical_formula_sum   'La4 Cu2 H16 C48 N16 O32'
_cell_volume   1728.62918857
_cell_formula_units_Z   2
loop_
 _symmetry_equiv_pos_site_id
 _symmetry_equiv_pos_as_xyz
  1  'x, y, z'
loop_
 _atom_site_type_symbol
 _atom_site_label
 _atom_site_symmetry_multiplicity
 _atom_site_fract_x
 _atom_site_fract_y
 _atom_site_fract_z
 _atom_site_occupancy
 _atom_site_charge
  La  La1  1  0.041300  0.443700  0.647950  1.0  2.1435
  La  La2  1  0.541300  0.943700  0.852050  1.0  2.1424
  La  La3  1  0.958700  0.556300  0.352050  1.0  2.142
  La  La4  1  0.458700  0.056300  0.147950  1.0  2.1431
  Cu  Cu5  1  0.000000  0.500000  0.000000  1.0  0.9479
  Cu  Cu6  1  0.500000  0.000000  0.500000  1.0  0.9479
  H  H7  1  0.952900  0.926500  0.677800  1.0  0.0786
  H  H8  1  0.936700  0.250400  0.159100  1.0  0.0873
  H  H9  1  0.047100  0.073500  0.322200  1.0  0.0778
  H  H10  1  0.070600  0.393700  0.212100  1.0  0.0779
  H  H11  1  0.666900  0.892300  0.616300  1.0  0.1174
  H  H12  1  0.570600  0.893700  0.287900  1.0  0.0779
  H  H13  1  0.333100  0.107700  0.383700  1.0  0.1179
  H  H14  1  0.929400  0.606300  0.787900  1.0  0.0779
  H  H15  1  0.429400  0.106300  0.712100  1.0  0.0779
  H  H16  1  0.547100  0.573500  0.177800  1.0  0.0774
  H  H17  1  0.063300  0.749600  0.840900  1.0  0.0874
  H  H18  1  0.563300  0.249600  0.659100  1.0  0.0877
  H  H19  1  0.833100  0.607700  0.116300  1.0  0.1181
  H  H20  1  0.436700  0.750400  0.340900  1.0  0.0875
  H  H21  1  0.166900  0.392300  0.883700  1.0  0.1174
  H  H22  1  0.452900  0.426500  0.822200  1.0  0.0783
  C  C23  1  0.065900  0.030300  0.355290  1.0  0.1687
  C  C24  1  0.656300  0.776700  0.736140  1.0  0.6527
  C  C25  1  0.843700  0.723300  0.236140  1.0  0.6515
  C  C26  1  0.237600  0.051600  0.392310  1.0  0.132
  C  C27  1  0.284100  0.305500  0.075470  1.0  0.7043
  C  C28  1  0.565900  0.530300  0.144710  1.0  0.1682
  C  C29  1  0.545500  0.609500  0.914050  1.0  0.1118
  C  C30  1  0.886500  0.119900  0.771170  1.0  0.0497
  C  C31  1  0.956500  0.216000  0.744340  1.0  0.0711
  C  C32  1  0.156300  0.276700  0.763860  1.0  0.652
  C  C33  1  0.522200  0.547200  0.688600  1.0  0.6919
  C  C34  1  0.567300  0.132300  0.720560  1.0  0.1451
  C  C35  1  0.626000  0.410800  0.047970  1.0  0.0431
  C  C36  1  0.126000  0.910800  0.452030  1.0  0.0445
  C  C37  1  0.715900  0.694500  0.924530  1.0  0.7027
  C  C38  1  0.434100  0.469700  0.855290  1.0  0.1684
  C  C39  1  0.954500  0.890500  0.414050  1.0  0.1118
  C  C40  1  0.374000  0.589200  0.952030  1.0  0.0475
  C  C41  1  0.386500  0.619900  0.728830  1.0  0.0485
  C  C42  1  0.022200  0.047200  0.811400  1.0  0.693
  C  C43  1  0.477800  0.452800  0.311400  1.0  0.6935
  C  C44  1  0.454500  0.390500  0.085950  1.0  0.1117
  C  C45  1  0.874000  0.089200  0.547970  1.0  0.0475
  C  C46  1  0.784100  0.805500  0.424530  1.0  0.7049
  C  C47  1  0.934100  0.969700  0.644710  1.0  0.1689
  C  C48  1  0.215900  0.194500  0.575470  1.0  0.7047
  C  C49  1  0.932700  0.367700  0.220560  1.0  0.1442
  C  C50  1  0.456500  0.716000  0.755660  1.0  0.0708
  C  C51  1  0.826100  0.149700  0.491760  1.0  0.6609
  C  C52  1  0.045500  0.109500  0.585950  1.0  0.1118
  C  C53  1  0.067300  0.632300  0.779440  1.0  0.1446
  C  C54  1  0.613500  0.380100  0.271170  1.0  0.0501
  C  C55  1  0.326100  0.649700  0.008240  1.0  0.6586
  C  C56  1  0.977800  0.952800  0.188600  1.0  0.6929
  C  C57  1  0.543500  0.284000  0.244340  1.0  0.0722
  C  C58  1  0.737600  0.551600  0.107690  1.0  0.1317
  C  C59  1  0.432700  0.867700  0.279440  1.0  0.1441
  C  C60  1  0.043500  0.784000  0.255660  1.0  0.0712
  C  C61  1  0.645200  0.220600  0.689640  1.0  0.128
  C  C62  1  0.354800  0.779400  0.310360  1.0  0.1317
  C  C63  1  0.854800  0.279400  0.189640  1.0  0.1281
  C  C64  1  0.762400  0.948400  0.607690  1.0  0.1312
  C  C65  1  0.262400  0.448400  0.892310  1.0  0.1309
  C  C66  1  0.673900  0.350300  0.991760  1.0  0.6608
  C  C67  1  0.173900  0.850300  0.508240  1.0  0.6617
  C  C68  1  0.113500  0.880100  0.228830  1.0  0.0492
  C  C69  1  0.145200  0.720600  0.810360  1.0  0.1279
  C  C70  1  0.343700  0.223300  0.263860  1.0  0.6512
  N  N71  1  0.074600  0.050500  0.634770  1.0  -0.4221
  N  N72  1  0.315900  0.916400  0.237890  1.0  -0.4288
  N  N73  1  0.733900  0.008600  0.559380  1.0  -0.2888
  N  N74  1  0.266100  0.991400  0.440620  1.0  -0.2876
  N  N75  1  0.766100  0.491400  0.059380  1.0  -0.2876
  N  N76  1  0.574600  0.550500  0.865230  1.0  -0.4212
  N  N77  1  0.425400  0.449500  0.134770  1.0  -0.4234
  N  N78  1  0.663300  0.234900  0.202990  1.0  -0.4412
  N  N79  1  0.233900  0.508600  0.940620  1.0  -0.2884
  N  N80  1  0.815900  0.416400  0.262110  1.0  -0.4272
  N  N81  1  0.925400  0.949500  0.365230  1.0  -0.423
  N  N82  1  0.336700  0.765100  0.797010  1.0  -0.4403
  N  N83  1  0.184100  0.583600  0.737890  1.0  -0.4304
  N  N84  1  0.836700  0.265100  0.702990  1.0  -0.4398
  N  N85  1  0.163300  0.734900  0.297010  1.0  -0.4411
  N  N86  1  0.684100  0.083600  0.762110  1.0  -0.4278
  O  O87  1  0.223000  0.350500  0.730170  1.0  -0.6134
  O  O88  1  0.723000  0.850500  0.769830  1.0  -0.614
  O  O89  1  0.922700  0.010800  0.855330  1.0  -0.685
  O  O90  1  0.768400  0.745900  0.187500  1.0  -0.5411
  O  O91  1  0.372300  0.168500  0.544010  1.0  -0.6287
  O  O92  1  0.077300  0.989200  0.144670  1.0  -0.6849
  O  O93  1  0.127700  0.331500  0.044010  1.0  -0.629
  O  O94  1  0.195400  0.282600  0.602830  1.0  -0.7354
  O  O95  1  0.731600  0.754100  0.687500  1.0  -0.5394
  O  O96  1  0.231600  0.254100  0.812500  1.0  -0.5389
  O  O97  1  0.068500  0.766700  0.518300  1.0  -0.53
  O  O98  1  0.817900  0.391400  0.959820  1.0  -0.5638
  O  O99  1  0.577300  0.489200  0.355330  1.0  -0.6858
  O  O100  1  0.422700  0.510800  0.644670  1.0  -0.6842
  O  O101  1  0.288800  0.476600  0.297290  1.0  -0.6595
  O  O102  1  0.277000  0.149500  0.230170  1.0  -0.6145
  O  O103  1  0.872300  0.668500  0.955990  1.0  -0.6283
  O  O104  1  0.627700  0.831500  0.455990  1.0  -0.6284
  O  O105  1  0.182100  0.608600  0.040180  1.0  -0.563
  O  O106  1  0.711200  0.523400  0.702710  1.0  -0.6586
  O  O107  1  0.682100  0.108600  0.459820  1.0  -0.5632
  O  O108  1  0.568500  0.266700  0.981700  1.0  -0.5317
  O  O109  1  0.804600  0.717400  0.397170  1.0  -0.7384
  O  O110  1  0.304600  0.217400  0.102830  1.0  -0.7361
  O  O111  1  0.695400  0.782600  0.897170  1.0  -0.7366
  O  O112  1  0.317900  0.891400  0.540180  1.0  -0.5638
  O  O113  1  0.931500  0.233300  0.481700  1.0  -0.5334
  O  O114  1  0.788800  0.976600  0.202710  1.0  -0.6593
  O  O115  1  0.431500  0.733300  0.018300  1.0  -0.5332
  O  O116  1  0.268400  0.245900  0.312500  1.0  -0.5421
  O  O117  1  0.777000  0.649500  0.269830  1.0  -0.6141
  O  O118  1  0.211200  0.023400  0.797290  1.0  -0.6585
