# generated using pymatgen
data_Ho2CuH16C24(N2O5)4
_symmetry_space_group_name_H-M   'P 1'
_cell_length_a   6.08120000
_cell_length_b   12.38870000
_cell_length_c   23.47200000
_cell_angle_alpha   90.00000000
_cell_angle_beta   90.00000000
_cell_angle_gamma   94.32210000
_symmetry_Int_Tables_number   1
_chemical_formula_structural   Ho2CuH16C24(N2O5)4
_chemical_formula_sum   'Ho4 Cu2 H32 C48 N16 O40'
_cell_volume   1763.30844267
_cell_formula_units_Z   2
loop_
 _symmetry_equiv_pos_site_id
 _symmetry_equiv_pos_as_xyz
  1  'x, y, z'
loop_
 _atom_site_type_symbol
 _atom_site_label
 _atom_site_symmetry_multiplicity
 _atom_site_fract_x
 _atom_site_fract_y
 _atom_site_fract_z
 _atom_site_occupancy
 _atom_site_charge
  Ho  Ho1  1  0.008690  0.609170  0.831000  1.0  2.1831
  Ho  Ho2  1  0.508690  0.109170  0.669000  1.0  2.1828
  Ho  Ho3  1  0.991310  0.390830  0.169000  1.0  2.1807
  Ho  Ho4  1  0.491310  0.890830  0.331000  1.0  2.1812
  Cu  Cu5  1  0.000000  0.500000  0.500000  1.0  0.8583
  Cu  Cu6  1  0.500000  0.000000  0.000000  1.0  0.8583
  H  H7  1  0.530200  0.775100  0.837200  1.0  0.0705
  H  H8  1  0.871500  0.398300  0.860400  1.0  0.4403
  H  H9  1  0.128500  0.601700  0.139600  1.0  0.4411
  H  H10  1  0.175500  0.643500  0.604100  1.0  0.093
  H  H11  1  0.555400  0.374700  0.328700  1.0  0.0617
  H  H12  1  0.675500  0.143500  0.895900  1.0  0.0929
  H  H13  1  0.212500  0.151700  0.563600  1.0  0.4817
  H  H14  1  0.371500  0.898300  0.639600  1.0  0.4403
  H  H15  1  0.657600  0.592800  0.885300  1.0  0.4372
  H  H16  1  0.842400  0.907200  0.385300  1.0  0.4375
  H  H17  1  0.469800  0.224900  0.162800  1.0  0.0702
  H  H18  1  0.787500  0.848300  0.436400  1.0  0.4817
  H  H19  1  0.112300  0.577700  0.293400  1.0  0.0736
  H  H20  1  0.055400  0.874700  0.171300  1.0  0.062
  H  H21  1  0.612300  0.077700  0.206600  1.0  0.0734
  H  H22  1  0.628500  0.101700  0.360400  1.0  0.4408
  H  H23  1  0.595100  0.923900  0.639800  1.0  0.4489
  H  H24  1  0.324500  0.856500  0.104100  1.0  0.0932
  H  H25  1  0.712500  0.651700  0.936400  1.0  0.4806
  H  H26  1  0.157600  0.092800  0.614700  1.0  0.4364
  H  H27  1  0.287500  0.348300  0.063600  1.0  0.4824
  H  H28  1  0.444600  0.625300  0.671300  1.0  0.0618
  H  H29  1  0.944600  0.125300  0.828700  1.0  0.0618
  H  H30  1  0.095100  0.423900  0.860200  1.0  0.4503
  H  H31  1  0.342400  0.407200  0.114700  1.0  0.4379
  H  H32  1  0.387700  0.922300  0.793400  1.0  0.0739
  H  H33  1  0.969800  0.724900  0.337200  1.0  0.0695
  H  H34  1  0.904900  0.576100  0.139800  1.0  0.4484
  H  H35  1  0.824500  0.356500  0.395900  1.0  0.0931
  H  H36  1  0.030200  0.275100  0.662800  1.0  0.0704
  H  H37  1  0.887700  0.422300  0.706600  1.0  0.0742
  H  H38  1  0.404900  0.076100  0.360200  1.0  0.4511
  C  C39  1  0.818300  0.856100  0.992600  1.0  0.5975
  C  C40  1  0.681700  0.643900  0.492600  1.0  0.5963
  C  C41  1  0.474500  0.098500  0.217400  1.0  0.1308
  C  C42  1  0.181700  0.143900  0.007400  1.0  0.5983
  C  C43  1  0.525500  0.901500  0.782600  1.0  0.1315
  C  C44  1  0.095100  0.173400  0.251800  1.0  0.1054
  C  C45  1  0.306000  0.662800  0.405500  1.0  0.6819
  C  C46  1  0.532800  0.425100  0.596500  1.0  0.0891
  C  C47  1  0.158400  0.072900  0.270200  1.0  0.0357
  C  C48  1  0.363900  0.434000  0.556400  1.0  0.1037
  C  C49  1  0.863900  0.934000  0.943600  1.0  0.1038
  C  C50  1  0.410100  0.732100  0.221800  1.0  0.6851
  C  C51  1  0.764800  0.086000  0.898500  1.0  0.1358
  C  C52  1  0.910100  0.232100  0.278200  1.0  0.6851
  C  C53  1  0.428500  0.575200  0.641800  1.0  0.1622
  C  C54  1  0.136100  0.066000  0.056400  1.0  0.1041
  C  C55  1  0.904900  0.826600  0.748200  1.0  0.1066
  C  C56  1  0.735200  0.414000  0.398500  1.0  0.1369
  C  C57  1  0.974500  0.598500  0.282600  1.0  0.1332
  C  C58  1  0.589900  0.267900  0.778200  1.0  0.6871
  C  C59  1  0.483900  0.510300  0.803900  1.0  0.6312
  C  C60  1  0.658400  0.572900  0.229800  1.0  0.0356
  C  C61  1  0.025500  0.401500  0.717400  1.0  0.1319
  C  C62  1  0.318300  0.356100  0.507400  1.0  0.5972
  C  C63  1  0.467200  0.574900  0.403500  1.0  0.0901
  C  C64  1  0.595100  0.673400  0.248200  1.0  0.1057
  C  C65  1  0.404900  0.326600  0.751800  1.0  0.1066
  C  C66  1  0.341600  0.427100  0.770200  1.0  0.0354
  C  C67  1  0.636100  0.566000  0.443600  1.0  0.1039
  C  C68  1  0.264800  0.586000  0.601500  1.0  0.1359
  C  C69  1  0.893700  0.690500  0.307100  1.0  0.1284
  C  C70  1  0.694000  0.337200  0.594500  1.0  0.6857
  C  C71  1  0.928500  0.075200  0.858200  1.0  0.1618
  C  C72  1  0.393700  0.190500  0.192900  1.0  0.1282
  C  C73  1  0.194000  0.837200  0.905500  1.0  0.6857
  C  C74  1  0.967200  0.074900  0.096500  1.0  0.0897
  C  C75  1  0.571500  0.424800  0.358200  1.0  0.1614
  C  C76  1  0.032800  0.925100  0.903500  1.0  0.0896
  C  C77  1  0.089900  0.767900  0.721800  1.0  0.6864
  C  C78  1  0.235200  0.914000  0.101500  1.0  0.1364
  C  C79  1  0.516100  0.489700  0.196100  1.0  0.6307
  C  C80  1  0.841600  0.927100  0.729800  1.0  0.0355
  C  C81  1  0.106300  0.309500  0.692900  1.0  0.128
  C  C82  1  0.016100  0.989700  0.303900  1.0  0.6313
  C  C83  1  0.806000  0.162800  0.094500  1.0  0.6828
  C  C84  1  0.606300  0.809500  0.807100  1.0  0.1282
  C  C85  1  0.071500  0.924800  0.141800  1.0  0.1621
  C  C86  1  0.983900  0.010300  0.696100  1.0  0.6307
  N  N87  1  0.790100  0.770400  0.788000  1.0  -0.4579
  N  N88  1  0.234900  0.515700  0.559600  1.0  -0.2803
  N  N89  1  0.265100  0.984300  0.059600  1.0  -0.2772
  N  N90  1  0.290100  0.270400  0.712000  1.0  -0.4582
  N  N91  1  0.438100  0.503900  0.360200  1.0  -0.4426
  N  N92  1  0.143700  0.460200  0.756100  1.0  -0.4316
  N  N93  1  0.209900  0.229600  0.212000  1.0  -0.4608
  N  N94  1  0.734900  0.015700  0.940400  1.0  -0.28
  N  N95  1  0.643700  0.960200  0.743900  1.0  -0.4321
  N  N96  1  0.561900  0.496100  0.639800  1.0  -0.4455
  N  N97  1  0.356300  0.039800  0.256100  1.0  -0.4288
  N  N98  1  0.938100  0.003900  0.139800  1.0  -0.4463
  N  N99  1  0.061900  0.996100  0.860200  1.0  -0.4415
  N  N100  1  0.709900  0.729600  0.288000  1.0  -0.4606
  N  N101  1  0.856300  0.539800  0.243900  1.0  -0.4294
  N  N102  1  0.765100  0.484300  0.440400  1.0  -0.28
  O  O103  1  0.120800  0.932300  0.337700  1.0  -0.6043
  O  O104  1  0.855100  0.353700  0.562600  1.0  -0.6442
  O  O105  1  0.355100  0.853700  0.937400  1.0  -0.6445
  O  O106  1  0.745100  0.640800  0.900900  1.0  -0.8351
  O  O107  1  0.254900  0.359200  0.099100  1.0  -0.8381
  O  O108  1  0.846900  0.205100  0.327000  1.0  -0.6137
  O  O109  1  0.754900  0.859200  0.400900  1.0  -0.8397
  O  O110  1  0.184100  0.021000  0.706400  1.0  -0.617
  O  O111  1  0.644900  0.146300  0.062600  1.0  -0.6424
  O  O112  1  0.324500  0.113900  0.971600  1.0  -0.5954
  O  O113  1  0.824500  0.613900  0.528400  1.0  -0.5954
  O  O114  1  0.157500  0.690800  0.750100  1.0  -0.6406
  O  O115  1  0.175500  0.386100  0.471600  1.0  -0.5942
  O  O116  1  0.315900  0.479000  0.206400  1.0  -0.6163
  O  O117  1  0.657500  0.190800  0.749900  1.0  -0.641
  O  O118  1  0.089300  0.228200  0.004300  1.0  -0.5676
  O  O119  1  0.815900  0.979000  0.293600  1.0  -0.6167
  O  O120  1  0.974400  0.438800  0.875600  1.0  -0.7934
  O  O121  1  0.842500  0.309200  0.249900  1.0  -0.6415
  O  O122  1  0.379200  0.567700  0.837700  1.0  -0.6042
  O  O123  1  0.342500  0.809200  0.250100  1.0  -0.641
  O  O124  1  0.879200  0.067700  0.662300  1.0  -0.6064
  O  O125  1  0.910700  0.771800  0.995700  1.0  -0.5659
  O  O126  1  0.656900  0.259600  0.627400  1.0  -0.6864
  O  O127  1  0.346900  0.705100  0.173000  1.0  -0.6133
  O  O128  1  0.410700  0.271800  0.504300  1.0  -0.5669
  O  O129  1  0.589300  0.728200  0.495700  1.0  -0.5655
  O  O130  1  0.343100  0.740400  0.372600  1.0  -0.6847
  O  O131  1  0.525600  0.061200  0.375600  1.0  -0.7916
  O  O132  1  0.144900  0.646300  0.437400  1.0  -0.6436
  O  O133  1  0.245100  0.140800  0.599100  1.0  -0.8357
  O  O134  1  0.153100  0.794900  0.673000  1.0  -0.6133
  O  O135  1  0.156900  0.759600  0.872600  1.0  -0.6861
  O  O136  1  0.675500  0.886100  0.028400  1.0  -0.594
  O  O137  1  0.684100  0.521000  0.793600  1.0  -0.6174
  O  O138  1  0.025600  0.561200  0.124400  1.0  -0.7941
  O  O139  1  0.653100  0.294900  0.827000  1.0  -0.6139
  O  O140  1  0.843100  0.240400  0.127400  1.0  -0.6847
  O  O141  1  0.474400  0.938800  0.624400  1.0  -0.7937
  O  O142  1  0.620800  0.432300  0.162300  1.0  -0.6056
