# generated using pymatgen
data_Eu2CuH8C24(NO2)8
_symmetry_space_group_name_H-M   'P 1'
_cell_length_a   6.09280000
_cell_length_b   12.11830000
_cell_length_c   22.57700000
_cell_angle_alpha   90.00000000
_cell_angle_beta   90.00000000
_cell_angle_gamma   90.64310000
_symmetry_Int_Tables_number   1
_chemical_formula_structural   Eu2CuH8C24(NO2)8
_chemical_formula_sum   'Eu4 Cu2 H16 C48 N16 O32'
_cell_volume   1666.85375444
_cell_formula_units_Z   2
loop_
 _symmetry_equiv_pos_site_id
 _symmetry_equiv_pos_as_xyz
  1  'x, y, z'
loop_
 _atom_site_type_symbol
 _atom_site_label
 _atom_site_symmetry_multiplicity
 _atom_site_fract_x
 _atom_site_fract_y
 _atom_site_fract_z
 _atom_site_occupancy
 _atom_site_charge
  Eu  Eu1  1  0.546480  0.056790  0.350760  1.0  2.1203
  Eu  Eu2  1  0.046480  0.556790  0.149240  1.0  2.1254
  Eu  Eu3  1  0.953520  0.443210  0.850760  1.0  2.1187
  Eu  Eu4  1  0.453520  0.943210  0.649240  1.0  2.1227
  Cu  Cu5  1  0.500000  0.000000  0.000000  1.0  0.921
  Cu  Cu6  1  0.000000  0.500000  0.500000  1.0  0.921
  H  H7  1  0.825500  0.389100  0.616700  1.0  0.1078
  H  H8  1  0.174500  0.610900  0.383300  1.0  0.1077
  H  H9  1  0.960000  0.074600  0.179200  1.0  0.08
  H  H10  1  0.571600  0.106500  0.787700  1.0  0.0741
  H  H11  1  0.460000  0.574600  0.320800  1.0  0.0795
  H  H12  1  0.428400  0.893500  0.212300  1.0  0.0742
  H  H13  1  0.071600  0.606500  0.712300  1.0  0.0742
  H  H14  1  0.953000  0.768000  0.656000  1.0  0.1073
  H  H15  1  0.928400  0.393500  0.287700  1.0  0.0741
  H  H16  1  0.040000  0.925400  0.820800  1.0  0.0794
  H  H17  1  0.325500  0.889100  0.883300  1.0  0.1078
  H  H18  1  0.047000  0.232000  0.344000  1.0  0.1068
  H  H19  1  0.540000  0.425400  0.679200  1.0  0.0794
  H  H20  1  0.547000  0.732000  0.156000  1.0  0.1071
  H  H21  1  0.674500  0.110900  0.116700  1.0  0.1077
  H  H22  1  0.453000  0.268000  0.844000  1.0  0.1069
  C  C23  1  0.567600  0.867200  0.220900  1.0  0.1157
  C  C24  1  0.940600  0.031200  0.145600  1.0  0.1517
  C  C25  1  0.475500  0.542600  0.811900  1.0  0.7044
  C  C26  1  0.855400  0.723100  0.689100  1.0  0.1652
  C  C27  1  0.718600  0.302600  0.422100  1.0  0.7236
  C  C28  1  0.837000  0.279100  0.736500  1.0  0.6501
  C  C29  1  0.337000  0.779100  0.763500  1.0  0.6497
  C  C30  1  0.231000  0.946700  0.891800  1.0  0.1194
  C  C31  1  0.611500  0.618600  0.772200  1.0  0.0295
  C  C32  1  0.781400  0.197400  0.922100  1.0  0.7285
  C  C33  1  0.675100  0.653400  0.492100  1.0  0.6685
  C  C34  1  0.457300  0.284500  0.256100  1.0  0.0665
  C  C35  1  0.731000  0.446700  0.608200  1.0  0.1198
  C  C36  1  0.067600  0.367200  0.279100  1.0  0.1149
  C  C37  1  0.876800  0.909400  0.048500  1.0  0.0397
  C  C38  1  0.218600  0.802600  0.077900  1.0  0.7267
  C  C39  1  0.048100  0.888700  0.087300  1.0  0.1639
  C  C40  1  0.548100  0.388700  0.412700  1.0  0.164
  C  C41  1  0.281400  0.697400  0.577900  1.0  0.7289
  C  C42  1  0.623200  0.590600  0.548500  1.0  0.044
  C  C43  1  0.269000  0.553300  0.391800  1.0  0.1181
  C  C44  1  0.376800  0.409400  0.451500  1.0  0.0383
  C  C45  1  0.824900  0.846600  0.992100  1.0  0.6655
  C  C46  1  0.440600  0.531200  0.354400  1.0  0.1522
  C  C47  1  0.388500  0.381400  0.227800  1.0  0.0286
  C  C48  1  0.932400  0.632800  0.720900  1.0  0.114
  C  C49  1  0.059400  0.968800  0.854400  1.0  0.1508
  C  C50  1  0.024500  0.957400  0.311900  1.0  0.706
  C  C51  1  0.175100  0.153400  0.007900  1.0  0.6655
  C  C52  1  0.957300  0.784500  0.243900  1.0  0.0667
  C  C53  1  0.542700  0.715500  0.743900  1.0  0.0664
  C  C54  1  0.111500  0.118600  0.727800  1.0  0.0279
  C  C55  1  0.123200  0.090600  0.951500  1.0  0.0389
  C  C56  1  0.951900  0.111300  0.912700  1.0  0.1645
  C  C57  1  0.524500  0.457400  0.188100  1.0  0.7027
  C  C58  1  0.324900  0.346600  0.507900  1.0  0.6657
  C  C59  1  0.144600  0.276900  0.310900  1.0  0.162
  C  C60  1  0.432400  0.132800  0.779100  1.0  0.116
  C  C61  1  0.042700  0.215500  0.756100  1.0  0.0666
  C  C62  1  0.355400  0.223100  0.810900  1.0  0.1648
  C  C63  1  0.163000  0.720900  0.263500  1.0  0.6533
  C  C64  1  0.559400  0.468800  0.645600  1.0  0.1512
  C  C65  1  0.769000  0.053300  0.108200  1.0  0.118
  C  C66  1  0.451900  0.611300  0.587300  1.0  0.1644
  C  C67  1  0.644600  0.776900  0.189100  1.0  0.1631
  C  C68  1  0.888500  0.881400  0.272200  1.0  0.0288
  C  C69  1  0.663000  0.220900  0.236500  1.0  0.6512
  C  C70  1  0.975500  0.042600  0.688100  1.0  0.7028
  N  N71  1  0.316600  0.083000  0.737300  1.0  -0.4239
  N  N72  1  0.737300  0.992100  0.059600  1.0  -0.2642
  N  N73  1  0.262700  0.007900  0.940400  1.0  -0.2594
  N  N74  1  0.337300  0.233200  0.297100  1.0  -0.4281
  N  N75  1  0.662700  0.766800  0.702900  1.0  -0.4294
  N  N76  1  0.581400  0.449100  0.364800  1.0  -0.4425
  N  N77  1  0.162700  0.266800  0.797100  1.0  -0.4293
  N  N78  1  0.081400  0.949100  0.135200  1.0  -0.4486
  N  N79  1  0.918600  0.050900  0.864800  1.0  -0.4468
  N  N80  1  0.237300  0.492100  0.440400  1.0  -0.2647
  N  N81  1  0.683400  0.917000  0.262700  1.0  -0.4229
  N  N82  1  0.418600  0.550900  0.635200  1.0  -0.442
  N  N83  1  0.837300  0.733200  0.202900  1.0  -0.4284
  N  N84  1  0.183400  0.417000  0.237300  1.0  -0.4236
  N  N85  1  0.762700  0.507900  0.559600  1.0  -0.259
  N  N86  1  0.816600  0.583000  0.762700  1.0  -0.4219
  O  O87  1  0.920500  0.996700  0.355100  1.0  -0.6415
  O  O88  1  0.378400  0.828000  0.044900  1.0  -0.6501
  O  O89  1  0.241800  0.746100  0.312100  1.0  -0.553
  O  O90  1  0.741800  0.246100  0.187900  1.0  -0.5551
  O  O91  1  0.722700  0.146300  0.270100  1.0  -0.6021
  O  O92  1  0.758200  0.253900  0.687900  1.0  -0.5562
  O  O93  1  0.718000  0.479600  0.200800  1.0  -0.708
  O  O94  1  0.816800  0.611000  0.458900  1.0  -0.5743
  O  O95  1  0.777300  0.353700  0.770100  1.0  -0.6032
  O  O96  1  0.073800  0.241700  0.017300  1.0  -0.569
  O  O97  1  0.683200  0.889000  0.958900  1.0  -0.5733
  O  O98  1  0.573800  0.741700  0.482700  1.0  -0.5692
  O  O99  1  0.799800  0.287200  0.894600  1.0  -0.6943
  O  O100  1  0.700200  0.212800  0.394600  1.0  -0.6914
  O  O101  1  0.277300  0.853700  0.729900  1.0  -0.6018
  O  O102  1  0.579500  0.503300  0.855100  1.0  -0.6418
  O  O103  1  0.222700  0.646300  0.229900  1.0  -0.6017
  O  O104  1  0.426200  0.258300  0.517300  1.0  -0.5673
  O  O105  1  0.926200  0.758300  0.982700  1.0  -0.5682
  O  O106  1  0.621600  0.172000  0.955100  1.0  -0.6487
  O  O107  1  0.079500  0.003300  0.644900  1.0  -0.6385
  O  O108  1  0.218000  0.979600  0.299200  1.0  -0.7082
  O  O109  1  0.200200  0.712800  0.105400  1.0  -0.6937
  O  O110  1  0.282000  0.520400  0.799200  1.0  -0.7079
  O  O111  1  0.299800  0.787200  0.605400  1.0  -0.6935
  O  O112  1  0.878400  0.328000  0.455100  1.0  -0.6502
  O  O113  1  0.782000  0.020400  0.700800  1.0  -0.7079
  O  O114  1  0.183200  0.389000  0.541100  1.0  -0.5726
  O  O115  1  0.121600  0.672000  0.544900  1.0  -0.6484
  O  O116  1  0.316800  0.111000  0.041100  1.0  -0.574
  O  O117  1  0.420500  0.496700  0.144900  1.0  -0.6372
  O  O118  1  0.258200  0.753900  0.812100  1.0  -0.5544
