# generated using pymatgen
data_Gd2CuH8C24(NO2)8
_symmetry_space_group_name_H-M   'P 1'
_cell_length_a   6.04070000
_cell_length_b   12.32970000
_cell_length_c   23.58000000
_cell_angle_alpha   90.00000000
_cell_angle_beta   90.00000000
_cell_angle_gamma   94.05320000
_symmetry_Int_Tables_number   1
_chemical_formula_structural   Gd2CuH8C24(NO2)8
_chemical_formula_sum   'Gd4 Cu2 H16 C48 N16 O32'
_cell_volume   1751.84622682
_cell_formula_units_Z   2
loop_
 _symmetry_equiv_pos_site_id
 _symmetry_equiv_pos_as_xyz
  1  'x, y, z'
loop_
 _atom_site_type_symbol
 _atom_site_label
 _atom_site_symmetry_multiplicity
 _atom_site_fract_x
 _atom_site_fract_y
 _atom_site_fract_z
 _atom_site_occupancy
 _atom_site_charge
  Gd  Gd1  1  0.011570  0.109830  0.328610  1.0  2.1698
  Gd  Gd2  1  0.488430  0.390170  0.828610  1.0  2.1693
  Gd  Gd3  1  0.511570  0.609830  0.171390  1.0  2.1695
  Gd  Gd4  1  0.988430  0.890170  0.671390  1.0  2.1677
  Cu  Cu5  1  0.000000  0.000000  0.000000  1.0  0.8394
  Cu  Cu6  1  0.500000  0.500000  0.500000  1.0  0.8392
  H  H7  1  0.322000  0.356800  0.603900  1.0  0.0934
  H  H8  1  0.546700  0.874900  0.829800  1.0  0.0719
  H  H9  1  0.046700  0.374900  0.670200  1.0  0.0721
  H  H10  1  0.453300  0.125100  0.170200  1.0  0.0715
  H  H11  1  0.178000  0.143200  0.103900  1.0  0.0932
  H  H12  1  0.953300  0.625100  0.329800  1.0  0.0713
  H  H13  1  0.468200  0.725900  0.664200  1.0  0.0858
  H  H14  1  0.678000  0.643200  0.396100  1.0  0.0934
  H  H15  1  0.891900  0.924900  0.207600  1.0  0.0754
  H  H16  1  0.822000  0.856800  0.896100  1.0  0.0935
  H  H17  1  0.531800  0.274100  0.335800  1.0  0.086
  H  H18  1  0.031800  0.774100  0.164200  1.0  0.0857
  H  H19  1  0.608100  0.575100  0.707600  1.0  0.0752
  H  H20  1  0.391900  0.424900  0.292400  1.0  0.0751
  H  H21  1  0.108100  0.075100  0.792400  1.0  0.075
  H  H22  1  0.968200  0.225900  0.835800  1.0  0.0861
  C  C23  1  0.699200  0.833400  0.092900  1.0  0.6963
  C  C24  1  0.433500  0.073700  0.141500  1.0  0.1571
  C  C25  1  0.566500  0.926300  0.858500  1.0  0.1561
  C  C26  1  0.632200  0.068800  0.944200  1.0  0.0932
  C  C27  1  0.267200  0.084900  0.101400  1.0  0.1377
  C  C28  1  0.965500  0.579600  0.595700  1.0  0.0398
  C  C29  1  0.984800  0.510700  0.196900  1.0  0.7034
  C  C30  1  0.800800  0.666667  0.592900  1.0  0.6937
  C  C31  1  0.586400  0.172100  0.747700  1.0  0.0521
  C  C32  1  0.465500  0.079600  0.904300  1.0  0.0407
  C  C33  1  0.300800  0.166600  0.907100  1.0  0.6946
  C  C34  1  0.767200  0.584900  0.398600  1.0  0.1371
  C  C35  1  0.889700  0.190900  0.806300  1.0  0.1269
  C  C36  1  0.732800  0.915100  0.898600  1.0  0.1372
  C  C37  1  0.100600  0.268400  0.222000  1.0  0.648
  C  C38  1  0.655700  0.072200  0.729700  1.0  0.1497
  C  C39  1  0.899400  0.731600  0.778000  1.0  0.6482
  C  C40  1  0.132200  0.568800  0.555800  1.0  0.0944
  C  C41  1  0.529400  0.402700  0.281400  1.0  0.1596
  C  C42  1  0.183400  0.645100  0.508000  1.0  0.6299
  C  C43  1  0.155700  0.572200  0.770300  1.0  0.1505
  C  C44  1  0.470600  0.597300  0.718600  1.0  0.1601
  C  C45  1  0.600600  0.768400  0.278000  1.0  0.6492
  C  C46  1  0.034500  0.420400  0.404300  1.0  0.0404
  C  C47  1  0.015200  0.489300  0.803100  1.0  0.704
  C  C48  1  0.389700  0.690900  0.693700  1.0  0.1279
  C  C49  1  0.683400  0.145100  0.992000  1.0  0.6287
  C  C50  1  0.515200  0.989300  0.696900  1.0  0.7033
  C  C51  1  0.344300  0.927800  0.270300  1.0  0.1505
  C  C52  1  0.199200  0.333400  0.407100  1.0  0.6966
  C  C53  1  0.610300  0.309100  0.306300  1.0  0.1273
  C  C54  1  0.316600  0.854900  0.008000  1.0  0.6287
  C  C55  1  0.066500  0.426300  0.641500  1.0  0.1563
  C  C56  1  0.029400  0.902700  0.218600  1.0  0.1606
  C  C57  1  0.970600  0.097300  0.781400  1.0  0.1593
  C  C58  1  0.367800  0.931200  0.055800  1.0  0.0936
  C  C59  1  0.232800  0.415100  0.601400  1.0  0.1386
  C  C60  1  0.086400  0.672100  0.752300  1.0  0.0527
  C  C61  1  0.110300  0.809100  0.193700  1.0  0.1262
  C  C62  1  0.913600  0.327900  0.247700  1.0  0.0521
  C  C63  1  0.867800  0.431200  0.444200  1.0  0.0942
  C  C64  1  0.933500  0.573700  0.358500  1.0  0.1574
  C  C65  1  0.816600  0.354900  0.492000  1.0  0.6292
  C  C66  1  0.534500  0.920400  0.095700  1.0  0.0404
  C  C67  1  0.484800  0.010700  0.303100  1.0  0.7054
  C  C68  1  0.399400  0.231600  0.722000  1.0  0.6473
  C  C69  1  0.413600  0.827900  0.252300  1.0  0.0527
  C  C70  1  0.844300  0.427800  0.229700  1.0  0.1493
  N  N71  1  0.200800  0.729900  0.712200  1.0  -0.4915
  N  N72  1  0.853800  0.040700  0.742600  1.0  -0.3958
  N  N73  1  0.646200  0.459300  0.242600  1.0  -0.3964
  N  N74  1  0.765100  0.987200  0.940700  1.0  -0.2548
  N  N75  1  0.564500  0.991500  0.139900  1.0  -0.4492
  N  N76  1  0.299200  0.770100  0.212200  1.0  -0.4892
  N  N77  1  0.700800  0.229900  0.787800  1.0  -0.4917
  N  N78  1  0.935500  0.508500  0.639900  1.0  -0.4505
  N  N79  1  0.734900  0.512800  0.440700  1.0  -0.2552
  N  N80  1  0.064500  0.491500  0.360100  1.0  -0.4476
  N  N81  1  0.353800  0.540700  0.757400  1.0  -0.3961
  N  N82  1  0.435500  0.008500  0.860100  1.0  -0.4606
  N  N83  1  0.234900  0.012800  0.059300  1.0  -0.2543
  N  N84  1  0.799200  0.270100  0.287800  1.0  -0.4901
  N  N85  1  0.146200  0.959300  0.257400  1.0  -0.398
  N  N86  1  0.265100  0.487200  0.559300  1.0  -0.2539
  O  O87  1  0.618600  0.930900  0.662900  1.0  -0.615
  O  O88  1  0.408400  0.769600  0.005200  1.0  -0.5248
  O  O89  1  0.836600  0.746500  0.625300  1.0  -0.6719
  O  O90  1  0.665600  0.795900  0.325800  1.0  -0.5643
  O  O91  1  0.834400  0.704100  0.825800  1.0  -0.5656
  O  O92  1  0.678400  0.386700  0.529000  1.0  -0.5875
  O  O93  1  0.881400  0.569100  0.162900  1.0  -0.6137
  O  O94  1  0.834400  0.809200  0.749500  1.0  -0.6306
  O  O95  1  0.641000  0.650500  0.561700  1.0  -0.6161
  O  O96  1  0.908400  0.269600  0.494800  1.0  -0.5239
  O  O97  1  0.690400  0.022400  0.293100  1.0  -0.708
  O  O98  1  0.334400  0.204100  0.674200  1.0  -0.5647
  O  O99  1  0.381400  0.069100  0.337100  1.0  -0.6137
  O  O100  1  0.859000  0.849500  0.061700  1.0  -0.6173
  O  O101  1  0.141000  0.150500  0.938300  1.0  -0.6156
  O  O102  1  0.663400  0.753500  0.125300  1.0  -0.668
  O  O103  1  0.309600  0.977600  0.706900  1.0  -0.7067
  O  O104  1  0.359000  0.349500  0.438300  1.0  -0.617
  O  O105  1  0.165600  0.190800  0.250500  1.0  -0.6305
  O  O106  1  0.321600  0.613300  0.471000  1.0  -0.5902
  O  O107  1  0.336600  0.246500  0.874700  1.0  -0.6671
  O  O108  1  0.118600  0.430900  0.837100  1.0  -0.6163
  O  O109  1  0.665600  0.690800  0.249500  1.0  -0.6305
  O  O110  1  0.591600  0.230400  0.994800  1.0  -0.5239
  O  O111  1  0.165600  0.295900  0.174200  1.0  -0.565
  O  O112  1  0.809600  0.477600  0.793100  1.0  -0.7079
  O  O113  1  0.163400  0.253500  0.374700  1.0  -0.6684
  O  O114  1  0.178400  0.886700  0.971000  1.0  -0.5879
  O  O115  1  0.821600  0.113300  0.029000  1.0  -0.5891
  O  O116  1  0.091600  0.730400  0.505200  1.0  -0.524
  O  O117  1  0.334400  0.309200  0.750500  1.0  -0.631
  O  O118  1  0.190400  0.522400  0.206900  1.0  -0.7061
