# generated using pymatgen
data_Ce2CuH8C24(NO2)8
_symmetry_space_group_name_H-M   'P 1'
_cell_length_a   6.15900000
_cell_length_b   12.26140000
_cell_length_c   22.79600000
_cell_angle_alpha   90.00000000
_cell_angle_beta   90.00000000
_cell_angle_gamma   89.77760000
_symmetry_Int_Tables_number   1
_chemical_formula_structural   Ce2CuH8C24(NO2)8
_chemical_formula_sum   'Ce4 Cu2 H16 C48 N16 O32'
_cell_volume   1721.49450654
_cell_formula_units_Z   2
loop_
 _symmetry_equiv_pos_site_id
 _symmetry_equiv_pos_as_xyz
  1  'x, y, z'
loop_
 _atom_site_type_symbol
 _atom_site_label
 _atom_site_symmetry_multiplicity
 _atom_site_fract_x
 _atom_site_fract_y
 _atom_site_fract_z
 _atom_site_occupancy
 _atom_site_charge
  Ce  Ce1  1  0.042560  0.943540  0.351740  1.0  2.1853
  Ce  Ce2  1  0.957440  0.056460  0.648260  1.0  2.1866
  Ce  Ce3  1  0.542560  0.443540  0.148260  1.0  2.1843
  Ce  Ce4  1  0.457440  0.556460  0.851740  1.0  2.1869
  Cu  Cu5  1  0.000000  0.000000  0.000000  1.0  0.9502
  Cu  Cu6  1  0.500000  0.500000  0.500000  1.0  0.9502
  H  H7  1  0.933400  0.746800  0.841300  1.0  0.085
  H  H8  1  0.433400  0.246800  0.658700  1.0  0.0849
  H  H9  1  0.066600  0.253200  0.158700  1.0  0.0849
  H  H10  1  0.430400  0.606200  0.286200  1.0  0.0664
  H  H11  1  0.046000  0.579200  0.676300  1.0  0.0894
  H  H12  1  0.546000  0.079200  0.823700  1.0  0.0893
  H  H13  1  0.566600  0.753200  0.341300  1.0  0.0848
  H  H14  1  0.454000  0.920800  0.176300  1.0  0.09
  H  H15  1  0.930400  0.106200  0.213800  1.0  0.0666
  H  H16  1  0.166900  0.895400  0.118100  1.0  0.0794
  H  H17  1  0.833100  0.104600  0.881900  1.0  0.0792
  H  H18  1  0.069600  0.893800  0.786200  1.0  0.0664
  H  H19  1  0.666900  0.395400  0.381900  1.0  0.0795
  H  H20  1  0.333100  0.604600  0.618100  1.0  0.0793
  H  H21  1  0.569600  0.393800  0.713800  1.0  0.0664
  H  H22  1  0.954000  0.420800  0.323700  1.0  0.0897
  C  C23  1  0.433000  0.967000  0.144300  1.0  0.1279
  C  C24  1  0.851700  0.776300  0.810800  1.0  0.1029
  C  C25  1  0.171800  0.350200  0.493100  1.0  0.6485
  C  C26  1  0.478000  0.953000  0.688300  1.0  0.7051
  C  C27  1  0.218900  0.695100  0.422900  1.0  0.6835
  C  C28  1  0.843500  0.220500  0.764200  1.0  0.6641
  C  C29  1  0.875100  0.589900  0.452100  1.0  0.0653
  C  C30  1  0.828200  0.649800  0.506900  1.0  0.648
  C  C31  1  0.022000  0.547000  0.188300  1.0  0.7031
  C  C32  1  0.954300  0.390700  0.585900  1.0  0.1309
  C  C33  1  0.545700  0.109300  0.085900  1.0  0.1311
  C  C34  1  0.766300  0.449700  0.391400  1.0  0.1615
  C  C35  1  0.385800  0.118200  0.271900  1.0  0.0711
  C  C36  1  0.931200  0.867800  0.778200  1.0  0.1551
  C  C37  1  0.114200  0.381800  0.771900  1.0  0.0717
  C  C38  1  0.281100  0.804900  0.922900  1.0  0.6833
  C  C39  1  0.233700  0.550300  0.608600  1.0  0.1596
  C  C40  1  0.953700  0.716300  0.256100  1.0  0.1003
  C  C41  1  0.266300  0.949700  0.108600  1.0  0.1614
  C  C42  1  0.568800  0.632200  0.278200  1.0  0.1553
  C  C43  1  0.343500  0.720500  0.735800  1.0  0.6637
  C  C44  1  0.624900  0.910100  0.952100  1.0  0.064
  C  C45  1  0.046300  0.283700  0.743900  1.0  0.1009
  C  C46  1  0.522000  0.047000  0.311700  1.0  0.7047
  C  C47  1  0.068800  0.132200  0.221800  1.0  0.1558
  C  C48  1  0.671800  0.850200  0.006900  1.0  0.6489
  C  C49  1  0.454300  0.890700  0.914100  1.0  0.1312
  C  C50  1  0.648300  0.723700  0.310800  1.0  0.1012
  C  C51  1  0.351700  0.276300  0.689200  1.0  0.1009
  C  C52  1  0.375100  0.089900  0.047900  1.0  0.0674
  C  C53  1  0.546300  0.783700  0.756100  1.0  0.1007
  C  C54  1  0.328200  0.149800  0.993100  1.0  0.6503
  C  C55  1  0.978000  0.453000  0.811700  1.0  0.7049
  C  C56  1  0.781100  0.304900  0.577100  1.0  0.678
  C  C57  1  0.045700  0.609300  0.414100  1.0  0.1312
  C  C58  1  0.733700  0.050300  0.891400  1.0  0.1599
  C  C59  1  0.453700  0.216300  0.243900  1.0  0.0997
  C  C60  1  0.718900  0.195100  0.077100  1.0  0.6787
  C  C61  1  0.156500  0.779500  0.235800  1.0  0.6654
  C  C62  1  0.567000  0.033000  0.855700  1.0  0.1275
  C  C63  1  0.067000  0.533000  0.644300  1.0  0.1262
  C  C64  1  0.148300  0.223700  0.189200  1.0  0.102
  C  C65  1  0.614200  0.881800  0.728100  1.0  0.0704
  C  C66  1  0.885800  0.618200  0.228100  1.0  0.0701
  C  C67  1  0.431200  0.367800  0.721800  1.0  0.1527
  C  C68  1  0.656500  0.279500  0.264200  1.0  0.6657
  C  C69  1  0.124900  0.410100  0.547900  1.0  0.0663
  C  C70  1  0.933000  0.467000  0.355700  1.0  0.1277
  N  N71  1  0.816000  0.916000  0.737700  1.0  -0.3944
  N  N72  1  0.316000  0.416000  0.762300  1.0  -0.3912
  N  N73  1  0.338400  0.265600  0.202900  1.0  -0.4239
  N  N74  1  0.078300  0.551700  0.365000  1.0  -0.4257
  N  N75  1  0.734700  0.507300  0.440300  1.0  -0.2728
  N  N76  1  0.161600  0.234400  0.702900  1.0  -0.4251
  N  N77  1  0.661600  0.734400  0.797100  1.0  -0.4245
  N  N78  1  0.184000  0.084000  0.262300  1.0  -0.3905
  N  N79  1  0.838400  0.765600  0.297100  1.0  -0.424
  N  N80  1  0.265300  0.492700  0.559700  1.0  -0.2715
  N  N81  1  0.578300  0.051700  0.135000  1.0  -0.4349
  N  N82  1  0.234700  0.007300  0.059700  1.0  -0.2721
  N  N83  1  0.765300  0.992700  0.940300  1.0  -0.2728
  N  N84  1  0.684000  0.584000  0.237700  1.0  -0.3881
  N  N85  1  0.421700  0.948300  0.865000  1.0  -0.4266
  N  N86  1  0.921700  0.448300  0.635000  1.0  -0.4337
  O  O87  1  0.802700  0.215300  0.603500  1.0  -0.7595
  O  O88  1  0.930600  0.735400  0.518600  1.0  -0.5492
  O  O89  1  0.126300  0.830700  0.956200  1.0  -0.6359
  O  O90  1  0.719900  0.351100  0.230600  1.0  -0.6138
  O  O91  1  0.373700  0.669300  0.456200  1.0  -0.6371
  O  O92  1  0.569400  0.764600  0.018600  1.0  -0.5476
  O  O93  1  0.738600  0.253400  0.312000  1.0  -0.5754
  O  O94  1  0.321100  0.390900  0.459500  1.0  -0.5734
  O  O95  1  0.197300  0.784700  0.396500  1.0  -0.7576
  O  O96  1  0.219900  0.851100  0.269400  1.0  -0.6136
  O  O97  1  0.626300  0.330700  0.543800  1.0  -0.6365
  O  O98  1  0.069400  0.264600  0.481400  1.0  -0.551
  O  O99  1  0.821100  0.890900  0.040500  1.0  -0.5736
  O  O100  1  0.697300  0.284700  0.103500  1.0  -0.7572
  O  O101  1  0.430600  0.235400  0.981400  1.0  -0.5498
  O  O102  1  0.074300  0.490700  0.855200  1.0  -0.6859
  O  O103  1  0.788500  0.477500  0.797700  1.0  -0.6839
  O  O104  1  0.302700  0.715300  0.896500  1.0  -0.7609
  O  O105  1  0.873700  0.169300  0.043800  1.0  -0.6372
  O  O106  1  0.574300  0.990700  0.644800  1.0  -0.6831
  O  O107  1  0.280100  0.648900  0.769400  1.0  -0.6133
  O  O108  1  0.261400  0.746600  0.688000  1.0  -0.577
  O  O109  1  0.178900  0.109100  0.959500  1.0  -0.5724
  O  O110  1  0.238600  0.753400  0.188000  1.0  -0.5768
  O  O111  1  0.925700  0.509300  0.144800  1.0  -0.6829
  O  O112  1  0.761400  0.246600  0.812000  1.0  -0.5757
  O  O113  1  0.678900  0.609100  0.540500  1.0  -0.5723
  O  O114  1  0.780100  0.148900  0.730600  1.0  -0.6142
  O  O115  1  0.425700  0.009300  0.355200  1.0  -0.6856
  O  O116  1  0.211500  0.522500  0.202300  1.0  -0.6818
  O  O117  1  0.711500  0.022500  0.297700  1.0  -0.6825
  O  O118  1  0.288500  0.977500  0.702300  1.0  -0.6823
