# generated using pymatgen
data_Dy2CuH12C24(N4O9)2
_symmetry_space_group_name_H-M   'P 1'
_cell_length_a   6.09910000
_cell_length_b   12.41680000
_cell_length_c   23.46900000
_cell_angle_alpha   90.00000000
_cell_angle_beta   90.00000000
_cell_angle_gamma   94.49060000
_symmetry_Int_Tables_number   1
_chemical_formula_structural   Dy2CuH12C24(N4O9)2
_chemical_formula_sum   'Dy4 Cu2 H24 C48 N16 O36'
_cell_volume   1771.88190853
_cell_formula_units_Z   2
loop_
 _symmetry_equiv_pos_site_id
 _symmetry_equiv_pos_as_xyz
  1  'x, y, z'
loop_
 _atom_site_type_symbol
 _atom_site_label
 _atom_site_symmetry_multiplicity
 _atom_site_fract_x
 _atom_site_fract_y
 _atom_site_fract_z
 _atom_site_occupancy
 _atom_site_charge
  Dy  Dy1  1  0.508010  0.608850  0.668250  1.0  2.2548
  Dy  Dy2  1  0.491990  0.391150  0.331750  1.0  2.256
  Dy  Dy3  1  0.991990  0.891150  0.168250  1.0  2.2522
  Dy  Dy4  1  0.008010  0.108850  0.831750  1.0  2.2525
  Cu  Cu5  1  0.000000  0.000000  0.500000  1.0  0.8675
  Cu  Cu6  1  0.500000  0.500000  0.000000  1.0  0.8675
  H  H7  1  0.389300  0.422000  0.793800  1.0  0.0732
  H  H8  1  0.026800  0.775800  0.662800  1.0  0.0871
  H  H9  1  0.473200  0.724200  0.162800  1.0  0.0872
  H  H10  1  0.505200  0.374200  0.617000  1.0  0.4769
  H  H11  1  0.827800  0.856800  0.395100  1.0  0.1024
  H  H12  1  0.994800  0.125800  0.117000  1.0  0.4784
  H  H13  1  0.054600  0.371400  0.170200  1.0  0.0752
  H  H14  1  0.973200  0.224200  0.337200  1.0  0.0872
  H  H15  1  0.526800  0.275800  0.837200  1.0  0.0872
  H  H16  1  0.327800  0.356800  0.104900  1.0  0.1022
  H  H17  1  0.172200  0.143200  0.604900  1.0  0.1017
  H  H18  1  0.005200  0.874200  0.883000  1.0  0.4771
  H  H19  1  0.973000  0.018000  0.104600  1.0  0.3668
  H  H20  1  0.889300  0.922000  0.706200  1.0  0.0733
  H  H21  1  0.494800  0.625800  0.383000  1.0  0.479
  H  H22  1  0.554600  0.871400  0.329800  1.0  0.0751
  H  H23  1  0.027000  0.982000  0.895400  1.0  0.3673
  H  H24  1  0.527000  0.482000  0.604600  1.0  0.3676
  H  H25  1  0.610700  0.578000  0.206200  1.0  0.0732
  H  H26  1  0.445400  0.128600  0.670200  1.0  0.0748
  H  H27  1  0.110700  0.078000  0.293800  1.0  0.0732
  H  H28  1  0.945400  0.628600  0.829800  1.0  0.0747
  H  H29  1  0.473000  0.518000  0.395400  1.0  0.3667
  H  H30  1  0.672200  0.643200  0.895100  1.0  0.1018
  C  C31  1  0.816800  0.357100  0.992300  1.0  0.6066
  C  C32  1  0.926900  0.577400  0.858600  1.0  0.1686
  C  C33  1  0.573100  0.922600  0.358600  1.0  0.1664
  C  C34  1  0.018500  0.490000  0.304100  1.0  0.705
  C  C35  1  0.306500  0.160000  0.405800  1.0  0.6994
  C  C36  1  0.032200  0.426100  0.903400  1.0  0.1117
  C  C37  1  0.604000  0.309900  0.807300  1.0  0.1432
  C  C38  1  0.365500  0.934300  0.556600  1.0  0.0352
  C  C39  1  0.693500  0.840000  0.594200  1.0  0.7013
  C  C40  1  0.634500  0.065700  0.443400  1.0  0.0349
  C  C41  1  0.683200  0.142900  0.492300  1.0  0.6059
  C  C42  1  0.896000  0.190100  0.307300  1.0  0.1433
  C  C43  1  0.903900  0.326700  0.747960  1.0  0.0555
  C  C44  1  0.481500  0.010000  0.804100  1.0  0.7049
  C  C45  1  0.088300  0.268100  0.721600  1.0  0.6466
  C  C46  1  0.183200  0.642900  0.007700  1.0  0.6067
  C  C47  1  0.411700  0.231900  0.221600  1.0  0.646
  C  C48  1  0.396000  0.690100  0.192700  1.0  0.1441
  C  C49  1  0.073100  0.422600  0.141400  1.0  0.1678
  C  C50  1  0.841100  0.426800  0.729890  1.0  0.0231
  C  C51  1  0.596100  0.173300  0.247960  1.0  0.0557
  C  C52  1  0.403900  0.826700  0.752040  1.0  0.0559
  C  C53  1  0.736900  0.913300  0.398000  1.0  0.1413
  C  C54  1  0.911700  0.731900  0.278400  1.0  0.6473
  C  C55  1  0.588300  0.768100  0.778400  1.0  0.6479
  C  C56  1  0.658900  0.073200  0.229890  1.0  0.0225
  C  C57  1  0.158900  0.573200  0.270110  1.0  0.0223
  C  C58  1  0.763100  0.586700  0.898000  1.0  0.1404
  C  C59  1  0.026400  0.901200  0.717100  1.0  0.1449
  C  C60  1  0.341100  0.926800  0.770110  1.0  0.0226
  C  C61  1  0.236900  0.413300  0.102000  1.0  0.1405
  C  C62  1  0.981500  0.510000  0.695900  1.0  0.7052
  C  C63  1  0.263100  0.086700  0.602000  1.0  0.1402
  C  C64  1  0.316800  0.857100  0.507700  1.0  0.6058
  C  C65  1  0.467800  0.073900  0.403400  1.0  0.1123
  C  C66  1  0.104000  0.809900  0.692700  1.0  0.1433
  C  C67  1  0.806500  0.660000  0.094200  1.0  0.7003
  C  C68  1  0.967800  0.573900  0.096600  1.0  0.1121
  C  C69  1  0.973600  0.098800  0.282900  1.0  0.142
  C  C70  1  0.096100  0.673300  0.252040  1.0  0.0563
  C  C71  1  0.532200  0.926100  0.596600  1.0  0.1116
  C  C72  1  0.473600  0.598800  0.217100  1.0  0.1454
  C  C73  1  0.193500  0.340000  0.905800  1.0  0.7017
  C  C74  1  0.426900  0.077400  0.641400  1.0  0.1683
  C  C75  1  0.526400  0.401200  0.782900  1.0  0.1447
  C  C76  1  0.865500  0.434300  0.943400  1.0  0.0389
  C  C77  1  0.134500  0.565700  0.056600  1.0  0.0353
  C  C78  1  0.518500  0.990000  0.195900  1.0  0.7063
  N  N79  1  0.642400  0.460100  0.744110  1.0  -0.4083
  N  N80  1  0.267100  0.484300  0.059780  1.0  -0.2571
  N  N81  1  0.711200  0.230100  0.288370  1.0  -0.4804
  N  N82  1  0.857600  0.039900  0.244110  1.0  -0.4058
  N  N83  1  0.438400  0.003300  0.360390  1.0  -0.4518
  N  N84  1  0.211200  0.730100  0.211630  1.0  -0.4793
  N  N85  1  0.732900  0.515700  0.940220  1.0  -0.2586
  N  N86  1  0.288800  0.769900  0.711630  1.0  -0.4758
  N  N87  1  0.561600  0.996700  0.639610  1.0  -0.4525
  N  N88  1  0.061600  0.496700  0.860390  1.0  -0.4555
  N  N89  1  0.767100  0.984300  0.440220  1.0  -0.2582
  N  N90  1  0.357600  0.539900  0.255890  1.0  -0.4049
  N  N91  1  0.232900  0.015700  0.559780  1.0  -0.2579
  N  N92  1  0.142400  0.960100  0.755890  1.0  -0.408
  N  N93  1  0.938400  0.503300  0.139610  1.0  -0.4521
  N  N94  1  0.788800  0.269900  0.788370  1.0  -0.4774
  O  O95  1  0.825000  0.114200  0.528210  1.0  -0.5921
  O  O96  1  0.346100  0.308500  0.250060  1.0  -0.6525
  O  O97  1  0.353300  0.355000  0.936720  1.0  -0.6127
  O  O98  1  0.345100  0.238600  0.372340  1.0  -0.6712
  O  O99  1  0.646700  0.645000  0.063280  1.0  -0.6113
  O  O100  1  0.682600  0.020500  0.793940  1.0  -0.7081
  O  O101  1  0.148900  0.294900  0.672730  1.0  -0.5795
  O  O102  1  0.969900  0.935200  0.873910  1.0  -0.7814
  O  O103  1  0.378800  0.066800  0.838000  1.0  -0.627
  O  O104  1  0.653900  0.691500  0.749940  1.0  -0.6515
  O  O105  1  0.845100  0.738600  0.127660  1.0  -0.6716
  O  O106  1  0.317400  0.979500  0.206060  1.0  -0.7073
  O  O107  1  0.654900  0.761400  0.627660  1.0  -0.6732
  O  O108  1  0.411200  0.773800  0.504510  1.0  -0.5324
  O  O109  1  0.846100  0.808500  0.249940  1.0  -0.6524
  O  O110  1  0.911200  0.273800  0.995490  1.0  -0.5321
  O  O111  1  0.851100  0.705100  0.327270  1.0  -0.5789
  O  O112  1  0.175000  0.885800  0.471790  1.0  -0.5905
  O  O113  1  0.530100  0.564800  0.373910  1.0  -0.7819
  O  O114  1  0.030100  0.064800  0.126090  1.0  -0.7809
  O  O115  1  0.853300  0.855000  0.563280  1.0  -0.6126
  O  O116  1  0.153900  0.191500  0.750060  1.0  -0.6516
  O  O117  1  0.648900  0.794900  0.827270  1.0  -0.5807
  O  O118  1  0.154900  0.261400  0.872340  1.0  -0.6729
  O  O119  1  0.878800  0.566800  0.662000  1.0  -0.6259
  O  O120  1  0.182600  0.520500  0.706060  1.0  -0.7083
  O  O121  1  0.675000  0.385800  0.028210  1.0  -0.5913
  O  O122  1  0.121200  0.433200  0.338000  1.0  -0.6271
  O  O123  1  0.325000  0.614200  0.971790  1.0  -0.5919
  O  O124  1  0.817400  0.479500  0.293940  1.0  -0.7072
  O  O125  1  0.146700  0.145000  0.436720  1.0  -0.6119
  O  O126  1  0.469900  0.435200  0.626090  1.0  -0.7808
  O  O127  1  0.088800  0.726200  0.004510  1.0  -0.5339
  O  O128  1  0.588800  0.226200  0.495490  1.0  -0.5339
  O  O129  1  0.351100  0.205100  0.172730  1.0  -0.579
  O  O130  1  0.621200  0.933200  0.162000  1.0  -0.6264
