# generated using pymatgen
data_Er2CuH12C24(N4O9)2
_symmetry_space_group_name_H-M   'P 1'
_cell_length_a   6.06070000
_cell_length_b   12.36430000
_cell_length_c   23.49430000
_cell_angle_alpha   90.00000000
_cell_angle_beta   90.00000000
_cell_angle_gamma   94.24110000
_symmetry_Int_Tables_number   1
_chemical_formula_structural   Er2CuH12C24(N4O9)2
_chemical_formula_sum   'Er4 Cu2 H24 C48 N16 O36'
_cell_volume   1755.75520588
_cell_formula_units_Z   2
loop_
 _symmetry_equiv_pos_site_id
 _symmetry_equiv_pos_as_xyz
  1  'x, y, z'
loop_
 _atom_site_type_symbol
 _atom_site_label
 _atom_site_symmetry_multiplicity
 _atom_site_fract_x
 _atom_site_fract_y
 _atom_site_fract_z
 _atom_site_occupancy
 _atom_site_charge
  Er  Er1  1  0.990650  0.890770  0.829820  1.0  1.4832
  Er  Er2  1  0.009350  0.109230  0.170180  1.0  1.4863
  Er  Er3  1  0.509350  0.609230  0.329820  1.0  1.4856
  Er  Er4  1  0.490650  0.390770  0.670180  1.0  1.4854
  Cu  Cu5  1  0.500000  0.500000  0.000000  1.0  1.0765
  Cu  Cu6  1  0.000000  0.000000  0.500000  1.0  1.0765
  H  H7  1  0.020000  0.993000  0.103000  1.0  0.4003
  H  H8  1  0.931000  0.109000  0.881000  1.0  0.4769
  H  H9  1  0.069000  0.891000  0.119000  1.0  0.4768
  H  H10  1  0.469800  0.725200  0.836800  1.0  0.1025
  H  H11  1  0.551100  0.876700  0.671400  1.0  0.0892
  H  H12  1  0.889200  0.921700  0.293200  1.0  0.0969
  H  H13  1  0.431000  0.609000  0.619000  1.0  0.4773
  H  H14  1  0.480000  0.507000  0.603000  1.0  0.3998
  H  H15  1  0.520000  0.493000  0.397000  1.0  0.4008
  H  H16  1  0.389200  0.421700  0.206800  1.0  0.097
  H  H17  1  0.569000  0.391000  0.381000  1.0  0.476
  H  H18  1  0.110800  0.078300  0.706800  1.0  0.0968
  H  H19  1  0.822000  0.855400  0.604200  1.0  0.1233
  H  H20  1  0.948900  0.623300  0.171400  1.0  0.0885
  H  H21  1  0.448900  0.123300  0.328600  1.0  0.0883
  H  H22  1  0.322000  0.355400  0.895800  1.0  0.1233
  H  H23  1  0.030200  0.774800  0.336800  1.0  0.1028
  H  H24  1  0.678000  0.644600  0.104200  1.0  0.1231
  H  H25  1  0.051100  0.376700  0.828600  1.0  0.0886
  H  H26  1  0.610800  0.578300  0.793200  1.0  0.097
  H  H27  1  0.178000  0.144600  0.395800  1.0  0.1231
  H  H28  1  0.969800  0.225200  0.663200  1.0  0.1027
  H  H29  1  0.980000  0.007000  0.897000  1.0  0.4003
  H  H30  1  0.530200  0.274800  0.163200  1.0  0.1026
  C  C31  1  0.466700  0.077100  0.596400  1.0  0.1128
  C  C32  1  0.607400  0.309200  0.193100  1.0  0.1668
  C  C33  1  0.343000  0.926400  0.229800  1.0  0.0986
  C  C34  1  0.591800  0.173000  0.752000  1.0  0.0807
  C  C35  1  0.091800  0.673000  0.748000  1.0  0.0805
  C  C36  1  0.765700  0.586200  0.101600  1.0  0.1527
  C  C37  1  0.431300  0.073500  0.358200  1.0  0.2006
  C  C38  1  0.568700  0.926500  0.641800  1.0  0.1998
  C  C39  1  0.695100  0.835200  0.406900  1.0  0.7019
  C  C40  1  0.906300  0.732600  0.721400  1.0  0.6593
  C  C41  1  0.068700  0.426500  0.858200  1.0  0.1994
  C  C42  1  0.316800  0.855500  0.492700  1.0  0.6477
  C  C43  1  0.966700  0.577100  0.903600  1.0  0.1128
  C  C44  1  0.234300  0.413800  0.898400  1.0  0.1535
  C  C45  1  0.657000  0.073600  0.770200  1.0  0.0986
  C  C46  1  0.157000  0.573600  0.729800  1.0  0.0985
  C  C47  1  0.183200  0.644500  0.992700  1.0  0.6468
  C  C48  1  0.516400  0.988900  0.803800  1.0  0.7137
  C  C49  1  0.093700  0.267400  0.278600  1.0  0.6624
  C  C50  1  0.683200  0.144500  0.507300  1.0  0.648
  C  C51  1  0.107400  0.809200  0.306900  1.0  0.1667
  C  C52  1  0.033300  0.422900  0.096400  1.0  0.1118
  C  C53  1  0.865800  0.432300  0.056200  1.0  0.0663
  C  C54  1  0.406300  0.232600  0.778600  1.0  0.6603
  C  C55  1  0.195100  0.335200  0.093100  1.0  0.7005
  C  C56  1  0.408200  0.827000  0.248000  1.0  0.0819
  C  C57  1  0.483600  0.011100  0.196200  1.0  0.7143
  C  C58  1  0.134200  0.567700  0.943800  1.0  0.0659
  C  C59  1  0.816800  0.355500  0.007300  1.0  0.6477
  C  C60  1  0.983600  0.511100  0.303800  1.0  0.7142
  C  C61  1  0.593700  0.767400  0.221400  1.0  0.661
  C  C62  1  0.365800  0.932300  0.443800  1.0  0.0648
  C  C63  1  0.527300  0.400900  0.217700  1.0  0.1612
  C  C64  1  0.016400  0.488900  0.696200  1.0  0.7151
  C  C65  1  0.843000  0.426400  0.270200  1.0  0.0981
  C  C66  1  0.804900  0.664800  0.906900  1.0  0.6989
  C  C67  1  0.734300  0.913800  0.601600  1.0  0.153
  C  C68  1  0.634200  0.067700  0.556200  1.0  0.0647
  C  C69  1  0.027300  0.900900  0.282300  1.0  0.1611
  C  C70  1  0.931300  0.573500  0.141800  1.0  0.2005
  C  C71  1  0.304900  0.164800  0.593100  1.0  0.6994
  C  C72  1  0.972700  0.099100  0.717700  1.0  0.161
  C  C73  1  0.265700  0.086200  0.398400  1.0  0.1541
  C  C74  1  0.533300  0.922900  0.403600  1.0  0.1117
  C  C75  1  0.892600  0.190800  0.693100  1.0  0.1673
  C  C76  1  0.472700  0.599100  0.782300  1.0  0.1609
  C  C77  1  0.908200  0.327000  0.252000  1.0  0.0823
  C  C78  1  0.392600  0.690800  0.806900  1.0  0.1667
  N  N79  1  0.766300  0.985300  0.559640  1.0  -0.2416
  N  N80  1  0.707400  0.230000  0.711780  1.0  -0.4576
  N  N81  1  0.563900  0.993600  0.360500  1.0  -0.4126
  N  N82  1  0.857000  0.040500  0.756430  1.0  -0.4132
  N  N83  1  0.292600  0.770000  0.288220  1.0  -0.4577
  N  N84  1  0.436100  0.006400  0.639500  1.0  -0.4237
  N  N85  1  0.936100  0.506400  0.860500  1.0  -0.4238
  N  N86  1  0.266300  0.485300  0.940360  1.0  -0.2419
  N  N87  1  0.207400  0.730000  0.788220  1.0  -0.4582
  N  N88  1  0.063900  0.493600  0.139500  1.0  -0.4134
  N  N89  1  0.643000  0.459500  0.256430  1.0  -0.4147
  N  N90  1  0.792600  0.270000  0.211780  1.0  -0.4567
  N  N91  1  0.143000  0.959500  0.243570  1.0  -0.4147
  N  N92  1  0.233700  0.014700  0.440360  1.0  -0.2416
  N  N93  1  0.733700  0.514700  0.059640  1.0  -0.2419
  N  N94  1  0.357000  0.540500  0.743570  1.0  -0.4135
  O  O95  1  0.619600  0.931500  0.837230  1.0  -0.6138
  O  O96  1  0.592900  0.229500  0.504520  1.0  -0.5102
  O  O97  1  0.686600  0.021200  0.206270  1.0  -0.6933
  O  O98  1  0.160000  0.190400  0.249720  1.0  -0.6018
  O  O99  1  0.840900  0.704900  0.673320  1.0  -0.5558
  O  O100  1  0.022000  0.059600  0.875400  1.0  -0.7539
  O  O101  1  0.158100  0.255800  0.126090  1.0  -0.6605
  O  O102  1  0.856600  0.851800  0.438110  1.0  -0.5804
  O  O103  1  0.356600  0.351800  0.061890  1.0  -0.5818
  O  O104  1  0.341900  0.244200  0.626090  1.0  -0.6608
  O  O105  1  0.340000  0.309600  0.749720  1.0  -0.6016
  O  O106  1  0.323300  0.613600  0.029050  1.0  -0.5736
  O  O107  1  0.676700  0.386400  0.970950  1.0  -0.5703
  O  O108  1  0.119600  0.431500  0.662770  1.0  -0.6136
  O  O109  1  0.660000  0.690400  0.250280  1.0  -0.6018
  O  O110  1  0.907100  0.270500  0.004520  1.0  -0.5102
  O  O111  1  0.659100  0.795100  0.173320  1.0  -0.5563
  O  O112  1  0.813400  0.478800  0.706270  1.0  -0.6929
  O  O113  1  0.978000  0.940400  0.124600  1.0  -0.7533
  O  O114  1  0.143400  0.148200  0.561890  1.0  -0.5813
  O  O115  1  0.159100  0.295100  0.326680  1.0  -0.5559
  O  O116  1  0.841900  0.744200  0.873910  1.0  -0.6596
  O  O117  1  0.186600  0.521200  0.293730  1.0  -0.6933
  O  O118  1  0.643400  0.648200  0.938110  1.0  -0.5807
  O  O119  1  0.176700  0.886400  0.529050  1.0  -0.5725
  O  O120  1  0.092900  0.729500  0.995480  1.0  -0.5113
  O  O121  1  0.823300  0.113600  0.470950  1.0  -0.5728
  O  O122  1  0.522000  0.559600  0.624600  1.0  -0.7517
  O  O123  1  0.478000  0.440400  0.375400  1.0  -0.7554
  O  O124  1  0.880400  0.568500  0.337230  1.0  -0.6131
  O  O125  1  0.658100  0.755800  0.373910  1.0  -0.6604
  O  O126  1  0.840000  0.809600  0.750280  1.0  -0.6018
  O  O127  1  0.340900  0.204900  0.826680  1.0  -0.5552
  O  O128  1  0.407100  0.770500  0.495480  1.0  -0.5107
  O  O129  1  0.380400  0.068500  0.162770  1.0  -0.6126
  O  O130  1  0.313400  0.978800  0.793730  1.0  -0.6926
