# generated using pymatgen
data_V3(PO5)2
_symmetry_space_group_name_H-M   'P 1'
_cell_length_a   10.56700000
_cell_length_b   16.97000000
_cell_length_c   8.41300000
_cell_angle_alpha   90.00000000
_cell_angle_beta   90.00000000
_cell_angle_gamma   90.00000000
_symmetry_Int_Tables_number   1
_chemical_formula_structural   V3(PO5)2
_chemical_formula_sum   'V12 P8 O40'
_cell_volume   1508.63590187
_cell_formula_units_Z   4
loop_
 _symmetry_equiv_pos_site_id
 _symmetry_equiv_pos_as_xyz
  1  'x, y, z'
loop_
 _atom_site_type_symbol
 _atom_site_label
 _atom_site_symmetry_multiplicity
 _atom_site_fract_x
 _atom_site_fract_y
 _atom_site_fract_z
 _atom_site_occupancy
 _atom_site_charge
  V  V1  1  0.140600  0.564300  0.779800  1.0  1.2059
  V  V2  1  0.359400  0.435700  0.279800  1.0  1.2053
  V  V3  1  0.859400  0.064300  0.220200  1.0  1.204
  V  V4  1  0.640600  0.935700  0.720200  1.0  1.2048
  V  V5  1  0.859400  0.435700  0.220200  1.0  1.204
  V  V6  1  0.640600  0.564300  0.720200  1.0  1.2048
  V  V7  1  0.140600  0.935700  0.779800  1.0  1.206
  V  V8  1  0.359400  0.064300  0.279800  1.0  1.2052
  V  V9  1  0.779100  0.750000  0.826100  1.0  1.278
  V  V10  1  0.720900  0.250000  0.326100  1.0  1.2769
  V  V11  1  0.220900  0.250000  0.173900  1.0  1.2754
  V  V12  1  0.279100  0.750000  0.673900  1.0  1.2764
  P  P13  1  0.870700  0.586800  0.970900  1.0  1.7207
  P  P14  1  0.629300  0.413200  0.470900  1.0  1.72
  P  P15  1  0.129300  0.086800  0.029100  1.0  1.7196
  P  P16  1  0.370700  0.913200  0.529100  1.0  1.7211
  P  P17  1  0.129300  0.413200  0.029100  1.0  1.72
  P  P18  1  0.370700  0.586800  0.529100  1.0  1.7207
  P  P19  1  0.870700  0.913200  0.970900  1.0  1.7212
  P  P20  1  0.629300  0.086800  0.470900  1.0  1.7195
  O  O21  1  0.015900  0.585300  0.949200  1.0  -0.7282
  O  O22  1  0.835900  0.545400  0.128300  1.0  -0.7139
  O  O23  1  0.806000  0.545700  0.829600  1.0  -0.71
  O  O24  1  0.826000  0.673000  0.989200  1.0  -0.6808
  O  O25  1  0.659200  0.826100  0.758600  1.0  -0.7298
  O  O26  1  0.484100  0.414700  0.449200  1.0  -0.7284
  O  O27  1  0.664100  0.454600  0.628300  1.0  -0.713
  O  O28  1  0.694000  0.454300  0.329600  1.0  -0.7091
  O  O29  1  0.674000  0.327000  0.489200  1.0  -0.6813
  O  O30  1  0.840800  0.173900  0.258600  1.0  -0.7296
  O  O31  1  0.984100  0.085300  0.050800  1.0  -0.7295
  O  O32  1  0.164100  0.045400  0.871700  1.0  -0.7141
  O  O33  1  0.194000  0.045700  0.170400  1.0  -0.7104
  O  O34  1  0.174000  0.173000  0.010800  1.0  -0.6823
  O  O35  1  0.340800  0.326100  0.241400  1.0  -0.7294
  O  O36  1  0.515900  0.914700  0.550800  1.0  -0.7282
  O  O37  1  0.335900  0.954600  0.371700  1.0  -0.7141
  O  O38  1  0.306000  0.954300  0.670400  1.0  -0.7115
  O  O39  1  0.326000  0.827000  0.510800  1.0  -0.6819
  O  O40  1  0.159200  0.673900  0.741400  1.0  -0.7306
  O  O41  1  0.984100  0.414700  0.050800  1.0  -0.7289
  O  O42  1  0.164100  0.454600  0.871700  1.0  -0.7141
  O  O43  1  0.194000  0.454300  0.170400  1.0  -0.71
  O  O44  1  0.174000  0.327000  0.010800  1.0  -0.6821
  O  O45  1  0.340800  0.173900  0.241400  1.0  -0.7299
  O  O46  1  0.515900  0.585300  0.550800  1.0  -0.7285
  O  O47  1  0.335900  0.545400  0.371700  1.0  -0.7139
  O  O48  1  0.306000  0.545700  0.670400  1.0  -0.7107
  O  O49  1  0.326000  0.673000  0.510800  1.0  -0.682
  O  O50  1  0.159200  0.826100  0.741400  1.0  -0.7301
  O  O51  1  0.015900  0.914700  0.949200  1.0  -0.7281
  O  O52  1  0.835900  0.954600  0.128300  1.0  -0.7138
  O  O53  1  0.806000  0.954300  0.829600  1.0  -0.7094
  O  O54  1  0.826000  0.827000  0.989200  1.0  -0.6812
  O  O55  1  0.659200  0.673900  0.758600  1.0  -0.7306
  O  O56  1  0.484100  0.085300  0.449200  1.0  -0.7289
  O  O57  1  0.664100  0.045400  0.628300  1.0  -0.7131
  O  O58  1  0.694000  0.045700  0.329600  1.0  -0.7082
  O  O59  1  0.674000  0.173000  0.489200  1.0  -0.681
  O  O60  1  0.840800  0.326100  0.258600  1.0  -0.729
