# generated using pymatgen
data_V2PO5F
_symmetry_space_group_name_H-M   'P 1'
_cell_length_a   8.29390000
_cell_length_b   9.22600000
_cell_length_c   12.50210000
_cell_angle_alpha   90.00000000
_cell_angle_beta   90.00000000
_cell_angle_gamma   90.00000000
_symmetry_Int_Tables_number   1
_chemical_formula_structural   V2PO5F
_chemical_formula_sum   'V8 P4 O20 F4'
_cell_volume   956.65470849
_cell_formula_units_Z   4
loop_
 _symmetry_equiv_pos_site_id
 _symmetry_equiv_pos_as_xyz
  1  'x, y, z'
loop_
 _atom_site_type_symbol
 _atom_site_label
 _atom_site_symmetry_multiplicity
 _atom_site_fract_x
 _atom_site_fract_y
 _atom_site_fract_z
 _atom_site_occupancy
 _atom_site_charge
  V  V1  1  0.746000  0.064000  0.394900  1.0  1.1831
  V  V2  1  0.976500  0.709300  0.502800  1.0  1.3445
  V  V3  1  0.754000  0.936000  0.894900  1.0  1.1843
  V  V4  1  0.523500  0.290700  0.002800  1.0  1.3455
  V  V5  1  0.254000  0.564000  0.105100  1.0  1.1836
  V  V6  1  0.023500  0.209300  0.997200  1.0  1.3438
  V  V7  1  0.246000  0.436000  0.605100  1.0  1.1837
  V  V8  1  0.476500  0.790700  0.497200  1.0  1.3419
  P  P9  1  0.758600  0.932900  0.635900  1.0  1.7254
  P  P10  1  0.741400  0.067100  0.135900  1.0  1.7261
  P  P11  1  0.241400  0.432900  0.864100  1.0  1.725
  P  P12  1  0.258600  0.567100  0.364100  1.0  1.725
  O  O13  1  0.765500  0.055300  0.553500  1.0  -0.7264
  O  O14  1  0.900100  0.827400  0.620000  1.0  -0.7415
  O  O15  1  0.766100  0.002900  0.746400  1.0  -0.7044
  O  O16  1  0.597400  0.850100  0.627100  1.0  -0.7154
  O  O17  1  0.612700  0.876500  0.421100  1.0  -0.791
  O  O18  1  0.734500  0.944700  0.053500  1.0  -0.721
  O  O19  1  0.599900  0.172600  0.120000  1.0  -0.7408
  O  O20  1  0.733900  0.997100  0.246400  1.0  -0.7046
  O  O21  1  0.902600  0.149900  0.127100  1.0  -0.7177
  O  O22  1  0.887300  0.123500  0.921100  1.0  -0.7909
  O  O23  1  0.234500  0.555300  0.946500  1.0  -0.7271
  O  O24  1  0.099900  0.327400  0.880000  1.0  -0.7407
  O  O25  1  0.233900  0.502900  0.753600  1.0  -0.7041
  O  O26  1  0.402600  0.350100  0.872900  1.0  -0.7183
  O  O27  1  0.387300  0.376500  0.078900  1.0  -0.7919
  O  O28  1  0.265500  0.444700  0.446500  1.0  -0.7223
  O  O29  1  0.400100  0.672600  0.380000  1.0  -0.7406
  O  O30  1  0.266100  0.497100  0.253600  1.0  -0.7044
  O  O31  1  0.097400  0.649900  0.372900  1.0  -0.7154
  O  O32  1  0.112700  0.623500  0.578900  1.0  -0.7916
  F  F33  1  0.946500  0.879900  0.416600  1.0  -0.5756
  F  F34  1  0.553500  0.120100  0.916600  1.0  -0.5761
  F  F35  1  0.053500  0.379900  0.083400  1.0  -0.5739
  F  F36  1  0.446500  0.620100  0.583400  1.0  -0.576
