# generated using pymatgen
data_Ga3P3HO13
_symmetry_space_group_name_H-M   'P 1'
_cell_length_a   8.78700000
_cell_length_b   17.78300000
_cell_length_c   9.20400000
_cell_angle_alpha   90.00000000
_cell_angle_beta   109.56000000
_cell_angle_gamma   90.00000000
_symmetry_Int_Tables_number   1
_chemical_formula_structural   Ga3P3HO13
_chemical_formula_sum   'Ga12 P12 H4 O52'
_cell_volume   1355.21281005
_cell_formula_units_Z   4
loop_
 _symmetry_equiv_pos_site_id
 _symmetry_equiv_pos_as_xyz
  1  'x, y, z'
loop_
 _atom_site_type_symbol
 _atom_site_label
 _atom_site_symmetry_multiplicity
 _atom_site_fract_x
 _atom_site_fract_y
 _atom_site_fract_z
 _atom_site_occupancy
 _atom_site_charge
  Ga  Ga1  1  0.067900  0.294900  0.303600  1.0  1.6648
  Ga  Ga2  1  0.135500  0.110000  0.165800  1.0  1.694
  Ga  Ga3  1  0.513500  0.329100  0.196200  1.0  1.7152
  Ga  Ga4  1  0.432100  0.794900  0.196400  1.0  1.665
  Ga  Ga5  1  0.364500  0.610000  0.334200  1.0  1.6954
  Ga  Ga6  1  0.986500  0.829100  0.303800  1.0  1.7155
  Ga  Ga7  1  0.932100  0.705100  0.696400  1.0  1.6626
  Ga  Ga8  1  0.864500  0.890000  0.834200  1.0  1.697
  Ga  Ga9  1  0.486500  0.670900  0.803800  1.0  1.7167
  Ga  Ga10  1  0.567900  0.205100  0.803600  1.0  1.6628
  Ga  Ga11  1  0.635500  0.390000  0.665800  1.0  1.6959
  Ga  Ga12  1  0.013500  0.170900  0.696200  1.0  1.7173
  P  P13  1  0.341200  0.429400  0.369800  1.0  1.883
  P  P14  1  0.802700  0.288700  0.483100  1.0  1.9566
  P  P15  1  0.248300  0.161300  0.508900  1.0  1.8491
  P  P16  1  0.158800  0.929400  0.130200  1.0  1.8985
  P  P17  1  0.697300  0.788700  0.016900  1.0  1.9692
  P  P18  1  0.251700  0.661300  0.991100  1.0  1.849
  P  P19  1  0.658800  0.570600  0.630200  1.0  1.8994
  P  P20  1  0.197300  0.711300  0.516900  1.0  1.9896
  P  P21  1  0.751700  0.838700  0.491100  1.0  1.8515
  P  P22  1  0.841200  0.070600  0.869800  1.0  1.8834
  P  P23  1  0.302700  0.211300  0.983100  1.0  1.9851
  P  P24  1  0.748300  0.338700  0.008900  1.0  1.8515
  H  H25  1  0.921000  0.211000  0.095000  1.0  0.3165
  H  H26  1  0.579000  0.711000  0.405000  1.0  0.3174
  H  H27  1  0.079000  0.789000  0.905000  1.0  0.3177
  H  H28  1  0.421000  0.289000  0.595000  1.0  0.3183
  O  O29  1  0.034900  0.209500  0.178300  1.0  -0.6488
  O  O30  1  0.194900  0.378200  0.314600  1.0  -0.9032
  O  O31  1  0.242000  0.244200  0.462000  1.0  -0.89
  O  O32  1  0.950200  0.303200  0.439100  1.0  -0.9022
  O  O33  1  0.403300  0.146800  0.642500  1.0  -0.8185
  O  O34  1  0.458400  0.412500  0.280200  1.0  -0.8975
  O  O35  1  0.829200  0.220700  0.592600  1.0  -0.9174
  O  O36  1  0.101200  0.138400  0.555500  1.0  -0.8951
  O  O37  1  0.654000  0.269600  0.342800  1.0  -0.8889
  O  O38  1  0.244700  0.108800  0.376200  1.0  -0.8249
  O  O39  1  0.429000  0.419000  0.542600  1.0  -0.8546
  O  O40  1  0.278200  0.509200  0.335600  1.0  -0.7954
  O  O41  1  0.773200  0.359300  0.562700  1.0  -0.8755
  O  O42  1  0.465100  0.709500  0.321700  1.0  -0.651
  O  O43  1  0.305100  0.878200  0.185400  1.0  -0.9034
  O  O44  1  0.258000  0.744200  0.038000  1.0  -0.89
  O  O45  1  0.549800  0.803200  0.060900  1.0  -0.9022
  O  O46  1  0.096700  0.646800  0.857500  1.0  -0.8181
  O  O47  1  0.041600  0.912500  0.219800  1.0  -0.9
  O  O48  1  0.670800  0.720700  0.907400  1.0  -0.9157
  O  O49  1  0.398800  0.638400  0.944500  1.0  -0.8949
  O  O50  1  0.846000  0.769600  0.157200  1.0  -0.8894
  O  O51  1  0.255300  0.608800  0.123800  1.0  -0.8268
  O  O52  1  0.071000  0.919000  0.957400  1.0  -0.853
  O  O53  1  0.221800  0.009200  0.164400  1.0  -0.7944
  O  O54  1  0.726800  0.859300  0.937300  1.0  -0.8743
  O  O55  1  0.965100  0.790500  0.821700  1.0  -0.6511
  O  O56  1  0.805100  0.621800  0.685400  1.0  -0.9028
  O  O57  1  0.758000  0.755800  0.538000  1.0  -0.8899
  O  O58  1  0.049800  0.696800  0.560900  1.0  -0.9013
  O  O59  1  0.596700  0.853200  0.357500  1.0  -0.8202
  O  O60  1  0.541600  0.587500  0.719800  1.0  -0.8993
  O  O61  1  0.170800  0.779300  0.407400  1.0  -0.915
  O  O62  1  0.898800  0.861600  0.444500  1.0  -0.8934
  O  O63  1  0.346000  0.730400  0.657200  1.0  -0.8893
  O  O64  1  0.755300  0.891200  0.623800  1.0  -0.8264
  O  O65  1  0.571000  0.581000  0.457400  1.0  -0.8528
  O  O66  1  0.721800  0.490800  0.664400  1.0  -0.7938
  O  O67  1  0.226800  0.640700  0.437300  1.0  -0.8724
  O  O68  1  0.534900  0.290500  0.678300  1.0  -0.6493
  O  O69  1  0.694900  0.121800  0.814600  1.0  -0.9025
  O  O70  1  0.742000  0.255800  0.962000  1.0  -0.89
  O  O71  1  0.450200  0.196800  0.939100  1.0  -0.9009
  O  O72  1  0.903300  0.353200  0.142500  1.0  -0.8201
  O  O73  1  0.958400  0.087500  0.780200  1.0  -0.8978
  O  O74  1  0.329200  0.279300  0.092600  1.0  -0.9164
  O  O75  1  0.601200  0.361600  0.055500  1.0  -0.8947
  O  O76  1  0.154000  0.230400  0.842800  1.0  -0.8884
  O  O77  1  0.744700  0.391200  0.876200  1.0  -0.8248
  O  O78  1  0.929000  0.081000  0.042600  1.0  -0.8527
  O  O79  1  0.778200  0.990800  0.835600  1.0  -0.7939
  O  O80  1  0.273200  0.140700  0.062700  1.0  -0.8734
