# generated using pymatgen
data_Ga8P8(O11F)3
_symmetry_space_group_name_H-M   'P 1'
_cell_length_a   10.25200000
_cell_length_b   18.40900000
_cell_length_c   24.63900000
_cell_angle_alpha   90.00000000
_cell_angle_beta   90.00000000
_cell_angle_gamma   90.00000000
_symmetry_Int_Tables_number   1
_chemical_formula_structural   Ga8P8(O11F)3
_chemical_formula_sum   'Ga32 P32 O132 F12'
_cell_volume   4650.09550645
_cell_formula_units_Z   4
loop_
 _symmetry_equiv_pos_site_id
 _symmetry_equiv_pos_as_xyz
  1  'x, y, z'
loop_
 _atom_site_type_symbol
 _atom_site_label
 _atom_site_symmetry_multiplicity
 _atom_site_fract_x
 _atom_site_fract_y
 _atom_site_fract_z
 _atom_site_occupancy
 _atom_site_charge
  Ga  Ga1  1  0.114200  0.086000  0.432800  1.0  1.6675
  Ga  Ga2  1  0.922800  0.850700  0.339800  1.0  1.7028
  Ga  Ga3  1  0.380700  0.066900  0.558300  1.0  1.6682
  Ga  Ga4  1  0.602200  0.920500  0.234700  1.0  1.7455
  Ga  Ga5  1  0.592900  0.174500  0.345900  1.0  1.7417
  Ga  Ga6  1  0.896500  0.109500  0.239900  1.0  1.6179
  Ga  Ga7  1  0.917700  0.300000  0.275900  1.0  1.6961
  Ga  Ga8  1  0.422400  0.230700  0.231100  1.0  1.6769
  Ga  Ga9  1  0.114200  0.914000  0.567200  1.0  1.6678
  Ga  Ga10  1  0.922800  0.149300  0.660200  1.0  1.7035
  Ga  Ga11  1  0.380700  0.933100  0.441700  1.0  1.6674
  Ga  Ga12  1  0.602200  0.079500  0.765300  1.0  1.7472
  Ga  Ga13  1  0.592900  0.825500  0.654100  1.0  1.7421
  Ga  Ga14  1  0.896500  0.890500  0.760100  1.0  1.6219
  Ga  Ga15  1  0.917700  0.700000  0.724100  1.0  1.6985
  Ga  Ga16  1  0.422400  0.769300  0.768900  1.0  1.6735
  Ga  Ga17  1  0.885800  0.414000  0.932800  1.0  1.6698
  Ga  Ga18  1  0.077200  0.649300  0.839800  1.0  1.7027
  Ga  Ga19  1  0.619300  0.433100  0.058300  1.0  1.671
  Ga  Ga20  1  0.397800  0.579500  0.734700  1.0  1.7452
  Ga  Ga21  1  0.407100  0.325500  0.845900  1.0  1.7405
  Ga  Ga22  1  0.103500  0.390500  0.739900  1.0  1.6186
  Ga  Ga23  1  0.082300  0.200000  0.775900  1.0  1.6965
  Ga  Ga24  1  0.577600  0.269300  0.731100  1.0  1.6727
  Ga  Ga25  1  0.885800  0.586000  0.067200  1.0  1.6695
  Ga  Ga26  1  0.077200  0.350700  0.160200  1.0  1.7026
  Ga  Ga27  1  0.619300  0.566900  0.941700  1.0  1.6663
  Ga  Ga28  1  0.397800  0.420500  0.265300  1.0  1.7461
  Ga  Ga29  1  0.407100  0.674500  0.154100  1.0  1.7427
  Ga  Ga30  1  0.103500  0.609500  0.260100  1.0  1.6201
  Ga  Ga31  1  0.082300  0.800000  0.224100  1.0  1.6955
  Ga  Ga32  1  0.577600  0.730700  0.268900  1.0  1.6732
  P  P33  1  0.897700  0.937600  0.232200  1.0  1.852
  P  P34  1  0.415800  0.098000  0.438300  1.0  1.9664
  P  P35  1  0.083600  0.915900  0.437700  1.0  1.8175
  P  P36  1  0.605600  0.092800  0.232600  1.0  1.7876
  P  P37  1  0.900800  0.170300  0.360100  1.0  1.7411
  P  P38  1  0.581800  0.141000  0.645100  1.0  1.6682
  P  P39  1  0.622400  0.322900  0.298700  1.0  1.7553
  P  P40  1  0.875200  0.707800  0.291500  1.0  1.8588
  P  P41  1  0.897700  0.062400  0.767800  1.0  1.8519
  P  P42  1  0.415800  0.902000  0.561700  1.0  1.9645
  P  P43  1  0.083600  0.084100  0.562300  1.0  1.8159
  P  P44  1  0.605600  0.907200  0.767400  1.0  1.7879
  P  P45  1  0.900800  0.829700  0.639900  1.0  1.7384
  P  P46  1  0.581800  0.859000  0.354900  1.0  1.6676
  P  P47  1  0.622400  0.677100  0.701300  1.0  1.7537
  P  P48  1  0.875200  0.292200  0.708500  1.0  1.8584
  P  P49  1  0.102300  0.562400  0.732200  1.0  1.8513
  P  P50  1  0.584200  0.402000  0.938300  1.0  1.9646
  P  P51  1  0.916400  0.584100  0.937700  1.0  1.8185
  P  P52  1  0.394400  0.407200  0.732600  1.0  1.7882
  P  P53  1  0.099200  0.329700  0.860100  1.0  1.7395
  P  P54  1  0.418200  0.359000  0.145100  1.0  1.6678
  P  P55  1  0.377600  0.177100  0.798700  1.0  1.7535
  P  P56  1  0.124800  0.792200  0.791500  1.0  1.8586
  P  P57  1  0.102300  0.437600  0.267800  1.0  1.8527
  P  P58  1  0.584200  0.598000  0.061700  1.0  1.9644
  P  P59  1  0.916400  0.415900  0.062300  1.0  1.817
  P  P60  1  0.394400  0.592800  0.267400  1.0  1.7877
  P  P61  1  0.099200  0.670300  0.139900  1.0  1.7371
  P  P62  1  0.418200  0.641000  0.854900  1.0  1.6676
  P  P63  1  0.377600  0.822900  0.201300  1.0  1.7545
  P  P64  1  0.124800  0.207800  0.208500  1.0  1.8597
  O  O65  1  0.869000  0.917100  0.292400  1.0  -0.8962
  O  O66  1  0.762100  0.937200  0.204400  1.0  -0.8155
  O  O67  1  0.957500  0.013300  0.231800  1.0  -0.7914
  O  O68  1  0.982300  0.883400  0.203200  1.0  -0.7567
  O  O69  1  0.468600  0.096300  0.496900  1.0  -0.8036
  O  O70  1  0.417900  0.022800  0.411500  1.0  -0.7652
  O  O71  1  0.278500  0.127700  0.438500  1.0  -0.765
  O  O72  1  0.502100  0.150300  0.407700  1.0  -0.8507
  O  O73  1  0.987400  0.868100  0.406700  1.0  -0.9379
  O  O74  1  0.224400  0.889500  0.427700  1.0  -0.7977
  O  O75  1  0.068600  0.992400  0.415600  1.0  -0.8542
  O  O76  1  0.043300  0.906500  0.497900  1.0  -0.855
  O  O77  1  0.518300  0.149600  0.205100  1.0  -0.7784
  O  O78  1  0.631200  0.107800  0.293300  1.0  -0.9221
  O  O79  1  0.541600  0.018600  0.226900  1.0  -0.7552
  O  O80  1  0.740500  0.094400  0.203600  1.0  -0.8058
  O  O81  1  0.927100  0.248700  0.344500  1.0  -0.7185
  O  O82  1  0.992700  0.152200  0.407200  1.0  -0.8735
  O  O83  1  0.763700  0.157400  0.380600  1.0  -0.7279
  O  O84  1  0.936200  0.115100  0.312900  1.0  -0.826
  O  O85  1  0.561200  0.087000  0.692100  1.0  -0.8481
  O  O86  1  0.577700  0.220100  0.660900  1.0  -0.7469
  O  O87  1  0.717400  0.125200  0.617100  1.0  -0.7568
  O  O88  1  0.473500  0.129600  0.603400  1.0  -0.8716
  O  O89  1  0.610000  0.274200  0.349300  1.0  -0.8086
  O  O90  1  0.582800  0.281300  0.247400  1.0  -0.7997
  O  O91  1  0.532900  0.390400  0.309200  1.0  -0.7909
  O  O92  1  0.757800  0.350400  0.292000  1.0  -0.7194
  O  O93  1  0.737900  0.678600  0.282400  1.0  -0.7536
  O  O94  1  0.881100  0.755600  0.342500  1.0  -0.8216
  O  O95  1  0.963200  0.641900  0.301600  1.0  -0.775
  O  O96  1  0.919900  0.752800  0.243100  1.0  -0.8015
  O  O97  1  0.090700  0.837000  0.301100  1.0  -0.6332
  O  O98  1  0.869000  0.082900  0.707600  1.0  -0.895
  O  O99  1  0.762100  0.062800  0.795600  1.0  -0.8134
  O  O100  1  0.957500  0.986700  0.768200  1.0  -0.7919
  O  O101  1  0.982300  0.116600  0.796800  1.0  -0.7555
  O  O102  1  0.468600  0.903700  0.503100  1.0  -0.8041
  O  O103  1  0.417900  0.977200  0.588500  1.0  -0.7648
  O  O104  1  0.278500  0.872300  0.561500  1.0  -0.7659
  O  O105  1  0.502100  0.849700  0.592300  1.0  -0.8489
  O  O106  1  0.987400  0.131900  0.593300  1.0  -0.9378
  O  O107  1  0.224400  0.110500  0.572300  1.0  -0.7953
  O  O108  1  0.068600  0.007600  0.584400  1.0  -0.8559
  O  O109  1  0.043300  0.093500  0.502100  1.0  -0.8549
  O  O110  1  0.518300  0.850400  0.794900  1.0  -0.7807
  O  O111  1  0.631200  0.892200  0.706700  1.0  -0.921
  O  O112  1  0.541600  0.981400  0.773100  1.0  -0.7558
  O  O113  1  0.740500  0.905600  0.796400  1.0  -0.8055
  O  O114  1  0.927100  0.751300  0.655500  1.0  -0.7188
  O  O115  1  0.992700  0.847800  0.592800  1.0  -0.8729
  O  O116  1  0.763700  0.842600  0.619400  1.0  -0.728
  O  O117  1  0.936200  0.884900  0.687100  1.0  -0.8269
  O  O118  1  0.561200  0.913000  0.307900  1.0  -0.8506
  O  O119  1  0.577700  0.779900  0.339100  1.0  -0.747
  O  O120  1  0.717400  0.874800  0.382900  1.0  -0.7557
  O  O121  1  0.473500  0.870400  0.396600  1.0  -0.8704
  O  O122  1  0.610000  0.725800  0.650700  1.0  -0.8084
  O  O123  1  0.582800  0.718700  0.752600  1.0  -0.7986
  O  O124  1  0.532900  0.609600  0.690800  1.0  -0.7894
  O  O125  1  0.757800  0.649600  0.708000  1.0  -0.7181
  O  O126  1  0.737900  0.321400  0.717600  1.0  -0.754
  O  O127  1  0.881100  0.244400  0.657500  1.0  -0.8217
  O  O128  1  0.963200  0.358100  0.698400  1.0  -0.7742
  O  O129  1  0.919900  0.247200  0.756900  1.0  -0.8014
  O  O130  1  0.090700  0.163000  0.698900  1.0  -0.6335
  O  O131  1  0.131000  0.582900  0.792400  1.0  -0.8958
  O  O132  1  0.237900  0.562800  0.704400  1.0  -0.8277
  O  O133  1  0.042500  0.486700  0.731800  1.0  -0.7926
  O  O134  1  0.017700  0.616600  0.703200  1.0  -0.7596
  O  O135  1  0.531400  0.403700  0.996900  1.0  -0.8021
  O  O136  1  0.582100  0.477200  0.911500  1.0  -0.765
  O  O137  1  0.721500  0.372300  0.938500  1.0  -0.7656
  O  O138  1  0.497900  0.349700  0.907700  1.0  -0.8516
  O  O139  1  0.012600  0.631900  0.906700  1.0  -0.9366
  O  O140  1  0.775600  0.610500  0.927700  1.0  -0.7967
  O  O141  1  0.931400  0.507600  0.915600  1.0  -0.8534
  O  O142  1  0.956700  0.593500  0.997900  1.0  -0.8544
  O  O143  1  0.481700  0.350400  0.705100  1.0  -0.7782
  O  O144  1  0.368800  0.392200  0.793300  1.0  -0.9226
  O  O145  1  0.458400  0.481400  0.726900  1.0  -0.7547
  O  O146  1  0.259500  0.405600  0.703600  1.0  -0.8066
  O  O147  1  0.072900  0.251300  0.844500  1.0  -0.7207
  O  O148  1  0.007300  0.347800  0.907200  1.0  -0.8732
  O  O149  1  0.236300  0.342600  0.880600  1.0  -0.7271
  O  O150  1  0.063800  0.384900  0.812900  1.0  -0.8286
  O  O151  1  0.438800  0.413000  0.192100  1.0  -0.8504
  O  O152  1  0.422300  0.279900  0.160900  1.0  -0.7457
  O  O153  1  0.282600  0.374800  0.117100  1.0  -0.7548
  O  O154  1  0.526500  0.370400  0.103400  1.0  -0.8706
  O  O155  1  0.390000  0.225800  0.849300  1.0  -0.8053
  O  O156  1  0.417200  0.218700  0.747400  1.0  -0.8006
  O  O157  1  0.467100  0.109600  0.809200  1.0  -0.7884
  O  O158  1  0.242200  0.149600  0.792000  1.0  -0.7182
  O  O159  1  0.262100  0.821400  0.782400  1.0  -0.7537
  O  O160  1  0.118900  0.744400  0.842500  1.0  -0.8201
  O  O161  1  0.036800  0.858100  0.801600  1.0  -0.7698
  O  O162  1  0.080100  0.747200  0.743100  1.0  -0.8015
  O  O163  1  0.909300  0.663000  0.801100  1.0  -0.632
  O  O164  1  0.131000  0.417100  0.207600  1.0  -0.8932
  O  O165  1  0.237900  0.437200  0.295600  1.0  -0.8253
  O  O166  1  0.042500  0.513300  0.268200  1.0  -0.7922
  O  O167  1  0.017700  0.383400  0.296800  1.0  -0.7613
  O  O168  1  0.531400  0.596300  0.003100  1.0  -0.8028
  O  O169  1  0.582100  0.522800  0.088500  1.0  -0.7652
  O  O170  1  0.721500  0.627700  0.061500  1.0  -0.7653
  O  O171  1  0.497900  0.650300  0.092300  1.0  -0.8509
  O  O172  1  0.012600  0.368100  0.093300  1.0  -0.9369
  O  O173  1  0.775600  0.389500  0.072300  1.0  -0.7974
  O  O174  1  0.931400  0.492400  0.084400  1.0  -0.8549
  O  O175  1  0.956700  0.406500  0.002100  1.0  -0.8531
  O  O176  1  0.481700  0.649600  0.294900  1.0  -0.7789
  O  O177  1  0.368800  0.607800  0.206700  1.0  -0.9212
  O  O178  1  0.458400  0.518600  0.273100  1.0  -0.7563
  O  O179  1  0.259500  0.594400  0.296400  1.0  -0.806
  O  O180  1  0.072900  0.748700  0.155500  1.0  -0.7199
  O  O181  1  0.007300  0.652200  0.092800  1.0  -0.8741
  O  O182  1  0.236300  0.657400  0.119400  1.0  -0.7287
  O  O183  1  0.063800  0.615100  0.187100  1.0  -0.8281
  O  O184  1  0.438800  0.587000  0.807900  1.0  -0.8471
  O  O185  1  0.422300  0.720100  0.839100  1.0  -0.7455
  O  O186  1  0.282600  0.625200  0.882900  1.0  -0.7559
  O  O187  1  0.526500  0.629600  0.896600  1.0  -0.8697
  O  O188  1  0.390000  0.774200  0.150700  1.0  -0.8061
  O  O189  1  0.417200  0.781300  0.252600  1.0  -0.7994
  O  O190  1  0.467100  0.890400  0.190800  1.0  -0.7887
  O  O191  1  0.242200  0.850400  0.208000  1.0  -0.7184
  O  O192  1  0.262100  0.178600  0.217600  1.0  -0.754
  O  O193  1  0.118900  0.255600  0.157500  1.0  -0.82
  O  O194  1  0.036800  0.141900  0.198400  1.0  -0.7702
  O  O195  1  0.080100  0.252800  0.256900  1.0  -0.8009
  O  O196  1  0.909300  0.337000  0.198900  1.0  -0.6318
  F  F197  1  0.832300  0.214000  0.246000  1.0  -0.5239
  F  F198  1  0.667900  0.815300  0.237000  1.0  -0.5244
  F  F199  1  0.422700  0.191200  0.306700  1.0  -0.4932
  F  F200  1  0.832300  0.786000  0.754000  1.0  -0.5227
  F  F201  1  0.667900  0.184700  0.763000  1.0  -0.5222
  F  F202  1  0.422700  0.808800  0.693300  1.0  -0.4925
  F  F203  1  0.167700  0.286000  0.746000  1.0  -0.5242
  F  F204  1  0.332100  0.684700  0.737000  1.0  -0.5238
  F  F205  1  0.577300  0.308800  0.806700  1.0  -0.4924
  F  F206  1  0.167700  0.714000  0.254000  1.0  -0.5224
  F  F207  1  0.332100  0.315300  0.263000  1.0  -0.5228
  F  F208  1  0.577300  0.691200  0.193300  1.0  -0.4926
