# generated using pymatgen
data_Ga3P3(O6F)2
_symmetry_space_group_name_H-M   'P 1'
_cell_length_a   10.15400000
_cell_length_b   18.39300000
_cell_length_c   15.77300000
_cell_angle_alpha   90.00000000
_cell_angle_beta   90.00000000
_cell_angle_gamma   90.00000000
_symmetry_Int_Tables_number   1
_chemical_formula_structural   Ga3P3(O6F)2
_chemical_formula_sum   'Ga24 P24 O96 F16'
_cell_volume   2945.80525951
_cell_formula_units_Z   8
loop_
 _symmetry_equiv_pos_site_id
 _symmetry_equiv_pos_as_xyz
  1  'x, y, z'
loop_
 _atom_site_type_symbol
 _atom_site_label
 _atom_site_symmetry_multiplicity
 _atom_site_fract_x
 _atom_site_fract_y
 _atom_site_fract_z
 _atom_site_occupancy
 _atom_site_charge
  Ga  Ga1  1  0.180100  0.717900  0.538100  1.0  1.652
  Ga  Ga2  1  0.336600  0.674000  0.351200  1.0  1.7888
  Ga  Ga3  1  0.149000  0.905700  0.503600  1.0  1.6251
  Ga  Ga4  1  0.319900  0.282100  0.038100  1.0  1.6515
  Ga  Ga5  1  0.163400  0.326000  0.851200  1.0  1.7889
  Ga  Ga6  1  0.351000  0.094300  0.003600  1.0  1.6256
  Ga  Ga7  1  0.819900  0.217900  0.961900  1.0  1.6522
  Ga  Ga8  1  0.663400  0.174000  0.148800  1.0  1.7902
  Ga  Ga9  1  0.851000  0.405700  0.996400  1.0  1.6268
  Ga  Ga10  1  0.680100  0.782100  0.461900  1.0  1.651
  Ga  Ga11  1  0.836600  0.826000  0.648800  1.0  1.7898
  Ga  Ga12  1  0.649000  0.594300  0.496400  1.0  1.6278
  Ga  Ga13  1  0.819900  0.282100  0.461900  1.0  1.6513
  Ga  Ga14  1  0.663400  0.326000  0.648800  1.0  1.7897
  Ga  Ga15  1  0.851000  0.094300  0.496400  1.0  1.6257
  Ga  Ga16  1  0.680100  0.717900  0.961900  1.0  1.6518
  Ga  Ga17  1  0.836600  0.674000  0.148800  1.0  1.7903
  Ga  Ga18  1  0.649000  0.905700  0.996400  1.0  1.6257
  Ga  Ga19  1  0.180100  0.782100  0.038100  1.0  1.6512
  Ga  Ga20  1  0.336600  0.826000  0.851200  1.0  1.789
  Ga  Ga21  1  0.149000  0.594300  0.003600  1.0  1.626
  Ga  Ga22  1  0.319900  0.217900  0.538100  1.0  1.6524
  Ga  Ga23  1  0.163400  0.174000  0.351200  1.0  1.7887
  Ga  Ga24  1  0.351000  0.405700  0.503600  1.0  1.6243
  P  P25  1  0.359500  0.575900  0.516400  1.0  1.811
  P  P26  1  0.150500  0.831700  0.684500  1.0  1.8067
  P  P27  1  0.379600  0.817000  0.437200  1.0  1.8631
  P  P28  1  0.140500  0.424100  0.016400  1.0  1.8111
  P  P29  1  0.349500  0.168300  0.184500  1.0  1.8067
  P  P30  1  0.120400  0.183000  0.937200  1.0  1.8657
  P  P31  1  0.640500  0.075900  0.983600  1.0  1.8099
  P  P32  1  0.849500  0.331700  0.815500  1.0  1.8046
  P  P33  1  0.620400  0.317000  0.062800  1.0  1.8628
  P  P34  1  0.859500  0.924100  0.483600  1.0  1.81
  P  P35  1  0.650500  0.668300  0.315500  1.0  1.805
  P  P36  1  0.879600  0.683000  0.562800  1.0  1.8646
  P  P37  1  0.640500  0.424100  0.483600  1.0  1.8102
  P  P38  1  0.849500  0.168300  0.315500  1.0  1.8047
  P  P39  1  0.620400  0.183000  0.562800  1.0  1.8652
  P  P40  1  0.859500  0.575900  0.983600  1.0  1.8096
  P  P41  1  0.650500  0.831700  0.815500  1.0  1.8049
  P  P42  1  0.879600  0.817000  0.062800  1.0  1.8623
  P  P43  1  0.359500  0.924100  0.016400  1.0  1.8111
  P  P44  1  0.150500  0.668300  0.184500  1.0  1.8071
  P  P45  1  0.379600  0.683000  0.937200  1.0  1.8654
  P  P46  1  0.140500  0.075900  0.516400  1.0  1.8109
  P  P47  1  0.349500  0.331700  0.684500  1.0  1.8064
  P  P48  1  0.120400  0.317000  0.437200  1.0  1.8633
  O  O49  1  0.498900  0.566600  0.555500  1.0  -0.8137
  O  O50  1  0.286000  0.503700  0.519800  1.0  -0.7452
  O  O51  1  0.379200  0.599000  0.423200  1.0  -0.9103
  O  O52  1  0.284600  0.633200  0.568600  1.0  -0.7397
  O  O53  1  0.235200  0.853800  0.760600  1.0  -0.9572
  O  O54  1  0.183600  0.754600  0.654600  1.0  -0.7533
  O  O55  1  0.186100  0.890000  0.618000  1.0  -0.8207
  O  O56  1  0.005000  0.838200  0.710500  1.0  -0.7212
  O  O57  1  0.291400  0.885500  0.431400  1.0  -0.7513
  O  O58  1  0.359700  0.774200  0.353800  1.0  -0.8103
  O  O59  1  0.343100  0.770800  0.514200  1.0  -0.7952
  O  O60  1  0.523000  0.841800  0.444200  1.0  -0.7341
  O  O61  1  0.001100  0.433400  0.055500  1.0  -0.8134
  O  O62  1  0.214000  0.496300  0.019800  1.0  -0.7457
  O  O63  1  0.120800  0.401000  0.923200  1.0  -0.9104
  O  O64  1  0.215400  0.366800  0.068600  1.0  -0.737
  O  O65  1  0.264800  0.146200  0.260600  1.0  -0.9582
  O  O66  1  0.316400  0.245400  0.154600  1.0  -0.7535
  O  O67  1  0.313900  0.110000  0.118000  1.0  -0.8218
  O  O68  1  0.495000  0.161800  0.210500  1.0  -0.7207
  O  O69  1  0.208600  0.114500  0.931400  1.0  -0.7485
  O  O70  1  0.140300  0.225800  0.853800  1.0  -0.8091
  O  O71  1  0.156900  0.229200  0.014200  1.0  -0.7948
  O  O72  1  0.977000  0.158200  0.944200  1.0  -0.7333
  O  O73  1  0.501100  0.066600  0.944500  1.0  -0.8144
  O  O74  1  0.714000  0.003700  0.980200  1.0  -0.746
  O  O75  1  0.620800  0.099000  0.076800  1.0  -0.9109
  O  O76  1  0.715400  0.133200  0.931400  1.0  -0.7365
  O  O77  1  0.764800  0.353800  0.739400  1.0  -0.9568
  O  O78  1  0.816400  0.254600  0.845400  1.0  -0.7532
  O  O79  1  0.813900  0.390000  0.882000  1.0  -0.8228
  O  O80  1  0.995000  0.338200  0.789500  1.0  -0.7227
  O  O81  1  0.708600  0.385500  0.068600  1.0  -0.7498
  O  O82  1  0.640300  0.274200  0.146200  1.0  -0.8106
  O  O83  1  0.656900  0.270800  0.985800  1.0  -0.7954
  O  O84  1  0.477000  0.341800  0.055800  1.0  -0.734
  O  O85  1  0.998900  0.933400  0.444500  1.0  -0.8144
  O  O86  1  0.786000  0.996300  0.480200  1.0  -0.7456
  O  O87  1  0.879200  0.901000  0.576800  1.0  -0.9129
  O  O88  1  0.784600  0.866800  0.431400  1.0  -0.7371
  O  O89  1  0.735200  0.646200  0.239400  1.0  -0.9571
  O  O90  1  0.683600  0.745400  0.345400  1.0  -0.7528
  O  O91  1  0.686100  0.610000  0.382000  1.0  -0.8225
  O  O92  1  0.505000  0.661800  0.289500  1.0  -0.7233
  O  O93  1  0.791400  0.614500  0.568600  1.0  -0.7474
  O  O94  1  0.859700  0.725800  0.646200  1.0  -0.8107
  O  O95  1  0.843100  0.729200  0.485800  1.0  -0.7951
  O  O96  1  0.023000  0.658200  0.555800  1.0  -0.7333
  O  O97  1  0.501100  0.433400  0.444500  1.0  -0.8143
  O  O98  1  0.714000  0.496300  0.480200  1.0  -0.7458
  O  O99  1  0.620800  0.401000  0.576800  1.0  -0.9121
  O  O100  1  0.715400  0.366800  0.431400  1.0  -0.7364
  O  O101  1  0.764800  0.146200  0.239400  1.0  -0.9574
  O  O102  1  0.816400  0.245400  0.345400  1.0  -0.7532
  O  O103  1  0.813900  0.110000  0.382000  1.0  -0.8225
  O  O104  1  0.995000  0.161800  0.289500  1.0  -0.7224
  O  O105  1  0.708600  0.114500  0.568600  1.0  -0.7492
  O  O106  1  0.640300  0.225800  0.646200  1.0  -0.8108
  O  O107  1  0.656900  0.229200  0.485800  1.0  -0.7956
  O  O108  1  0.477000  0.158200  0.555800  1.0  -0.7336
  O  O109  1  0.998900  0.566600  0.944500  1.0  -0.8145
  O  O110  1  0.786000  0.503700  0.980200  1.0  -0.7454
  O  O111  1  0.879200  0.599000  0.076800  1.0  -0.9112
  O  O112  1  0.784600  0.633200  0.931400  1.0  -0.7373
  O  O113  1  0.735200  0.853800  0.739400  1.0  -0.9563
  O  O114  1  0.683600  0.754600  0.845400  1.0  -0.7527
  O  O115  1  0.686100  0.890000  0.882000  1.0  -0.8224
  O  O116  1  0.505000  0.838200  0.789500  1.0  -0.7229
  O  O117  1  0.791400  0.885500  0.068600  1.0  -0.7472
  O  O118  1  0.859700  0.774200  0.146200  1.0  -0.8107
  O  O119  1  0.843100  0.770800  0.985800  1.0  -0.7953
  O  O120  1  0.023000  0.841800  0.055800  1.0  -0.734
  O  O121  1  0.498900  0.933400  0.055500  1.0  -0.8131
  O  O122  1  0.286000  0.996300  0.019800  1.0  -0.7455
  O  O123  1  0.379200  0.901000  0.923200  1.0  -0.9118
  O  O124  1  0.284600  0.866800  0.068600  1.0  -0.7391
  O  O125  1  0.235200  0.646200  0.260600  1.0  -0.9579
  O  O126  1  0.183600  0.745400  0.154600  1.0  -0.7528
  O  O127  1  0.186100  0.610000  0.118000  1.0  -0.8217
  O  O128  1  0.005000  0.661800  0.210500  1.0  -0.7216
  O  O129  1  0.291400  0.614500  0.931400  1.0  -0.748
  O  O130  1  0.359700  0.725800  0.853800  1.0  -0.8087
  O  O131  1  0.343100  0.729200  0.014200  1.0  -0.7945
  O  O132  1  0.523000  0.658200  0.944200  1.0  -0.7333
  O  O133  1  0.001100  0.066600  0.555500  1.0  -0.8139
  O  O134  1  0.214000  0.003700  0.519800  1.0  -0.7458
  O  O135  1  0.120800  0.099000  0.423200  1.0  -0.9097
  O  O136  1  0.215400  0.133200  0.568600  1.0  -0.7376
  O  O137  1  0.264800  0.353800  0.760600  1.0  -0.9577
  O  O138  1  0.316400  0.254600  0.654600  1.0  -0.754
  O  O139  1  0.313900  0.390000  0.618000  1.0  -0.8213
  O  O140  1  0.495000  0.338200  0.710500  1.0  -0.721
  O  O141  1  0.208600  0.385500  0.431400  1.0  -0.7523
  O  O142  1  0.140300  0.274200  0.353800  1.0  -0.8107
  O  O143  1  0.156900  0.270800  0.514200  1.0  -0.7952
  O  O144  1  0.977000  0.341800  0.444200  1.0  -0.7336
  F  F145  1  0.173300  0.685800  0.419300  1.0  -0.4766
  F  F146  1  0.084400  0.803900  0.501400  1.0  -0.5195
  F  F147  1  0.326700  0.314200  0.919300  1.0  -0.476
  F  F148  1  0.415600  0.196100  0.001400  1.0  -0.5197
  F  F149  1  0.826700  0.185800  0.080700  1.0  -0.4765
  F  F150  1  0.915600  0.303900  0.998600  1.0  -0.5199
  F  F151  1  0.673300  0.814200  0.580700  1.0  -0.4768
  F  F152  1  0.584400  0.696100  0.498600  1.0  -0.5203
  F  F153  1  0.826700  0.314200  0.580700  1.0  -0.477
  F  F154  1  0.915600  0.196100  0.498600  1.0  -0.5198
  F  F155  1  0.673300  0.685800  0.080700  1.0  -0.4767
  F  F156  1  0.584400  0.803900  0.998600  1.0  -0.5203
  F  F157  1  0.173300  0.814200  0.919300  1.0  -0.476
  F  F158  1  0.084400  0.696100  0.001400  1.0  -0.5195
  F  F159  1  0.326700  0.185800  0.419300  1.0  -0.4759
  F  F160  1  0.415600  0.303900  0.501400  1.0  -0.5198
