# generated using pymatgen
data_CuH8C8(N3O2)2
_symmetry_space_group_name_H-M   'P 1'
_cell_length_a   24.14280000
_cell_length_b   24.14280000
_cell_length_c   4.98780000
_cell_angle_alpha   90.00000000
_cell_angle_beta   90.00000000
_cell_angle_gamma   90.00000000
_symmetry_Int_Tables_number   1
_chemical_formula_structural   CuH8C8(N3O2)2
_chemical_formula_sum   'Cu8 H64 C64 N48 O32'
_cell_volume   2907.26288674
_cell_formula_units_Z   8
loop_
 _symmetry_equiv_pos_site_id
 _symmetry_equiv_pos_as_xyz
  1  'x, y, z'
loop_
 _atom_site_type_symbol
 _atom_site_label
 _atom_site_symmetry_multiplicity
 _atom_site_fract_x
 _atom_site_fract_y
 _atom_site_fract_z
 _atom_site_occupancy
 _atom_site_charge
  Cu  Cu1  1  0.500000  0.000000  0.000000  1.0  0.7218
  Cu  Cu2  1  0.000000  0.500000  0.500000  1.0  0.7218
  Cu  Cu3  1  0.000000  0.000000  0.500000  1.0  0.7218
  Cu  Cu4  1  0.500000  0.500000  0.000000  1.0  0.7218
  Cu  Cu5  1  0.750000  0.750000  0.250000  1.0  0.7218
  Cu  Cu6  1  0.750000  0.250000  0.750000  1.0  0.7218
  Cu  Cu7  1  0.250000  0.250000  0.750000  1.0  0.7218
  Cu  Cu8  1  0.250000  0.750000  0.250000  1.0  0.7218
  H  H9  1  0.413700  0.127700  0.456900  1.0  0.1291
  H  H10  1  0.442200  0.168000  0.253000  1.0  0.124
  H  H11  1  0.238400  0.170300  0.259900  1.0  0.0991
  H  H12  1  0.372300  0.210900  0.880300  1.0  0.1077
  H  H13  1  0.913700  0.627700  0.956900  1.0  0.1291
  H  H14  1  0.942200  0.668000  0.753000  1.0  0.124
  H  H15  1  0.738400  0.670300  0.759900  1.0  0.0991
  H  H16  1  0.872300  0.710900  0.380300  1.0  0.1077
  H  H17  1  0.086300  0.872300  0.956900  1.0  0.1291
  H  H18  1  0.057800  0.832000  0.753000  1.0  0.1261
  H  H19  1  0.261600  0.829700  0.759900  1.0  0.0996
  H  H20  1  0.127700  0.789100  0.380300  1.0  0.1027
  H  H21  1  0.586300  0.372300  0.456900  1.0  0.1291
  H  H22  1  0.557800  0.332000  0.253000  1.0  0.1261
  H  H23  1  0.761600  0.329700  0.259900  1.0  0.0996
  H  H24  1  0.627700  0.289100  0.880300  1.0  0.1027
  H  H25  1  0.622300  0.663700  0.706900  1.0  0.1297
  H  H26  1  0.582000  0.692200  0.503000  1.0  0.1262
  H  H27  1  0.579700  0.488400  0.509900  1.0  0.0993
  H  H28  1  0.539100  0.622300  0.130300  1.0  0.1065
  H  H29  1  0.122300  0.163700  0.206900  1.0  0.1297
  H  H30  1  0.082000  0.192200  0.003000  1.0  0.1262
  H  H31  1  0.079700  0.988400  0.009900  1.0  0.0993
  H  H32  1  0.039100  0.122300  0.630300  1.0  0.1065
  H  H33  1  0.877700  0.336300  0.206900  1.0  0.1288
  H  H34  1  0.918000  0.307800  0.003000  1.0  0.1253
  H  H35  1  0.920300  0.511600  0.009900  1.0  0.0994
  H  H36  1  0.960900  0.377700  0.630300  1.0  0.1061
  H  H37  1  0.377700  0.836300  0.706900  1.0  0.1288
  H  H38  1  0.418000  0.807800  0.503000  1.0  0.1253
  H  H39  1  0.420300  0.011600  0.509900  1.0  0.0994
  H  H40  1  0.460900  0.877700  0.130300  1.0  0.1061
  H  H41  1  0.586300  0.872300  0.543100  1.0  0.1285
  H  H42  1  0.557800  0.832000  0.747000  1.0  0.1261
  H  H43  1  0.761600  0.829700  0.740100  1.0  0.0999
  H  H44  1  0.627700  0.789100  0.119700  1.0  0.103
  H  H45  1  0.086300  0.372300  0.043100  1.0  0.1285
  H  H46  1  0.057800  0.332000  0.247000  1.0  0.1261
  H  H47  1  0.261600  0.329700  0.240100  1.0  0.0999
  H  H48  1  0.127700  0.289100  0.619700  1.0  0.103
  H  H49  1  0.913700  0.127700  0.043100  1.0  0.1289
  H  H50  1  0.942200  0.168000  0.247000  1.0  0.1241
  H  H51  1  0.738400  0.170300  0.240100  1.0  0.0993
  H  H52  1  0.872300  0.210900  0.619700  1.0  0.1082
  H  H53  1  0.413700  0.627700  0.543100  1.0  0.1289
  H  H54  1  0.442200  0.668000  0.747000  1.0  0.1241
  H  H55  1  0.238400  0.670300  0.740100  1.0  0.0993
  H  H56  1  0.372300  0.710900  0.119700  1.0  0.1082
  H  H57  1  0.377700  0.336300  0.293100  1.0  0.1288
  H  H58  1  0.418000  0.307800  0.497000  1.0  0.1251
  H  H59  1  0.420300  0.511600  0.490100  1.0  0.0995
  H  H60  1  0.460900  0.377700  0.869700  1.0  0.1065
  H  H61  1  0.877700  0.836300  0.793100  1.0  0.1288
  H  H62  1  0.918000  0.807800  0.997000  1.0  0.1251
  H  H63  1  0.920300  0.011600  0.990100  1.0  0.0995
  H  H64  1  0.960900  0.877700  0.369700  1.0  0.1065
  H  H65  1  0.122300  0.663700  0.793100  1.0  0.1286
  H  H66  1  0.082000  0.692200  0.997000  1.0  0.1264
  H  H67  1  0.079700  0.488400  0.990100  1.0  0.0996
  H  H68  1  0.039100  0.622300  0.369700  1.0  0.1067
  H  H69  1  0.622300  0.163700  0.293100  1.0  0.1289
  H  H70  1  0.582000  0.192200  0.497000  1.0  0.1264
  H  H71  1  0.579700  0.988400  0.490100  1.0  0.0996
  H  H72  1  0.539100  0.122300  0.869700  1.0  0.1067
  C  C73  1  0.431820  0.089740  0.098500  1.0  0.6958
  C  C74  1  0.414540  0.139070  0.270400  1.0  -0.1672
  C  C75  1  0.275440  0.172660  0.210300  1.0  0.2204
  C  C76  1  0.347440  0.195300  0.001000  1.0  0.1574
  C  C77  1  0.931820  0.589740  0.598500  1.0  0.6958
  C  C78  1  0.914540  0.639070  0.770400  1.0  -0.1672
  C  C79  1  0.775440  0.672660  0.710300  1.0  0.2204
  C  C80  1  0.847440  0.695300  0.501000  1.0  0.1569
  C  C81  1  0.068180  0.910260  0.598500  1.0  0.7037
  C  C82  1  0.085460  0.860930  0.770400  1.0  -0.1667
  C  C83  1  0.224560  0.827340  0.710300  1.0  0.2202
  C  C84  1  0.152560  0.804700  0.501000  1.0  0.1557
  C  C85  1  0.568180  0.410260  0.098500  1.0  0.7037
  C  C86  1  0.585460  0.360930  0.270400  1.0  -0.1667
  C  C87  1  0.724560  0.327340  0.210300  1.0  0.2202
  C  C88  1  0.652560  0.304700  0.001000  1.0  0.1571
  C  C89  1  0.660260  0.681820  0.348500  1.0  0.6959
  C  C90  1  0.610930  0.664540  0.520400  1.0  -0.1662
  C  C91  1  0.577340  0.525440  0.460300  1.0  0.2282
  C  C92  1  0.554700  0.597440  0.251000  1.0  0.1569
  C  C93  1  0.160260  0.181820  0.848500  1.0  0.6961
  C  C94  1  0.110930  0.164540  0.020400  1.0  -0.1662
  C  C95  1  0.077340  0.025440  0.960300  1.0  0.2282
  C  C96  1  0.054700  0.097440  0.751000  1.0  0.1571
  C  C97  1  0.839740  0.318180  0.848500  1.0  0.6986
  C  C98  1  0.889070  0.335460  0.020400  1.0  -0.1652
  C  C99  1  0.922660  0.474560  0.960300  1.0  0.2185
  C  C100  1  0.945300  0.402560  0.751000  1.0  0.1575
  C  C101  1  0.339740  0.818180  0.348500  1.0  0.696
  C  C102  1  0.389070  0.835460  0.520400  1.0  -0.1652
  C  C103  1  0.422660  0.974560  0.460300  1.0  0.2176
  C  C104  1  0.445300  0.902560  0.251000  1.0  0.1575
  C  C105  1  0.568180  0.910260  0.901500  1.0  0.7031
  C  C106  1  0.585460  0.860930  0.729600  1.0  -0.1665
  C  C107  1  0.724560  0.827340  0.789700  1.0  0.2264
  C  C108  1  0.652560  0.804700  0.999000  1.0  0.1561
  C  C109  1  0.068180  0.410260  0.401500  1.0  0.7031
  C  C110  1  0.085460  0.360930  0.229600  1.0  -0.1665
  C  C111  1  0.224560  0.327340  0.289700  1.0  0.2216
  C  C112  1  0.152560  0.304700  0.499000  1.0  0.1561
  C  C113  1  0.931820  0.089740  0.401500  1.0  0.6952
  C  C114  1  0.914540  0.139070  0.229600  1.0  -0.1654
  C  C115  1  0.775440  0.172660  0.289700  1.0  0.2211
  C  C116  1  0.847440  0.195300  0.499000  1.0  0.1574
  C  C117  1  0.431820  0.589740  0.901500  1.0  0.6952
  C  C118  1  0.414540  0.639070  0.729600  1.0  -0.1654
  C  C119  1  0.275440  0.672660  0.789700  1.0  0.2214
  C  C120  1  0.347440  0.695300  0.999000  1.0  0.1574
  C  C121  1  0.339740  0.318180  0.651500  1.0  0.7007
  C  C122  1  0.389070  0.335460  0.479600  1.0  -0.1647
  C  C123  1  0.422660  0.474560  0.539700  1.0  0.221
  C  C124  1  0.445300  0.402560  0.749000  1.0  0.1575
  C  C125  1  0.839740  0.818180  0.151500  1.0  0.7007
  C  C126  1  0.889070  0.835460  0.979600  1.0  -0.1647
  C  C127  1  0.922660  0.974560  0.039700  1.0  0.221
  C  C128  1  0.945300  0.902560  0.249000  1.0  0.1581
  C  C129  1  0.160260  0.681820  0.151500  1.0  0.6955
  C  C130  1  0.110930  0.664540  0.979600  1.0  -0.166
  C  C131  1  0.077340  0.525440  0.039700  1.0  0.2281
  C  C132  1  0.054700  0.597440  0.249000  1.0  0.1578
  C  C133  1  0.660260  0.181820  0.651500  1.0  0.6955
  C  C134  1  0.610930  0.164540  0.479600  1.0  -0.166
  C  C135  1  0.577340  0.025440  0.539700  1.0  0.2281
  C  C136  1  0.554700  0.097440  0.749000  1.0  0.1576
  N  N137  1  0.360870  0.161420  0.198400  1.0  0.1892
  N  N138  1  0.293230  0.203810  0.000600  1.0  -0.4018
  N  N139  1  0.314860  0.146270  0.336300  1.0  -0.3779
  N  N140  1  0.860870  0.661420  0.698400  1.0  0.1892
  N  N141  1  0.793230  0.703810  0.500600  1.0  -0.4018
  N  N142  1  0.814860  0.646270  0.836300  1.0  -0.3779
  N  N143  1  0.139130  0.838580  0.698400  1.0  0.1896
  N  N144  1  0.206770  0.796190  0.500600  1.0  -0.4017
  N  N145  1  0.185140  0.853730  0.836300  1.0  -0.3788
  N  N146  1  0.639130  0.338580  0.198400  1.0  0.1896
  N  N147  1  0.706770  0.296190  0.000600  1.0  -0.4017
  N  N148  1  0.685140  0.353730  0.336300  1.0  -0.3788
  N  N149  1  0.588580  0.610870  0.448400  1.0  0.1906
  N  N150  1  0.546190  0.543230  0.250600  1.0  -0.4041
  N  N151  1  0.603730  0.564860  0.586300  1.0  -0.3766
  N  N152  1  0.088580  0.110870  0.948400  1.0  0.1906
  N  N153  1  0.046190  0.043230  0.750600  1.0  -0.4041
  N  N154  1  0.103730  0.064860  0.086300  1.0  -0.3766
  N  N155  1  0.911420  0.389130  0.948400  1.0  0.189
  N  N156  1  0.953810  0.456770  0.750600  1.0  -0.4017
  N  N157  1  0.896270  0.435140  0.086300  1.0  -0.3786
  N  N158  1  0.411420  0.889130  0.448400  1.0  0.189
  N  N159  1  0.453810  0.956770  0.250600  1.0  -0.4017
  N  N160  1  0.396270  0.935140  0.586300  1.0  -0.3786
  N  N161  1  0.639130  0.838580  0.801600  1.0  0.1892
  N  N162  1  0.706770  0.796190  0.999400  1.0  -0.4008
  N  N163  1  0.685140  0.853730  0.663700  1.0  -0.3794
  N  N164  1  0.139130  0.338580  0.301600  1.0  0.1892
  N  N165  1  0.206770  0.296190  0.499400  1.0  -0.4008
  N  N166  1  0.185140  0.353730  0.163700  1.0  -0.3794
  N  N167  1  0.860870  0.161420  0.301600  1.0  0.1887
  N  N168  1  0.793230  0.203810  0.499400  1.0  -0.4012
  N  N169  1  0.814860  0.146270  0.163700  1.0  -0.3758
  N  N170  1  0.360870  0.661420  0.801600  1.0  0.1887
  N  N171  1  0.293230  0.703810  0.999400  1.0  -0.4012
  N  N172  1  0.314860  0.646270  0.663700  1.0  -0.3758
  N  N173  1  0.411420  0.389130  0.551600  1.0  0.1886
  N  N174  1  0.453810  0.456770  0.749400  1.0  -0.4015
  N  N175  1  0.396270  0.435140  0.413700  1.0  -0.3761
  N  N176  1  0.911420  0.889130  0.051600  1.0  0.1886
  N  N177  1  0.953810  0.956770  0.249400  1.0  -0.4015
  N  N178  1  0.896270  0.935140  0.913700  1.0  -0.3754
  N  N179  1  0.088580  0.610870  0.051600  1.0  0.1901
  N  N180  1  0.046190  0.543230  0.249400  1.0  -0.4029
  N  N181  1  0.103730  0.564860  0.913700  1.0  -0.3779
  N  N182  1  0.588580  0.110870  0.551600  1.0  0.1901
  N  N183  1  0.546190  0.043230  0.749400  1.0  -0.4029
  N  N184  1  0.603730  0.064860  0.413700  1.0  -0.3779
  O  O185  1  0.477100  0.068100  0.177300  1.0  -0.5868
  O  O186  1  0.404270  0.074480  0.907600  1.0  -0.5575
  O  O187  1  0.977100  0.568100  0.677300  1.0  -0.5869
  O  O188  1  0.904270  0.574480  0.407600  1.0  -0.5575
  O  O189  1  0.022900  0.931900  0.677300  1.0  -0.587
  O  O190  1  0.095730  0.925520  0.407600  1.0  -0.5593
  O  O191  1  0.522900  0.431900  0.177300  1.0  -0.5868
  O  O192  1  0.595730  0.425520  0.907600  1.0  -0.5594
  O  O193  1  0.681900  0.727100  0.427300  1.0  -0.5854
  O  O194  1  0.675520  0.654270  0.157600  1.0  -0.5576
  O  O195  1  0.181900  0.227100  0.927300  1.0  -0.5854
  O  O196  1  0.175520  0.154270  0.657600  1.0  -0.5574
  O  O197  1  0.818100  0.272900  0.927300  1.0  -0.5878
  O  O198  1  0.824480  0.345730  0.657600  1.0  -0.5553
  O  O199  1  0.318100  0.772900  0.427300  1.0  -0.5878
  O  O200  1  0.324480  0.845730  0.157600  1.0  -0.5553
  O  O201  1  0.522900  0.931900  0.822700  1.0  -0.5864
  O  O202  1  0.595730  0.925520  0.092400  1.0  -0.5576
  O  O203  1  0.022900  0.431900  0.322700  1.0  -0.5864
  O  O204  1  0.095730  0.425520  0.592400  1.0  -0.5576
  O  O205  1  0.977100  0.068100  0.322700  1.0  -0.5858
  O  O206  1  0.904270  0.074480  0.592400  1.0  -0.5546
  O  O207  1  0.477100  0.568100  0.822700  1.0  -0.5858
  O  O208  1  0.404270  0.574480  0.092400  1.0  -0.5546
  O  O209  1  0.318100  0.272900  0.572700  1.0  -0.5874
  O  O210  1  0.324480  0.345730  0.842400  1.0  -0.5538
  O  O211  1  0.818100  0.772900  0.072700  1.0  -0.5874
  O  O212  1  0.824480  0.845730  0.342400  1.0  -0.5538
  O  O213  1  0.181900  0.727100  0.072700  1.0  -0.5844
  O  O214  1  0.175520  0.654270  0.342400  1.0  -0.5547
  O  O215  1  0.681900  0.227100  0.572700  1.0  -0.5844
  O  O216  1  0.675520  0.154270  0.842400  1.0  -0.5548
