# generated using pymatgen
data_CuH8C8(N3O2)2
_symmetry_space_group_name_H-M   'P 1'
_cell_length_a   24.16900000
_cell_length_b   24.16900000
_cell_length_c   4.98000000
_cell_angle_alpha   90.00000000
_cell_angle_beta   90.00000000
_cell_angle_gamma   90.00000000
_symmetry_Int_Tables_number   1
_chemical_formula_structural   CuH8C8(N3O2)2
_chemical_formula_sum   'Cu8 H64 C64 N48 O32'
_cell_volume   2909.01999378
_cell_formula_units_Z   8
loop_
 _symmetry_equiv_pos_site_id
 _symmetry_equiv_pos_as_xyz
  1  'x, y, z'
loop_
 _atom_site_type_symbol
 _atom_site_label
 _atom_site_symmetry_multiplicity
 _atom_site_fract_x
 _atom_site_fract_y
 _atom_site_fract_z
 _atom_site_occupancy
 _atom_site_charge
  Cu  Cu1  1  0.500000  0.000000  0.000000  1.0  0.7307
  Cu  Cu2  1  0.000000  0.500000  0.500000  1.0  0.7307
  Cu  Cu3  1  0.000000  0.000000  0.500000  1.0  0.7307
  Cu  Cu4  1  0.500000  0.500000  0.000000  1.0  0.7307
  Cu  Cu5  1  0.750000  0.750000  0.250000  1.0  0.7307
  Cu  Cu6  1  0.750000  0.250000  0.750000  1.0  0.7307
  Cu  Cu7  1  0.250000  0.250000  0.750000  1.0  0.7307
  Cu  Cu8  1  0.250000  0.750000  0.250000  1.0  0.7307
  H  H9  1  0.556600  0.830700  0.750900  1.0  0.1353
  H  H10  1  0.584100  0.870100  0.539400  1.0  0.1413
  H  H11  1  0.761100  0.831300  0.742600  1.0  0.1017
  H  H12  1  0.626800  0.788200  0.115000  1.0  0.1105
  H  H13  1  0.056600  0.330700  0.250900  1.0  0.1353
  H  H14  1  0.084100  0.370100  0.039400  1.0  0.1413
  H  H15  1  0.261100  0.331300  0.242600  1.0  0.1017
  H  H16  1  0.126800  0.288200  0.615000  1.0  0.1105
  H  H17  1  0.943400  0.169300  0.250900  1.0  0.1336
  H  H18  1  0.915900  0.129900  0.039400  1.0  0.1419
  H  H19  1  0.738900  0.168700  0.242600  1.0  0.101
  H  H20  1  0.873200  0.211800  0.615000  1.0  0.1105
  H  H21  1  0.443400  0.669300  0.750900  1.0  0.1336
  H  H22  1  0.415900  0.629900  0.539400  1.0  0.1419
  H  H23  1  0.238900  0.668700  0.742600  1.0  0.101
  H  H24  1  0.373200  0.711800  0.115000  1.0  0.1105
  H  H25  1  0.919300  0.806600  0.000900  1.0  0.1351
  H  H26  1  0.879900  0.834100  0.789400  1.0  0.1417
  H  H27  1  0.918700  0.011100  0.992600  1.0  0.1017
  H  H28  1  0.961800  0.876800  0.365000  1.0  0.1115
  H  H29  1  0.419300  0.306600  0.500900  1.0  0.1351
  H  H30  1  0.379900  0.334100  0.289400  1.0  0.1417
  H  H31  1  0.418700  0.511100  0.492600  1.0  0.1017
  H  H32  1  0.461800  0.376800  0.865000  1.0  0.1115
  H  H33  1  0.580700  0.193400  0.500900  1.0  0.1356
  H  H34  1  0.620100  0.165900  0.289400  1.0  0.1419
  H  H35  1  0.581300  0.988900  0.492600  1.0  0.1012
  H  H36  1  0.538200  0.123200  0.865000  1.0  0.1115
  H  H37  1  0.080700  0.693400  0.000900  1.0  0.1356
  H  H38  1  0.120100  0.665900  0.789400  1.0  0.1419
  H  H39  1  0.081300  0.488900  0.992600  1.0  0.1012
  H  H40  1  0.038200  0.623200  0.365000  1.0  0.1115
  H  H41  1  0.443400  0.169300  0.249100  1.0  0.1335
  H  H42  1  0.415900  0.129900  0.460600  1.0  0.1417
  H  H43  1  0.238900  0.168700  0.257400  1.0  0.1008
  H  H44  1  0.373200  0.211800  0.885000  1.0  0.1104
  H  H45  1  0.943400  0.669300  0.749100  1.0  0.1335
  H  H46  1  0.915900  0.629900  0.960600  1.0  0.1417
  H  H47  1  0.738900  0.668700  0.757400  1.0  0.1008
  H  H48  1  0.873200  0.711800  0.385000  1.0  0.1104
  H  H49  1  0.056600  0.830700  0.749100  1.0  0.1353
  H  H50  1  0.084100  0.870100  0.960600  1.0  0.1419
  H  H51  1  0.261100  0.831300  0.757400  1.0  0.1014
  H  H52  1  0.126800  0.788200  0.385000  1.0  0.1105
  H  H53  1  0.556600  0.330700  0.249100  1.0  0.1353
  H  H54  1  0.584100  0.370100  0.460600  1.0  0.1419
  H  H55  1  0.761100  0.331300  0.257400  1.0  0.1014
  H  H56  1  0.626800  0.288200  0.885000  1.0  0.1105
  H  H57  1  0.080700  0.193400  0.999100  1.0  0.1355
  H  H58  1  0.120100  0.165900  0.210600  1.0  0.1425
  H  H59  1  0.081300  0.988900  0.007400  1.0  0.101
  H  H60  1  0.038200  0.123200  0.635000  1.0  0.1116
  H  H61  1  0.580700  0.693400  0.499100  1.0  0.1355
  H  H62  1  0.620100  0.665900  0.710600  1.0  0.1425
  H  H63  1  0.581300  0.488900  0.507400  1.0  0.101
  H  H64  1  0.538200  0.623200  0.135000  1.0  0.1116
  H  H65  1  0.419300  0.806600  0.499100  1.0  0.135
  H  H66  1  0.379900  0.834100  0.710600  1.0  0.1418
  H  H67  1  0.418700  0.011100  0.507400  1.0  0.1015
  H  H68  1  0.461800  0.876800  0.135000  1.0  0.1114
  H  H69  1  0.919300  0.306600  0.999100  1.0  0.135
  H  H70  1  0.879900  0.334100  0.210600  1.0  0.1418
  H  H71  1  0.918700  0.511100  0.007400  1.0  0.1015
  H  H72  1  0.961800  0.376800  0.635000  1.0  0.1114
  C  C73  1  0.584000  0.859600  0.727400  1.0  -0.153
  C  C74  1  0.567700  0.909700  0.896600  1.0  0.7169
  C  C75  1  0.724100  0.827900  0.790200  1.0  0.2399
  C  C76  1  0.651800  0.804000  0.995200  1.0  0.1425
  C  C77  1  0.084000  0.359600  0.227400  1.0  -0.153
  C  C78  1  0.067700  0.409700  0.396600  1.0  0.7169
  C  C79  1  0.224100  0.327900  0.290200  1.0  0.2399
  C  C80  1  0.151800  0.304000  0.495200  1.0  0.1425
  C  C81  1  0.916000  0.140400  0.227400  1.0  -0.1509
  C  C82  1  0.932300  0.090300  0.396600  1.0  0.7166
  C  C83  1  0.775900  0.172100  0.290200  1.0  0.24
  C  C84  1  0.848200  0.196000  0.495200  1.0  0.142
  C  C85  1  0.416000  0.640400  0.727400  1.0  -0.1509
  C  C86  1  0.432300  0.590300  0.896600  1.0  0.7166
  C  C87  1  0.275900  0.672100  0.790200  1.0  0.24
  C  C88  1  0.348200  0.696000  0.995200  1.0  0.142
  C  C89  1  0.890400  0.834000  0.977400  1.0  -0.1504
  C  C90  1  0.840300  0.817700  0.146600  1.0  0.7149
  C  C91  1  0.922100  0.974100  0.040200  1.0  0.2394
  C  C92  1  0.946000  0.901800  0.245200  1.0  0.1424
  C  C93  1  0.390400  0.334000  0.477400  1.0  -0.1504
  C  C94  1  0.340300  0.317700  0.646600  1.0  0.7149
  C  C95  1  0.422100  0.474100  0.540200  1.0  0.2394
  C  C96  1  0.446000  0.401800  0.745200  1.0  0.1424
  C  C97  1  0.609600  0.166000  0.477400  1.0  -0.1512
  C  C98  1  0.659700  0.182300  0.646600  1.0  0.716
  C  C99  1  0.577900  0.025900  0.540200  1.0  0.24
  C  C100  1  0.554000  0.098200  0.745200  1.0  0.1412
  C  C101  1  0.109600  0.666000  0.977400  1.0  -0.1512
  C  C102  1  0.159700  0.682300  0.146600  1.0  0.716
  C  C103  1  0.077900  0.525900  0.040200  1.0  0.24
  C  C104  1  0.054000  0.598200  0.245200  1.0  0.1412
  C  C105  1  0.416000  0.140400  0.272600  1.0  -0.1525
  C  C106  1  0.432300  0.090300  0.103400  1.0  0.7169
  C  C107  1  0.275900  0.172100  0.209800  1.0  0.2392
  C  C108  1  0.348200  0.196000  0.004800  1.0  0.1413
  C  C109  1  0.916000  0.640400  0.772600  1.0  -0.1525
  C  C110  1  0.932300  0.590300  0.603400  1.0  0.7169
  C  C111  1  0.775900  0.672100  0.709800  1.0  0.2392
  C  C112  1  0.848200  0.696000  0.504800  1.0  0.1413
  C  C113  1  0.084000  0.859600  0.772600  1.0  -0.1546
  C  C114  1  0.067700  0.909700  0.603400  1.0  0.7173
  C  C115  1  0.224100  0.827900  0.709800  1.0  0.2389
  C  C116  1  0.151800  0.804000  0.504800  1.0  0.1423
  C  C117  1  0.584000  0.359600  0.272600  1.0  -0.1546
  C  C118  1  0.567700  0.409700  0.103400  1.0  0.7173
  C  C119  1  0.724100  0.327900  0.209800  1.0  0.2389
  C  C120  1  0.651800  0.304000  0.004800  1.0  0.1423
  C  C121  1  0.109600  0.166000  0.022600  1.0  -0.1526
  C  C122  1  0.159700  0.182300  0.853400  1.0  0.7163
  C  C123  1  0.077900  0.025900  0.959800  1.0  0.2394
  C  C124  1  0.054000  0.098200  0.754800  1.0  0.1411
  C  C125  1  0.609600  0.666000  0.522600  1.0  -0.1526
  C  C126  1  0.659700  0.682300  0.353400  1.0  0.7163
  C  C127  1  0.577900  0.525900  0.459800  1.0  0.2394
  C  C128  1  0.554000  0.598200  0.254800  1.0  0.1411
  C  C129  1  0.390400  0.834000  0.522600  1.0  -0.152
  C  C130  1  0.340300  0.817700  0.353400  1.0  0.716
  C  C131  1  0.422100  0.974100  0.459800  1.0  0.2379
  C  C132  1  0.446000  0.901800  0.254800  1.0  0.1418
  C  C133  1  0.890400  0.334000  0.022600  1.0  -0.152
  C  C134  1  0.840300  0.317700  0.853400  1.0  0.716
  C  C135  1  0.922100  0.474100  0.959800  1.0  0.2379
  C  C136  1  0.946000  0.401800  0.754800  1.0  0.1418
  N  N137  1  0.638240  0.837810  0.798400  1.0  0.1902
  N  N138  1  0.683910  0.853700  0.662900  1.0  -0.3789
  N  N139  1  0.454280  0.956470  0.251800  1.0  -0.4274
  N  N140  1  0.138240  0.337810  0.298400  1.0  0.1902
  N  N141  1  0.183910  0.353700  0.162900  1.0  -0.3789
  N  N142  1  0.954280  0.456470  0.751800  1.0  -0.4274
  N  N143  1  0.861760  0.162190  0.298400  1.0  0.191
  N  N144  1  0.816090  0.146300  0.162900  1.0  -0.3756
  N  N145  1  0.045720  0.043530  0.751800  1.0  -0.4282
  N  N146  1  0.361760  0.662190  0.798400  1.0  0.191
  N  N147  1  0.316090  0.646300  0.662900  1.0  -0.3756
  N  N148  1  0.545720  0.543530  0.251800  1.0  -0.4282
  N  N149  1  0.912190  0.888240  0.048400  1.0  0.1919
  N  N150  1  0.896300  0.933910  0.912900  1.0  -0.3762
  N  N151  1  0.793530  0.704280  0.501800  1.0  -0.4256
  N  N152  1  0.412190  0.388240  0.548400  1.0  0.1919
  N  N153  1  0.396300  0.433910  0.412900  1.0  -0.3762
  N  N154  1  0.293530  0.204280  0.001800  1.0  -0.4256
  N  N155  1  0.587810  0.111760  0.548400  1.0  0.192
  N  N156  1  0.603700  0.066090  0.412900  1.0  -0.3774
  N  N157  1  0.706470  0.295720  0.001800  1.0  -0.4268
  N  N158  1  0.087810  0.611760  0.048400  1.0  0.192
  N  N159  1  0.103700  0.566090  0.912900  1.0  -0.3774
  N  N160  1  0.206470  0.795720  0.501800  1.0  -0.4268
  N  N161  1  0.361760  0.162190  0.201600  1.0  0.191
  N  N162  1  0.316090  0.146300  0.337100  1.0  -0.3759
  N  N163  1  0.545720  0.043530  0.748200  1.0  -0.4276
  N  N164  1  0.861760  0.662190  0.701600  1.0  0.191
  N  N165  1  0.816090  0.646300  0.837100  1.0  -0.3759
  N  N166  1  0.045720  0.543530  0.248200  1.0  -0.4276
  N  N167  1  0.138240  0.837810  0.701600  1.0  0.1901
  N  N168  1  0.183910  0.853700  0.837100  1.0  -0.3772
  N  N169  1  0.954280  0.956470  0.248200  1.0  -0.4281
  N  N170  1  0.638240  0.337810  0.201600  1.0  0.1901
  N  N171  1  0.683910  0.353700  0.337100  1.0  -0.3772
  N  N172  1  0.454280  0.456470  0.748200  1.0  -0.4281
  N  N173  1  0.087810  0.111760  0.951600  1.0  0.192
  N  N174  1  0.103700  0.066090  0.087100  1.0  -0.3754
  N  N175  1  0.206470  0.295720  0.498200  1.0  -0.4267
  N  N176  1  0.587810  0.611760  0.451600  1.0  0.192
  N  N177  1  0.603700  0.566090  0.587100  1.0  -0.3754
  N  N178  1  0.706470  0.795720  0.998200  1.0  -0.4267
  N  N179  1  0.412190  0.888240  0.451600  1.0  0.1917
  N  N180  1  0.396300  0.933910  0.587100  1.0  -0.3772
  N  N181  1  0.293530  0.704280  0.998200  1.0  -0.4257
  N  N182  1  0.912190  0.388240  0.951600  1.0  0.1917
  N  N183  1  0.896300  0.433910  0.087100  1.0  -0.3772
  N  N184  1  0.793530  0.204280  0.498200  1.0  -0.4257
  O  O185  1  0.522460  0.932030  0.818700  1.0  -0.5921
  O  O186  1  0.595410  0.925470  0.087800  1.0  -0.5957
  O  O187  1  0.022460  0.432030  0.318700  1.0  -0.5921
  O  O188  1  0.095410  0.425470  0.587800  1.0  -0.5957
  O  O189  1  0.977540  0.067970  0.318700  1.0  -0.5923
  O  O190  1  0.904590  0.074530  0.587800  1.0  -0.5946
  O  O191  1  0.477540  0.567970  0.818700  1.0  -0.5923
  O  O192  1  0.404590  0.574530  0.087800  1.0  -0.5946
  O  O193  1  0.817970  0.772460  0.068700  1.0  -0.593
  O  O194  1  0.824530  0.845410  0.337800  1.0  -0.5946
  O  O195  1  0.317970  0.272460  0.568700  1.0  -0.593
  O  O196  1  0.324530  0.345410  0.837800  1.0  -0.5946
  O  O197  1  0.682030  0.227540  0.568700  1.0  -0.5913
  O  O198  1  0.675470  0.154590  0.837800  1.0  -0.5934
  O  O199  1  0.182030  0.727540  0.068700  1.0  -0.5913
  O  O200  1  0.175470  0.654590  0.337800  1.0  -0.5934
  O  O201  1  0.477540  0.067970  0.181300  1.0  -0.5923
  O  O202  1  0.404590  0.074530  0.912200  1.0  -0.5972
  O  O203  1  0.977540  0.567970  0.681300  1.0  -0.5923
  O  O204  1  0.904590  0.574530  0.412200  1.0  -0.5972
  O  O205  1  0.022460  0.932030  0.681300  1.0  -0.592
  O  O206  1  0.095410  0.925470  0.412200  1.0  -0.5957
  O  O207  1  0.522460  0.432030  0.181300  1.0  -0.592
  O  O208  1  0.595410  0.425470  0.912200  1.0  -0.5957
  O  O209  1  0.182030  0.227540  0.931300  1.0  -0.5911
  O  O210  1  0.175470  0.154590  0.662200  1.0  -0.5945
  O  O211  1  0.682030  0.727540  0.431300  1.0  -0.5911
  O  O212  1  0.675470  0.654590  0.162200  1.0  -0.5945
  O  O213  1  0.317970  0.772460  0.431300  1.0  -0.5928
  O  O214  1  0.324530  0.845410  0.162200  1.0  -0.5955
  O  O215  1  0.817970  0.272460  0.931300  1.0  -0.5928
  O  O216  1  0.824530  0.345410  0.662200  1.0  -0.5955
