# generated using pymatgen
data_CdH10C12N3O4
_symmetry_space_group_name_H-M   'P 1'
_cell_length_a   9.64270000
_cell_length_b   9.93920000
_cell_length_c   9.98320000
_cell_angle_alpha   86.30300000
_cell_angle_beta   81.11800000
_cell_angle_gamma   65.26200000
_symmetry_Int_Tables_number   1
_chemical_formula_structural   CdH10C12N3O4
_chemical_formula_sum   'Cd2 H20 C24 N6 O8'
_cell_volume   858.57204123
_cell_formula_units_Z   2
loop_
 _symmetry_equiv_pos_site_id
 _symmetry_equiv_pos_as_xyz
  1  'x, y, z'
loop_
 _atom_site_type_symbol
 _atom_site_label
 _atom_site_symmetry_multiplicity
 _atom_site_fract_x
 _atom_site_fract_y
 _atom_site_fract_z
 _atom_site_occupancy
 _atom_site_charge
  Cd  Cd1  1  0.950390  0.724920  0.541500  1.0  1.0541
  Cd  Cd2  1  0.049610  0.275080  0.458500  1.0  1.0537
  H  H3  1  0.171000  0.994300  0.805200  1.0  0.1098
  H  H4  1  0.822200  0.897600  0.997600  1.0  0.1083
  H  H5  1  0.492100  0.656700  0.669700  1.0  0.1125
  H  H6  1  0.707300  0.419300  0.325700  1.0  0.0921
  H  H7  1  0.449300  0.449000  0.894600  1.0  0.087
  H  H8  1  0.416800  0.413600  0.051900  1.0  0.0866
  H  H9  1  0.199300  0.611300  0.968700  1.0  0.0992
  H  H10  1  0.297500  0.708900  0.945800  1.0  0.0952
  H  H11  1  0.233200  0.832400  0.393600  1.0  0.0878
  H  H12  1  0.071300  0.598400  0.216700  1.0  0.1142
  H  H13  1  0.829000  0.005700  0.194800  1.0  0.1099
  H  H14  1  0.177800  0.102400  0.002400  1.0  0.1078
  H  H15  1  0.507900  0.343300  0.330300  1.0  0.1122
  H  H16  1  0.292700  0.580700  0.674300  1.0  0.0925
  H  H17  1  0.550700  0.551000  0.105400  1.0  0.0841
  H  H18  1  0.583200  0.586400  0.948100  1.0  0.0854
  H  H19  1  0.800700  0.388700  0.031300  1.0  0.0974
  H  H20  1  0.702500  0.291100  0.054200  1.0  0.0955
  H  H21  1  0.766800  0.167600  0.606400  1.0  0.0873
  H  H22  1  0.928700  0.401600  0.783300  1.0  0.1151
  C  C23  1  0.993300  0.862900  0.754300  1.0  0.6434
  C  C24  1  0.996500  0.935000  0.880800  1.0  -0.1298
  C  C25  1  0.101300  0.996500  0.884300  1.0  -0.0835
  C  C26  1  0.894600  0.939200  0.998400  1.0  -0.0656
  C  C27  1  0.751300  0.587400  0.496000  1.0  0.702
  C  C28  1  0.619800  0.544300  0.496500  1.0  -0.1255
  C  C29  1  0.495500  0.593100  0.601000  1.0  -0.057
  C  C30  1  0.622800  0.452100  0.396800  1.0  -0.0477
  C  C31  1  0.430100  0.488600  0.987300  1.0  -0.1277
  C  C32  1  0.281200  0.629800  0.002200  1.0  -0.0437
  C  C33  1  0.216700  0.779200  0.326500  1.0  0.2809
  C  C34  1  0.127100  0.653400  0.233800  1.0  0.1459
  C  C35  1  0.006700  0.137100  0.245700  1.0  0.645
  C  C36  1  0.003500  0.065000  0.119200  1.0  -0.1285
  C  C37  1  0.898700  0.003500  0.115700  1.0  -0.0828
  C  C38  1  0.105400  0.060800  0.001600  1.0  -0.0638
  C  C39  1  0.248700  0.412600  0.504000  1.0  0.703
  C  C40  1  0.380200  0.455700  0.503500  1.0  -0.1281
  C  C41  1  0.504500  0.406900  0.399000  1.0  -0.0573
  C  C42  1  0.377200  0.547900  0.603200  1.0  -0.0472
  C  C43  1  0.569900  0.511400  0.012700  1.0  -0.127
  C  C44  1  0.718800  0.370200  0.997800  1.0  -0.0413
  C  C45  1  0.783300  0.220800  0.673500  1.0  0.2799
  C  C46  1  0.872900  0.346600  0.766200  1.0  0.1458
  N  N47  1  0.230900  0.679200  0.143000  1.0  0.1613
  N  N48  1  0.289700  0.760400  0.203400  1.0  -0.3745
  N  N49  1  0.114200  0.715800  0.350600  1.0  -0.4553
  N  N50  1  0.769100  0.320800  0.857000  1.0  0.162
  N  N51  1  0.710300  0.239600  0.796600  1.0  -0.3735
  N  N52  1  0.885800  0.284200  0.649400  1.0  -0.4549
  O  O53  1  0.067000  0.877200  0.644000  1.0  -0.6176
  O  O54  1  0.915500  0.786000  0.762900  1.0  -0.5993
  O  O55  1  0.735200  0.685200  0.578900  1.0  -0.5898
  O  O56  1  0.873100  0.525600  0.412800  1.0  -0.6661
  O  O57  1  0.933000  0.122800  0.356000  1.0  -0.6177
  O  O58  1  0.084500  0.214000  0.237100  1.0  -0.6001
  O  O59  1  0.264800  0.314800  0.421100  1.0  -0.5851
  O  O60  1  0.126900  0.474400  0.587200  1.0  -0.6668
