# generated using pymatgen
data_ZnH20C26NO4
_symmetry_space_group_name_H-M   'P 1'
_cell_length_a   13.17230000
_cell_length_b   13.17230000
_cell_length_c   15.86700000
_cell_angle_alpha   92.68370000
_cell_angle_beta   92.68370000
_cell_angle_gamma   109.09300000
_symmetry_Int_Tables_number   1
_chemical_formula_structural   ZnH20C26NO4
_chemical_formula_sum   'Zn4 H80 C104 N4 O16'
_cell_volume   2593.13525397
_cell_formula_units_Z   4
loop_
 _symmetry_equiv_pos_site_id
 _symmetry_equiv_pos_as_xyz
  1  'x, y, z'
loop_
 _atom_site_type_symbol
 _atom_site_label
 _atom_site_symmetry_multiplicity
 _atom_site_fract_x
 _atom_site_fract_y
 _atom_site_fract_z
 _atom_site_occupancy
 _atom_site_charge
  Zn  Zn1  1  0.562800  0.572420  0.439220  1.0  0.9144
  Zn  Zn2  1  0.437200  0.427580  0.560780  1.0  0.9149
  Zn  Zn3  1  0.427580  0.437200  0.060780  1.0  0.9146
  Zn  Zn4  1  0.572420  0.562800  0.939220  1.0  0.9147
  H  H5  1  0.794500  0.818500  0.089100  1.0  0.1032
  H  H6  1  0.985800  0.742600  0.462400  1.0  0.1161
  H  H7  1  0.194700  0.910500  0.431400  1.0  0.098
  H  H8  1  0.617300  0.014700  0.665900  1.0  0.1108
  H  H9  1  0.771600  0.742600  0.442800  1.0  0.0814
  H  H10  1  0.014200  0.257400  0.537600  1.0  0.1151
  H  H11  1  0.445700  0.966300  0.900700  1.0  0.1095
  H  H12  1  0.500100  0.829700  0.856200  1.0  0.1055
  H  H13  1  0.181500  0.205500  0.410900  1.0  0.1038
  H  H14  1  0.908600  0.949200  0.220700  1.0  0.08
  H  H15  1  0.005800  0.811400  0.135400  1.0  0.1073
  H  H16  1  0.242600  0.004800  0.937600  1.0  0.105
  H  H17  1  0.332300  0.700900  0.168000  1.0  0.1052
  H  H18  1  0.188600  0.994200  0.364600  1.0  0.1076
  H  H19  1  0.796400  0.100000  0.011300  1.0  0.0992
  H  H20  1  0.854200  0.320000  0.735100  1.0  0.1128
  H  H21  1  0.346200  0.252400  0.831900  1.0  0.1091
  H  H22  1  0.382700  0.985300  0.334100  1.0  0.1106
  H  H23  1  0.966300  0.445700  0.400700  1.0  0.1088
  H  H24  1  0.033700  0.554300  0.599300  1.0  0.11
  H  H25  1  0.299100  0.667700  0.332000  1.0  0.1043
  H  H26  1  0.949200  0.908600  0.720700  1.0  0.0798
  H  H27  1  0.818500  0.794500  0.589100  1.0  0.103
  H  H28  1  0.135800  0.396200  0.918200  1.0  0.1146
  H  H29  1  0.203600  0.900000  0.988700  1.0  0.0995
  H  H30  1  0.700900  0.332300  0.668000  1.0  0.1041
  H  H31  1  0.900000  0.203600  0.488700  1.0  0.1019
  H  H32  1  0.120500  0.438700  0.471200  1.0  0.0979
  H  H33  1  0.667700  0.299100  0.832000  1.0  0.1048
  H  H34  1  0.499900  0.170300  0.143800  1.0  0.1045
  H  H35  1  0.742600  0.771600  0.942800  1.0  0.0818
  H  H36  1  0.482100  0.678100  0.771100  1.0  0.1072
  H  H37  1  0.829700  0.500100  0.356200  1.0  0.1031
  H  H38  1  0.438700  0.120500  0.971200  1.0  0.0979
  H  H39  1  0.757400  0.995200  0.062400  1.0  0.1045
  H  H40  1  0.361300  0.450700  0.239500  1.0  0.0777
  H  H41  1  0.228400  0.257400  0.557200  1.0  0.0817
  H  H42  1  0.320000  0.854200  0.235100  1.0  0.1126
  H  H43  1  0.805300  0.089500  0.568600  1.0  0.0967
  H  H44  1  0.139300  0.117700  0.143700  1.0  0.1126
  H  H45  1  0.875400  0.105400  0.855600  1.0  0.1181
  H  H46  1  0.517900  0.321900  0.228900  1.0  0.1068
  H  H47  1  0.742600  0.985800  0.962400  1.0  0.1155
  H  H48  1  0.747600  0.653800  0.668100  1.0  0.1089
  H  H49  1  0.549300  0.638700  0.260500  1.0  0.0762
  H  H50  1  0.882300  0.860700  0.356300  1.0  0.1112
  H  H51  1  0.680000  0.145800  0.764900  1.0  0.1121
  H  H52  1  0.100000  0.796400  0.511300  1.0  0.0987
  H  H53  1  0.050800  0.091400  0.279300  1.0  0.08
  H  H54  1  0.321900  0.517900  0.728900  1.0  0.1046
  H  H55  1  0.170300  0.499900  0.643800  1.0  0.1042
  H  H56  1  0.089500  0.805300  0.068600  1.0  0.1006
  H  H57  1  0.994200  0.188600  0.864600  1.0  0.1066
  H  H58  1  0.638700  0.549300  0.760500  1.0  0.0771
  H  H59  1  0.879500  0.561300  0.528800  1.0  0.0982
  H  H60  1  0.653800  0.747600  0.168100  1.0  0.1083
  H  H61  1  0.678100  0.482100  0.271100  1.0  0.105
  H  H62  1  0.091400  0.050800  0.779300  1.0  0.0801
  H  H63  1  0.995200  0.757400  0.562400  1.0  0.1075
  H  H64  1  0.145800  0.680000  0.264900  1.0  0.1118
  H  H65  1  0.554300  0.033700  0.099300  1.0  0.1099
  H  H66  1  0.257400  0.228400  0.057200  1.0  0.0812
  H  H67  1  0.450700  0.361300  0.739500  1.0  0.0757
  H  H68  1  0.205500  0.181500  0.910900  1.0  0.1038
  H  H69  1  0.124600  0.894600  0.144400  1.0  0.1173
  H  H70  1  0.014700  0.617300  0.165900  1.0  0.1086
  H  H71  1  0.985300  0.382700  0.834100  1.0  0.1095
  H  H72  1  0.396200  0.135800  0.418200  1.0  0.1151
  H  H73  1  0.117700  0.139300  0.643700  1.0  0.111
  H  H74  1  0.910500  0.194700  0.931400  1.0  0.0999
  H  H75  1  0.603800  0.864200  0.581800  1.0  0.1153
  H  H76  1  0.894600  0.124600  0.644400  1.0  0.118
  H  H77  1  0.004800  0.242600  0.437600  1.0  0.108
  H  H78  1  0.864200  0.603800  0.081800  1.0  0.1149
  H  H79  1  0.860700  0.882300  0.856300  1.0  0.1121
  H  H80  1  0.105400  0.875400  0.355600  1.0  0.1181
  H  H81  1  0.561300  0.879500  0.028800  1.0  0.0981
  H  H82  1  0.811400  0.005800  0.635400  1.0  0.1075
  H  H83  1  0.252400  0.346200  0.331900  1.0  0.1086
  H  H84  1  0.257400  0.014200  0.037600  1.0  0.1162
  C  C85  1  0.248400  0.320800  0.275100  1.0  -0.1986
  C  C86  1  0.126100  0.484900  0.427100  1.0  -0.0755
  C  C87  1  0.411100  0.053500  0.312500  1.0  -0.1205
  C  C88  1  0.459600  0.245000  0.333000  1.0  -0.1511
  C  C89  1  0.070300  0.058500  0.943400  1.0  0.0128
  C  C90  1  0.774400  0.453800  0.594700  1.0  -0.1488
  C  C91  1  0.510100  0.966300  0.114800  1.0  -0.122
  C  C92  1  0.253900  0.253500  0.612800  1.0  0.1907
  C  C93  1  0.163000  0.481000  0.700100  1.0  -0.1245
  C  C94  1  0.140000  0.627800  0.304500  1.0  -0.1451
  C  C95  1  0.058500  0.070300  0.443400  1.0  0.0129
  C  C96  1  0.588900  0.946500  0.687500  1.0  -0.1206
  C  C97  1  0.969800  0.070800  0.949100  1.0  0.0567
  C  C98  1  0.231500  0.621100  0.345000  1.0  -0.0704
  C  C99  1  0.183200  0.187000  0.164600  1.0  -0.1999
  C  C100  1  0.856800  0.581200  0.137200  1.0  -0.087
  C  C101  1  0.060200  0.444200  0.730100  1.0  0.0786
  C  C102  1  0.177500  0.222700  0.248300  1.0  0.0859
  C  C103  1  0.341900  0.470500  0.890400  1.0  0.6756
  C  C104  1  0.546200  0.225600  0.905300  1.0  -0.1504
  C  C105  1  0.515100  0.873900  0.072900  1.0  -0.0774
  C  C106  1  0.147000  0.110200  0.805100  1.0  -0.0477
  C  C107  1  0.065700  0.853300  0.104700  1.0  -0.3762
  C  C108  1  0.320800  0.248400  0.775100  1.0  -0.2014
  C  C109  1  0.481000  0.163000  0.200100  1.0  -0.1203
  C  C110  1  0.453800  0.774400  0.094700  1.0  -0.1502
  C  C111  1  0.617400  0.685800  0.280800  1.0  0.1842
  C  C112  1  0.988700  0.101100  0.493600  1.0  0.0628
  C  C113  1  0.469000  0.674200  0.056600  1.0  0.6839
  C  C114  1  0.024200  0.789000  0.511100  1.0  -0.3727
  C  C115  1  0.746100  0.746500  0.387200  1.0  0.1906
  C  C116  1  0.011300  0.898900  0.506400  1.0  0.0651
  C  C117  1  0.529500  0.658100  0.609600  1.0  0.6769
  C  C118  1  0.929200  0.030200  0.550900  1.0  0.0564
  C  C119  1  0.245000  0.459600  0.833000  1.0  -0.1526
  C  C120  1  0.053500  0.411100  0.812500  1.0  -0.1213
  C  C121  1  0.558700  0.038100  0.820600  1.0  0.0859
  C  C122  1  0.946500  0.588900  0.187500  1.0  -0.1211
  C  C123  1  0.253500  0.253900  0.112800  1.0  0.1881
  C  C124  1  0.929700  0.941500  0.056600  1.0  0.0126
  C  C125  1  0.519000  0.837000  0.799900  1.0  -0.1206
  C  C126  1  0.418800  0.143200  0.362800  1.0  -0.0825
  C  C127  1  0.789000  0.024200  0.011100  1.0  -0.3702
  C  C128  1  0.038100  0.558700  0.320600  1.0  0.0862
  C  C129  1  0.851700  0.876500  0.114800  1.0  -0.0984
  C  C130  1  0.148300  0.123500  0.885200  1.0  -0.0971
  C  C131  1  0.679200  0.751600  0.224900  1.0  -0.1981
  C  C132  1  0.941500  0.929700  0.556600  1.0  0.0129
  C  C133  1  0.939800  0.555800  0.269900  1.0  0.0789
  C  C134  1  0.674200  0.469000  0.556600  1.0  0.6796
  C  C135  1  0.382600  0.314200  0.719200  1.0  0.1828
  C  C136  1  0.509600  0.746400  0.749500  1.0  -0.0716
  C  C137  1  0.777300  0.822500  0.251700  1.0  0.0858
  C  C138  1  0.768500  0.378900  0.655000  1.0  -0.0651
  C  C139  1  0.030200  0.929200  0.050900  1.0  0.0566
  C  C140  1  0.531000  0.325800  0.943400  1.0  0.6837
  C  C141  1  0.816800  0.813000  0.835400  1.0  -0.1995
  C  C142  1  0.123500  0.148300  0.385200  1.0  -0.1003
  C  C143  1  0.070800  0.969800  0.449100  1.0  0.0541
  C  C144  1  0.746400  0.509600  0.249500  1.0  -0.0716
  C  C145  1  0.837000  0.519000  0.299900  1.0  -0.1234
  C  C146  1  0.621100  0.231500  0.845000  1.0  -0.0646
  C  C147  1  0.222700  0.177500  0.748300  1.0  0.0857
  C  C148  1  0.555800  0.939800  0.769900  1.0  0.08
  C  C149  1  0.225600  0.546200  0.405300  1.0  -0.1493
  C  C150  1  0.101100  0.988700  0.993600  1.0  0.0677
  C  C151  1  0.372200  0.860000  0.195500  1.0  -0.1457
  C  C152  1  0.378900  0.768500  0.155000  1.0  -0.0638
  C  C153  1  0.822500  0.777300  0.751700  1.0  0.0862
  C  C154  1  0.314200  0.382600  0.219200  1.0  0.1829
  C  C155  1  0.755000  0.540400  0.167000  1.0  -0.1532
  C  C156  1  0.658100  0.529500  0.109600  1.0  0.6739
  C  C157  1  0.813000  0.816800  0.335400  1.0  -0.1988
  C  C158  1  0.853000  0.889800  0.194900  1.0  -0.0518
  C  C159  1  0.325800  0.531000  0.443400  1.0  0.6809
  C  C160  1  0.146700  0.934300  0.395300  1.0  -0.3773
  C  C161  1  0.470500  0.341900  0.390400  1.0  0.6772
  C  C162  1  0.253600  0.490400  0.750500  1.0  -0.0706
  C  C163  1  0.966300  0.510100  0.614800  1.0  -0.1237
  C  C164  1  0.751600  0.679200  0.724900  1.0  -0.1979
  C  C165  1  0.876500  0.851700  0.614800  1.0  -0.0986
  C  C166  1  0.489900  0.033700  0.885200  1.0  -0.1203
  C  C167  1  0.490400  0.253600  0.250500  1.0  -0.0731
  C  C168  1  0.581200  0.856800  0.637200  1.0  -0.0839
  C  C169  1  0.860000  0.372200  0.695500  1.0  -0.1465
  C  C170  1  0.143200  0.418800  0.862800  1.0  -0.0874
  C  C171  1  0.484900  0.126100  0.927100  1.0  -0.0749
  C  C172  1  0.441300  0.961900  0.179400  1.0  0.0848
  C  C173  1  0.975800  0.211000  0.488900  1.0  -0.3707
  C  C174  1  0.187000  0.183200  0.664600  1.0  -0.1989
  C  C175  1  0.934300  0.146700  0.895300  1.0  -0.3769
  C  C176  1  0.898900  0.011300  0.006400  1.0  0.063
  C  C177  1  0.033700  0.489900  0.385200  1.0  -0.1236
  C  C178  1  0.211000  0.975800  0.988900  1.0  -0.3707
  C  C179  1  0.873900  0.515100  0.572900  1.0  -0.0758
  C  C180  1  0.961900  0.441300  0.679400  1.0  0.0852
  C  C181  1  0.889800  0.853000  0.694900  1.0  -0.0483
  C  C182  1  0.627800  0.140000  0.804500  1.0  -0.1461
  C  C183  1  0.746500  0.746100  0.887200  1.0  0.1876
  C  C184  1  0.853300  0.065700  0.604700  1.0  -0.3744
  C  C185  1  0.444200  0.060200  0.230100  1.0  0.0795
  C  C186  1  0.685800  0.617400  0.780800  1.0  0.1832
  C  C187  1  0.540400  0.755000  0.667000  1.0  -0.1503
  C  C188  1  0.110200  0.147000  0.305100  1.0  -0.0482
  N  N189  1  0.684000  0.646800  0.860800  1.0  -0.3264
  N  N190  1  0.353200  0.316000  0.639200  1.0  -0.3271
  N  N191  1  0.646800  0.684000  0.360800  1.0  -0.328
  N  N192  1  0.316000  0.353200  0.139200  1.0  -0.3276
  O  O193  1  0.420250  0.587150  0.088400  1.0  -0.6095
  O  O194  1  0.579750  0.412850  0.911600  1.0  -0.6092
  O  O195  1  0.433100  0.522300  0.866200  1.0  -0.5817
  O  O196  1  0.674470  0.573530  0.041280  1.0  -0.5903
  O  O197  1  0.573530  0.674470  0.541280  1.0  -0.5909
  O  O198  1  0.477700  0.566900  0.633800  1.0  -0.5818
  O  O199  1  0.412850  0.579750  0.411600  1.0  -0.6085
  O  O200  1  0.315740  0.469260  0.502800  1.0  -0.5817
  O  O201  1  0.587150  0.420250  0.588400  1.0  -0.6095
  O  O202  1  0.426470  0.325530  0.458720  1.0  -0.5916
  O  O203  1  0.469260  0.315740  0.002800  1.0  -0.5834
  O  O204  1  0.522300  0.433100  0.366200  1.0  -0.5826
  O  O205  1  0.325530  0.426470  0.958720  1.0  -0.5897
  O  O206  1  0.566900  0.477700  0.133800  1.0  -0.5815
  O  O207  1  0.684260  0.530740  0.497200  1.0  -0.5817
  O  O208  1  0.530740  0.684260  0.997200  1.0  -0.5839
