# generated using pymatgen
data_In3Cu6H24C36I6N6O13
_symmetry_space_group_name_H-M   'P 1'
_cell_length_a   21.91730000
_cell_length_b   21.91730000
_cell_length_c   28.26850000
_cell_angle_alpha   90.00000000
_cell_angle_beta   90.00000000
_cell_angle_gamma   120.00000000
_symmetry_Int_Tables_number   1
_chemical_formula_structural   In3Cu6H24C36I6N6O13
_chemical_formula_sum   'In12 Cu24 H96 C144 I24 N24 O52'
_cell_volume   11760.00483877
_cell_formula_units_Z   4
loop_
 _symmetry_equiv_pos_site_id
 _symmetry_equiv_pos_as_xyz
  1  'x, y, z'
loop_
 _atom_site_type_symbol
 _atom_site_label
 _atom_site_symmetry_multiplicity
 _atom_site_fract_x
 _atom_site_fract_y
 _atom_site_fract_z
 _atom_site_occupancy
 _atom_site_charge
  In  In1  1  0.230730  0.643580  0.500000  1.0  1.5272
  In  In2  1  0.356420  0.587150  0.500000  1.0  1.5273
  In  In3  1  0.412850  0.769270  0.500000  1.0  1.5269
  In  In4  1  0.769270  0.356420  0.500000  1.0  1.5266
  In  In5  1  0.643580  0.412850  0.500000  1.0  1.5273
  In  In6  1  0.587150  0.230730  0.500000  1.0  1.5268
  In  In7  1  0.643580  0.230730  0.000000  1.0  1.5265
  In  In8  1  0.587150  0.356420  0.000000  1.0  1.5274
  In  In9  1  0.769270  0.412850  0.000000  1.0  1.5274
  In  In10  1  0.356420  0.769270  0.000000  1.0  1.5273
  In  In11  1  0.412850  0.643580  0.000000  1.0  1.5264
  In  In12  1  0.230730  0.587150  0.000000  1.0  1.5276
  Cu  Cu13  1  0.050670  0.482500  0.282330  1.0  0.125
  Cu  Cu14  1  0.517500  0.568170  0.282330  1.0  0.1232
  Cu  Cu15  1  0.431830  0.949330  0.282330  1.0  0.1236
  Cu  Cu16  1  0.949330  0.517500  0.282330  1.0  0.1249
  Cu  Cu17  1  0.482500  0.431830  0.282330  1.0  0.1247
  Cu  Cu18  1  0.568170  0.050670  0.282330  1.0  0.1234
  Cu  Cu19  1  0.482500  0.050670  0.217670  1.0  0.1236
  Cu  Cu20  1  0.568170  0.517500  0.217670  1.0  0.1251
  Cu  Cu21  1  0.949330  0.431830  0.217670  1.0  0.1247
  Cu  Cu22  1  0.517500  0.949330  0.217670  1.0  0.1239
  Cu  Cu23  1  0.431830  0.482500  0.217670  1.0  0.1251
  Cu  Cu24  1  0.050670  0.568170  0.217670  1.0  0.1236
  Cu  Cu25  1  0.949330  0.517500  0.717670  1.0  0.1251
  Cu  Cu26  1  0.482500  0.431830  0.717670  1.0  0.1249
  Cu  Cu27  1  0.568170  0.050670  0.717670  1.0  0.1236
  Cu  Cu28  1  0.050670  0.482500  0.717670  1.0  0.1251
  Cu  Cu29  1  0.517500  0.568170  0.717670  1.0  0.1234
  Cu  Cu30  1  0.431830  0.949330  0.717670  1.0  0.1239
  Cu  Cu31  1  0.517500  0.949330  0.782330  1.0  0.1236
  Cu  Cu32  1  0.431830  0.482500  0.782330  1.0  0.1249
  Cu  Cu33  1  0.050670  0.568170  0.782330  1.0  0.1234
  Cu  Cu34  1  0.482500  0.050670  0.782330  1.0  0.1234
  Cu  Cu35  1  0.568170  0.517500  0.782330  1.0  0.125
  Cu  Cu36  1  0.949330  0.431830  0.782330  1.0  0.1245
  H  H37  1  0.137600  0.536200  0.370500  1.0  0.1254
  H  H38  1  0.101500  0.375300  0.286600  1.0  0.0883
  H  H39  1  0.261400  0.444800  0.382000  1.0  0.1197
  H  H40  1  0.197100  0.372400  0.313100  1.0  0.1103
  H  H41  1  0.463800  0.601400  0.370500  1.0  0.1261
  H  H42  1  0.624700  0.726200  0.286600  1.0  0.0881
  H  H43  1  0.555200  0.816600  0.382000  1.0  0.1215
  H  H44  1  0.627600  0.824700  0.313100  1.0  0.1114
  H  H45  1  0.398600  0.862400  0.370500  1.0  0.1241
  H  H46  1  0.273800  0.898500  0.286600  1.0  0.0869
  H  H47  1  0.183400  0.738600  0.382000  1.0  0.12
  H  H48  1  0.175300  0.802900  0.313100  1.0  0.1102
  H  H49  1  0.862400  0.463800  0.370500  1.0  0.1237
  H  H50  1  0.898500  0.624700  0.286600  1.0  0.0863
  H  H51  1  0.738600  0.555200  0.382000  1.0  0.1198
  H  H52  1  0.802900  0.627600  0.313100  1.0  0.1109
  H  H53  1  0.536200  0.398600  0.370500  1.0  0.1242
  H  H54  1  0.375300  0.273800  0.286600  1.0  0.0868
  H  H55  1  0.444800  0.183400  0.382000  1.0  0.1213
  H  H56  1  0.372400  0.175300  0.313100  1.0  0.1106
  H  H57  1  0.601400  0.137600  0.370500  1.0  0.1251
  H  H58  1  0.726200  0.101500  0.286600  1.0  0.0882
  H  H59  1  0.816600  0.261400  0.382000  1.0  0.1201
  H  H60  1  0.824700  0.197100  0.313100  1.0  0.1104
  H  H61  1  0.536200  0.137600  0.129500  1.0  0.1235
  H  H62  1  0.375300  0.101500  0.213400  1.0  0.0869
  H  H63  1  0.444800  0.261400  0.118000  1.0  0.1202
  H  H64  1  0.372400  0.197100  0.186900  1.0  0.1102
  H  H65  1  0.601400  0.463800  0.129500  1.0  0.1253
  H  H66  1  0.726200  0.624700  0.213400  1.0  0.0878
  H  H67  1  0.816600  0.555200  0.118000  1.0  0.1197
  H  H68  1  0.824700  0.627600  0.186900  1.0  0.1108
  H  H69  1  0.862400  0.398600  0.129500  1.0  0.126
  H  H70  1  0.898500  0.273800  0.213400  1.0  0.0866
  H  H71  1  0.738600  0.183400  0.118000  1.0  0.1212
  H  H72  1  0.802900  0.175300  0.186900  1.0  0.1108
  H  H73  1  0.463800  0.862400  0.129500  1.0  0.1253
  H  H74  1  0.624700  0.898500  0.213400  1.0  0.0878
  H  H75  1  0.555200  0.738600  0.118000  1.0  0.1201
  H  H76  1  0.627600  0.802900  0.186900  1.0  0.1105
  H  H77  1  0.398600  0.536200  0.129500  1.0  0.1245
  H  H78  1  0.273800  0.375300  0.213400  1.0  0.0872
  H  H79  1  0.183400  0.444800  0.118000  1.0  0.1198
  H  H80  1  0.175300  0.372400  0.186900  1.0  0.1101
  H  H81  1  0.137600  0.601400  0.129500  1.0  0.1253
  H  H82  1  0.101500  0.726200  0.213400  1.0  0.0884
  H  H83  1  0.261400  0.816600  0.118000  1.0  0.1214
  H  H84  1  0.197100  0.824700  0.186900  1.0  0.111
  H  H85  1  0.862400  0.463800  0.629500  1.0  0.1246
  H  H86  1  0.898500  0.624700  0.713400  1.0  0.0861
  H  H87  1  0.738600  0.555200  0.618000  1.0  0.1199
  H  H88  1  0.802900  0.627600  0.686900  1.0  0.1108
  H  H89  1  0.536200  0.398600  0.629500  1.0  0.1243
  H  H90  1  0.375300  0.273800  0.713400  1.0  0.0871
  H  H91  1  0.444800  0.183400  0.618000  1.0  0.1212
  H  H92  1  0.372400  0.175300  0.686900  1.0  0.111
  H  H93  1  0.601400  0.137600  0.629500  1.0  0.1253
  H  H94  1  0.726200  0.101500  0.713400  1.0  0.0882
  H  H95  1  0.816600  0.261400  0.618000  1.0  0.1205
  H  H96  1  0.824700  0.197100  0.686900  1.0  0.1103
  H  H97  1  0.137600  0.536200  0.629500  1.0  0.1255
  H  H98  1  0.101500  0.375300  0.713400  1.0  0.0888
  H  H99  1  0.261400  0.444800  0.618000  1.0  0.1196
  H  H100  1  0.197100  0.372400  0.686900  1.0  0.1105
  H  H101  1  0.463800  0.601400  0.629500  1.0  0.1266
  H  H102  1  0.624700  0.726200  0.713400  1.0  0.0879
  H  H103  1  0.555200  0.816600  0.618000  1.0  0.1215
  H  H104  1  0.627600  0.824700  0.686900  1.0  0.1111
  H  H105  1  0.398600  0.862400  0.629500  1.0  0.1252
  H  H106  1  0.273800  0.898500  0.713400  1.0  0.0865
  H  H107  1  0.183400  0.738600  0.618000  1.0  0.1198
  H  H108  1  0.175300  0.802900  0.686900  1.0  0.1102
  H  H109  1  0.463800  0.862400  0.870500  1.0  0.125
  H  H110  1  0.624700  0.898500  0.786600  1.0  0.0884
  H  H111  1  0.555200  0.738600  0.882000  1.0  0.1201
  H  H112  1  0.627600  0.802900  0.813100  1.0  0.1105
  H  H113  1  0.398600  0.536200  0.870500  1.0  0.1237
  H  H114  1  0.273800  0.375300  0.786600  1.0  0.0868
  H  H115  1  0.183400  0.444800  0.882000  1.0  0.1199
  H  H116  1  0.175300  0.372400  0.813100  1.0  0.1098
  H  H117  1  0.137600  0.601400  0.870500  1.0  0.1249
  H  H118  1  0.101500  0.726200  0.786600  1.0  0.0884
  H  H119  1  0.261400  0.816600  0.882000  1.0  0.1214
  H  H120  1  0.197100  0.824700  0.813100  1.0  0.1111
  H  H121  1  0.536200  0.137600  0.870500  1.0  0.1233
  H  H122  1  0.375300  0.101500  0.786600  1.0  0.0864
  H  H123  1  0.444800  0.261400  0.882000  1.0  0.1202
  H  H124  1  0.372400  0.197100  0.813100  1.0  0.1102
  H  H125  1  0.601400  0.463800  0.870500  1.0  0.1252
  H  H126  1  0.726200  0.624700  0.786600  1.0  0.0881
  H  H127  1  0.816600  0.555200  0.882000  1.0  0.1196
  H  H128  1  0.824700  0.627600  0.813100  1.0  0.1109
  H  H129  1  0.862400  0.398600  0.870500  1.0  0.1258
  H  H130  1  0.898500  0.273800  0.786600  1.0  0.0867
  H  H131  1  0.738600  0.183400  0.882000  1.0  0.1213
  H  H132  1  0.802900  0.175300  0.813100  1.0  0.1107
  C  C133  1  0.230300  0.532000  0.428300  1.0  0.7399
  C  C134  1  0.149800  0.502800  0.359200  1.0  0.1229
  C  C135  1  0.132700  0.410700  0.307900  1.0  0.1315
  C  C136  1  0.198800  0.489400  0.385600  1.0  -0.1198
  C  C137  1  0.222900  0.446800  0.368200  1.0  -0.0752
  C  C138  1  0.184500  0.404400  0.326500  1.0  -0.0928
  C  C139  1  0.468000  0.698300  0.428300  1.0  0.7409
  C  C140  1  0.497200  0.647000  0.359200  1.0  0.1199
  C  C141  1  0.589300  0.722000  0.307900  1.0  0.1353
  C  C142  1  0.510600  0.709400  0.385600  1.0  -0.1198
  C  C143  1  0.553200  0.776100  0.368200  1.0  -0.0798
  C  C144  1  0.595600  0.780100  0.326500  1.0  -0.0948
  C  C145  1  0.301700  0.769700  0.428300  1.0  0.7399
  C  C146  1  0.353000  0.850200  0.359200  1.0  0.1185
  C  C147  1  0.278000  0.867300  0.307900  1.0  0.1317
  C  C148  1  0.290600  0.801200  0.385600  1.0  -0.1196
  C  C149  1  0.223900  0.777100  0.368200  1.0  -0.077
  C  C150  1  0.219900  0.815500  0.326500  1.0  -0.0985
  C  C151  1  0.769700  0.468000  0.428300  1.0  0.7397
  C  C152  1  0.850200  0.497200  0.359200  1.0  0.1258
  C  C153  1  0.867300  0.589300  0.307900  1.0  0.1331
  C  C154  1  0.801200  0.510600  0.385600  1.0  -0.1197
  C  C155  1  0.777100  0.553200  0.368200  1.0  -0.0761
  C  C156  1  0.815500  0.595600  0.326500  1.0  -0.0966
  C  C157  1  0.532000  0.301700  0.428300  1.0  0.7406
  C  C158  1  0.502800  0.353000  0.359200  1.0  0.1227
  C  C159  1  0.410700  0.278000  0.307900  1.0  0.131
  C  C160  1  0.489400  0.290600  0.385600  1.0  -0.12
  C  C161  1  0.446800  0.223900  0.368200  1.0  -0.079
  C  C162  1  0.404400  0.219900  0.326500  1.0  -0.093
  C  C163  1  0.698300  0.230300  0.428300  1.0  0.7407
  C  C164  1  0.647000  0.149800  0.359200  1.0  0.1268
  C  C165  1  0.722000  0.132700  0.307900  1.0  0.1353
  C  C166  1  0.709400  0.198800  0.385600  1.0  -0.1192
  C  C167  1  0.776100  0.222900  0.368200  1.0  -0.0779
  C  C168  1  0.780100  0.184500  0.326500  1.0  -0.0925
  C  C169  1  0.532000  0.230300  0.071700  1.0  0.7374
  C  C170  1  0.502800  0.149800  0.140800  1.0  0.1191
  C  C171  1  0.410700  0.132700  0.192100  1.0  0.1316
  C  C172  1  0.489400  0.198800  0.114400  1.0  -0.1183
  C  C173  1  0.446800  0.222900  0.131800  1.0  -0.0777
  C  C174  1  0.404400  0.184500  0.173500  1.0  -0.0979
  C  C175  1  0.698300  0.468000  0.071700  1.0  0.7368
  C  C176  1  0.647000  0.497200  0.140800  1.0  0.1255
  C  C177  1  0.722000  0.589300  0.192100  1.0  0.1333
  C  C178  1  0.709400  0.510600  0.114400  1.0  -0.1189
  C  C179  1  0.776100  0.553200  0.131800  1.0  -0.0772
  C  C180  1  0.780100  0.595600  0.173500  1.0  -0.0931
  C  C181  1  0.769700  0.301700  0.071700  1.0  0.7382
  C  C182  1  0.850200  0.353000  0.140800  1.0  0.1194
  C  C183  1  0.867300  0.278000  0.192100  1.0  0.132
  C  C184  1  0.801200  0.290600  0.114400  1.0  -0.1188
  C  C185  1  0.777100  0.223900  0.131800  1.0  -0.0797
  C  C186  1  0.815500  0.219900  0.173500  1.0  -0.0953
  C  C187  1  0.468000  0.769700  0.071700  1.0  0.7373
  C  C188  1  0.497200  0.850200  0.140800  1.0  0.1199
  C  C189  1  0.589300  0.867300  0.192100  1.0  0.1336
  C  C190  1  0.510600  0.801200  0.114400  1.0  -0.1185
  C  C191  1  0.553200  0.777100  0.131800  1.0  -0.0777
  C  C192  1  0.595600  0.815500  0.173500  1.0  -0.0956
  C  C193  1  0.301700  0.532000  0.071700  1.0  0.7372
  C  C194  1  0.353000  0.502800  0.140800  1.0  0.1214
  C  C195  1  0.278000  0.410700  0.192100  1.0  0.1338
  C  C196  1  0.290600  0.489400  0.114400  1.0  -0.1187
  C  C197  1  0.223900  0.446800  0.131800  1.0  -0.0779
  C  C198  1  0.219900  0.404400  0.173500  1.0  -0.0969
  C  C199  1  0.230300  0.698300  0.071700  1.0  0.7379
  C  C200  1  0.149800  0.647000  0.140800  1.0  0.1281
  C  C201  1  0.132700  0.722000  0.192100  1.0  0.1329
  C  C202  1  0.198800  0.709400  0.114400  1.0  -0.119
  C  C203  1  0.222900  0.776100  0.131800  1.0  -0.08
  C  C204  1  0.184500  0.780100  0.173500  1.0  -0.0925
  C  C205  1  0.769700  0.468000  0.571700  1.0  0.7369
  C  C206  1  0.850200  0.497200  0.640800  1.0  0.1226
  C  C207  1  0.867300  0.589300  0.692100  1.0  0.1325
  C  C208  1  0.801200  0.510600  0.614400  1.0  -0.1187
  C  C209  1  0.777100  0.553200  0.631800  1.0  -0.0759
  C  C210  1  0.815500  0.595600  0.673500  1.0  -0.0968
  C  C211  1  0.532000  0.301700  0.571700  1.0  0.7381
  C  C212  1  0.502800  0.353000  0.640800  1.0  0.1228
  C  C213  1  0.410700  0.278000  0.692100  1.0  0.1306
  C  C214  1  0.489400  0.290600  0.614400  1.0  -0.1189
  C  C215  1  0.446800  0.223900  0.631800  1.0  -0.0794
  C  C216  1  0.404400  0.219900  0.673500  1.0  -0.0929
  C  C217  1  0.698300  0.230300  0.571700  1.0  0.7375
  C  C218  1  0.647000  0.149800  0.640800  1.0  0.1241
  C  C219  1  0.722000  0.132700  0.692100  1.0  0.1344
  C  C220  1  0.709400  0.198800  0.614400  1.0  -0.1186
  C  C221  1  0.776100  0.222900  0.631800  1.0  -0.078
  C  C222  1  0.780100  0.184500  0.673500  1.0  -0.0937
  C  C223  1  0.230300  0.532000  0.571700  1.0  0.737
  C  C224  1  0.149800  0.502800  0.640800  1.0  0.1216
  C  C225  1  0.132700  0.410700  0.692100  1.0  0.1326
  C  C226  1  0.198800  0.489400  0.614400  1.0  -0.1189
  C  C227  1  0.222900  0.446800  0.631800  1.0  -0.0776
  C  C228  1  0.184500  0.404400  0.673500  1.0  -0.0938
  C  C229  1  0.468000  0.698300  0.571700  1.0  0.7381
  C  C230  1  0.497200  0.647000  0.640800  1.0  0.1199
  C  C231  1  0.589300  0.722000  0.692100  1.0  0.1351
  C  C232  1  0.510600  0.709400  0.614400  1.0  -0.1188
  C  C233  1  0.553200  0.776100  0.631800  1.0  -0.0798
  C  C234  1  0.595600  0.780100  0.673500  1.0  -0.0947
  C  C235  1  0.301700  0.769700  0.571700  1.0  0.7371
  C  C236  1  0.353000  0.850200  0.640800  1.0  0.1184
  C  C237  1  0.278000  0.867300  0.692100  1.0  0.1306
  C  C238  1  0.290600  0.801200  0.614400  1.0  -0.1182
  C  C239  1  0.223900  0.777100  0.631800  1.0  -0.0754
  C  C240  1  0.219900  0.815500  0.673500  1.0  -0.0975
  C  C241  1  0.468000  0.769700  0.928300  1.0  0.7403
  C  C242  1  0.497200  0.850200  0.859200  1.0  0.1212
  C  C243  1  0.589300  0.867300  0.807900  1.0  0.1341
  C  C244  1  0.510600  0.801200  0.885600  1.0  -0.1197
  C  C245  1  0.553200  0.777100  0.868200  1.0  -0.0773
  C  C246  1  0.595600  0.815500  0.826500  1.0  -0.0944
  C  C247  1  0.301700  0.532000  0.928300  1.0  0.7403
  C  C248  1  0.353000  0.502800  0.859200  1.0  0.1226
  C  C249  1  0.278000  0.410700  0.807900  1.0  0.134
  C  C250  1  0.290600  0.489400  0.885600  1.0  -0.1197
  C  C251  1  0.223900  0.446800  0.868200  1.0  -0.0775
  C  C252  1  0.219900  0.404400  0.826500  1.0  -0.0969
  C  C253  1  0.230300  0.698300  0.928300  1.0  0.7403
  C  C254  1  0.149800  0.647000  0.859200  1.0  0.1282
  C  C255  1  0.132700  0.722000  0.807900  1.0  0.1331
  C  C256  1  0.198800  0.709400  0.885600  1.0  -0.1198
  C  C257  1  0.222900  0.776100  0.868200  1.0  -0.0798
  C  C258  1  0.184500  0.780100  0.826500  1.0  -0.0927
  C  C259  1  0.532000  0.230300  0.928300  1.0  0.7404
  C  C260  1  0.502800  0.149800  0.859200  1.0  0.1201
  C  C261  1  0.410700  0.132700  0.807900  1.0  0.1316
  C  C262  1  0.489400  0.198800  0.885600  1.0  -0.1191
  C  C263  1  0.446800  0.222900  0.868200  1.0  -0.0776
  C  C264  1  0.404400  0.184500  0.826500  1.0  -0.0962
  C  C265  1  0.698300  0.468000  0.928300  1.0  0.7393
  C  C266  1  0.647000  0.497200  0.859200  1.0  0.1286
  C  C267  1  0.722000  0.589300  0.807900  1.0  0.1327
  C  C268  1  0.709400  0.510600  0.885600  1.0  -0.1196
  C  C269  1  0.776100  0.553200  0.868200  1.0  -0.0772
  C  C270  1  0.780100  0.595600  0.826500  1.0  -0.0915
  C  C271  1  0.769700  0.301700  0.928300  1.0  0.741
  C  C272  1  0.850200  0.353000  0.859200  1.0  0.1193
  C  C273  1  0.867300  0.278000  0.807900  1.0  0.132
  C  C274  1  0.801200  0.290600  0.885600  1.0  -0.1201
  C  C275  1  0.777100  0.223900  0.868200  1.0  -0.0797
  C  C276  1  0.815500  0.219900  0.826500  1.0  -0.0952
  I  I277  1  0.076570  0.464210  0.191690  1.0  -0.2584
  I  I278  1  0.535790  0.612360  0.191690  1.0  -0.2588
  I  I279  1  0.387640  0.923430  0.191690  1.0  -0.2598
  I  I280  1  0.923430  0.535790  0.191690  1.0  -0.2587
  I  I281  1  0.464210  0.387640  0.191690  1.0  -0.2594
  I  I282  1  0.612360  0.076570  0.191690  1.0  -0.2588
  I  I283  1  0.464210  0.076570  0.308310  1.0  -0.2581
  I  I284  1  0.612360  0.535790  0.308310  1.0  -0.2573
  I  I285  1  0.923430  0.387640  0.308310  1.0  -0.2577
  I  I286  1  0.535790  0.923430  0.308310  1.0  -0.2576
  I  I287  1  0.387640  0.464210  0.308310  1.0  -0.2571
  I  I288  1  0.076570  0.612360  0.308310  1.0  -0.2576
  I  I289  1  0.923430  0.535790  0.808310  1.0  -0.2574
  I  I290  1  0.464210  0.387640  0.808310  1.0  -0.2577
  I  I291  1  0.612360  0.076570  0.808310  1.0  -0.2576
  I  I292  1  0.076570  0.464210  0.808310  1.0  -0.257
  I  I293  1  0.535790  0.612360  0.808310  1.0  -0.2577
  I  I294  1  0.387640  0.923430  0.808310  1.0  -0.2581
  I  I295  1  0.535790  0.923430  0.691690  1.0  -0.2592
  I  I296  1  0.387640  0.464210  0.691690  1.0  -0.2587
  I  I297  1  0.076570  0.612360  0.691690  1.0  -0.2589
  I  I298  1  0.464210  0.076570  0.691690  1.0  -0.2594
  I  I299  1  0.612360  0.535790  0.691690  1.0  -0.2585
  I  I300  1  0.923430  0.387640  0.691690  1.0  -0.2594
  N  N301  1  0.121300  0.466900  0.317800  1.0  -0.3263
  N  N302  1  0.533100  0.654400  0.317800  1.0  -0.3299
  N  N303  1  0.345600  0.878700  0.317800  1.0  -0.3192
  N  N304  1  0.878700  0.533100  0.317800  1.0  -0.3265
  N  N305  1  0.466900  0.345600  0.317800  1.0  -0.3263
  N  N306  1  0.654400  0.121300  0.317800  1.0  -0.32
  N  N307  1  0.466900  0.121300  0.182200  1.0  -0.3249
  N  N308  1  0.654400  0.533100  0.182200  1.0  -0.33
  N  N309  1  0.878700  0.345600  0.182200  1.0  -0.3274
  N  N310  1  0.533100  0.878700  0.182200  1.0  -0.3287
  N  N311  1  0.345600  0.466900  0.182200  1.0  -0.3265
  N  N312  1  0.121300  0.654400  0.182200  1.0  -0.3268
  N  N313  1  0.878700  0.533100  0.682200  1.0  -0.3257
  N  N314  1  0.466900  0.345600  0.682200  1.0  -0.3266
  N  N315  1  0.654400  0.121300  0.682200  1.0  -0.3267
  N  N316  1  0.121300  0.466900  0.682200  1.0  -0.3271
  N  N317  1  0.533100  0.654400  0.682200  1.0  -0.3295
  N  N318  1  0.345600  0.878700  0.682200  1.0  -0.3257
  N  N319  1  0.533100  0.878700  0.817800  1.0  -0.3262
  N  N320  1  0.345600  0.466900  0.817800  1.0  -0.3212
  N  N321  1  0.121300  0.654400  0.817800  1.0  -0.3269
  N  N322  1  0.466900  0.121300  0.817800  1.0  -0.3163
  N  N323  1  0.654400  0.533100  0.817800  1.0  -0.3273
  N  N324  1  0.878700  0.345600  0.817800  1.0  -0.3274
  O  O325  1  0.203100  0.566500  0.443500  1.0  -0.6135
  O  O326  1  0.281000  0.527600  0.445400  1.0  -0.6476
  O  O327  1  0.433500  0.636600  0.443500  1.0  -0.6152
  O  O328  1  0.472400  0.753400  0.445400  1.0  -0.6483
  O  O329  1  0.363400  0.796900  0.443500  1.0  -0.6135
  O  O330  1  0.246600  0.719000  0.445400  1.0  -0.6511
  O  O331  1  0.796900  0.433500  0.443500  1.0  -0.6135
  O  O332  1  0.719000  0.472400  0.445400  1.0  -0.6467
  O  O333  1  0.566500  0.363400  0.443500  1.0  -0.6161
  O  O334  1  0.527600  0.246600  0.445400  1.0  -0.6493
  O  O335  1  0.636600  0.203100  0.443500  1.0  -0.6139
  O  O336  1  0.753400  0.281000  0.445400  1.0  -0.6525
  O  O337  1  0.566500  0.203100  0.056500  1.0  -0.6138
  O  O338  1  0.527600  0.281000  0.054600  1.0  -0.6526
  O  O339  1  0.636600  0.433500  0.056500  1.0  -0.6134
  O  O340  1  0.753400  0.472400  0.054600  1.0  -0.6479
  O  O341  1  0.796900  0.363400  0.056500  1.0  -0.6152
  O  O342  1  0.719000  0.246600  0.054600  1.0  -0.6497
  O  O343  1  0.433500  0.796900  0.056500  1.0  -0.6132
  O  O344  1  0.472400  0.719000  0.054600  1.0  -0.6518
  O  O345  1  0.363400  0.566500  0.056500  1.0  -0.6138
  O  O346  1  0.246600  0.527600  0.054600  1.0  -0.6471
  O  O347  1  0.203100  0.636600  0.056500  1.0  -0.614
  O  O348  1  0.281000  0.753400  0.054600  1.0  -0.6499
  O  O349  1  0.796900  0.433500  0.556500  1.0  -0.6129
  O  O350  1  0.719000  0.472400  0.554600  1.0  -0.6472
  O  O351  1  0.566500  0.363400  0.556500  1.0  -0.6162
  O  O352  1  0.527600  0.246600  0.554600  1.0  -0.65
  O  O353  1  0.636600  0.203100  0.556500  1.0  -0.6126
  O  O354  1  0.753400  0.281000  0.554600  1.0  -0.6534
  O  O355  1  0.203100  0.566500  0.556500  1.0  -0.6136
  O  O356  1  0.281000  0.527600  0.554600  1.0  -0.6482
  O  O357  1  0.433500  0.636600  0.556500  1.0  -0.6151
  O  O358  1  0.472400  0.753400  0.554600  1.0  -0.6489
  O  O359  1  0.363400  0.796900  0.556500  1.0  -0.6133
  O  O360  1  0.246600  0.719000  0.554600  1.0  -0.6516
  O  O361  1  0.433500  0.796900  0.943500  1.0  -0.6132
  O  O362  1  0.472400  0.719000  0.945400  1.0  -0.6519
  O  O363  1  0.363400  0.566500  0.943500  1.0  -0.6145
  O  O364  1  0.246600  0.527600  0.945400  1.0  -0.6467
  O  O365  1  0.203100  0.636600  0.943500  1.0  -0.6148
  O  O366  1  0.281000  0.753400  0.945400  1.0  -0.6491
  O  O367  1  0.566500  0.203100  0.943500  1.0  -0.6142
  O  O368  1  0.527600  0.281000  0.945400  1.0  -0.6513
  O  O369  1  0.636600  0.433500  0.943500  1.0  -0.6145
  O  O370  1  0.753400  0.472400  0.945400  1.0  -0.6474
  O  O371  1  0.796900  0.363400  0.943500  1.0  -0.6153
  O  O372  1  0.719000  0.246600  0.945400  1.0  -0.6492
  O  O373  1  0.333333  0.666667  0.500000  1.0  -1.1135
  O  O374  1  0.666667  0.333333  0.500000  1.0  -1.1135
  O  O375  1  0.666667  0.333333  0.000000  1.0  -1.1135
  O  O376  1  0.333333  0.666667  0.000000  1.0  -1.1135
