# generated using pymatgen
data_CaH4(C2O)4
_symmetry_space_group_name_H-M   'P 1'
_cell_length_a   10.11200000
_cell_length_b   13.75280000
_cell_length_c   15.04340000
_cell_angle_alpha   77.55800000
_cell_angle_beta   70.36080000
_cell_angle_gamma   68.43010000
_symmetry_Int_Tables_number   1
_chemical_formula_structural   CaH4(C2O)4
_chemical_formula_sum   'Ca6 H24 C48 O24'
_cell_volume   1822.26341642
_cell_formula_units_Z   6
loop_
 _symmetry_equiv_pos_site_id
 _symmetry_equiv_pos_as_xyz
  1  'x, y, z'
loop_
 _atom_site_type_symbol
 _atom_site_label
 _atom_site_symmetry_multiplicity
 _atom_site_fract_x
 _atom_site_fract_y
 _atom_site_fract_z
 _atom_site_occupancy
 _atom_site_charge
  Ca  Ca1  1  0.490770  0.527170  0.119770  1.0  1.5603
  Ca  Ca2  1  0.509230  0.472830  0.880230  1.0  1.5573
  Ca  Ca3  1  0.137710  0.972830  0.380230  1.0  1.5598
  Ca  Ca4  1  0.215170  0.750000  0.250000  1.0  1.5616
  Ca  Ca5  1  0.862290  0.027170  0.619770  1.0  1.5614
  Ca  Ca6  1  0.784830  0.250000  0.750000  1.0  1.5601
  H  H7  1  0.584300  0.354100  0.419300  1.0  0.0925
  H  H8  1  0.503900  0.834200  0.076000  1.0  0.091
  H  H9  1  0.827500  0.171700  0.248700  1.0  0.0924
  H  H10  1  0.415700  0.645900  0.580700  1.0  0.0923
  H  H11  1  0.247900  0.328300  0.251300  1.0  0.0917
  H  H12  1  0.838700  0.803900  0.655100  1.0  0.0929
  H  H13  1  0.227800  0.904900  0.018100  1.0  0.0777
  H  H14  1  0.150800  0.595100  0.481900  1.0  0.0771
  H  H15  1  0.172500  0.828300  0.751300  1.0  0.0927
  H  H16  1  0.642300  0.854100  0.919300  1.0  0.0924
  H  H17  1  0.357700  0.145900  0.080700  1.0  0.0926
  H  H18  1  0.752100  0.671700  0.748700  1.0  0.0922
  H  H19  1  0.114000  0.038300  0.918900  1.0  0.0899
  H  H20  1  0.928800  0.538300  0.418900  1.0  0.0902
  H  H21  1  0.772200  0.095100  0.981900  1.0  0.078
  H  H22  1  0.886000  0.961700  0.081100  1.0  0.0904
  H  H23  1  0.585900  0.334200  0.576000  1.0  0.0913
  H  H24  1  0.702300  0.303900  0.155100  1.0  0.092
  H  H25  1  0.496100  0.165800  0.924000  1.0  0.0916
  H  H26  1  0.297700  0.696100  0.844900  1.0  0.0918
  H  H27  1  0.071200  0.461700  0.581100  1.0  0.0907
  H  H28  1  0.849200  0.404900  0.518100  1.0  0.0773
  H  H29  1  0.414100  0.665800  0.424000  1.0  0.0917
  H  H30  1  0.161300  0.196100  0.344900  1.0  0.0928
  C  C31  1  0.071610  0.610690  0.536290  1.0  -0.0286
  C  C32  1  0.098380  0.447040  0.325400  1.0  -0.1447
  C  C33  1  0.870820  0.052960  0.174600  1.0  -0.1483
  C  C34  1  0.653550  0.300820  0.994480  1.0  0.7048
  C  C35  1  0.815100  0.155840  0.195560  1.0  -0.0587
  C  C36  1  0.977660  0.469070  0.404810  1.0  -0.0363
  C  C37  1  0.928390  0.389310  0.463710  1.0  -0.0269
  C  C38  1  0.022340  0.530930  0.595190  1.0  -0.035
  C  C39  1  0.449750  0.586920  0.548380  1.0  -0.0512
  C  C40  1  0.325290  0.976550  0.194670  1.0  0.6913
  C  C41  1  0.045050  0.032250  0.764250  1.0  0.741
  C  C42  1  0.851540  0.030930  0.095190  1.0  -0.0352
  C  C43  1  0.503490  0.476550  0.694670  1.0  0.6925
  C  C44  1  0.833500  0.655840  0.695560  1.0  -0.0576
  C  C45  1  0.051150  0.800820  0.494480  1.0  0.7026
  C  C46  1  0.585050  0.913080  0.951620  1.0  -0.0508
  C  C47  1  0.496510  0.523450  0.305330  1.0  0.6914
  C  C48  1  0.948850  0.199180  0.505520  1.0  0.7048
  C  C49  1  0.166500  0.344160  0.304440  1.0  -0.0577
  C  C50  1  0.184900  0.844160  0.804440  1.0  -0.0593
  C  C51  1  0.996660  0.286720  0.441760  1.0  -0.1611
  C  C52  1  0.841550  0.467750  0.735750  1.0  0.729
  C  C53  1  0.158450  0.532250  0.264250  1.0  0.7543
  C  C54  1  0.346450  0.699180  0.005520  1.0  0.705
  C  C55  1  0.115630  0.264790  0.360950  1.0  -0.0614
  C  C56  1  0.129180  0.947040  0.825400  1.0  -0.1491
  C  C57  1  0.954950  0.967750  0.235750  1.0  0.7588
  C  C58  1  0.674710  0.023450  0.805330  1.0  0.694
  C  C59  1  0.501960  0.901110  0.045770  1.0  -0.0576
  C  C60  1  0.414950  0.086920  0.048380  1.0  -0.0517
  C  C61  1  0.218590  0.889310  0.963710  1.0  -0.03
  C  C62  1  0.258630  0.764790  0.860950  1.0  -0.0603
  C  C63  1  0.498040  0.098890  0.954230  1.0  -0.0574
  C  C64  1  0.003340  0.713280  0.558240  1.0  -0.1608
  C  C65  1  0.551160  0.401110  0.545770  1.0  -0.0568
  C  C66  1  0.448840  0.598890  0.454230  1.0  -0.0576
  C  C67  1  0.583000  0.012210  0.905990  1.0  -0.1503
  C  C68  1  0.884370  0.735210  0.639050  1.0  -0.0621
  C  C69  1  0.725140  0.213280  0.058240  1.0  -0.1608
  C  C70  1  0.417000  0.987790  0.094010  1.0  -0.1511
  C  C71  1  0.901620  0.552960  0.674600  1.0  -0.1449
  C  C72  1  0.741370  0.235210  0.139050  1.0  -0.062
  C  C73  1  0.498800  0.512210  0.405990  1.0  -0.1545
  C  C74  1  0.148460  0.969070  0.904810  1.0  -0.0362
  C  C75  1  0.781410  0.110690  0.036290  1.0  -0.0288
  C  C76  1  0.501200  0.487790  0.594010  1.0  -0.1539
  C  C77  1  0.274860  0.786720  0.941760  1.0  -0.1611
  C  C78  1  0.550250  0.413080  0.451620  1.0  -0.0503
  O  O79  1  0.438830  0.556390  0.739750  1.0  -0.6188
  O  O80  1  0.429760  0.612880  0.267820  1.0  -0.7443
  O  O81  1  0.734970  0.943610  0.760250  1.0  -0.6205
  O  O82  1  0.561170  0.443610  0.260250  1.0  -0.6195
  O  O83  1  0.265030  0.056390  0.239750  1.0  -0.6183
  O  O84  1  0.583490  0.390250  0.024370  1.0  -0.7858
  O  O85  1  0.899050  0.377680  0.709620  1.0  -0.6515
  O  O86  1  0.962500  0.993820  0.308380  1.0  -0.7093
  O  O87  1  0.735300  0.493820  0.808380  1.0  -0.7103
  O  O88  1  0.416510  0.609750  0.975630  1.0  -0.7839
  O  O89  1  0.861010  0.214270  0.587490  1.0  -0.7565
  O  O90  1  0.337230  0.714270  0.087490  1.0  -0.7531
  O  O91  1  0.001890  0.890250  0.524370  1.0  -0.784
  O  O92  1  0.037500  0.006180  0.691620  1.0  -0.7093
  O  O93  1  0.264700  0.506180  0.191620  1.0  -0.7079
  O  O94  1  0.100950  0.622320  0.290380  1.0  -0.6527
  O  O95  1  0.310460  0.887120  0.232180  1.0  -0.7462
  O  O96  1  0.138990  0.785730  0.412510  1.0  -0.7579
  O  O97  1  0.998110  0.109750  0.475630  1.0  -0.78
  O  O98  1  0.662770  0.285730  0.912510  1.0  -0.7548
  O  O99  1  0.689540  0.112880  0.767820  1.0  -0.7468
  O  O100  1  0.986350  0.122320  0.790380  1.0  -0.6544
  O  O101  1  0.570240  0.387120  0.732180  1.0  -0.7454
  O  O102  1  0.013650  0.877680  0.209620  1.0  -0.6535
