# generated using pymatgen
data_CaH4(C2O)4
_symmetry_space_group_name_H-M   'P 1'
_cell_length_a   9.98920000
_cell_length_b   10.92510000
_cell_length_c   22.61230000
_cell_angle_alpha   94.87000000
_cell_angle_beta   90.00000000
_cell_angle_gamma   90.00000000
_symmetry_Int_Tables_number   1
_chemical_formula_structural   CaH4(C2O)4
_chemical_formula_sum   'Ca8 H32 C64 O32'
_cell_volume   2458.83947937
_cell_formula_units_Z   8
loop_
 _symmetry_equiv_pos_site_id
 _symmetry_equiv_pos_as_xyz
  1  'x, y, z'
loop_
 _atom_site_type_symbol
 _atom_site_label
 _atom_site_symmetry_multiplicity
 _atom_site_fract_x
 _atom_site_fract_y
 _atom_site_fract_z
 _atom_site_occupancy
 _atom_site_charge
  Ca  Ca1  1  0.981210  0.448220  0.838720  1.0  1.5393
  Ca  Ca2  1  0.018790  0.551780  0.161280  1.0  1.5408
  Ca  Ca3  1  0.806280  0.750000  0.250000  1.0  1.6206
  Ca  Ca4  1  0.193720  0.250000  0.750000  1.0  1.6239
  Ca  Ca5  1  0.981210  0.051780  0.661280  1.0  1.5408
  Ca  Ca6  1  0.000000  0.500000  0.000000  1.0  1.5835
  Ca  Ca7  1  0.000000  0.000000  0.500000  1.0  1.5835
  Ca  Ca8  1  0.018790  0.948220  0.338720  1.0  1.5393
  H  H9  1  0.681300  0.162800  0.495100  1.0  0.0923
  H  H10  1  0.144000  0.129600  0.012000  1.0  0.0922
  H  H11  1  0.522100  0.692300  0.950300  1.0  0.0985
  H  H12  1  0.170400  0.581200  0.494900  1.0  0.109
  H  H13  1  0.856000  0.870400  0.988000  1.0  0.0922
  H  H14  1  0.719300  0.662800  0.000800  1.0  0.0892
  H  H15  1  0.990800  0.878100  0.821100  1.0  0.1057
  H  H16  1  0.829600  0.418800  0.505100  1.0  0.1083
  H  H17  1  0.492200  0.407700  0.854600  1.0  0.1045
  H  H18  1  0.856000  0.629600  0.512000  1.0  0.0923
  H  H19  1  0.477900  0.192300  0.450300  1.0  0.1009
  H  H20  1  0.318700  0.837200  0.504900  1.0  0.0928
  H  H21  1  0.009200  0.121900  0.178900  1.0  0.1058
  H  H22  1  0.009200  0.378100  0.321100  1.0  0.1058
  H  H23  1  0.829600  0.081200  0.994900  1.0  0.109
  H  H24  1  0.895000  0.191500  0.916800  1.0  0.0888
  H  H25  1  0.507800  0.907700  0.354600  1.0  0.1048
  H  H26  1  0.144000  0.370400  0.488000  1.0  0.0921
  H  H27  1  0.105000  0.691500  0.416800  1.0  0.0888
  H  H28  1  0.318700  0.662800  0.995100  1.0  0.0927
  H  H29  1  0.895000  0.308500  0.583200  1.0  0.0892
  H  H30  1  0.492200  0.092300  0.645400  1.0  0.1054
  H  H31  1  0.477900  0.307700  0.049700  1.0  0.098
  H  H32  1  0.280700  0.337200  0.999200  1.0  0.0892
  H  H33  1  0.170400  0.918800  0.005100  1.0  0.1085
  H  H34  1  0.681300  0.337200  0.004900  1.0  0.0933
  H  H35  1  0.507800  0.592300  0.145400  1.0  0.1053
  H  H36  1  0.719300  0.837200  0.499200  1.0  0.0898
  H  H37  1  0.280700  0.162800  0.500800  1.0  0.0892
  H  H38  1  0.522100  0.807700  0.549700  1.0  0.0985
  H  H39  1  0.105000  0.808500  0.083200  1.0  0.0893
  H  H40  1  0.990800  0.621900  0.678900  1.0  0.1058
  C  C41  1  0.489300  0.390200  0.894100  1.0  -0.0046
  C  C42  1  0.929800  0.647100  0.595500  1.0  -0.161
  C  C43  1  0.040800  0.283000  0.096500  1.0  0.7216
  C  C44  1  0.366500  0.376100  0.921790  1.0  -0.1515
  C  C45  1  0.259800  0.595500  0.102900  1.0  0.7012
  C  C46  1  0.005000  0.618800  0.311770  1.0  0.7329
  C  C47  1  0.120400  0.085600  0.043800  1.0  -0.0684
  C  C48  1  0.761500  0.901900  0.390660  1.0  0.7134
  C  C49  1  0.051000  0.546000  0.361290  1.0  -0.1764
  C  C50  1  0.879600  0.585600  0.543800  1.0  -0.0688
  C  C51  1  0.038600  0.419000  0.356400  1.0  0.0085
  C  C52  1  0.480600  0.170000  0.489100  1.0  -0.1342
  C  C53  1  0.038600  0.081000  0.143600  1.0  0.0034
  C  C54  1  0.238500  0.098100  0.609340  1.0  0.7127
  C  C55  1  0.740200  0.404500  0.897100  1.0  0.7019
  C  C56  1  0.961400  0.919000  0.856400  1.0  0.0052
  C  C57  1  0.051000  0.954000  0.138710  1.0  -0.1747
  C  C58  1  0.519400  0.670000  0.989100  1.0  -0.1368
  C  C59  1  0.519400  0.830000  0.510900  1.0  -0.1355
  C  C60  1  0.761500  0.598100  0.109340  1.0  0.7131
  C  C61  1  0.864600  0.459400  0.539500  1.0  -0.1271
  C  C62  1  0.005000  0.881200  0.188230  1.0  0.7322
  C  C63  1  0.901800  0.106300  0.913400  1.0  -0.0426
  C  C64  1  0.070200  0.352900  0.404500  1.0  -0.1611
  C  C65  1  0.397600  0.846900  0.483900  1.0  -0.034
  C  C66  1  0.098200  0.606300  0.413400  1.0  -0.0431
  C  C67  1  0.995000  0.118800  0.811770  1.0  0.7336
  C  C68  1  0.135400  0.959400  0.039500  1.0  -0.1272
  C  C69  1  0.961400  0.581000  0.643600  1.0  0.0056
  C  C70  1  0.879600  0.914400  0.956200  1.0  -0.068
  C  C71  1  0.120400  0.414400  0.456200  1.0  -0.0679
  C  C72  1  0.949000  0.454000  0.638710  1.0  -0.1743
  C  C73  1  0.959200  0.783000  0.596500  1.0  0.7207
  C  C74  1  0.135400  0.540600  0.460500  1.0  -0.1297
  C  C75  1  0.040800  0.217000  0.403500  1.0  0.7204
  C  C76  1  0.949000  0.046000  0.861290  1.0  -0.176
  C  C77  1  0.391600  0.878200  0.425580  1.0  -0.1407
  C  C78  1  0.637400  0.653800  0.019500  1.0  -0.0568
  C  C79  1  0.098200  0.893700  0.086600  1.0  -0.0412
  C  C80  1  0.391600  0.621800  0.074420  1.0  -0.1397
  C  C81  1  0.362600  0.346200  0.980500  1.0  -0.0573
  C  C82  1  0.489300  0.109800  0.605900  1.0  -0.0057
  C  C83  1  0.480600  0.330000  0.010900  1.0  -0.1356
  C  C84  1  0.864600  0.040600  0.960500  1.0  -0.1278
  C  C85  1  0.259800  0.904500  0.397100  1.0  0.7012
  C  C86  1  0.366500  0.123900  0.578210  1.0  -0.1513
  C  C87  1  0.510700  0.890200  0.394100  1.0  -0.0075
  C  C88  1  0.995000  0.381200  0.688230  1.0  0.7326
  C  C89  1  0.510700  0.609800  0.105900  1.0  -0.0071
  C  C90  1  0.362600  0.153800  0.519500  1.0  -0.0569
  C  C91  1  0.397600  0.653100  0.016100  1.0  -0.0314
  C  C92  1  0.602400  0.346900  0.983900  1.0  -0.0319
  C  C93  1  0.637400  0.846200  0.480500  1.0  -0.0576
  C  C94  1  0.740200  0.095500  0.602900  1.0  0.702
  C  C95  1  0.608400  0.378200  0.925580  1.0  -0.1389
  C  C96  1  0.901800  0.393700  0.586600  1.0  -0.0416
  C  C97  1  0.929800  0.852900  0.904500  1.0  -0.1615
  C  C98  1  0.238500  0.401900  0.890660  1.0  0.7131
  C  C99  1  0.959200  0.717000  0.903500  1.0  0.7204
  C  C100  1  0.633500  0.876100  0.421790  1.0  -0.1515
  C  C101  1  0.070200  0.147100  0.095500  1.0  -0.1612
  C  C102  1  0.633500  0.623900  0.078210  1.0  -0.1522
  C  C103  1  0.608400  0.121800  0.574420  1.0  -0.1387
  C  C104  1  0.602400  0.153100  0.516100  1.0  -0.0302
  O  O105  1  0.965700  0.672800  0.952300  1.0  -0.6698
  O  O106  1  0.992400  0.767100  0.178140  1.0  -0.7423
  O  O107  1  0.022000  0.437300  0.737500  1.0  -0.7864
  O  O108  1  0.992400  0.732900  0.321860  1.0  -0.7437
  O  O109  1  0.020500  0.341400  0.146400  1.0  -0.6229
  O  O110  1  0.978000  0.937300  0.237500  1.0  -0.7881
  O  O111  1  0.034300  0.327200  0.047700  1.0  -0.6712
  O  O112  1  0.862900  0.569900  0.078620  1.0  -0.7485
  O  O113  1  0.137100  0.430100  0.921380  1.0  -0.746
  O  O114  1  0.842200  0.418300  0.930030  1.0  -0.7146
  O  O115  1  0.157800  0.581700  0.069970  1.0  -0.7152
  O  O116  1  0.842200  0.081700  0.569970  1.0  -0.7159
  O  O117  1  0.234400  0.396200  0.834700  1.0  -0.7879
  O  O118  1  0.746200  0.089200  0.657330  1.0  -0.6298
  O  O119  1  0.234400  0.103800  0.665300  1.0  -0.786
  O  O120  1  0.978000  0.562700  0.262500  1.0  -0.7867
  O  O121  1  0.862900  0.930100  0.421380  1.0  -0.7477
  O  O122  1  0.020500  0.158600  0.353600  1.0  -0.6229
  O  O123  1  0.007600  0.232900  0.821860  1.0  -0.7435
  O  O124  1  0.007600  0.267100  0.678140  1.0  -0.7421
  O  O125  1  0.965700  0.827200  0.547700  1.0  -0.6714
  O  O126  1  0.765600  0.603800  0.165300  1.0  -0.7875
  O  O127  1  0.022000  0.062700  0.762500  1.0  -0.7863
  O  O128  1  0.034300  0.172800  0.452300  1.0  -0.67
  O  O129  1  0.746200  0.410800  0.842670  1.0  -0.6268
  O  O130  1  0.979500  0.658600  0.853600  1.0  -0.6252
  O  O131  1  0.157800  0.918300  0.430030  1.0  -0.7141
  O  O132  1  0.137100  0.069900  0.578620  1.0  -0.7477
  O  O133  1  0.979500  0.841400  0.646400  1.0  -0.623
  O  O134  1  0.765600  0.896200  0.334700  1.0  -0.7878
  O  O135  1  0.253800  0.910800  0.342670  1.0  -0.6283
  O  O136  1  0.253800  0.589200  0.157330  1.0  -0.6281
