# generated using pymatgen
data_Ga3P3(O6F)2
_symmetry_space_group_name_H-M   'P 1'
_cell_length_a   16.02300000
_cell_length_b   10.06200000
_cell_length_c   18.48600000
_cell_angle_alpha   90.00000000
_cell_angle_beta   90.00000000
_cell_angle_gamma   90.00000000
_symmetry_Int_Tables_number   1
_chemical_formula_structural   Ga3P3(O6F)2
_chemical_formula_sum   'Ga24 P24 O96 F16'
_cell_volume   2980.37625304
_cell_formula_units_Z   8
loop_
 _symmetry_equiv_pos_site_id
 _symmetry_equiv_pos_as_xyz
  1  'x, y, z'
loop_
 _atom_site_type_symbol
 _atom_site_label
 _atom_site_symmetry_multiplicity
 _atom_site_fract_x
 _atom_site_fract_y
 _atom_site_fract_z
 _atom_site_occupancy
 _atom_site_charge
  Ga  Ga1  1  0.460020  0.317470  0.217940  1.0  1.6351
  Ga  Ga2  1  0.649390  0.163800  0.176670  1.0  1.7739
  Ga  Ga3  1  0.489530  0.346300  0.408510  1.0  1.7
  Ga  Ga4  1  0.039980  0.682530  0.717940  1.0  1.6329
  Ga  Ga5  1  0.850610  0.836200  0.676670  1.0  1.7746
  Ga  Ga6  1  0.010470  0.653700  0.908510  1.0  1.7002
  Ga  Ga7  1  0.539980  0.817470  0.282060  1.0  1.6307
  Ga  Ga8  1  0.350610  0.663800  0.323330  1.0  1.7749
  Ga  Ga9  1  0.510470  0.846300  0.091490  1.0  1.6976
  Ga  Ga10  1  0.960020  0.182530  0.782060  1.0  1.6347
  Ga  Ga11  1  0.149390  0.336200  0.823330  1.0  1.7749
  Ga  Ga12  1  0.989530  0.153700  0.591490  1.0  1.6992
  Ga  Ga13  1  0.539980  0.682530  0.782060  1.0  1.6321
  Ga  Ga14  1  0.350610  0.836200  0.823330  1.0  1.7755
  Ga  Ga15  1  0.510470  0.653700  0.591490  1.0  1.699
  Ga  Ga16  1  0.960020  0.317470  0.282060  1.0  1.6334
  Ga  Ga17  1  0.149390  0.163800  0.323330  1.0  1.7744
  Ga  Ga18  1  0.989530  0.346300  0.091490  1.0  1.6977
  Ga  Ga19  1  0.460020  0.182530  0.717940  1.0  1.6364
  Ga  Ga20  1  0.649390  0.336200  0.676670  1.0  1.7743
  Ga  Ga21  1  0.489530  0.153700  0.908510  1.0  1.7012
  Ga  Ga22  1  0.039980  0.817470  0.217940  1.0  1.6316
  Ga  Ga23  1  0.850610  0.663800  0.176670  1.0  1.7743
  Ga  Ga24  1  0.010470  0.846300  0.408510  1.0  1.699
  P  P25  1  0.488100  0.142400  0.077300  1.0  1.8601
  P  P26  1  0.558000  0.118300  0.316400  1.0  1.8585
  P  P27  1  0.315600  0.349600  0.330800  1.0  1.8331
  P  P28  1  0.011900  0.857600  0.577300  1.0  1.8613
  P  P29  1  0.942000  0.881700  0.816400  1.0  1.8572
  P  P30  1  0.184400  0.650400  0.830800  1.0  1.8366
  P  P31  1  0.511900  0.642400  0.422700  1.0  1.8624
  P  P32  1  0.442000  0.618300  0.183600  1.0  1.856
  P  P33  1  0.684400  0.849600  0.169200  1.0  1.8374
  P  P34  1  0.988100  0.357600  0.922700  1.0  1.8609
  P  P35  1  0.058000  0.381700  0.683600  1.0  1.8564
  P  P36  1  0.815600  0.150400  0.669200  1.0  1.833
  P  P37  1  0.511900  0.857600  0.922700  1.0  1.8625
  P  P38  1  0.442000  0.881700  0.683600  1.0  1.8561
  P  P39  1  0.684400  0.650400  0.669200  1.0  1.8372
  P  P40  1  0.988100  0.142400  0.422700  1.0  1.8612
  P  P41  1  0.058000  0.118300  0.183600  1.0  1.8563
  P  P42  1  0.815600  0.349600  0.169200  1.0  1.8329
  P  P43  1  0.488100  0.357600  0.577300  1.0  1.8594
  P  P44  1  0.558000  0.381700  0.816400  1.0  1.8585
  P  P45  1  0.315600  0.150400  0.830800  1.0  1.8331
  P  P46  1  0.011900  0.642400  0.077300  1.0  1.8614
  P  P47  1  0.942000  0.618300  0.316400  1.0  1.8572
  P  P48  1  0.184400  0.849600  0.330800  1.0  1.8369
  O  O49  1  0.434400  0.211200  0.134100  1.0  -0.7558
  O  O50  1  0.553000  0.973400  0.339500  1.0  -0.755
  O  O51  1  0.347900  0.311900  0.256000  1.0  -0.7242
  O  O52  1  0.485000  0.154200  0.268100  1.0  -0.7827
  O  O53  1  0.580200  0.131200  0.099800  1.0  -0.909
  O  O54  1  0.640200  0.142300  0.275900  1.0  -0.7887
  O  O55  1  0.291000  0.497600  0.333500  1.0  -0.7487
  O  O56  1  0.237400  0.268900  0.348900  1.0  -0.9606
  O  O57  1  0.557900  0.202300  0.386400  1.0  -0.7494
  O  O58  1  0.378800  0.315700  0.391300  1.0  -0.8912
  O  O59  1  0.480200  0.218100  0.006300  1.0  -0.7437
  O  O60  1  0.454200  0.000400  0.067800  1.0  -0.8277
  O  O61  1  0.065600  0.788800  0.634100  1.0  -0.7576
  O  O62  1  0.947000  0.026600  0.839500  1.0  -0.7554
  O  O63  1  0.152100  0.688100  0.756000  1.0  -0.7224
  O  O64  1  0.015000  0.845800  0.768100  1.0  -0.7803
  O  O65  1  0.919800  0.868800  0.599800  1.0  -0.9094
  O  O66  1  0.859800  0.857700  0.775900  1.0  -0.7873
  O  O67  1  0.209000  0.502400  0.833500  1.0  -0.7494
  O  O68  1  0.262600  0.731100  0.848900  1.0  -0.9599
  O  O69  1  0.942100  0.797700  0.886400  1.0  -0.7503
  O  O70  1  0.121200  0.684300  0.891300  1.0  -0.8917
  O  O71  1  0.019800  0.781900  0.506300  1.0  -0.7439
  O  O72  1  0.045800  0.999600  0.567800  1.0  -0.8295
  O  O73  1  0.565600  0.711200  0.365900  1.0  -0.757
  O  O74  1  0.447000  0.473400  0.160500  1.0  -0.7558
  O  O75  1  0.652100  0.811900  0.244000  1.0  -0.7216
  O  O76  1  0.515000  0.654200  0.231900  1.0  -0.782
  O  O77  1  0.419800  0.631200  0.400200  1.0  -0.9086
  O  O78  1  0.359800  0.642300  0.224100  1.0  -0.7872
  O  O79  1  0.709000  0.997600  0.166500  1.0  -0.75
  O  O80  1  0.762600  0.768900  0.151100  1.0  -0.9595
  O  O81  1  0.442100  0.702300  0.113600  1.0  -0.7505
  O  O82  1  0.621200  0.815700  0.108700  1.0  -0.8925
  O  O83  1  0.519800  0.718100  0.493700  1.0  -0.7431
  O  O84  1  0.545800  0.500400  0.432200  1.0  -0.8302
  O  O85  1  0.934400  0.288800  0.865900  1.0  -0.7556
  O  O86  1  0.053000  0.526600  0.660500  1.0  -0.7556
  O  O87  1  0.847900  0.188100  0.744000  1.0  -0.7242
  O  O88  1  0.985000  0.345800  0.731900  1.0  -0.7818
  O  O89  1  0.080200  0.368800  0.900200  1.0  -0.9074
  O  O90  1  0.140200  0.357700  0.724100  1.0  -0.788
  O  O91  1  0.791000  0.002400  0.666500  1.0  -0.751
  O  O92  1  0.737400  0.231100  0.651100  1.0  -0.9598
  O  O93  1  0.057900  0.297700  0.613600  1.0  -0.7513
  O  O94  1  0.878800  0.184300  0.608700  1.0  -0.8914
  O  O95  1  0.980200  0.281900  0.993700  1.0  -0.745
  O  O96  1  0.954200  0.499600  0.932200  1.0  -0.8271
  O  O97  1  0.565600  0.788800  0.865900  1.0  -0.7569
  O  O98  1  0.447000  0.026600  0.660500  1.0  -0.7557
  O  O99  1  0.652100  0.688100  0.744000  1.0  -0.7218
  O  O100  1  0.515000  0.845800  0.731900  1.0  -0.7808
  O  O101  1  0.419800  0.868800  0.900200  1.0  -0.9082
  O  O102  1  0.359800  0.857700  0.724100  1.0  -0.7865
  O  O103  1  0.709000  0.502400  0.666500  1.0  -0.7491
  O  O104  1  0.762600  0.731100  0.651100  1.0  -0.9592
  O  O105  1  0.442100  0.797700  0.613600  1.0  -0.7513
  O  O106  1  0.621200  0.684300  0.608700  1.0  -0.8932
  O  O107  1  0.519800  0.781900  0.993700  1.0  -0.7445
  O  O108  1  0.545800  0.999600  0.932200  1.0  -0.83
  O  O109  1  0.934400  0.211200  0.365900  1.0  -0.7561
  O  O110  1  0.053000  0.973400  0.160500  1.0  -0.7558
  O  O111  1  0.847900  0.311900  0.244000  1.0  -0.7236
  O  O112  1  0.985000  0.154200  0.231900  1.0  -0.7828
  O  O113  1  0.080200  0.131200  0.400200  1.0  -0.9083
  O  O114  1  0.140200  0.142300  0.224100  1.0  -0.7878
  O  O115  1  0.791000  0.497600  0.166500  1.0  -0.7488
  O  O116  1  0.737400  0.268900  0.151100  1.0  -0.96
  O  O117  1  0.057900  0.202300  0.113600  1.0  -0.7508
  O  O118  1  0.878800  0.315700  0.108700  1.0  -0.8909
  O  O119  1  0.980200  0.218100  0.493700  1.0  -0.7438
  O  O120  1  0.954200  0.000400  0.432200  1.0  -0.828
  O  O121  1  0.434400  0.288800  0.634100  1.0  -0.7555
  O  O122  1  0.553000  0.526600  0.839500  1.0  -0.7545
  O  O123  1  0.347900  0.188100  0.756000  1.0  -0.7244
  O  O124  1  0.485000  0.345800  0.768100  1.0  -0.7817
  O  O125  1  0.580200  0.368800  0.599800  1.0  -0.9083
  O  O126  1  0.640200  0.357700  0.775900  1.0  -0.7888
  O  O127  1  0.291000  0.002400  0.833500  1.0  -0.7505
  O  O128  1  0.237400  0.231100  0.848900  1.0  -0.9609
  O  O129  1  0.557900  0.297700  0.886400  1.0  -0.7499
  O  O130  1  0.378800  0.184300  0.891300  1.0  -0.892
  O  O131  1  0.480200  0.281900  0.506300  1.0  -0.7445
  O  O132  1  0.454200  0.499600  0.567800  1.0  -0.827
  O  O133  1  0.065600  0.711200  0.134100  1.0  -0.7572
  O  O134  1  0.947000  0.473400  0.339500  1.0  -0.7556
  O  O135  1  0.152100  0.811900  0.256000  1.0  -0.7226
  O  O136  1  0.015000  0.654200  0.268100  1.0  -0.7815
  O  O137  1  0.919800  0.631200  0.099800  1.0  -0.9097
  O  O138  1  0.859800  0.642300  0.275900  1.0  -0.7872
  O  O139  1  0.209000  0.997600  0.333500  1.0  -0.75
  O  O140  1  0.262600  0.768900  0.348900  1.0  -0.9597
  O  O141  1  0.942100  0.702300  0.386400  1.0  -0.7496
  O  O142  1  0.121200  0.815700  0.391300  1.0  -0.8915
  O  O143  1  0.019800  0.718100  0.006300  1.0  -0.7429
  O  O144  1  0.045800  0.500400  0.067800  1.0  -0.8296
  F  F145  1  0.580500  0.329900  0.191200  1.0  -0.4891
  F  F146  1  0.497300  0.410300  0.304900  1.0  -0.5331
  F  F147  1  0.919500  0.670100  0.691200  1.0  -0.4906
  F  F148  1  0.002700  0.589700  0.804900  1.0  -0.5341
  F  F149  1  0.419500  0.829900  0.308800  1.0  -0.4878
  F  F150  1  0.502700  0.910300  0.195100  1.0  -0.5327
  F  F151  1  0.080500  0.170100  0.808800  1.0  -0.4908
  F  F152  1  0.997300  0.089700  0.695100  1.0  -0.5342
  F  F153  1  0.419500  0.670100  0.808800  1.0  -0.4897
  F  F154  1  0.502700  0.589700  0.695100  1.0  -0.5336
  F  F155  1  0.080500  0.329900  0.308800  1.0  -0.4887
  F  F156  1  0.997300  0.410300  0.195100  1.0  -0.5327
  F  F157  1  0.580500  0.170100  0.691200  1.0  -0.4913
  F  F158  1  0.497300  0.089700  0.804900  1.0  -0.5346
  F  F159  1  0.919500  0.829900  0.191200  1.0  -0.4885
  F  F160  1  0.002700  0.910300  0.304900  1.0  -0.533
