# generated using pymatgen
data_MnH14C24(NO2)2
_symmetry_space_group_name_H-M   'P 1'
_cell_length_a   26.63960000
_cell_length_b   12.98530000
_cell_length_c   23.23260000
_cell_angle_alpha   90.00000000
_cell_angle_beta   108.69600000
_cell_angle_gamma   90.00000000
_symmetry_Int_Tables_number   1
_chemical_formula_structural   MnH14C24(NO2)2
_chemical_formula_sum   'Mn8 H112 C192 N16 O32'
_cell_volume   7612.62024190
_cell_formula_units_Z   8
loop_
 _symmetry_equiv_pos_site_id
 _symmetry_equiv_pos_as_xyz
  1  'x, y, z'
loop_
 _atom_site_type_symbol
 _atom_site_label
 _atom_site_symmetry_multiplicity
 _atom_site_fract_x
 _atom_site_fract_y
 _atom_site_fract_z
 _atom_site_occupancy
 _atom_site_charge
  Mn  Mn1  1  0.152720  0.031810  0.205810  1.0  1.0496
  Mn  Mn2  1  0.652720  0.531810  0.205810  1.0  1.0496
  Mn  Mn3  1  0.152720  0.968190  0.705810  1.0  1.0457
  Mn  Mn4  1  0.652720  0.468190  0.705810  1.0  1.0457
  Mn  Mn5  1  0.847280  0.031810  0.294190  1.0  1.0496
  Mn  Mn6  1  0.347280  0.531810  0.294190  1.0  1.0496
  Mn  Mn7  1  0.847280  0.968190  0.794190  1.0  1.0456
  Mn  Mn8  1  0.347280  0.468190  0.794190  1.0  1.0456
  H  H9  1  0.629800  0.176100  0.576900  1.0  0.1054
  H  H10  1  0.582300  0.060400  0.502700  1.0  0.1066
  H  H11  1  0.458400  0.258000  0.455300  1.0  0.1115
  H  H12  1  0.506000  0.373800  0.527400  1.0  0.1047
  H  H13  1  0.411200  0.127800  0.409600  1.0  0.1133
  H  H14  1  0.421600  0.882400  0.306900  1.0  0.1071
  H  H15  1  0.587600  0.954700  0.357800  1.0  0.1141
  H  H16  1  0.638000  0.842000  0.321600  1.0  0.1039
  H  H17  1  0.529100  0.619700  0.305200  1.0  0.1129
  H  H18  1  0.477300  0.732100  0.339200  1.0  0.0997
  H  H19  1  0.336800  0.860000  0.294300  1.0  0.1204
  H  H20  1  0.247500  0.874800  0.241800  1.0  0.0824
  H  H21  1  0.248600  0.169100  0.279900  1.0  0.0851
  H  H22  1  0.337700  0.164300  0.333500  1.0  0.118
  H  H23  1  0.129800  0.676100  0.576900  1.0  0.1054
  H  H24  1  0.082300  0.560400  0.502700  1.0  0.1066
  H  H25  1  0.958400  0.758000  0.455300  1.0  0.1115
  H  H26  1  0.006000  0.873800  0.527400  1.0  0.1047
  H  H27  1  0.911200  0.627800  0.409600  1.0  0.1133
  H  H28  1  0.921600  0.382400  0.306900  1.0  0.1071
  H  H29  1  0.087600  0.454700  0.357800  1.0  0.1141
  H  H30  1  0.138000  0.342000  0.321600  1.0  0.1039
  H  H31  1  0.029100  0.119700  0.305200  1.0  0.1129
  H  H32  1  0.977300  0.232100  0.339200  1.0  0.0997
  H  H33  1  0.836800  0.360000  0.294300  1.0  0.1204
  H  H34  1  0.747500  0.374800  0.241800  1.0  0.0824
  H  H35  1  0.748600  0.669100  0.279900  1.0  0.0851
  H  H36  1  0.837700  0.664300  0.333500  1.0  0.118
  H  H37  1  0.629800  0.823900  0.076900  1.0  0.1055
  H  H38  1  0.582300  0.939600  0.002700  1.0  0.107
  H  H39  1  0.458400  0.742000  0.955300  1.0  0.1114
  H  H40  1  0.506000  0.626200  0.027400  1.0  0.1037
  H  H41  1  0.411200  0.872200  0.909600  1.0  0.1134
  H  H42  1  0.421600  0.117600  0.806900  1.0  0.1068
  H  H43  1  0.587600  0.045300  0.857800  1.0  0.1146
  H  H44  1  0.638000  0.158000  0.821600  1.0  0.104
  H  H45  1  0.529100  0.380300  0.805200  1.0  0.1129
  H  H46  1  0.477300  0.267900  0.839200  1.0  0.0997
  H  H47  1  0.336800  0.140000  0.794300  1.0  0.1207
  H  H48  1  0.247500  0.125200  0.741800  1.0  0.0828
  H  H49  1  0.248600  0.830900  0.779900  1.0  0.0849
  H  H50  1  0.337700  0.835700  0.833500  1.0  0.1184
  H  H51  1  0.129800  0.323900  0.076900  1.0  0.1055
  H  H52  1  0.082300  0.439600  0.002700  1.0  0.107
  H  H53  1  0.958400  0.242000  0.955300  1.0  0.1114
  H  H54  1  0.006000  0.126200  0.027400  1.0  0.1037
  H  H55  1  0.911200  0.372200  0.909600  1.0  0.1134
  H  H56  1  0.921600  0.617600  0.806900  1.0  0.1068
  H  H57  1  0.087600  0.545300  0.857800  1.0  0.1146
  H  H58  1  0.138000  0.658000  0.821600  1.0  0.104
  H  H59  1  0.029100  0.880300  0.805200  1.0  0.1129
  H  H60  1  0.977300  0.767900  0.839200  1.0  0.0997
  H  H61  1  0.836800  0.640000  0.794300  1.0  0.1207
  H  H62  1  0.747500  0.625200  0.741800  1.0  0.0828
  H  H63  1  0.748600  0.330900  0.779900  1.0  0.0849
  H  H64  1  0.837700  0.335700  0.833500  1.0  0.1184
  H  H65  1  0.370200  0.176100  0.923100  1.0  0.106
  H  H66  1  0.417700  0.060400  0.997300  1.0  0.1061
  H  H67  1  0.541600  0.258000  0.044700  1.0  0.1118
  H  H68  1  0.494000  0.373800  0.972600  1.0  0.1044
  H  H69  1  0.588800  0.127800  0.090400  1.0  0.1133
  H  H70  1  0.578400  0.882400  0.193100  1.0  0.1066
  H  H71  1  0.412400  0.954700  0.142200  1.0  0.114
  H  H72  1  0.362000  0.842000  0.178400  1.0  0.103
  H  H73  1  0.470900  0.619700  0.194800  1.0  0.1134
  H  H74  1  0.522700  0.732100  0.160800  1.0  0.0988
  H  H75  1  0.663200  0.860000  0.205700  1.0  0.1206
  H  H76  1  0.752500  0.874800  0.258200  1.0  0.083
  H  H77  1  0.751400  0.169100  0.220100  1.0  0.0849
  H  H78  1  0.662300  0.164300  0.166500  1.0  0.1181
  H  H79  1  0.870200  0.676100  0.923100  1.0  0.106
  H  H80  1  0.917700  0.560400  0.997300  1.0  0.1061
  H  H81  1  0.041600  0.758000  0.044700  1.0  0.1118
  H  H82  1  0.994000  0.873800  0.972600  1.0  0.1044
  H  H83  1  0.088800  0.627800  0.090400  1.0  0.1133
  H  H84  1  0.078400  0.382400  0.193100  1.0  0.1066
  H  H85  1  0.912400  0.454700  0.142200  1.0  0.114
  H  H86  1  0.862000  0.342000  0.178400  1.0  0.103
  H  H87  1  0.970900  0.119700  0.194800  1.0  0.1134
  H  H88  1  0.022700  0.232100  0.160800  1.0  0.0988
  H  H89  1  0.163200  0.360000  0.205700  1.0  0.1206
  H  H90  1  0.252500  0.374800  0.258200  1.0  0.083
  H  H91  1  0.251400  0.669100  0.220100  1.0  0.0849
  H  H92  1  0.162300  0.664300  0.166500  1.0  0.1181
  H  H93  1  0.370200  0.823900  0.423100  1.0  0.1057
  H  H94  1  0.417700  0.939600  0.497300  1.0  0.1064
  H  H95  1  0.541600  0.742000  0.544700  1.0  0.112
  H  H96  1  0.494000  0.626200  0.472600  1.0  0.1042
  H  H97  1  0.588800  0.872200  0.590400  1.0  0.113
  H  H98  1  0.578400  0.117600  0.693100  1.0  0.1062
  H  H99  1  0.412400  0.045300  0.642200  1.0  0.1137
  H  H100  1  0.362000  0.158000  0.678400  1.0  0.1027
  H  H101  1  0.470900  0.380300  0.694800  1.0  0.1135
  H  H102  1  0.522700  0.267900  0.660800  1.0  0.099
  H  H103  1  0.663200  0.140000  0.705700  1.0  0.1208
  H  H104  1  0.752500  0.125200  0.758200  1.0  0.0832
  H  H105  1  0.751400  0.830900  0.720100  1.0  0.0849
  H  H106  1  0.662300  0.835700  0.666500  1.0  0.118
  H  H107  1  0.870200  0.323900  0.423100  1.0  0.1057
  H  H108  1  0.917700  0.439600  0.497300  1.0  0.1064
  H  H109  1  0.041600  0.242000  0.544700  1.0  0.112
  H  H110  1  0.994000  0.126200  0.472600  1.0  0.1042
  H  H111  1  0.088800  0.372200  0.590400  1.0  0.113
  H  H112  1  0.078400  0.617600  0.693100  1.0  0.1062
  H  H113  1  0.912400  0.545300  0.642200  1.0  0.1137
  H  H114  1  0.862000  0.658000  0.678400  1.0  0.1027
  H  H115  1  0.970900  0.880300  0.694800  1.0  0.1135
  H  H116  1  0.022700  0.767900  0.660800  1.0  0.099
  H  H117  1  0.163200  0.640000  0.705700  1.0  0.1208
  H  H118  1  0.252500  0.625200  0.758200  1.0  0.0832
  H  H119  1  0.251400  0.330900  0.720100  1.0  0.0849
  H  H120  1  0.162300  0.335700  0.666500  1.0  0.118
  C  C121  1  0.602440  0.358600  0.609410  1.0  0.6782
  C  C122  1  0.572440  0.286000  0.560160  1.0  -0.1608
  C  C123  1  0.594840  0.192800  0.552090  1.0  -0.0412
  C  C124  1  0.566470  0.123700  0.508000  1.0  -0.0425
  C  C125  1  0.515250  0.146600  0.471650  1.0  -0.037
  C  C126  1  0.493410  0.241100  0.479970  1.0  -0.1097
  C  C127  1  0.521480  0.309600  0.522960  1.0  -0.0462
  C  C128  1  0.485720  0.073300  0.423920  1.0  0.2011
  C  C129  1  0.431250  0.077300  0.397120  1.0  -0.1283
  C  C130  1  0.405950  0.007000  0.351770  1.0  0.0733
  C  C131  1  0.437320  0.932700  0.336990  1.0  -0.1545
  C  C132  1  0.491430  0.932100  0.366180  1.0  0.2399
  C  C133  1  0.526080  0.856500  0.349940  1.0  -0.0601
  C  C134  1  0.574890  0.887100  0.345880  1.0  -0.0761
  C  C135  1  0.604910  0.819900  0.324680  1.0  -0.0398
  C  C136  1  0.587580  0.721100  0.307850  1.0  -0.1189
  C  C137  1  0.540460  0.688800  0.314730  1.0  -0.0718
  C  C138  1  0.509870  0.755300  0.335120  1.0  -0.1435
  C  C139  1  0.616600  0.653500  0.277260  1.0  0.682
  C  C140  1  0.348250  0.011700  0.320270  1.0  0.0808
  C  C141  1  0.319610  0.924700  0.291980  1.0  -0.2203
  C  C142  1  0.266300  0.934300  0.260790  1.0  0.108
  C  C143  1  0.266920  0.105600  0.282960  1.0  0.1626
  C  C144  1  0.320120  0.103300  0.314980  1.0  -0.1913
  C  C145  1  0.102440  0.858600  0.609410  1.0  0.6782
  C  C146  1  0.072440  0.786000  0.560160  1.0  -0.1608
  C  C147  1  0.094840  0.692800  0.552090  1.0  -0.0412
  C  C148  1  0.066470  0.623700  0.508000  1.0  -0.0425
  C  C149  1  0.015250  0.646600  0.471650  1.0  -0.037
  C  C150  1  0.993410  0.741100  0.479970  1.0  -0.1097
  C  C151  1  0.021480  0.809600  0.522960  1.0  -0.0462
  C  C152  1  0.985720  0.573300  0.423920  1.0  0.2011
  C  C153  1  0.931250  0.577300  0.397120  1.0  -0.1283
  C  C154  1  0.905950  0.507000  0.351770  1.0  0.0733
  C  C155  1  0.937320  0.432700  0.336990  1.0  -0.1545
  C  C156  1  0.991430  0.432100  0.366180  1.0  0.2399
  C  C157  1  0.026080  0.356500  0.349940  1.0  -0.0601
  C  C158  1  0.074890  0.387100  0.345880  1.0  -0.0761
  C  C159  1  0.104910  0.319900  0.324680  1.0  -0.0398
  C  C160  1  0.087580  0.221100  0.307850  1.0  -0.1189
  C  C161  1  0.040460  0.188800  0.314730  1.0  -0.0718
  C  C162  1  0.009870  0.255300  0.335120  1.0  -0.1435
  C  C163  1  0.116600  0.153500  0.277260  1.0  0.682
  C  C164  1  0.848250  0.511700  0.320270  1.0  0.0808
  C  C165  1  0.819610  0.424700  0.291980  1.0  -0.2203
  C  C166  1  0.766300  0.434300  0.260790  1.0  0.108
  C  C167  1  0.766920  0.605600  0.282960  1.0  0.1626
  C  C168  1  0.820120  0.603300  0.314980  1.0  -0.1913
  C  C169  1  0.602440  0.641400  0.109410  1.0  0.6791
  C  C170  1  0.572440  0.714000  0.060160  1.0  -0.1633
  C  C171  1  0.594840  0.807200  0.052090  1.0  -0.0417
  C  C172  1  0.566470  0.876300  0.008000  1.0  -0.0422
  C  C173  1  0.515250  0.853400  0.971650  1.0  -0.0375
  C  C174  1  0.493410  0.758900  0.979970  1.0  -0.1085
  C  C175  1  0.521480  0.690400  0.022960  1.0  -0.0454
  C  C176  1  0.485720  0.926700  0.923920  1.0  0.2012
  C  C177  1  0.431250  0.922700  0.897120  1.0  -0.1292
  C  C178  1  0.405950  0.993000  0.851770  1.0  0.0733
  C  C179  1  0.437320  0.067300  0.836990  1.0  -0.155
  C  C180  1  0.491430  0.067900  0.866180  1.0  0.2399
  C  C181  1  0.526080  0.143500  0.849940  1.0  -0.0609
  C  C182  1  0.574890  0.112900  0.845880  1.0  -0.0776
  C  C183  1  0.604910  0.180100  0.824680  1.0  -0.0401
  C  C184  1  0.587580  0.278900  0.807850  1.0  -0.121
  C  C185  1  0.540460  0.311200  0.814730  1.0  -0.0695
  C  C186  1  0.509870  0.244700  0.835120  1.0  -0.1428
  C  C187  1  0.616600  0.346500  0.777260  1.0  0.6811
  C  C188  1  0.348250  0.988300  0.820270  1.0  0.0813
  C  C189  1  0.319610  0.075300  0.791980  1.0  -0.2207
  C  C190  1  0.266300  0.065700  0.760790  1.0  0.1077
  C  C191  1  0.266920  0.894400  0.782960  1.0  0.1642
  C  C192  1  0.320120  0.896700  0.814980  1.0  -0.1905
  C  C193  1  0.102440  0.141400  0.109410  1.0  0.6791
  C  C194  1  0.072440  0.214000  0.060160  1.0  -0.1633
  C  C195  1  0.094840  0.307200  0.052090  1.0  -0.0417
  C  C196  1  0.066470  0.376300  0.008000  1.0  -0.0422
  C  C197  1  0.015250  0.353400  0.971650  1.0  -0.0375
  C  C198  1  0.993410  0.258900  0.979970  1.0  -0.1085
  C  C199  1  0.021480  0.190400  0.022960  1.0  -0.0454
  C  C200  1  0.985720  0.426700  0.923920  1.0  0.2012
  C  C201  1  0.931250  0.422700  0.897120  1.0  -0.1292
  C  C202  1  0.905950  0.493000  0.851770  1.0  0.0733
  C  C203  1  0.937320  0.567300  0.836990  1.0  -0.155
  C  C204  1  0.991430  0.567900  0.866180  1.0  0.2399
  C  C205  1  0.026080  0.643500  0.849940  1.0  -0.0609
  C  C206  1  0.074890  0.612900  0.845880  1.0  -0.0776
  C  C207  1  0.104910  0.680100  0.824680  1.0  -0.0401
  C  C208  1  0.087580  0.778900  0.807850  1.0  -0.121
  C  C209  1  0.040460  0.811200  0.814730  1.0  -0.0695
  C  C210  1  0.009870  0.744700  0.835120  1.0  -0.1428
  C  C211  1  0.116600  0.846500  0.777260  1.0  0.6811
  C  C212  1  0.848250  0.488300  0.820270  1.0  0.0813
  C  C213  1  0.819610  0.575300  0.791980  1.0  -0.2207
  C  C214  1  0.766300  0.565700  0.760790  1.0  0.1077
  C  C215  1  0.766920  0.394400  0.782960  1.0  0.1642
  C  C216  1  0.820120  0.396700  0.814980  1.0  -0.1905
  C  C217  1  0.397560  0.358600  0.890590  1.0  0.6779
  C  C218  1  0.427560  0.286000  0.939840  1.0  -0.1627
  C  C219  1  0.405160  0.192800  0.947910  1.0  -0.0446
  C  C220  1  0.433530  0.123700  0.992000  1.0  -0.041
  C  C221  1  0.484750  0.146600  0.028350  1.0  -0.0366
  C  C222  1  0.506590  0.241100  0.020030  1.0  -0.1096
  C  C223  1  0.478520  0.309600  0.977040  1.0  -0.0467
  C  C224  1  0.514280  0.073300  0.076080  1.0  0.2029
  C  C225  1  0.568750  0.077300  0.102880  1.0  -0.1262
  C  C226  1  0.594050  0.007000  0.148230  1.0  0.0723
  C  C227  1  0.562680  0.932700  0.163010  1.0  -0.1553
  C  C228  1  0.508570  0.932100  0.133820  1.0  0.2392
  C  C229  1  0.473920  0.856500  0.150060  1.0  -0.0597
  C  C230  1  0.425110  0.887100  0.154120  1.0  -0.0776
  C  C231  1  0.395090  0.819900  0.175320  1.0  -0.0407
  C  C232  1  0.412420  0.721100  0.192150  1.0  -0.1191
  C  C233  1  0.459540  0.688800  0.185270  1.0  -0.0732
  C  C234  1  0.490130  0.755300  0.164880  1.0  -0.1452
  C  C235  1  0.383400  0.653500  0.222740  1.0  0.6806
  C  C236  1  0.651750  0.011700  0.179730  1.0  0.0802
  C  C237  1  0.680390  0.924700  0.208020  1.0  -0.2183
  C  C238  1  0.733700  0.934300  0.239210  1.0  0.1088
  C  C239  1  0.733080  0.105600  0.217040  1.0  0.1619
  C  C240  1  0.679880  0.103300  0.185020  1.0  -0.1903
  C  C241  1  0.897560  0.858600  0.890590  1.0  0.6779
  C  C242  1  0.927560  0.786000  0.939840  1.0  -0.1627
  C  C243  1  0.905160  0.692800  0.947910  1.0  -0.0446
  C  C244  1  0.933530  0.623700  0.992000  1.0  -0.041
  C  C245  1  0.984750  0.646600  0.028350  1.0  -0.0366
  C  C246  1  0.006590  0.741100  0.020030  1.0  -0.1096
  C  C247  1  0.978520  0.809600  0.977040  1.0  -0.0467
  C  C248  1  0.014280  0.573300  0.076080  1.0  0.2029
  C  C249  1  0.068750  0.577300  0.102880  1.0  -0.1262
  C  C250  1  0.094050  0.507000  0.148230  1.0  0.0723
  C  C251  1  0.062680  0.432700  0.163010  1.0  -0.1553
  C  C252  1  0.008570  0.432100  0.133820  1.0  0.2392
  C  C253  1  0.973920  0.356500  0.150060  1.0  -0.0597
  C  C254  1  0.925110  0.387100  0.154120  1.0  -0.0776
  C  C255  1  0.895090  0.319900  0.175320  1.0  -0.0407
  C  C256  1  0.912420  0.221100  0.192150  1.0  -0.1191
  C  C257  1  0.959540  0.188800  0.185270  1.0  -0.0732
  C  C258  1  0.990130  0.255300  0.164880  1.0  -0.1452
  C  C259  1  0.883400  0.153500  0.222740  1.0  0.6806
  C  C260  1  0.151750  0.511700  0.179730  1.0  0.0802
  C  C261  1  0.180390  0.424700  0.208020  1.0  -0.2183
  C  C262  1  0.233700  0.434300  0.239210  1.0  0.1088
  C  C263  1  0.233080  0.605600  0.217040  1.0  0.1619
  C  C264  1  0.179880  0.603300  0.185020  1.0  -0.1903
  C  C265  1  0.397560  0.641400  0.390590  1.0  0.6772
  C  C266  1  0.427560  0.714000  0.439840  1.0  -0.1642
  C  C267  1  0.405160  0.807200  0.447910  1.0  -0.0434
  C  C268  1  0.433530  0.876300  0.492000  1.0  -0.0421
  C  C269  1  0.484750  0.853400  0.528350  1.0  -0.0383
  C  C270  1  0.506590  0.758900  0.520030  1.0  -0.1107
  C  C271  1  0.478520  0.690400  0.477040  1.0  -0.048
  C  C272  1  0.514280  0.926700  0.576080  1.0  0.2039
  C  C273  1  0.568750  0.922700  0.602880  1.0  -0.1281
  C  C274  1  0.594050  0.993000  0.648230  1.0  0.0736
  C  C275  1  0.562680  0.067300  0.663010  1.0  -0.1552
  C  C276  1  0.508570  0.067900  0.633820  1.0  0.2389
  C  C277  1  0.473920  0.143500  0.650060  1.0  -0.061
  C  C278  1  0.425110  0.112900  0.654120  1.0  -0.0773
  C  C279  1  0.395090  0.180100  0.675320  1.0  -0.0391
  C  C280  1  0.412420  0.278900  0.692150  1.0  -0.119
  C  C281  1  0.459540  0.311200  0.685270  1.0  -0.0711
  C  C282  1  0.490130  0.244700  0.664880  1.0  -0.1446
  C  C283  1  0.383400  0.346500  0.722740  1.0  0.6799
  C  C284  1  0.651750  0.988300  0.679730  1.0  0.0803
  C  C285  1  0.680390  0.075300  0.708020  1.0  -0.2183
  C  C286  1  0.733700  0.065700  0.739210  1.0  0.1079
  C  C287  1  0.733080  0.894400  0.717040  1.0  0.1635
  C  C288  1  0.679880  0.896700  0.685020  1.0  -0.1904
  C  C289  1  0.897560  0.141400  0.390590  1.0  0.6772
  C  C290  1  0.927560  0.214000  0.439840  1.0  -0.1642
  C  C291  1  0.905160  0.307200  0.447910  1.0  -0.0434
  C  C292  1  0.933530  0.376300  0.492000  1.0  -0.0421
  C  C293  1  0.984750  0.353400  0.528350  1.0  -0.0383
  C  C294  1  0.006590  0.258900  0.520030  1.0  -0.1107
  C  C295  1  0.978520  0.190400  0.477040  1.0  -0.048
  C  C296  1  0.014280  0.426700  0.576080  1.0  0.2039
  C  C297  1  0.068750  0.422700  0.602880  1.0  -0.1281
  C  C298  1  0.094050  0.493000  0.648230  1.0  0.0736
  C  C299  1  0.062680  0.567300  0.663010  1.0  -0.1552
  C  C300  1  0.008570  0.567900  0.633820  1.0  0.2389
  C  C301  1  0.973920  0.643500  0.650060  1.0  -0.061
  C  C302  1  0.925110  0.612900  0.654120  1.0  -0.0773
  C  C303  1  0.895090  0.680100  0.675320  1.0  -0.0391
  C  C304  1  0.912420  0.778900  0.692150  1.0  -0.119
  C  C305  1  0.959540  0.811200  0.685270  1.0  -0.0711
  C  C306  1  0.990130  0.744700  0.664880  1.0  -0.1446
  C  C307  1  0.883400  0.846500  0.722740  1.0  0.6799
  C  C308  1  0.151750  0.488300  0.679730  1.0  0.0803
  C  C309  1  0.180390  0.575300  0.708020  1.0  -0.2183
  C  C310  1  0.233700  0.565700  0.739210  1.0  0.1079
  C  C311  1  0.233080  0.394400  0.717040  1.0  0.1635
  C  C312  1  0.179880  0.396700  0.685020  1.0  -0.1904
  N  N313  1  0.515810  0.001500  0.408590  1.0  -0.3042
  N  N314  1  0.239620  0.022600  0.255780  1.0  -0.3838
  N  N315  1  0.015810  0.501500  0.408590  1.0  -0.3042
  N  N316  1  0.739620  0.522600  0.255780  1.0  -0.3838
  N  N317  1  0.515810  0.998500  0.908590  1.0  -0.3043
  N  N318  1  0.239620  0.977400  0.755780  1.0  -0.3829
  N  N319  1  0.015810  0.498500  0.908590  1.0  -0.3043
  N  N320  1  0.739620  0.477400  0.755780  1.0  -0.3829
  N  N321  1  0.484190  0.001500  0.091410  1.0  -0.303
  N  N322  1  0.760380  0.022600  0.244220  1.0  -0.3875
  N  N323  1  0.984190  0.501500  0.091410  1.0  -0.303
  N  N324  1  0.260380  0.522600  0.244220  1.0  -0.3875
  N  N325  1  0.484190  0.998500  0.591410  1.0  -0.3031
  N  N326  1  0.760380  0.977400  0.744220  1.0  -0.3873
  N  N327  1  0.984190  0.498500  0.591410  1.0  -0.3031
  N  N328  1  0.260380  0.477400  0.744220  1.0  -0.3873
  O  O329  1  0.581210  0.444250  0.614440  1.0  -0.5824
  O  O330  1  0.645910  0.333000  0.644000  1.0  -0.5624
  O  O331  1  0.594900  0.572500  0.251900  1.0  -0.5968
  O  O332  1  0.659380  0.682000  0.273360  1.0  -0.6798
  O  O333  1  0.081210  0.944250  0.614440  1.0  -0.5824
  O  O334  1  0.145910  0.833000  0.644000  1.0  -0.5624
  O  O335  1  0.094900  0.072500  0.251900  1.0  -0.5968
  O  O336  1  0.159380  0.182000  0.273360  1.0  -0.6799
  O  O337  1  0.581210  0.555750  0.114440  1.0  -0.5849
  O  O338  1  0.645910  0.667000  0.144000  1.0  -0.5639
  O  O339  1  0.594900  0.427500  0.751900  1.0  -0.595
  O  O340  1  0.659380  0.318000  0.773360  1.0  -0.6791
  O  O341  1  0.081210  0.055750  0.114440  1.0  -0.5849
  O  O342  1  0.145910  0.167000  0.144000  1.0  -0.5639
  O  O343  1  0.094900  0.927500  0.751900  1.0  -0.595
  O  O344  1  0.159380  0.818000  0.773360  1.0  -0.6791
  O  O345  1  0.418790  0.444250  0.885560  1.0  -0.5823
  O  O346  1  0.354090  0.333000  0.856000  1.0  -0.5646
  O  O347  1  0.405100  0.572500  0.248100  1.0  -0.5947
  O  O348  1  0.340620  0.682000  0.226640  1.0  -0.6798
  O  O349  1  0.918790  0.944250  0.885560  1.0  -0.5823
  O  O350  1  0.854090  0.833000  0.856000  1.0  -0.5646
  O  O351  1  0.905100  0.072500  0.248100  1.0  -0.5947
  O  O352  1  0.840620  0.182000  0.226640  1.0  -0.6808
  O  O353  1  0.418790  0.555750  0.385560  1.0  -0.5841
  O  O354  1  0.354090  0.667000  0.356000  1.0  -0.5636
  O  O355  1  0.405100  0.427500  0.748100  1.0  -0.5954
  O  O356  1  0.340620  0.318000  0.726640  1.0  -0.6799
  O  O357  1  0.918790  0.055750  0.385560  1.0  -0.5841
  O  O358  1  0.854090  0.167000  0.356000  1.0  -0.5636
  O  O359  1  0.905100  0.927500  0.748100  1.0  -0.5954
  O  O360  1  0.840620  0.818000  0.726640  1.0  -0.6808
