# generated using pymatgen
data_InP2(HO3)2
_symmetry_space_group_name_H-M   'P 1'
_cell_length_a   9.14050000
_cell_length_b   9.19840000
_cell_length_c   9.61200000
_cell_angle_alpha   90.00000000
_cell_angle_beta   115.99500000
_cell_angle_gamma   90.00000000
_symmetry_Int_Tables_number   1
_chemical_formula_structural   InP2(HO3)2
_chemical_formula_sum   'In4 P8 H8 O24'
_cell_volume   726.39806071
_cell_formula_units_Z   4
loop_
 _symmetry_equiv_pos_site_id
 _symmetry_equiv_pos_as_xyz
  1  'x, y, z'
loop_
 _atom_site_type_symbol
 _atom_site_label
 _atom_site_symmetry_multiplicity
 _atom_site_fract_x
 _atom_site_fract_y
 _atom_site_fract_z
 _atom_site_occupancy
 _atom_site_charge
  In  In1  1  0.250000  0.896640  0.250000  1.0  1.6287
  In  In2  1  0.750000  0.103360  0.750000  1.0  1.6292
  In  In3  1  0.750000  0.602030  0.250000  1.0  1.629
  In  In4  1  0.250000  0.397970  0.750000  1.0  1.6291
  P  P5  1  0.846090  0.830970  0.024620  1.0  1.6365
  P  P6  1  0.676890  0.400900  0.923430  1.0  1.6164
  P  P7  1  0.653910  0.830970  0.475380  1.0  1.6356
  P  P8  1  0.823110  0.400900  0.576570  1.0  1.6141
  P  P9  1  0.153910  0.169030  0.975380  1.0  1.6363
  P  P10  1  0.323110  0.599100  0.076570  1.0  1.6166
  P  P11  1  0.346090  0.169030  0.524620  1.0  1.637
  P  P12  1  0.176890  0.599100  0.423430  1.0  1.6154
  H  H13  1  0.905000  0.728000  0.949000  1.0  -0.0813
  H  H14  1  0.757000  0.509000  0.884000  1.0  -0.0878
  H  H15  1  0.595000  0.728000  0.551000  1.0  -0.0822
  H  H16  1  0.743000  0.509000  0.616000  1.0  -0.087
  H  H17  1  0.095000  0.272000  0.051000  1.0  -0.0825
  H  H18  1  0.243000  0.491000  0.116000  1.0  -0.0875
  H  H19  1  0.405000  0.272000  0.449000  1.0  -0.0812
  H  H20  1  0.257000  0.491000  0.384000  1.0  -0.0872
  O  O21  1  0.733000  0.758600  0.082400  1.0  -0.7829
  O  O22  1  0.502800  0.412200  0.804900  1.0  -0.8276
  O  O23  1  0.703300  0.426500  0.088300  1.0  -0.7623
  O  O24  1  0.991500  0.907100  0.147300  1.0  -0.7775
  O  O25  1  0.739800  0.932700  0.895300  1.0  -0.7678
  O  O26  1  0.758800  0.258100  0.917800  1.0  -0.7925
  O  O27  1  0.767000  0.758600  0.417600  1.0  -0.783
  O  O28  1  0.997200  0.412200  0.695100  1.0  -0.8269
  O  O29  1  0.796700  0.426500  0.411700  1.0  -0.7626
  O  O30  1  0.508500  0.907100  0.352700  1.0  -0.7763
  O  O31  1  0.760200  0.932700  0.604700  1.0  -0.7703
  O  O32  1  0.741200  0.258100  0.582200  1.0  -0.7939
  O  O33  1  0.267000  0.241400  0.917600  1.0  -0.7833
  O  O34  1  0.497200  0.587800  0.195100  1.0  -0.8271
  O  O35  1  0.296700  0.573500  0.911700  1.0  -0.7615
  O  O36  1  0.008500  0.092900  0.852700  1.0  -0.777
  O  O37  1  0.260200  0.067300  0.104700  1.0  -0.7708
  O  O38  1  0.241200  0.741900  0.082200  1.0  -0.7936
  O  O39  1  0.233000  0.241400  0.582400  1.0  -0.7823
  O  O40  1  0.002800  0.587800  0.304900  1.0  -0.8277
  O  O41  1  0.203300  0.573500  0.588300  1.0  -0.761
  O  O42  1  0.491500  0.092900  0.647300  1.0  -0.7788
  O  O43  1  0.239800  0.067300  0.395300  1.0  -0.7683
  O  O44  1  0.258800  0.741900  0.417800  1.0  -0.7921
