# generated using pymatgen
data_Fe3B3P6HO26
_symmetry_space_group_name_H-M   'P 1'
_cell_length_a   17.80230000
_cell_length_b   16.10370000
_cell_length_c   19.12320000
_cell_angle_alpha   90.00000000
_cell_angle_beta   90.00000000
_cell_angle_gamma   90.00000000
_symmetry_Int_Tables_number   1
_chemical_formula_structural   Fe3B3P6HO26
_chemical_formula_sum   'Fe24 B24 P48 H8 O208'
_cell_volume   5482.29440479
_cell_formula_units_Z   8
loop_
 _symmetry_equiv_pos_site_id
 _symmetry_equiv_pos_as_xyz
  1  'x, y, z'
loop_
 _atom_site_type_symbol
 _atom_site_label
 _atom_site_symmetry_multiplicity
 _atom_site_fract_x
 _atom_site_fract_y
 _atom_site_fract_z
 _atom_site_occupancy
 _atom_site_charge
  Fe  Fe1  1  0.233570  0.664960  0.542410  1.0  1.2573
  Fe  Fe2  1  0.457780  0.835650  0.551210  1.0  1.2302
  Fe  Fe3  1  0.946040  0.756010  0.706770  1.0  1.2021
  Fe  Fe4  1  0.266430  0.335040  0.042410  1.0  1.2582
  Fe  Fe5  1  0.042220  0.164350  0.051210  1.0  1.2323
  Fe  Fe6  1  0.553960  0.243990  0.206770  1.0  1.2007
  Fe  Fe7  1  0.766430  0.164960  0.957590  1.0  1.2558
  Fe  Fe8  1  0.542220  0.335650  0.948790  1.0  1.2321
  Fe  Fe9  1  0.053960  0.256010  0.793230  1.0  1.2005
  Fe  Fe10  1  0.733570  0.835040  0.457590  1.0  1.2593
  Fe  Fe11  1  0.957780  0.664350  0.448790  1.0  1.2266
  Fe  Fe12  1  0.446040  0.743990  0.293230  1.0  1.2013
  Fe  Fe13  1  0.766430  0.335040  0.457590  1.0  1.2581
  Fe  Fe14  1  0.542220  0.164350  0.448790  1.0  1.2309
  Fe  Fe15  1  0.053960  0.243990  0.293230  1.0  1.2001
  Fe  Fe16  1  0.733570  0.664960  0.957590  1.0  1.257
  Fe  Fe17  1  0.957780  0.835650  0.948790  1.0  1.2283
  Fe  Fe18  1  0.446040  0.756010  0.793230  1.0  1.2017
  Fe  Fe19  1  0.233570  0.835040  0.042410  1.0  1.2593
  Fe  Fe20  1  0.457780  0.664350  0.051210  1.0  1.2286
  Fe  Fe21  1  0.946040  0.743990  0.206770  1.0  1.2025
  Fe  Fe22  1  0.266430  0.164960  0.542410  1.0  1.2561
  Fe  Fe23  1  0.042220  0.335650  0.551210  1.0  1.234
  Fe  Fe24  1  0.553960  0.256010  0.706770  1.0  1.2005
  B  B25  1  0.239600  0.837900  0.612200  1.0  0.8189
  B  B26  1  0.238900  0.835300  0.477300  1.0  0.8321
  B  B27  1  0.095400  0.766100  0.786170  1.0  0.8609
  B  B28  1  0.260400  0.162100  0.112200  1.0  0.8206
  B  B29  1  0.261100  0.164700  0.977300  1.0  0.8317
  B  B30  1  0.404600  0.233900  0.286170  1.0  0.8614
  B  B31  1  0.760400  0.337900  0.887800  1.0  0.8175
  B  B32  1  0.761100  0.335300  0.022700  1.0  0.8324
  B  B33  1  0.904600  0.266100  0.713830  1.0  0.8616
  B  B34  1  0.739600  0.662100  0.387800  1.0  0.8192
  B  B35  1  0.738900  0.664700  0.522700  1.0  0.8326
  B  B36  1  0.595400  0.733900  0.213830  1.0  0.8605
  B  B37  1  0.760400  0.162100  0.387800  1.0  0.8186
  B  B38  1  0.761100  0.164700  0.522700  1.0  0.8332
  B  B39  1  0.904600  0.233900  0.213830  1.0  0.8614
  B  B40  1  0.739600  0.837900  0.887800  1.0  0.8177
  B  B41  1  0.738900  0.835300  0.022700  1.0  0.8328
  B  B42  1  0.595400  0.766100  0.713830  1.0  0.8607
  B  B43  1  0.239600  0.662100  0.112200  1.0  0.8209
  B  B44  1  0.238900  0.664700  0.977300  1.0  0.8332
  B  B45  1  0.095400  0.733900  0.286170  1.0  0.8607
  B  B46  1  0.260400  0.337900  0.612200  1.0  0.8192
  B  B47  1  0.261100  0.335300  0.477300  1.0  0.8321
  B  B48  1  0.404600  0.266100  0.786170  1.0  0.8617
  P  P49  1  0.116400  0.759240  0.650080  1.0  1.8126
  P  P50  1  0.304460  0.958960  0.541810  1.0  1.9311
  P  P51  1  0.341670  0.727650  0.658930  1.0  1.7869
  P  P52  1  0.352580  0.733920  0.435090  1.0  1.8808
  P  P53  1  0.011990  0.907110  0.794960  1.0  1.8519
  P  P54  1  0.126350  0.751420  0.927060  1.0  1.7758
  P  P55  1  0.383600  0.240760  0.150080  1.0  1.8119
  P  P56  1  0.195540  0.041040  0.041810  1.0  1.9303
  P  P57  1  0.158330  0.272350  0.158930  1.0  1.7852
  P  P58  1  0.147420  0.266080  0.935090  1.0  1.8791
  P  P59  1  0.488010  0.092890  0.294960  1.0  1.8518
  P  P60  1  0.373650  0.248580  0.427060  1.0  1.7767
  P  P61  1  0.883600  0.259240  0.849920  1.0  1.812
  P  P62  1  0.695540  0.458960  0.958190  1.0  1.9299
  P  P63  1  0.658330  0.227650  0.841070  1.0  1.7847
  P  P64  1  0.647420  0.233920  0.064910  1.0  1.8818
  P  P65  1  0.988010  0.407110  0.705040  1.0  1.8515
  P  P66  1  0.873650  0.251420  0.572940  1.0  1.7772
  P  P67  1  0.616400  0.740760  0.349920  1.0  1.812
  P  P68  1  0.804460  0.541040  0.458190  1.0  1.9312
  P  P69  1  0.841670  0.772350  0.341070  1.0  1.7842
  P  P70  1  0.852580  0.766080  0.564910  1.0  1.8835
  P  P71  1  0.511990  0.592890  0.205040  1.0  1.8517
  P  P72  1  0.626350  0.748580  0.072940  1.0  1.7758
  P  P73  1  0.883600  0.240760  0.349920  1.0  1.8116
  P  P74  1  0.695540  0.041040  0.458190  1.0  1.9306
  P  P75  1  0.658330  0.272350  0.341070  1.0  1.7841
  P  P76  1  0.647420  0.266080  0.564910  1.0  1.8817
  P  P77  1  0.988010  0.092890  0.205040  1.0  1.8515
  P  P78  1  0.873650  0.248580  0.072940  1.0  1.7764
  P  P79  1  0.616400  0.759240  0.849920  1.0  1.812
  P  P80  1  0.804460  0.958960  0.958190  1.0  1.931
  P  P81  1  0.841670  0.727650  0.841070  1.0  1.7848
  P  P82  1  0.852580  0.733920  0.064910  1.0  1.8834
  P  P83  1  0.511990  0.907110  0.705040  1.0  1.8517
  P  P84  1  0.626350  0.751420  0.572940  1.0  1.7758
  P  P85  1  0.116400  0.740760  0.150080  1.0  1.8125
  P  P86  1  0.304460  0.541040  0.041810  1.0  1.9311
  P  P87  1  0.341670  0.772350  0.158930  1.0  1.7852
  P  P88  1  0.352580  0.766080  0.935090  1.0  1.8812
  P  P89  1  0.011990  0.592890  0.294960  1.0  1.8519
  P  P90  1  0.126350  0.748580  0.427060  1.0  1.7757
  P  P91  1  0.383600  0.259240  0.650080  1.0  1.8124
  P  P92  1  0.195540  0.458960  0.541810  1.0  1.9299
  P  P93  1  0.158330  0.227650  0.658930  1.0  1.7869
  P  P94  1  0.147420  0.233920  0.435090  1.0  1.879
  P  P95  1  0.488010  0.407110  0.794960  1.0  1.8516
  P  P96  1  0.373650  0.251420  0.927060  1.0  1.777
  H  H97  1  0.002000  0.726000  0.818000  1.0  0.4095
  H  H98  1  0.498000  0.274000  0.318000  1.0  0.408
  H  H99  1  0.998000  0.226000  0.682000  1.0  0.4093
  H  H100  1  0.502000  0.774000  0.182000  1.0  0.4088
  H  H101  1  0.998000  0.274000  0.182000  1.0  0.4083
  H  H102  1  0.502000  0.726000  0.682000  1.0  0.4094
  H  H103  1  0.002000  0.774000  0.318000  1.0  0.4086
  H  H104  1  0.498000  0.226000  0.818000  1.0  0.4093
  O  O105  1  0.033180  0.778020  0.645740  1.0  -0.7996
  O  O106  1  0.141400  0.689670  0.601980  1.0  -0.8215
  O  O107  1  0.136830  0.734070  0.726220  1.0  -0.4532
  O  O108  1  0.159940  0.840140  0.631440  1.0  -0.4537
  O  O109  1  0.296510  0.050810  0.542980  1.0  -0.9074
  O  O110  1  0.385100  0.931070  0.535850  1.0  -0.8309
  O  O111  1  0.265610  0.923860  0.608440  1.0  -0.4424
  O  O112  1  0.256860  0.924270  0.479960  1.0  -0.4774
  O  O113  1  0.302520  0.654770  0.623750  1.0  -0.7505
  O  O114  1  0.407850  0.758820  0.615660  1.0  -0.8502
  O  O115  1  0.368470  0.703910  0.731930  1.0  -0.7656
  O  O116  1  0.282790  0.798340  0.668440  1.0  -0.5096
  O  O117  1  0.418380  0.777530  0.469250  1.0  -0.8509
  O  O118  1  0.374640  0.703330  0.362200  1.0  -0.7598
  O  O119  1  0.324110  0.660600  0.478940  1.0  -0.7335
  O  O120  1  0.286750  0.796850  0.423490  1.0  -0.586
  O  O121  1  0.025660  0.994910  0.771160  1.0  -0.5993
  O  O122  1  0.997890  0.903340  0.873630  1.0  -0.83
  O  O123  1  0.947830  0.866060  0.753190  1.0  -0.774
  O  O124  1  0.085250  0.856170  0.779860  1.0  -0.5458
  O  O125  1  0.169040  0.823960  0.957570  1.0  -0.8028
  O  O126  1  0.043050  0.752970  0.942600  1.0  -0.8106
  O  O127  1  0.140420  0.746330  0.847090  1.0  -0.5872
  O  O128  1  0.159910  0.668930  0.955730  1.0  -0.479
  O  O129  1  0.251460  0.794190  0.544940  1.0  -0.4699
  O  O130  1  0.022150  0.722440  0.787130  1.0  -0.7573
  O  O131  1  0.466820  0.221980  0.145740  1.0  -0.7996
  O  O132  1  0.358600  0.310330  0.101980  1.0  -0.8206
  O  O133  1  0.363170  0.265930  0.226220  1.0  -0.4519
  O  O134  1  0.340060  0.159860  0.131440  1.0  -0.4568
  O  O135  1  0.203490  0.949190  0.042980  1.0  -0.9073
  O  O136  1  0.114900  0.068930  0.035850  1.0  -0.831
  O  O137  1  0.234390  0.076140  0.108440  1.0  -0.4443
  O  O138  1  0.243140  0.075730  0.979960  1.0  -0.4782
  O  O139  1  0.197480  0.345230  0.123750  1.0  -0.7507
  O  O140  1  0.092150  0.241180  0.115660  1.0  -0.8498
  O  O141  1  0.131530  0.296090  0.231930  1.0  -0.7651
  O  O142  1  0.217210  0.201660  0.168440  1.0  -0.5094
  O  O143  1  0.081620  0.222470  0.969250  1.0  -0.8509
  O  O144  1  0.125360  0.296670  0.862200  1.0  -0.7592
  O  O145  1  0.175890  0.339400  0.978940  1.0  -0.7349
  O  O146  1  0.213250  0.203150  0.923490  1.0  -0.5861
  O  O147  1  0.474340  0.005090  0.271160  1.0  -0.6004
  O  O148  1  0.502110  0.096660  0.373630  1.0  -0.8305
  O  O149  1  0.552170  0.133940  0.253190  1.0  -0.7753
  O  O150  1  0.414750  0.143830  0.279860  1.0  -0.5449
  O  O151  1  0.330960  0.176040  0.457570  1.0  -0.8023
  O  O152  1  0.456950  0.247030  0.442600  1.0  -0.8104
  O  O153  1  0.359580  0.253670  0.347090  1.0  -0.5859
  O  O154  1  0.340090  0.331070  0.455730  1.0  -0.479
  O  O155  1  0.248540  0.205810  0.044940  1.0  -0.4705
  O  O156  1  0.477850  0.277560  0.287130  1.0  -0.7553
  O  O157  1  0.966820  0.278020  0.854260  1.0  -0.7995
  O  O158  1  0.858600  0.189670  0.898020  1.0  -0.8215
  O  O159  1  0.863170  0.234070  0.773780  1.0  -0.4524
  O  O160  1  0.840060  0.340140  0.868560  1.0  -0.4568
  O  O161  1  0.703490  0.550810  0.957020  1.0  -0.9076
  O  O162  1  0.614900  0.431070  0.964150  1.0  -0.8299
  O  O163  1  0.734390  0.423860  0.891560  1.0  -0.4437
  O  O164  1  0.743140  0.424270  0.020040  1.0  -0.4768
  O  O165  1  0.697480  0.154770  0.876250  1.0  -0.7527
  O  O166  1  0.592150  0.258820  0.884340  1.0  -0.8501
  O  O167  1  0.631530  0.203910  0.768070  1.0  -0.7647
  O  O168  1  0.717210  0.298340  0.831560  1.0  -0.5088
  O  O169  1  0.581620  0.277530  0.030750  1.0  -0.8518
  O  O170  1  0.625360  0.203330  0.137800  1.0  -0.758
  O  O171  1  0.675890  0.160600  0.021060  1.0  -0.7339
  O  O172  1  0.713250  0.296850  0.076510  1.0  -0.5852
  O  O173  1  0.974340  0.494910  0.728840  1.0  -0.6
  O  O174  1  0.002110  0.403340  0.626370  1.0  -0.8297
  O  O175  1  0.052170  0.366060  0.746810  1.0  -0.7755
  O  O176  1  0.914750  0.356170  0.720140  1.0  -0.5444
  O  O177  1  0.830960  0.323960  0.542430  1.0  -0.8033
  O  O178  1  0.956950  0.252970  0.557400  1.0  -0.8089
  O  O179  1  0.859580  0.246330  0.652910  1.0  -0.5851
  O  O180  1  0.840090  0.168930  0.544270  1.0  -0.4796
  O  O181  1  0.748540  0.294190  0.955060  1.0  -0.471
  O  O182  1  0.977850  0.222440  0.712870  1.0  -0.7524
  O  O183  1  0.533180  0.721980  0.354260  1.0  -0.7991
  O  O184  1  0.641400  0.810330  0.398020  1.0  -0.8219
  O  O185  1  0.636830  0.765930  0.273780  1.0  -0.4538
  O  O186  1  0.659940  0.659860  0.368560  1.0  -0.4537
  O  O187  1  0.796510  0.449190  0.457020  1.0  -0.907
  O  O188  1  0.885100  0.568930  0.464150  1.0  -0.8333
  O  O189  1  0.765610  0.576140  0.391560  1.0  -0.4442
  O  O190  1  0.756860  0.575730  0.520040  1.0  -0.4818
  O  O191  1  0.802520  0.845230  0.376250  1.0  -0.7527
  O  O192  1  0.907850  0.741180  0.384340  1.0  -0.8494
  O  O193  1  0.868470  0.796090  0.268070  1.0  -0.7659
  O  O194  1  0.782790  0.701660  0.331560  1.0  -0.5084
  O  O195  1  0.918380  0.722470  0.530750  1.0  -0.8514
  O  O196  1  0.874640  0.796670  0.637800  1.0  -0.7587
  O  O197  1  0.824110  0.839400  0.521060  1.0  -0.7335
  O  O198  1  0.786750  0.703150  0.576510  1.0  -0.5848
  O  O199  1  0.525660  0.505090  0.228840  1.0  -0.601
  O  O200  1  0.497890  0.596660  0.126370  1.0  -0.831
  O  O201  1  0.447830  0.633940  0.246810  1.0  -0.7742
  O  O202  1  0.585250  0.643830  0.220140  1.0  -0.5472
  O  O203  1  0.669040  0.676040  0.042430  1.0  -0.8027
  O  O204  1  0.543050  0.747030  0.057400  1.0  -0.8105
  O  O205  1  0.640420  0.753670  0.152910  1.0  -0.587
  O  O206  1  0.659910  0.831070  0.044270  1.0  -0.4781
  O  O207  1  0.751460  0.705810  0.455060  1.0  -0.4697
  O  O208  1  0.522150  0.777560  0.212870  1.0  -0.7522
  O  O209  1  0.966820  0.221980  0.354260  1.0  -0.7992
  O  O210  1  0.858600  0.310330  0.398020  1.0  -0.8205
  O  O211  1  0.863170  0.265930  0.273780  1.0  -0.4524
  O  O212  1  0.840060  0.159860  0.368560  1.0  -0.4563
  O  O213  1  0.703490  0.949190  0.457020  1.0  -0.9068
  O  O214  1  0.614900  0.068930  0.464150  1.0  -0.8304
  O  O215  1  0.734390  0.076140  0.391560  1.0  -0.4445
  O  O216  1  0.743140  0.075730  0.520040  1.0  -0.4801
  O  O217  1  0.697480  0.345230  0.376250  1.0  -0.753
  O  O218  1  0.592150  0.241180  0.384340  1.0  -0.8497
  O  O219  1  0.631530  0.296090  0.268070  1.0  -0.7651
  O  O220  1  0.717210  0.201660  0.331560  1.0  -0.5085
  O  O221  1  0.581620  0.222470  0.530750  1.0  -0.8505
  O  O222  1  0.625360  0.296670  0.637800  1.0  -0.7575
  O  O223  1  0.675890  0.339400  0.521060  1.0  -0.7342
  O  O224  1  0.713250  0.203150  0.576510  1.0  -0.5854
  O  O225  1  0.974340  0.005090  0.228840  1.0  -0.5978
  O  O226  1  0.002110  0.096660  0.126370  1.0  -0.8299
  O  O227  1  0.052170  0.133940  0.246810  1.0  -0.7756
  O  O228  1  0.914750  0.143830  0.220140  1.0  -0.5456
  O  O229  1  0.830960  0.176040  0.042430  1.0  -0.8025
  O  O230  1  0.956950  0.247030  0.057400  1.0  -0.8092
  O  O231  1  0.859580  0.253670  0.152910  1.0  -0.5855
  O  O232  1  0.840090  0.331070  0.044270  1.0  -0.4781
  O  O233  1  0.748540  0.205810  0.455060  1.0  -0.4706
  O  O234  1  0.977850  0.277560  0.212870  1.0  -0.752
  O  O235  1  0.533180  0.778020  0.854260  1.0  -0.7997
  O  O236  1  0.641400  0.689670  0.898020  1.0  -0.8222
  O  O237  1  0.636830  0.734070  0.773780  1.0  -0.4539
  O  O238  1  0.659940  0.840140  0.868560  1.0  -0.4539
  O  O239  1  0.796510  0.050810  0.957020  1.0  -0.9079
  O  O240  1  0.885100  0.931070  0.964150  1.0  -0.8307
  O  O241  1  0.765610  0.923860  0.891560  1.0  -0.4434
  O  O242  1  0.756860  0.924270  0.020040  1.0  -0.4787
  O  O243  1  0.802520  0.654770  0.876250  1.0  -0.7521
  O  O244  1  0.907850  0.758820  0.884340  1.0  -0.8497
  O  O245  1  0.868470  0.703910  0.768070  1.0  -0.7649
  O  O246  1  0.782790  0.798340  0.831560  1.0  -0.5086
  O  O247  1  0.918380  0.777530  0.030750  1.0  -0.851
  O  O248  1  0.874640  0.703330  0.137800  1.0  -0.7588
  O  O249  1  0.824110  0.660600  0.021060  1.0  -0.7334
  O  O250  1  0.786750  0.796850  0.076510  1.0  -0.5845
  O  O251  1  0.525660  0.994910  0.728840  1.0  -0.5963
  O  O252  1  0.497890  0.903340  0.626370  1.0  -0.8306
  O  O253  1  0.447830  0.866060  0.746810  1.0  -0.7737
  O  O254  1  0.585250  0.856170  0.720140  1.0  -0.5463
  O  O255  1  0.669040  0.823960  0.542430  1.0  -0.8036
  O  O256  1  0.543050  0.752970  0.557400  1.0  -0.8104
  O  O257  1  0.640420  0.746330  0.652910  1.0  -0.5866
  O  O258  1  0.659910  0.668930  0.544270  1.0  -0.4787
  O  O259  1  0.751460  0.794190  0.955060  1.0  -0.4701
  O  O260  1  0.522150  0.722440  0.712870  1.0  -0.7529
  O  O261  1  0.033180  0.721980  0.145740  1.0  -0.7999
  O  O262  1  0.141400  0.810330  0.101980  1.0  -0.8214
  O  O263  1  0.136830  0.765930  0.226220  1.0  -0.4535
  O  O264  1  0.159940  0.659860  0.131440  1.0  -0.4539
  O  O265  1  0.296510  0.449190  0.042980  1.0  -0.9067
  O  O266  1  0.385100  0.568930  0.035850  1.0  -0.8338
  O  O267  1  0.265610  0.576140  0.108440  1.0  -0.4445
  O  O268  1  0.256860  0.575730  0.979960  1.0  -0.4792
  O  O269  1  0.302520  0.845230  0.123750  1.0  -0.7505
  O  O270  1  0.407850  0.741180  0.115660  1.0  -0.8494
  O  O271  1  0.368470  0.796090  0.231930  1.0  -0.7661
  O  O272  1  0.282790  0.701660  0.168440  1.0  -0.5095
  O  O273  1  0.418380  0.722470  0.969250  1.0  -0.8505
  O  O274  1  0.374640  0.796670  0.862200  1.0  -0.7603
  O  O275  1  0.324110  0.839400  0.978940  1.0  -0.7344
  O  O276  1  0.286750  0.703150  0.923490  1.0  -0.5862
  O  O277  1  0.025660  0.505090  0.271160  1.0  -0.6003
  O  O278  1  0.997890  0.596660  0.373630  1.0  -0.8326
  O  O279  1  0.947830  0.633940  0.253190  1.0  -0.773
  O  O280  1  0.085250  0.643830  0.279860  1.0  -0.5464
  O  O281  1  0.169040  0.676040  0.457570  1.0  -0.8024
  O  O282  1  0.043050  0.747030  0.442600  1.0  -0.8117
  O  O283  1  0.140420  0.753670  0.347090  1.0  -0.5873
  O  O284  1  0.159910  0.831070  0.455730  1.0  -0.4781
  O  O285  1  0.251460  0.705810  0.044940  1.0  -0.4696
  O  O286  1  0.022150  0.777560  0.287130  1.0  -0.7571
  O  O287  1  0.466820  0.278020  0.645740  1.0  -0.7994
  O  O288  1  0.358600  0.189670  0.601980  1.0  -0.8214
  O  O289  1  0.363170  0.234070  0.726220  1.0  -0.4518
  O  O290  1  0.340060  0.340140  0.631440  1.0  -0.457
  O  O291  1  0.203490  0.550810  0.542980  1.0  -0.9083
  O  O292  1  0.114900  0.431070  0.535850  1.0  -0.8301
  O  O293  1  0.234390  0.423860  0.608440  1.0  -0.4419
  O  O294  1  0.243140  0.424270  0.479960  1.0  -0.4768
  O  O295  1  0.197480  0.154770  0.623750  1.0  -0.7509
  O  O296  1  0.092150  0.258820  0.615660  1.0  -0.8506
  O  O297  1  0.131530  0.203910  0.731930  1.0  -0.7653
  O  O298  1  0.217210  0.298340  0.668440  1.0  -0.5095
  O  O299  1  0.081620  0.277530  0.469250  1.0  -0.8509
  O  O300  1  0.125360  0.203330  0.362200  1.0  -0.759
  O  O301  1  0.175890  0.160600  0.478940  1.0  -0.7342
  O  O302  1  0.213250  0.296850  0.423490  1.0  -0.5858
  O  O303  1  0.474340  0.494910  0.771160  1.0  -0.5995
  O  O304  1  0.502110  0.403340  0.873630  1.0  -0.8304
  O  O305  1  0.552170  0.366060  0.753190  1.0  -0.7767
  O  O306  1  0.414750  0.356170  0.779860  1.0  -0.5439
  O  O307  1  0.330960  0.323960  0.957570  1.0  -0.8026
  O  O308  1  0.456950  0.252970  0.942600  1.0  -0.8094
  O  O309  1  0.359580  0.246330  0.847090  1.0  -0.5857
  O  O310  1  0.340090  0.168930  0.955730  1.0  -0.4799
  O  O311  1  0.248540  0.294190  0.544940  1.0  -0.4708
  O  O312  1  0.477850  0.222440  0.787130  1.0  -0.7566
