# generated using pymatgen
data_NiH8C10SN2O7
_symmetry_space_group_name_H-M   'P 1'
_cell_length_a   7.41060000
_cell_length_b   20.06510000
_cell_length_c   31.18840000
_cell_angle_alpha   90.00000000
_cell_angle_beta   90.00000000
_cell_angle_gamma   90.00000000
_symmetry_Int_Tables_number   1
_chemical_formula_structural   NiH8C10SN2O7
_chemical_formula_sum   'Ni12 H96 C120 S12 N24 O84'
_cell_volume   4637.54136248
_cell_formula_units_Z   12
loop_
 _symmetry_equiv_pos_site_id
 _symmetry_equiv_pos_as_xyz
  1  'x, y, z'
loop_
 _atom_site_type_symbol
 _atom_site_label
 _atom_site_symmetry_multiplicity
 _atom_site_fract_x
 _atom_site_fract_y
 _atom_site_fract_z
 _atom_site_occupancy
 _atom_site_charge
  Ni  Ni1  1  0.277450  0.516350  0.568120  1.0  0.8983
  Ni  Ni2  1  0.578800  0.984450  0.234210  1.0  0.9393
  Ni  Ni3  1  0.144220  0.996690  0.379130  1.0  0.897
  Ni  Ni4  1  0.722550  0.483650  0.068120  1.0  0.8968
  Ni  Ni5  1  0.421200  0.015550  0.734210  1.0  0.9352
  Ni  Ni6  1  0.855780  0.003310  0.879130  1.0  0.8942
  Ni  Ni7  1  0.777450  0.983650  0.568120  1.0  0.8981
  Ni  Ni8  1  0.078800  0.515550  0.234210  1.0  0.9397
  Ni  Ni9  1  0.644220  0.503310  0.379130  1.0  0.897
  Ni  Ni10  1  0.222550  0.016350  0.068120  1.0  0.8969
  Ni  Ni11  1  0.921200  0.484450  0.734210  1.0  0.935
  Ni  Ni12  1  0.355780  0.496690  0.879130  1.0  0.8942
  H  H13  1  0.215200  0.852100  0.509800  1.0  0.156
  H  H14  1  0.103100  0.660800  0.442200  1.0  0.1483
  H  H15  1  0.580200  0.436100  0.291300  1.0  0.1095
  H  H16  1  0.647800  0.159300  0.350000  1.0  0.1567
  H  H17  1  0.630200  0.055700  0.320200  1.0  0.1087
  H  H18  1  0.343100  0.668000  0.575900  1.0  0.1103
  H  H19  1  0.692800  0.254400  0.375100  1.0  0.1624
  H  H20  1  0.516600  0.734300  0.217300  1.0  0.1594
  H  H21  1  0.634400  0.642800  0.191900  1.0  0.1587
  H  H22  1  0.142600  0.566900  0.481100  1.0  0.1117
  H  H23  1  0.490600  0.836700  0.248900  1.0  0.1098
  H  H24  1  0.565700  0.332200  0.260900  1.0  0.1523
  H  H25  1  0.690500  0.924500  0.149100  1.0  0.1042
  H  H26  1  0.707500  0.359800  0.401900  1.0  0.1135
  H  H27  1  0.709600  0.825100  0.112800  1.0  0.1581
  H  H28  1  0.189300  0.948100  0.470400  1.0  0.1235
  H  H29  1  0.117200  0.747400  0.403300  1.0  0.1594
  H  H30  1  0.298400  0.764900  0.539600  1.0  0.1581
  H  H31  1  0.567900  0.237000  0.234500  1.0  0.1558
  H  H32  1  0.082100  0.846200  0.367300  1.0  0.114
  H  H33  1  0.655500  0.735200  0.079200  1.0  0.1584
  H  H34  1  0.671600  0.545600  0.156500  1.0  0.0941
  H  H35  1  0.533900  0.131100  0.209200  1.0  0.1128
  H  H36  1  0.697200  0.633400  0.047900  1.0  0.1195
  H  H37  1  0.784800  0.147900  0.009800  1.0  0.1559
  H  H38  1  0.896900  0.339200  0.942200  1.0  0.1486
  H  H39  1  0.419800  0.563900  0.791300  1.0  0.1088
  H  H40  1  0.352200  0.840700  0.850000  1.0  0.1564
  H  H41  1  0.369800  0.944300  0.820200  1.0  0.1085
  H  H42  1  0.656900  0.332000  0.075900  1.0  0.1106
  H  H43  1  0.307200  0.745600  0.875100  1.0  0.1624
  H  H44  1  0.483400  0.265700  0.717300  1.0  0.1593
  H  H45  1  0.365600  0.357200  0.691900  1.0  0.1585
  H  H46  1  0.857400  0.433100  0.981100  1.0  0.1117
  H  H47  1  0.509400  0.163300  0.748900  1.0  0.1095
  H  H48  1  0.434300  0.667800  0.760900  1.0  0.1554
  H  H49  1  0.309500  0.075500  0.649100  1.0  0.1047
  H  H50  1  0.292500  0.640200  0.901900  1.0  0.1135
  H  H51  1  0.290400  0.174900  0.612800  1.0  0.1582
  H  H52  1  0.810700  0.051900  0.970400  1.0  0.1236
  H  H53  1  0.882800  0.252600  0.903300  1.0  0.1598
  H  H54  1  0.701600  0.235100  0.039600  1.0  0.1578
  H  H55  1  0.432100  0.763000  0.734500  1.0  0.1542
  H  H56  1  0.917900  0.153800  0.867300  1.0  0.114
  H  H57  1  0.344500  0.264800  0.579200  1.0  0.1568
  H  H58  1  0.328400  0.454400  0.656500  1.0  0.0948
  H  H59  1  0.466100  0.868900  0.709200  1.0  0.111
  H  H60  1  0.302800  0.366600  0.547900  1.0  0.1199
  H  H61  1  0.715200  0.647900  0.509800  1.0  0.1561
  H  H62  1  0.603100  0.839200  0.442200  1.0  0.149
  H  H63  1  0.080200  0.063900  0.291300  1.0  0.109
  H  H64  1  0.147800  0.340700  0.350000  1.0  0.1565
  H  H65  1  0.130200  0.444300  0.320200  1.0  0.1093
  H  H66  1  0.843100  0.832000  0.575900  1.0  0.1106
  H  H67  1  0.192800  0.245600  0.375100  1.0  0.1625
  H  H68  1  0.016600  0.765700  0.217300  1.0  0.1593
  H  H69  1  0.134400  0.857200  0.191900  1.0  0.1584
  H  H70  1  0.642600  0.933100  0.481100  1.0  0.1115
  H  H71  1  0.990600  0.663300  0.248900  1.0  0.1095
  H  H72  1  0.065700  0.167800  0.260900  1.0  0.1555
  H  H73  1  0.190500  0.575500  0.149100  1.0  0.1047
  H  H74  1  0.207500  0.140200  0.401900  1.0  0.1134
  H  H75  1  0.209600  0.674900  0.112800  1.0  0.1585
  H  H76  1  0.689300  0.551900  0.470400  1.0  0.1236
  H  H77  1  0.617200  0.752600  0.403300  1.0  0.1598
  H  H78  1  0.798400  0.735100  0.539600  1.0  0.1581
  H  H79  1  0.067900  0.263000  0.234500  1.0  0.153
  H  H80  1  0.582100  0.653800  0.367300  1.0  0.114
  H  H81  1  0.155500  0.764800  0.079200  1.0  0.1583
  H  H82  1  0.171600  0.954400  0.156500  1.0  0.0944
  H  H83  1  0.033900  0.368900  0.209200  1.0  0.1111
  H  H84  1  0.197200  0.866600  0.047900  1.0  0.1198
  H  H85  1  0.284800  0.352100  0.009800  1.0  0.1556
  H  H86  1  0.396900  0.160800  0.942200  1.0  0.147
  H  H87  1  0.919800  0.936100  0.791300  1.0  0.1093
  H  H88  1  0.852200  0.659300  0.850000  1.0  0.1566
  H  H89  1  0.869800  0.555700  0.820200  1.0  0.1081
  H  H90  1  0.156900  0.168000  0.075900  1.0  0.1104
  H  H91  1  0.807200  0.754400  0.875100  1.0  0.1623
  H  H92  1  0.983400  0.234300  0.717300  1.0  0.1594
  H  H93  1  0.865600  0.142800  0.691900  1.0  0.1588
  H  H94  1  0.357400  0.066900  0.981100  1.0  0.1121
  H  H95  1  0.009400  0.336700  0.748900  1.0  0.11
  H  H96  1  0.934300  0.832200  0.760900  1.0  0.152
  H  H97  1  0.809500  0.424500  0.649100  1.0  0.105
  H  H98  1  0.792500  0.859800  0.901900  1.0  0.1133
  H  H99  1  0.790400  0.325100  0.612800  1.0  0.158
  H  H100  1  0.310700  0.448100  0.970400  1.0  0.1234
  H  H101  1  0.382800  0.247400  0.903300  1.0  0.1595
  H  H102  1  0.201600  0.264900  0.039600  1.0  0.1578
  H  H103  1  0.932100  0.737000  0.734500  1.0  0.1561
  H  H104  1  0.417900  0.346200  0.867300  1.0  0.1142
  H  H105  1  0.844500  0.235200  0.579200  1.0  0.1572
  H  H106  1  0.828400  0.045600  0.656500  1.0  0.0944
  H  H107  1  0.966100  0.631100  0.709200  1.0  0.1123
  H  H108  1  0.802800  0.133400  0.547900  1.0  0.1197
  C  C109  1  0.191500  0.849470  0.480580  1.0  -0.1446
  C  C110  1  0.152200  0.663840  0.469570  1.0  -0.1724
  C  C111  1  0.602800  0.399120  0.308390  1.0  0.2123
  C  C112  1  0.627300  0.155260  0.320670  1.0  -0.1527
  C  C113  1  0.198600  0.724240  0.485360  1.0  0.1218
  C  C114  1  0.615000  0.092650  0.302550  1.0  0.2138
  C  C115  1  0.623500  0.280470  0.314520  1.0  0.1062
  C  C116  1  0.292100  0.666100  0.548720  1.0  0.2078
  C  C117  1  0.668500  0.290570  0.357340  1.0  -0.1608
  C  C118  1  0.552200  0.772300  0.202510  1.0  -0.1694
  C  C119  1  0.609500  0.211740  0.296050  1.0  0.1127
  C  C120  1  0.647200  0.642980  0.162220  1.0  -0.1649
  C  C121  1  0.171600  0.787710  0.461250  1.0  0.1021
  C  C122  1  0.619300  0.767450  0.161370  1.0  0.0938
  C  C123  1  0.176400  0.607370  0.493260  1.0  0.2015
  C  C124  1  0.538500  0.834340  0.221350  1.0  0.2119
  C  C125  1  0.592900  0.336510  0.289860  1.0  -0.1393
  C  C126  1  0.653400  0.885800  0.162910  1.0  0.2098
  C  C127  1  0.676800  0.354210  0.373210  1.0  0.2011
  C  C128  1  0.667800  0.825880  0.140950  1.0  -0.1667
  C  C129  1  0.176300  0.907280  0.456610  1.0  0.1843
  C  C130  1  0.642600  0.701980  0.139820  1.0  0.107
  C  C131  1  0.132200  0.787540  0.417770  1.0  -0.1672
  C  C132  1  0.268000  0.724650  0.526750  1.0  -0.1566
  C  C133  1  0.578100  0.201050  0.253230  1.0  -0.1735
  C  C134  1  0.115100  0.847500  0.396010  1.0  0.214
  C  C135  1  0.660200  0.697160  0.096140  1.0  -0.1697
  C  C136  1  0.670700  0.584650  0.140420  1.0  0.2243
  C  C137  1  0.561800  0.136650  0.238080  1.0  0.2165
  C  C138  1  0.684800  0.635220  0.077540  1.0  0.2242
  C  C139  1  0.808500  0.150530  0.980580  1.0  -0.1454
  C  C140  1  0.847800  0.336160  0.969570  1.0  -0.1716
  C  C141  1  0.397200  0.600880  0.808390  1.0  0.2084
  C  C142  1  0.372700  0.844740  0.820670  1.0  -0.1525
  C  C143  1  0.801400  0.275760  0.985360  1.0  0.1217
  C  C144  1  0.385000  0.907350  0.802550  1.0  0.2138
  C  C145  1  0.376500  0.719530  0.814520  1.0  0.1061
  C  C146  1  0.707900  0.333900  0.048720  1.0  0.2074
  C  C147  1  0.331500  0.709430  0.857340  1.0  -0.1617
  C  C148  1  0.447800  0.227700  0.702510  1.0  -0.1681
  C  C149  1  0.390500  0.788260  0.796050  1.0  0.1131
  C  C150  1  0.352800  0.357020  0.662220  1.0  -0.1647
  C  C151  1  0.828400  0.212290  0.961250  1.0  0.1018
  C  C152  1  0.380700  0.232550  0.661370  1.0  0.0941
  C  C153  1  0.823600  0.392630  0.993260  1.0  0.2024
  C  C154  1  0.461500  0.165660  0.721350  1.0  0.2122
  C  C155  1  0.407100  0.663490  0.789860  1.0  -0.1386
  C  C156  1  0.346600  0.114200  0.662910  1.0  0.2089
  C  C157  1  0.323200  0.645790  0.873210  1.0  0.1999
  C  C158  1  0.332200  0.174120  0.640950  1.0  -0.1674
  C  C159  1  0.823700  0.092720  0.956610  1.0  0.1854
  C  C160  1  0.357400  0.298020  0.639820  1.0  0.1069
  C  C161  1  0.867800  0.212460  0.917770  1.0  -0.1667
  C  C162  1  0.732000  0.275350  0.026750  1.0  -0.1578
  C  C163  1  0.421900  0.798950  0.753230  1.0  -0.1735
  C  C164  1  0.884900  0.152500  0.896010  1.0  0.2105
  C  C165  1  0.339800  0.302840  0.596140  1.0  -0.1703
  C  C166  1  0.329300  0.415350  0.640420  1.0  0.2239
  C  C167  1  0.438200  0.863350  0.738080  1.0  0.2164
  C  C168  1  0.315200  0.364780  0.577540  1.0  0.2264
  C  C169  1  0.691500  0.650530  0.480580  1.0  -0.1453
  C  C170  1  0.652200  0.836160  0.469570  1.0  -0.1719
  C  C171  1  0.102800  0.100880  0.308390  1.0  0.2099
  C  C172  1  0.127300  0.344740  0.320670  1.0  -0.152
  C  C173  1  0.698600  0.775760  0.485360  1.0  0.1217
  C  C174  1  0.115000  0.407350  0.302550  1.0  0.2136
  C  C175  1  0.123500  0.219530  0.314520  1.0  0.1061
  C  C176  1  0.792100  0.833900  0.548720  1.0  0.2078
  C  C177  1  0.168500  0.209430  0.357340  1.0  -0.1609
  C  C178  1  0.052200  0.727700  0.202510  1.0  -0.169
  C  C179  1  0.109500  0.288260  0.296050  1.0  0.113
  C  C180  1  0.147200  0.857020  0.162220  1.0  -0.1649
  C  C181  1  0.671600  0.712290  0.461250  1.0  0.1018
  C  C182  1  0.119300  0.732550  0.161370  1.0  0.0941
  C  C183  1  0.676400  0.892630  0.493260  1.0  0.2019
  C  C184  1  0.038500  0.665660  0.221350  1.0  0.2119
  C  C185  1  0.092900  0.163490  0.289860  1.0  -0.1391
  C  C186  1  0.153400  0.614200  0.162910  1.0  0.2095
  C  C187  1  0.176800  0.145790  0.373210  1.0  0.2009
  C  C188  1  0.167800  0.674120  0.140950  1.0  -0.167
  C  C189  1  0.676300  0.592720  0.456610  1.0  0.1846
  C  C190  1  0.142600  0.798020  0.139820  1.0  0.1072
  C  C191  1  0.632200  0.712460  0.417770  1.0  -0.1667
  C  C192  1  0.768000  0.775350  0.526750  1.0  -0.1572
  C  C193  1  0.078100  0.298950  0.253230  1.0  -0.1731
  C  C194  1  0.615100  0.652500  0.396010  1.0  0.2124
  C  C195  1  0.160200  0.802840  0.096140  1.0  -0.1701
  C  C196  1  0.170700  0.915350  0.140420  1.0  0.224
  C  C197  1  0.061800  0.363350  0.238080  1.0  0.2158
  C  C198  1  0.184800  0.864780  0.077540  1.0  0.2251
  C  C199  1  0.308500  0.349470  0.980580  1.0  -0.1445
  C  C200  1  0.347800  0.163840  0.969570  1.0  -0.172
  C  C201  1  0.897200  0.899120  0.808390  1.0  0.2084
  C  C202  1  0.872700  0.655260  0.820670  1.0  -0.1532
  C  C203  1  0.301400  0.224240  0.985360  1.0  0.1219
  C  C204  1  0.885000  0.592650  0.802550  1.0  0.2145
  C  C205  1  0.876500  0.780470  0.814520  1.0  0.1062
  C  C206  1  0.207900  0.166100  0.048720  1.0  0.2074
  C  C207  1  0.831500  0.790570  0.857340  1.0  -0.1618
  C  C208  1  0.947800  0.272300  0.702510  1.0  -0.1683
  C  C209  1  0.890500  0.711740  0.796050  1.0  0.1127
  C  C210  1  0.852800  0.142980  0.662220  1.0  -0.1651
  C  C211  1  0.328400  0.287710  0.961250  1.0  0.1021
  C  C212  1  0.880700  0.267450  0.661370  1.0  0.0939
  C  C213  1  0.323600  0.107370  0.993260  1.0  0.2016
  C  C214  1  0.961500  0.334340  0.721350  1.0  0.2122
  C  C215  1  0.907100  0.836510  0.789860  1.0  -0.1387
  C  C216  1  0.846600  0.385800  0.662910  1.0  0.2089
  C  C217  1  0.823200  0.854210  0.873210  1.0  0.202
  C  C218  1  0.832200  0.325880  0.640950  1.0  -0.1674
  C  C219  1  0.323700  0.407280  0.956610  1.0  0.1851
  C  C220  1  0.857400  0.201980  0.639820  1.0  0.1069
  C  C221  1  0.367800  0.287540  0.917770  1.0  -0.1673
  C  C222  1  0.232000  0.224650  0.026750  1.0  -0.1568
  C  C223  1  0.921900  0.701050  0.753230  1.0  -0.1736
  C  C224  1  0.384900  0.347500  0.896010  1.0  0.2126
  C  C225  1  0.839800  0.197160  0.596140  1.0  -0.1698
  C  C226  1  0.829300  0.084650  0.640420  1.0  0.2241
  C  C227  1  0.938200  0.636650  0.738080  1.0  0.2174
  C  C228  1  0.815200  0.135220  0.577540  1.0  0.2249
  S  S229  1  0.479780  0.916910  0.330820  1.0  1.6445
  S  S230  1  0.432130  0.594110  0.657160  1.0  1.6243
  S  S231  1  0.520220  0.083090  0.830820  1.0  1.6454
  S  S232  1  0.567870  0.405890  0.157160  1.0  1.6241
  S  S233  1  0.979780  0.583090  0.330820  1.0  1.6445
  S  S234  1  0.932130  0.905890  0.657160  1.0  1.6225
  S  S235  1  0.020220  0.416910  0.830820  1.0  1.6453
  S  S236  1  0.067870  0.094110  0.157160  1.0  1.6264
  S  S237  1  0.785580  0.389420  0.511930  1.0  1.7076
  S  S238  1  0.214420  0.610580  0.011930  1.0  1.7071
  S  S239  1  0.285580  0.110580  0.511930  1.0  1.7071
  S  S240  1  0.714420  0.889420  0.011930  1.0  1.7075
  N  N241  1  0.143300  0.906630  0.413940  1.0  -0.2581
  N  N242  1  0.643100  0.409000  0.349640  1.0  -0.2565
  N  N243  1  0.582800  0.082500  0.261470  1.0  -0.28
  N  N244  1  0.589300  0.891170  0.202770  1.0  -0.2769
  N  N245  1  0.246000  0.606580  0.533000  1.0  -0.2716
  N  N246  1  0.692000  0.578800  0.098790  1.0  -0.2774
  N  N247  1  0.856700  0.093370  0.913940  1.0  -0.2577
  N  N248  1  0.356900  0.591000  0.849640  1.0  -0.2548
  N  N249  1  0.417200  0.917500  0.761470  1.0  -0.2802
  N  N250  1  0.410700  0.108830  0.702770  1.0  -0.2756
  N  N251  1  0.754000  0.393420  0.033000  1.0  -0.2699
  N  N252  1  0.308000  0.421200  0.598790  1.0  -0.2778
  N  N253  1  0.643300  0.593370  0.413940  1.0  -0.2576
  N  N254  1  0.143100  0.091000  0.349640  1.0  -0.2548
  N  N255  1  0.082800  0.417500  0.261470  1.0  -0.2801
  N  N256  1  0.089300  0.608830  0.202770  1.0  -0.2759
  N  N257  1  0.746000  0.893420  0.533000  1.0  -0.2699
  N  N258  1  0.192000  0.921200  0.098790  1.0  -0.2776
  N  N259  1  0.356700  0.406630  0.913940  1.0  -0.2605
  N  N260  1  0.856900  0.909000  0.849640  1.0  -0.2568
  N  N261  1  0.917200  0.582500  0.761470  1.0  -0.2801
  N  N262  1  0.910700  0.391170  0.702770  1.0  -0.2784
  N  N263  1  0.254000  0.106580  0.033000  1.0  -0.2707
  N  N264  1  0.808000  0.078800  0.598790  1.0  -0.2774
  O  O265  1  0.591200  0.936590  0.293740  1.0  -0.7698
  O  O266  1  0.290700  0.567920  0.628420  1.0  -0.7496
  O  O267  1  0.306600  0.955290  0.329450  1.0  -0.7668
  O  O268  1  0.301900  0.979880  0.239320  1.0  -0.3069
  O  O269  1  0.552200  0.524630  0.560950  1.0  -0.3098
  O  O270  1  0.855800  0.983350  0.235180  1.0  -0.2925
  O  O271  1  0.007700  0.515410  0.579410  1.0  -0.2819
  O  O272  1  0.566900  0.030730  0.174040  1.0  -0.3421
  O  O273  1  0.923500  0.967410  0.343910  1.0  -0.257
  O  O274  1  0.249600  0.465690  0.510410  1.0  -0.3379
  O  O275  1  0.377100  0.025210  0.410730  1.0  -0.2636
  O  O276  1  0.970900  0.034610  0.424940  1.0  -0.3042
  O  O277  1  0.409300  0.566740  0.700190  1.0  -0.6016
  O  O278  1  0.443500  0.845730  0.328890  1.0  -0.638
  O  O279  1  0.579000  0.933050  0.370320  1.0  -0.6443
  O  O280  1  0.610600  0.574100  0.641090  1.0  -0.6306
  O  O281  1  0.417300  0.666090  0.659450  1.0  -0.6437
  O  O282  1  0.408800  0.063410  0.793740  1.0  -0.7693
  O  O283  1  0.709300  0.432080  0.128420  1.0  -0.7503
  O  O284  1  0.693400  0.044710  0.829450  1.0  -0.7678
  O  O285  1  0.698100  0.020120  0.739320  1.0  -0.306
  O  O286  1  0.447800  0.475370  0.060950  1.0  -0.3128
  O  O287  1  0.144200  0.016650  0.735180  1.0  -0.2955
  O  O288  1  0.992300  0.484590  0.079410  1.0  -0.2862
  O  O289  1  0.433100  0.969270  0.674040  1.0  -0.3423
  O  O290  1  0.076500  0.032590  0.843910  1.0  -0.2559
  O  O291  1  0.750400  0.534310  0.010410  1.0  -0.3372
  O  O292  1  0.622900  0.974790  0.910730  1.0  -0.2642
  O  O293  1  0.029100  0.965390  0.924940  1.0  -0.3013
  O  O294  1  0.590700  0.433260  0.200190  1.0  -0.6013
  O  O295  1  0.556500  0.154270  0.828890  1.0  -0.6405
  O  O296  1  0.421000  0.066950  0.870320  1.0  -0.6443
  O  O297  1  0.389400  0.425900  0.141090  1.0  -0.6276
  O  O298  1  0.582700  0.333910  0.159450  1.0  -0.6359
  O  O299  1  0.091200  0.563410  0.293740  1.0  -0.7703
  O  O300  1  0.790700  0.932080  0.628420  1.0  -0.7497
  O  O301  1  0.806600  0.544710  0.329450  1.0  -0.7677
  O  O302  1  0.801900  0.520120  0.239320  1.0  -0.307
  O  O303  1  0.052200  0.975370  0.560950  1.0  -0.3099
  O  O304  1  0.355800  0.516650  0.235180  1.0  -0.2978
  O  O305  1  0.507700  0.984590  0.579410  1.0  -0.2837
  O  O306  1  0.066900  0.469270  0.174040  1.0  -0.3426
  O  O307  1  0.423500  0.532590  0.343910  1.0  -0.2566
  O  O308  1  0.749600  0.034310  0.510410  1.0  -0.3366
  O  O309  1  0.877100  0.474790  0.410730  1.0  -0.2639
  O  O310  1  0.470900  0.465390  0.424940  1.0  -0.3026
  O  O311  1  0.909300  0.933260  0.700190  1.0  -0.6014
  O  O312  1  0.943500  0.654270  0.328890  1.0  -0.6406
  O  O313  1  0.079000  0.566950  0.370320  1.0  -0.6445
  O  O314  1  0.110600  0.925900  0.641090  1.0  -0.6296
  O  O315  1  0.917300  0.833910  0.659450  1.0  -0.6363
  O  O316  1  0.908800  0.436590  0.793740  1.0  -0.7687
  O  O317  1  0.209300  0.067920  0.128420  1.0  -0.7517
  O  O318  1  0.193400  0.455290  0.829450  1.0  -0.7671
  O  O319  1  0.198100  0.479880  0.739320  1.0  -0.3057
  O  O320  1  0.947800  0.024630  0.060950  1.0  -0.3126
  O  O321  1  0.644200  0.483350  0.735180  1.0  -0.2907
  O  O322  1  0.492300  0.015410  0.079410  1.0  -0.2831
  O  O323  1  0.933100  0.530730  0.674040  1.0  -0.342
  O  O324  1  0.576500  0.467410  0.843910  1.0  -0.2564
  O  O325  1  0.250400  0.965690  0.010410  1.0  -0.3385
  O  O326  1  0.122900  0.525210  0.910730  1.0  -0.264
  O  O327  1  0.529100  0.534610  0.924940  1.0  -0.3012
  O  O328  1  0.090700  0.066740  0.200190  1.0  -0.6014
  O  O329  1  0.056500  0.345730  0.828890  1.0  -0.6378
  O  O330  1  0.921000  0.433050  0.870320  1.0  -0.6441
  O  O331  1  0.889400  0.074100  0.141090  1.0  -0.6286
  O  O332  1  0.082700  0.166090  0.159450  1.0  -0.6437
  O  O333  1  0.803900  0.416060  0.555210  1.0  -0.6055
  O  O334  1  0.617800  0.419060  0.493960  1.0  -0.611
  O  O335  1  0.940200  0.410180  0.484510  1.0  -0.5986
  O  O336  1  0.768700  0.317970  0.513410  1.0  -0.5707
  O  O337  1  0.196100  0.583940  0.055210  1.0  -0.6055
  O  O338  1  0.382200  0.580940  0.993960  1.0  -0.6114
  O  O339  1  0.059800  0.589820  0.984510  1.0  -0.6002
  O  O340  1  0.231300  0.682030  0.013410  1.0  -0.5716
  O  O341  1  0.303900  0.083940  0.555210  1.0  -0.6053
  O  O342  1  0.117800  0.080940  0.493960  1.0  -0.6117
  O  O343  1  0.440200  0.089820  0.484510  1.0  -0.5984
  O  O344  1  0.268700  0.182030  0.513410  1.0  -0.5722
  O  O345  1  0.696100  0.916060  0.055210  1.0  -0.6058
  O  O346  1  0.882200  0.919060  0.993960  1.0  -0.6107
  O  O347  1  0.559800  0.910180  0.984510  1.0  -0.6
  O  O348  1  0.731300  0.817970  0.013410  1.0  -0.57
