# generated using pymatgen
data_Ga2Co(PO4)3
_symmetry_space_group_name_H-M   'P 1'
_cell_length_a   15.05780000
_cell_length_b   13.19700000
_cell_length_c   15.27270000
_cell_angle_alpha   90.00000000
_cell_angle_beta   112.19700000
_cell_angle_gamma   90.00000000
_symmetry_Int_Tables_number   1
_chemical_formula_structural   Ga2Co(PO4)3
_chemical_formula_sum   'Ga16 Co8 P24 O96'
_cell_volume   2810.03758036
_cell_formula_units_Z   8
loop_
 _symmetry_equiv_pos_site_id
 _symmetry_equiv_pos_as_xyz
  1  'x, y, z'
loop_
 _atom_site_type_symbol
 _atom_site_label
 _atom_site_symmetry_multiplicity
 _atom_site_fract_x
 _atom_site_fract_y
 _atom_site_fract_z
 _atom_site_occupancy
 _atom_site_charge
  Ga  Ga1  1  0.567380  0.105680  0.653820  1.0  1.7185
  Ga  Ga2  1  0.731580  0.873080  0.577300  1.0  1.6539
  Ga  Ga3  1  0.067380  0.605680  0.653820  1.0  1.7185
  Ga  Ga4  1  0.231580  0.373080  0.577300  1.0  1.6539
  Ga  Ga5  1  0.432620  0.105680  0.846180  1.0  1.7185
  Ga  Ga6  1  0.268420  0.873080  0.922700  1.0  1.6521
  Ga  Ga7  1  0.932620  0.605680  0.846180  1.0  1.7185
  Ga  Ga8  1  0.768420  0.373080  0.922700  1.0  1.6521
  Ga  Ga9  1  0.432620  0.894320  0.346180  1.0  1.7184
  Ga  Ga10  1  0.268420  0.126920  0.422700  1.0  1.652
  Ga  Ga11  1  0.932620  0.394320  0.346180  1.0  1.7184
  Ga  Ga12  1  0.768420  0.626920  0.422700  1.0  1.652
  Ga  Ga13  1  0.567380  0.894320  0.153820  1.0  1.7179
  Ga  Ga14  1  0.731580  0.126920  0.077300  1.0  1.6537
  Ga  Ga15  1  0.067380  0.394320  0.153820  1.0  1.7179
  Ga  Ga16  1  0.231580  0.626920  0.077300  1.0  1.6537
  Co  Co17  1  0.635320  0.190040  0.367670  1.0  0.993
  Co  Co18  1  0.135320  0.690040  0.367670  1.0  0.9928
  Co  Co19  1  0.364680  0.190040  0.132330  1.0  0.9947
  Co  Co20  1  0.864680  0.690040  0.132330  1.0  0.9945
  Co  Co21  1  0.364680  0.809960  0.632330  1.0  0.9938
  Co  Co22  1  0.864680  0.309960  0.632330  1.0  0.9938
  Co  Co23  1  0.635320  0.809960  0.867670  1.0  0.9921
  Co  Co24  1  0.135320  0.309960  0.867670  1.0  0.9921
  P  P25  1  0.571600  0.869400  0.657300  1.0  2.0079
  P  P26  1  0.731700  0.114400  0.575900  1.0  2.0275
  P  P27  1  0.636800  0.186900  0.864700  1.0  1.9082
  P  P28  1  0.071600  0.369400  0.657300  1.0  2.0079
  P  P29  1  0.231700  0.614400  0.575900  1.0  2.0275
  P  P30  1  0.136800  0.686900  0.864700  1.0  1.9102
  P  P31  1  0.428400  0.869400  0.842700  1.0  2.0107
  P  P32  1  0.268300  0.114400  0.924100  1.0  2.0257
  P  P33  1  0.363200  0.186900  0.635300  1.0  1.9095
  P  P34  1  0.928400  0.369400  0.842700  1.0  2.0107
  P  P35  1  0.768300  0.614400  0.924100  1.0  2.0257
  P  P36  1  0.863200  0.686900  0.635300  1.0  1.9113
  P  P37  1  0.428400  0.130600  0.342700  1.0  2.0073
  P  P38  1  0.268300  0.885600  0.424100  1.0  2.0183
  P  P39  1  0.363200  0.813100  0.135300  1.0  1.9098
  P  P40  1  0.928400  0.630600  0.342700  1.0  2.0073
  P  P41  1  0.768300  0.385600  0.424100  1.0  2.0183
  P  P42  1  0.863200  0.313100  0.135300  1.0  1.91
  P  P43  1  0.571600  0.130600  0.157300  1.0  2.0114
  P  P44  1  0.731700  0.885600  0.075900  1.0  2.0201
  P  P45  1  0.636800  0.813100  0.364700  1.0  1.9085
  P  P46  1  0.071600  0.630600  0.157300  1.0  2.0114
  P  P47  1  0.231700  0.385600  0.075900  1.0  2.0201
  P  P48  1  0.136800  0.313100  0.364700  1.0  1.9088
  O  O49  1  0.627000  0.828900  0.600200  1.0  -0.8375
  O  O50  1  0.715600  0.142300  0.952800  1.0  -0.8968
  O  O51  1  0.529500  0.973600  0.622700  1.0  -0.8833
  O  O52  1  0.712600  0.116900  0.470600  1.0  -0.8721
  O  O53  1  0.757200  0.006800  0.615100  1.0  -0.8758
  O  O54  1  0.817800  0.179900  0.629900  1.0  -0.8592
  O  O55  1  0.490500  0.794400  0.643500  1.0  -0.83
  O  O56  1  0.634900  0.121800  0.783100  1.0  -0.8783
  O  O57  1  0.659800  0.297400  0.851400  1.0  -0.7772
  O  O58  1  0.637900  0.875700  0.761600  1.0  -0.8409
  O  O59  1  0.540600  0.186900  0.876700  1.0  -0.9273
  O  O60  1  0.643700  0.154600  0.590700  1.0  -0.8286
  O  O61  1  0.127000  0.328900  0.600200  1.0  -0.8375
  O  O62  1  0.215600  0.642300  0.952800  1.0  -0.8968
  O  O63  1  0.029500  0.473600  0.622700  1.0  -0.8833
  O  O64  1  0.212600  0.616900  0.470600  1.0  -0.8721
  O  O65  1  0.257200  0.506800  0.615100  1.0  -0.8758
  O  O66  1  0.317800  0.679900  0.629900  1.0  -0.8591
  O  O67  1  0.990500  0.294400  0.643500  1.0  -0.83
  O  O68  1  0.134900  0.621800  0.783100  1.0  -0.8783
  O  O69  1  0.159800  0.797400  0.851400  1.0  -0.7772
  O  O70  1  0.137900  0.375700  0.761600  1.0  -0.8409
  O  O71  1  0.040600  0.686900  0.876700  1.0  -0.9273
  O  O72  1  0.143700  0.654600  0.590700  1.0  -0.8286
  O  O73  1  0.373000  0.828900  0.899800  1.0  -0.8383
  O  O74  1  0.284400  0.142300  0.547200  1.0  -0.8964
  O  O75  1  0.470500  0.973600  0.877300  1.0  -0.8828
  O  O76  1  0.287400  0.116900  0.029400  1.0  -0.875
  O  O77  1  0.242800  0.006800  0.884900  1.0  -0.8752
  O  O78  1  0.182200  0.179900  0.870100  1.0  -0.8585
  O  O79  1  0.509500  0.794400  0.856500  1.0  -0.83
  O  O80  1  0.365100  0.121800  0.716900  1.0  -0.8782
  O  O81  1  0.340200  0.297400  0.648600  1.0  -0.7774
  O  O82  1  0.362100  0.875700  0.738400  1.0  -0.8397
  O  O83  1  0.459400  0.186900  0.623300  1.0  -0.9272
  O  O84  1  0.356300  0.154600  0.909300  1.0  -0.8273
  O  O85  1  0.873000  0.328900  0.899800  1.0  -0.8383
  O  O86  1  0.784400  0.642300  0.547200  1.0  -0.8964
  O  O87  1  0.970500  0.473600  0.877300  1.0  -0.8828
  O  O88  1  0.787400  0.616900  0.029400  1.0  -0.875
  O  O89  1  0.742800  0.506800  0.884900  1.0  -0.8752
  O  O90  1  0.682200  0.679900  0.870100  1.0  -0.8586
  O  O91  1  0.009500  0.294400  0.856500  1.0  -0.83
  O  O92  1  0.865100  0.621800  0.716900  1.0  -0.8782
  O  O93  1  0.840200  0.797400  0.648600  1.0  -0.7774
  O  O94  1  0.862100  0.375700  0.738400  1.0  -0.8397
  O  O95  1  0.959400  0.686900  0.623300  1.0  -0.9272
  O  O96  1  0.856300  0.654600  0.909300  1.0  -0.8273
  O  O97  1  0.373000  0.171100  0.399800  1.0  -0.8387
  O  O98  1  0.284400  0.857700  0.047200  1.0  -0.8961
  O  O99  1  0.470500  0.026400  0.377300  1.0  -0.8832
  O  O100  1  0.287400  0.883100  0.529400  1.0  -0.8746
  O  O101  1  0.242800  0.993200  0.384900  1.0  -0.8751
  O  O102  1  0.182200  0.820100  0.370100  1.0  -0.8597
  O  O103  1  0.509500  0.205600  0.356500  1.0  -0.8311
  O  O104  1  0.365100  0.878200  0.216900  1.0  -0.8774
  O  O105  1  0.340200  0.702600  0.148600  1.0  -0.7781
  O  O106  1  0.362100  0.124300  0.238400  1.0  -0.8397
  O  O107  1  0.459400  0.813100  0.123300  1.0  -0.9237
  O  O108  1  0.356300  0.845400  0.409300  1.0  -0.8283
  O  O109  1  0.873000  0.671100  0.399800  1.0  -0.8387
  O  O110  1  0.784400  0.357700  0.047200  1.0  -0.8961
  O  O111  1  0.970500  0.526400  0.377300  1.0  -0.8832
  O  O112  1  0.787400  0.383100  0.529400  1.0  -0.8746
  O  O113  1  0.742800  0.493200  0.384900  1.0  -0.8751
  O  O114  1  0.682200  0.320100  0.370100  1.0  -0.8593
  O  O115  1  0.009500  0.705600  0.356500  1.0  -0.8311
  O  O116  1  0.865100  0.378200  0.216900  1.0  -0.8774
  O  O117  1  0.840200  0.202600  0.148600  1.0  -0.7781
  O  O118  1  0.862100  0.624300  0.238400  1.0  -0.8397
  O  O119  1  0.959400  0.313100  0.123300  1.0  -0.9237
  O  O120  1  0.856300  0.345400  0.409300  1.0  -0.8283
  O  O121  1  0.627000  0.171100  0.100200  1.0  -0.8382
  O  O122  1  0.715600  0.857700  0.452800  1.0  -0.8965
  O  O123  1  0.529500  0.026400  0.122700  1.0  -0.8836
  O  O124  1  0.712600  0.883100  0.970600  1.0  -0.8717
  O  O125  1  0.757200  0.993200  0.115100  1.0  -0.8761
  O  O126  1  0.817800  0.820100  0.129900  1.0  -0.8589
  O  O127  1  0.490500  0.205600  0.143500  1.0  -0.8307
  O  O128  1  0.634900  0.878200  0.283100  1.0  -0.8789
  O  O129  1  0.659800  0.702600  0.351400  1.0  -0.7783
  O  O130  1  0.637900  0.124300  0.261600  1.0  -0.8412
  O  O131  1  0.540600  0.813100  0.376700  1.0  -0.9235
  O  O132  1  0.643700  0.845400  0.090700  1.0  -0.829
  O  O133  1  0.127000  0.671100  0.100200  1.0  -0.8382
  O  O134  1  0.215600  0.357700  0.452800  1.0  -0.8965
  O  O135  1  0.029500  0.526400  0.122700  1.0  -0.8836
  O  O136  1  0.212600  0.383100  0.970600  1.0  -0.8717
  O  O137  1  0.257200  0.493200  0.115100  1.0  -0.8761
  O  O138  1  0.317800  0.320100  0.129900  1.0  -0.8591
  O  O139  1  0.990500  0.705600  0.143500  1.0  -0.8307
  O  O140  1  0.134900  0.378200  0.283100  1.0  -0.8789
  O  O141  1  0.159800  0.202600  0.351400  1.0  -0.7783
  O  O142  1  0.137900  0.624300  0.261600  1.0  -0.8412
  O  O143  1  0.040600  0.313100  0.376700  1.0  -0.9235
  O  O144  1  0.143700  0.345400  0.090700  1.0  -0.829
