# generated using pymatgen
data_GdH18C33(NO)6
_symmetry_space_group_name_H-M   'P 1'
_cell_length_a   8.20960000
_cell_length_b   14.99800000
_cell_length_c   36.87270000
_cell_angle_alpha   90.00000000
_cell_angle_beta   90.88240000
_cell_angle_gamma   90.00000000
_symmetry_Int_Tables_number   1
_chemical_formula_structural   GdH18C33(NO)6
_chemical_formula_sum   'Gd4 H72 C132 N24 O24'
_cell_volume   4539.50794560
_cell_formula_units_Z   4
loop_
 _symmetry_equiv_pos_site_id
 _symmetry_equiv_pos_as_xyz
  1  'x, y, z'
loop_
 _atom_site_type_symbol
 _atom_site_label
 _atom_site_symmetry_multiplicity
 _atom_site_fract_x
 _atom_site_fract_y
 _atom_site_fract_z
 _atom_site_occupancy
 _atom_site_charge
  Gd  Gd1  1  0.165450  0.098080  0.486780  1.0  2.1457
  Gd  Gd2  1  0.834550  0.901920  0.513220  1.0  2.1452
  Gd  Gd3  1  0.665450  0.901920  0.986780  1.0  2.1456
  Gd  Gd4  1  0.334550  0.098080  0.013220  1.0  2.1454
  H  H5  1  0.534700  0.953500  0.260600  1.0  0.0957
  H  H6  1  0.590500  0.372700  0.073700  1.0  0.0879
  H  H7  1  0.066100  0.311700  0.772200  1.0  0.1106
  H  H8  1  0.415000  0.335900  0.564700  1.0  0.0778
  H  H9  1  0.736700  0.090400  0.657800  1.0  0.295
  H  H10  1  0.932200  0.396200  0.888000  1.0  0.104
  H  H11  1  0.407100  0.287700  0.887100  1.0  0.1179
  H  H12  1  0.915000  0.664100  0.064700  1.0  0.0774
  H  H13  1  0.090500  0.627300  0.573700  1.0  0.0878
  H  H14  1  0.660100  0.669300  0.490800  1.0  0.2628
  H  H15  1  0.933900  0.688300  0.227800  1.0  0.1112
  H  H16  1  0.391000  0.371300  0.974900  1.0  0.0973
  H  H17  1  0.907100  0.712300  0.387100  1.0  0.1193
  H  H18  1  0.860900  0.425000  0.545500  1.0  0.0952
  H  H19  1  0.045300  0.914300  0.093600  1.0  0.109
  H  H20  1  0.585000  0.664100  0.435300  1.0  0.0773
  H  H21  1  0.432200  0.603800  0.388000  1.0  0.1038
  H  H22  1  0.839900  0.669300  0.009200  1.0  0.2635
  H  H23  1  0.142800  0.752500  0.002300  1.0  0.1052
  H  H24  1  0.084200  0.670700  0.280700  1.0  0.088
  H  H25  1  0.034700  0.046500  0.760600  1.0  0.0964
  H  H26  1  0.625300  0.021600  0.132800  1.0  0.1122
  H  H27  1  0.988000  0.187000  0.570300  1.0  0.0901
  H  H28  1  0.415800  0.670700  0.219300  1.0  0.0878
  H  H29  1  0.202300  0.524700  0.915200  1.0  0.1069
  H  H30  1  0.357200  0.752500  0.497700  1.0  0.105
  H  H31  1  0.263300  0.909600  0.342200  1.0  0.2931
  H  H32  1  0.545300  0.085700  0.593600  1.0  0.1093
  H  H33  1  0.125300  0.978400  0.632800  1.0  0.1127
  H  H34  1  0.623200  0.065600  0.791600  1.0  0.1038
  H  H35  1  0.214900  0.285600  0.821700  1.0  0.3191
  H  H36  1  0.160100  0.330700  0.990800  1.0  0.2635
  H  H37  1  0.376800  0.934400  0.208400  1.0  0.1034
  H  H38  1  0.067800  0.603800  0.112000  1.0  0.1038
  H  H39  1  0.360900  0.575000  0.045500  1.0  0.0951
  H  H40  1  0.012000  0.813000  0.429700  1.0  0.0901
  H  H41  1  0.454700  0.914300  0.406400  1.0  0.1091
  H  H42  1  0.909500  0.372700  0.426300  1.0  0.0878
  H  H43  1  0.702300  0.475300  0.415200  1.0  0.1067
  H  H44  1  0.374700  0.978400  0.867200  1.0  0.1123
  H  H45  1  0.584200  0.329300  0.780700  1.0  0.0883
  H  H46  1  0.915800  0.329300  0.719300  1.0  0.0888
  H  H47  1  0.566100  0.688300  0.272200  1.0  0.111
  H  H48  1  0.109000  0.371300  0.525100  1.0  0.0976
  H  H49  1  0.297700  0.524700  0.584800  1.0  0.1072
  H  H50  1  0.797700  0.475300  0.084800  1.0  0.107
  H  H51  1  0.567800  0.396200  0.612000  1.0  0.1041
  H  H52  1  0.876800  0.065600  0.708400  1.0  0.1037
  H  H53  1  0.488000  0.813000  0.070300  1.0  0.0902
  H  H54  1  0.123200  0.934400  0.291600  1.0  0.1029
  H  H55  1  0.512000  0.187000  0.929700  1.0  0.0901
  H  H56  1  0.857200  0.247500  0.997700  1.0  0.1061
  H  H57  1  0.609000  0.628700  0.025100  1.0  0.0974
  H  H58  1  0.465300  0.046500  0.739400  1.0  0.0959
  H  H59  1  0.714900  0.714400  0.321700  1.0  0.3211
  H  H60  1  0.085000  0.335900  0.935300  1.0  0.0772
  H  H61  1  0.763300  0.090400  0.842200  1.0  0.2967
  H  H62  1  0.092900  0.287700  0.612900  1.0  0.1178
  H  H63  1  0.433900  0.311700  0.727800  1.0  0.1111
  H  H64  1  0.236700  0.909600  0.157800  1.0  0.2937
  H  H65  1  0.954700  0.085700  0.906400  1.0  0.1099
  H  H66  1  0.874700  0.021600  0.367200  1.0  0.1127
  H  H67  1  0.891000  0.628700  0.474900  1.0  0.0981
  H  H68  1  0.642800  0.247500  0.502300  1.0  0.1061
  H  H69  1  0.285100  0.285600  0.678300  1.0  0.3187
  H  H70  1  0.409500  0.627300  0.926300  1.0  0.0879
  H  H71  1  0.592900  0.712300  0.112900  1.0  0.1196
  H  H72  1  0.639100  0.425000  0.954500  1.0  0.0951
  H  H73  1  0.339900  0.330700  0.509200  1.0  0.2636
  H  H74  1  0.965300  0.953500  0.239400  1.0  0.0959
  H  H75  1  0.785100  0.714400  0.178300  1.0  0.3215
  H  H76  1  0.139100  0.575000  0.454500  1.0  0.0949
  C  C77  1  0.121120  0.800500  0.291520  1.0  -0.0386
  C  C78  1  0.994620  0.010300  0.568720  1.0  0.6619
  C  C79  1  0.686230  0.808900  0.146030  1.0  0.1116
  C  C80  1  0.433100  0.176800  0.728300  1.0  -0.0405
  C  C81  1  0.220050  0.787400  0.324850  1.0  0.3503
  C  C82  1  0.154920  0.708100  0.984920  1.0  -0.1146
  C  C83  1  0.296360  0.700600  0.964960  1.0  -0.1371
  C  C84  1  0.375250  0.039400  0.871850  1.0  -0.1107
  C  C85  1  0.624750  0.960600  0.128150  1.0  -0.1103
  C  C86  1  0.952300  0.146900  0.902500  1.0  -0.0965
  C  C87  1  0.452300  0.853100  0.402500  1.0  -0.0966
  C  C88  1  0.279950  0.787400  0.175150  1.0  0.3502
  C  C89  1  0.415710  0.545200  0.027210  1.0  -0.0278
  C  C90  1  0.029740  0.262000  0.759340  1.0  -0.1502
  C  C91  1  0.535490  0.793900  0.425390  1.0  -0.1207
  C  C92  1  0.349690  0.469300  0.011690  1.0  -0.0361
  C  C93  1  0.938400  0.334900  0.891300  1.0  -0.1339
  C  C94  1  0.849690  0.530700  0.511690  1.0  -0.036
  C  C95  1  0.395770  0.226500  0.883870  1.0  -0.1067
  C  C96  1  0.196930  0.099300  0.652230  1.0  0.1564
  C  C97  1  0.875250  0.960600  0.371850  1.0  -0.1103
  C  C98  1  0.964510  0.793900  0.074610  1.0  -0.1205
  C  C99  1  0.434670  0.423200  0.984770  1.0  -0.1135
  C  C100  1  0.928590  0.233600  0.471890  1.0  0.673
  C  C101  1  0.188670  0.435100  0.023370  1.0  0.305
  C  C102  1  0.642500  0.276100  0.632200  1.0  0.091
  C  C103  1  0.690240  0.430400  0.432340  1.0  -0.1278
  C  C104  1  0.552220  0.926600  0.097120  1.0  -0.0861
  C  C105  1  0.345080  0.708100  0.515080  1.0  -0.1124
  C  C106  1  0.134380  0.815900  0.126480  1.0  0.1109
  C  C107  1  0.971970  0.701800  0.080370  1.0  -0.0996
  C  C108  1  0.584700  0.115200  0.779000  1.0  -0.1163
  C  C109  1  0.428590  0.766400  0.971890  1.0  0.6766
  C  C110  1  0.459960  0.166000  0.908760  1.0  -0.0772
  C  C111  1  0.033030  0.646800  0.977930  1.0  0.1547
  C  C112  1  0.562000  0.272100  0.772300  1.0  -0.0472
  C  C113  1  0.561600  0.334900  0.608700  1.0  -0.1326
  C  C114  1  0.447780  0.073400  0.902880  1.0  -0.0846
  C  C115  1  0.779950  0.212600  0.675150  1.0  0.351
  C  C116  1  0.311330  0.435100  0.476630  1.0  0.2998
  C  C117  1  0.566900  0.823200  0.271700  1.0  -0.0414
  C  C118  1  0.124750  0.039400  0.628150  1.0  -0.1119
  C  C119  1  0.466970  0.646800  0.522070  1.0  0.1527
  C  C120  1  0.540040  0.834000  0.091240  1.0  -0.0771
  C  C121  1  0.168130  0.162000  0.804530  1.0  0.2868
  C  C122  1  0.028030  0.298200  0.919630  1.0  -0.0998
  C  C123  1  0.186880  0.631500  0.560880  1.0  -0.0547
  C  C124  1  0.453160  0.577900  0.547460  1.0  0.1121
  C  C125  1  0.688670  0.564900  0.523370  1.0  0.3057
  C  C126  1  0.490100  0.103700  0.747500  1.0  -0.1062
  C  C127  1  0.313770  0.191100  0.853970  1.0  0.1125
  C  C128  1  0.135300  0.168300  0.955900  1.0  0.6449
  C  C129  1  0.062000  0.727900  0.272300  1.0  -0.0474
  C  C130  1  0.040040  0.166000  0.591240  1.0  -0.0772
  C  C131  1  0.668130  0.838000  0.304530  1.0  0.2879
  C  C132  1  0.047700  0.853100  0.097500  1.0  -0.0965
  C  C133  1  0.934670  0.576800  0.484770  1.0  -0.1056
  C  C134  1  0.809760  0.430400  0.067660  1.0  -0.1264
  C  C135  1  0.635300  0.831700  0.455900  1.0  0.6476
  C  C136  1  0.933100  0.823200  0.228300  1.0  -0.0407
  C  C137  1  0.470260  0.262000  0.740660  1.0  -0.1502
  C  C138  1  0.331870  0.162000  0.695470  1.0  0.2877
  C  C139  1  0.303070  0.099300  0.847770  1.0  0.1543
  C  C140  1  0.634380  0.184100  0.626480  1.0  0.1105
  C  C141  1  0.813770  0.808900  0.353970  1.0  0.1127
  C  C142  1  0.471970  0.298200  0.580370  1.0  -0.0979
  C  C143  1  0.509900  0.896300  0.252500  1.0  -0.106
  C  C144  1  0.309760  0.569600  0.567660  1.0  -0.1263
  C  C145  1  0.009900  0.103700  0.752500  1.0  -0.1101
  C  C146  1  0.621120  0.199500  0.791520  1.0  -0.0384
  C  C147  1  0.046840  0.577900  0.952540  1.0  0.1112
  C  C148  1  0.966970  0.353200  0.022070  1.0  0.1527
  C  C149  1  0.990100  0.896300  0.247500  1.0  -0.1069
  C  C150  1  0.186230  0.191100  0.646030  1.0  0.1117
  C  C151  1  0.365620  0.815900  0.373520  1.0  0.1114
  C  C152  1  0.813120  0.368500  0.439120  1.0  -0.0565
  C  C153  1  0.364700  0.168300  0.544100  1.0  0.6483
  C  C154  1  0.696930  0.900700  0.152230  1.0  0.1545
  C  C155  1  0.953160  0.422100  0.047460  1.0  0.1117
  C  C156  1  0.703640  0.299400  0.035040  1.0  -0.138
  C  C157  1  0.654920  0.291900  0.484920  1.0  -0.1141
  C  C158  1  0.415300  0.884800  0.221000  1.0  -0.118
  C  C159  1  0.066900  0.176800  0.771700  1.0  -0.041
  C  C160  1  0.065330  0.423200  0.515230  1.0  -0.1044
  C  C161  1  0.959960  0.834000  0.408760  1.0  -0.078
  C  C162  1  0.357500  0.723900  0.367800  1.0  0.0939
  C  C163  1  0.190240  0.569600  0.932340  1.0  -0.1294
  C  C164  1  0.529740  0.738000  0.259340  1.0  -0.151
  C  C165  1  0.528030  0.701800  0.419630  1.0  -0.0964
  C  C166  1  0.857500  0.276100  0.867800  1.0  0.0908
  C  C167  1  0.686880  0.368500  0.060880  1.0  -0.0546
  C  C168  1  0.061600  0.665100  0.108700  1.0  -0.1332
  C  C169  1  0.915300  0.115200  0.721000  1.0  -0.1153
  C  C170  1  0.796360  0.299400  0.464960  1.0  -0.1398
  C  C171  1  0.505380  0.010300  0.931280  1.0  0.6616
  C  C172  1  0.203640  0.700600  0.535040  1.0  -0.139
  C  C173  1  0.464510  0.206100  0.574610  1.0  -0.1205
  C  C174  1  0.565330  0.576800  0.015230  1.0  -0.1045
  C  C175  1  0.142500  0.723900  0.132200  1.0  0.0917
  C  C176  1  0.035490  0.206100  0.925390  1.0  -0.1196
  C  C177  1  0.313120  0.631500  0.939120  1.0  -0.0532
  C  C178  1  0.546840  0.422100  0.452540  1.0  0.1111
  C  C179  1  0.831870  0.838000  0.195470  1.0  0.2882
  C  C180  1  0.571410  0.233600  0.028110  1.0  0.6749
  C  C181  1  0.720050  0.212600  0.824850  1.0  0.3515
  C  C182  1  0.438000  0.727900  0.227700  1.0  -0.0478
  C  C183  1  0.084290  0.545200  0.472790  1.0  -0.0287
  C  C184  1  0.865620  0.184100  0.873520  1.0  0.1114
  C  C185  1  0.811330  0.564900  0.976630  1.0  0.2993
  C  C186  1  0.947780  0.926600  0.402880  1.0  -0.085
  C  C187  1  0.438400  0.665100  0.391300  1.0  -0.1343
  C  C188  1  0.895770  0.773500  0.383870  1.0  -0.1057
  C  C189  1  0.938000  0.272100  0.727700  1.0  -0.0486
  C  C190  1  0.052220  0.073400  0.597120  1.0  -0.0865
  C  C191  1  0.584290  0.454800  0.972790  1.0  -0.0282
  C  C192  1  0.378880  0.800500  0.208480  1.0  -0.0393
  C  C193  1  0.494620  0.989700  0.068720  1.0  0.6623
  C  C194  1  0.970260  0.738000  0.240660  1.0  -0.1494
  C  C195  1  0.845080  0.291900  0.015080  1.0  -0.1133
  C  C196  1  0.547700  0.146900  0.597500  1.0  -0.0967
  C  C197  1  0.878880  0.199500  0.708480  1.0  -0.0391
  C  C198  1  0.533030  0.353200  0.477930  1.0  0.152
  C  C199  1  0.104230  0.226500  0.616130  1.0  -0.107
  C  C200  1  0.864700  0.831700  0.044100  1.0  0.6504
  C  C201  1  0.604230  0.773500  0.116130  1.0  -0.1056
  C  C202  1  0.071410  0.766400  0.528110  1.0  0.6731
  C  C203  1  0.005380  0.989700  0.431280  1.0  0.6607
  C  C204  1  0.084700  0.884800  0.279000  1.0  -0.1173
  C  C205  1  0.150310  0.469300  0.488310  1.0  -0.0366
  C  C206  1  0.650310  0.530700  0.988310  1.0  -0.0362
  C  C207  1  0.915710  0.454800  0.527210  1.0  -0.029
  C  C208  1  0.803070  0.900700  0.347770  1.0  0.1569
  N  N209  1  0.618010  0.636400  0.507310  1.0  -0.299
  N  N210  1  0.721820  0.146600  0.654320  1.0  -0.2571
  N  N211  1  0.221820  0.853400  0.154320  1.0  -0.257
  N  N212  1  0.778180  0.146600  0.845680  1.0  -0.261
  N  N213  1  0.881990  0.636400  0.992690  1.0  -0.3024
  N  N214  1  0.734540  0.292000  0.662740  1.0  -0.4185
  N  N215  1  0.265460  0.708000  0.337260  1.0  -0.4311
  N  N216  1  0.788190  0.916600  0.182990  1.0  -0.4334
  N  N217  1  0.595000  0.526800  0.547400  1.0  -0.3943
  N  N218  1  0.211810  0.083400  0.817010  1.0  -0.4466
  N  N219  1  0.381990  0.363600  0.492690  1.0  -0.2972
  N  N220  1  0.118010  0.363600  0.007310  1.0  -0.3035
  N  N221  1  0.772030  0.770500  0.174530  1.0  -0.294
  N  N222  1  0.227970  0.229500  0.825470  1.0  -0.2922
  N  N223  1  0.727970  0.770500  0.325470  1.0  -0.2923
  N  N224  1  0.234540  0.708000  0.162740  1.0  -0.4314
  N  N225  1  0.405000  0.473200  0.452600  1.0  -0.3931
  N  N226  1  0.905000  0.526800  0.952600  1.0  -0.403
  N  N227  1  0.278180  0.853400  0.345680  1.0  -0.2567
  N  N228  1  0.288190  0.083400  0.682990  1.0  -0.4332
  N  N229  1  0.272030  0.229500  0.674530  1.0  -0.2919
  N  N230  1  0.095000  0.473200  0.047400  1.0  -0.3935
  N  N231  1  0.711810  0.916600  0.317010  1.0  -0.4338
  N  N232  1  0.765460  0.292000  0.837260  1.0  -0.4159
  O  O233  1  0.117920  0.087900  0.965520  1.0  -0.6745
  O  O234  1  0.586300  0.941900  0.922800  1.0  -0.6827
  O  O235  1  0.382080  0.087900  0.534480  1.0  -0.6776
  O  O236  1  0.970690  0.976600  0.464890  1.0  -0.8395
  O  O237  1  0.905390  0.170800  0.494190  1.0  -0.6494
  O  O238  1  0.935770  0.760900  0.544270  1.0  -0.674
  O  O239  1  0.882080  0.912100  0.034480  1.0  -0.6799
  O  O240  1  0.094610  0.829200  0.505810  1.0  -0.6489
  O  O241  1  0.086300  0.058100  0.422800  1.0  -0.6846
  O  O242  1  0.241480  0.217900  0.972080  1.0  -0.6203
  O  O243  1  0.064230  0.239100  0.455730  1.0  -0.6733
  O  O244  1  0.594610  0.170800  0.005810  1.0  -0.6498
  O  O245  1  0.617920  0.912100  0.465520  1.0  -0.6795
  O  O246  1  0.258520  0.217900  0.527920  1.0  -0.6197
  O  O247  1  0.564230  0.760900  0.955730  1.0  -0.6745
  O  O248  1  0.029310  0.023400  0.535110  1.0  -0.8379
  O  O249  1  0.741480  0.782100  0.472080  1.0  -0.6205
  O  O250  1  0.405390  0.829200  0.994190  1.0  -0.6502
  O  O251  1  0.913700  0.941900  0.577200  1.0  -0.6807
  O  O252  1  0.758520  0.782100  0.027920  1.0  -0.6202
  O  O253  1  0.529310  0.976600  0.035110  1.0  -0.837
  O  O254  1  0.435770  0.239100  0.044270  1.0  -0.6727
  O  O255  1  0.470690  0.023400  0.964890  1.0  -0.8393
  O  O256  1  0.413700  0.058100  0.077200  1.0  -0.6826
