# generated using pymatgen
data_Cu2H3C10O9
_symmetry_space_group_name_H-M   'P 1'
_cell_length_a   10.57500000
_cell_length_b   11.66000000
_cell_length_c   15.76700000
_cell_angle_alpha   106.08000000
_cell_angle_beta   90.73000000
_cell_angle_gamma   94.05000000
_symmetry_Int_Tables_number   1
_chemical_formula_structural   Cu2H3C10O9
_chemical_formula_sum   'Cu8 H12 C40 O36'
_cell_volume   1862.35569317
_cell_formula_units_Z   4
loop_
 _symmetry_equiv_pos_site_id
 _symmetry_equiv_pos_as_xyz
  1  'x, y, z'
loop_
 _atom_site_type_symbol
 _atom_site_label
 _atom_site_symmetry_multiplicity
 _atom_site_fract_x
 _atom_site_fract_y
 _atom_site_fract_z
 _atom_site_occupancy
 _atom_site_charge
  Cu  Cu1  1  0.137810  0.496010  0.499720  1.0  0.9813
  Cu  Cu2  1  0.861240  0.474800  0.998250  1.0  0.9893
  Cu  Cu3  1  0.986830  0.356010  0.314310  1.0  1.0084
  Cu  Cu4  1  0.007360  0.642480  0.185030  1.0  0.9919
  Cu  Cu5  1  0.862190  0.503990  0.500280  1.0  0.9848
  Cu  Cu6  1  0.138760  0.525200  0.001750  1.0  0.9892
  Cu  Cu7  1  0.013170  0.643990  0.685690  1.0  1.0089
  Cu  Cu8  1  0.992640  0.357520  0.814970  1.0  0.9866
  H  H9  1  0.490100  0.432100  0.376700  1.0  0.1434
  H  H10  1  0.500700  0.551200  0.121400  1.0  0.1416
  H  H11  1  0.014900  0.998200  0.146200  1.0  0.1473
  H  H12  1  0.028900  0.006500  0.356700  1.0  0.1403
  H  H13  1  0.989900  0.476500  0.129000  1.0  0.3322
  H  H14  1  0.013100  0.532200  0.375000  1.0  0.299
  H  H15  1  0.509900  0.567900  0.623300  1.0  0.1439
  H  H16  1  0.499300  0.448800  0.878600  1.0  0.1417
  H  H17  1  0.985100  0.001800  0.853800  1.0  0.1484
  H  H18  1  0.971100  0.993500  0.643300  1.0  0.1408
  H  H19  1  0.010100  0.523500  0.871000  1.0  0.3278
  H  H20  1  0.986900  0.467800  0.625000  1.0  0.3005
  C  C21  1  0.382200  0.516100  0.211700  1.0  -0.0373
  C  C22  1  0.378900  0.478000  0.288200  1.0  -0.0099
  C  C23  1  0.492300  0.456200  0.325300  1.0  0.0028
  C  C24  1  0.608700  0.469800  0.287200  1.0  -0.0617
  C  C25  1  0.611800  0.508200  0.210600  1.0  -0.0201
  C  C26  1  0.498700  0.528500  0.173500  1.0  0.0146
  C  C27  1  0.266900  0.547600  0.167700  1.0  0.7422
  C  C28  1  0.258700  0.457800  0.334800  1.0  0.7063
  C  C29  1  0.725900  0.441400  0.329900  1.0  0.7566
  C  C30  1  0.733700  0.531400  0.167000  1.0  0.7149
  C  C31  1  0.995300  0.105800  0.067400  1.0  -0.0463
  C  C32  1  0.985800  0.108800  0.978900  1.0  0.0174
  C  C33  1  0.009000  0.998500  0.087300  1.0  0.025
  C  C34  1  0.002500  0.221000  0.140600  1.0  0.735
  C  C35  1  0.965000  0.219600  0.951200  1.0  0.7474
  C  C36  1  0.011700  0.111100  0.480300  1.0  0.0019
  C  C37  1  0.007800  0.893600  0.432100  1.0  -0.0333
  C  C38  1  0.017800  0.004000  0.414600  1.0  0.0222
  C  C39  1  0.029400  0.226000  0.453800  1.0  0.7476
  C  C40  1  0.022200  0.781200  0.360700  1.0  0.7552
  C  C41  1  0.617800  0.483900  0.788300  1.0  -0.0364
  C  C42  1  0.621100  0.522000  0.711800  1.0  -0.0091
  C  C43  1  0.507700  0.543800  0.674700  1.0  0.0023
  C  C44  1  0.391300  0.530200  0.712800  1.0  -0.0621
  C  C45  1  0.388200  0.491800  0.789400  1.0  -0.0203
  C  C46  1  0.501300  0.471500  0.826500  1.0  0.0158
  C  C47  1  0.733100  0.452400  0.832300  1.0  0.7433
  C  C48  1  0.741300  0.542200  0.665200  1.0  0.7042
  C  C49  1  0.274100  0.558600  0.670100  1.0  0.7585
  C  C50  1  0.266300  0.468600  0.833000  1.0  0.7178
  C  C51  1  0.004700  0.894200  0.932600  1.0  -0.0456
  C  C52  1  0.014200  0.891200  0.021100  1.0  0.0174
  C  C53  1  0.991000  0.001500  0.912700  1.0  0.0239
  C  C54  1  0.997500  0.779000  0.859400  1.0  0.7349
  C  C55  1  0.035000  0.780400  0.048800  1.0  0.7485
  C  C56  1  0.988300  0.888900  0.519700  1.0  0.0026
  C  C57  1  0.992200  0.106400  0.567900  1.0  -0.0332
  C  C58  1  0.982200  0.996000  0.585400  1.0  0.0224
  C  C59  1  0.970600  0.774000  0.546200  1.0  0.7479
  C  C60  1  0.977800  0.218800  0.639300  1.0  0.7552
  O  O61  1  0.269800  0.519400  0.085000  1.0  -0.5584
  O  O62  1  0.184000  0.602400  0.215900  1.0  -0.5725
  O  O63  1  0.264500  0.514200  0.416300  1.0  -0.5714
  O  O64  1  0.173200  0.386000  0.292800  1.0  -0.5663
  O  O65  1  0.810400  0.392700  0.281200  1.0  -0.5815
  O  O66  1  0.724200  0.466100  0.412900  1.0  -0.5638
  O  O67  1  0.732000  0.476900  0.085400  1.0  -0.5788
  O  O68  1  0.818300  0.603300  0.211100  1.0  -0.571
  O  O69  1  0.971500  0.210900  0.217400  1.0  -0.5779
  O  O70  1  0.039600  0.315200  0.126000  1.0  -0.5419
  O  O71  1  0.864500  0.269100  0.969000  1.0  -0.5635
  O  O72  1  0.049500  0.251100  0.903200  1.0  -0.5726
  O  O73  1  0.128000  0.292600  0.476300  1.0  -0.5665
  O  O74  1  0.941400  0.244200  0.404200  1.0  -0.5739
  O  O75  1  0.002300  0.786300  0.280700  1.0  -0.565
  O  O76  1  0.053000  0.692300  0.379800  1.0  -0.5701
  O  O77  1  0.003300  0.506300  0.082700  1.0  -0.9342
  O  O78  1  0.996800  0.493600  0.416400  1.0  -0.9295
  O  O79  1  0.730200  0.480600  0.915000  1.0  -0.5569
  O  O80  1  0.816000  0.397600  0.784100  1.0  -0.572
  O  O81  1  0.735500  0.485800  0.583700  1.0  -0.5719
  O  O82  1  0.826800  0.614000  0.707200  1.0  -0.5652
  O  O83  1  0.189600  0.607300  0.718800  1.0  -0.583
  O  O84  1  0.275800  0.533900  0.587100  1.0  -0.5642
  O  O85  1  0.268000  0.523100  0.914600  1.0  -0.5779
  O  O86  1  0.181700  0.396700  0.788900  1.0  -0.571
  O  O87  1  0.028500  0.789100  0.782600  1.0  -0.5768
  O  O88  1  0.960400  0.684800  0.874000  1.0  -0.541
  O  O89  1  0.135500  0.730900  0.031000  1.0  -0.5626
  O  O90  1  0.950500  0.748900  0.096800  1.0  -0.5718
  O  O91  1  0.872000  0.707400  0.523700  1.0  -0.5688
  O  O92  1  0.058600  0.755800  0.595800  1.0  -0.5737
  O  O93  1  0.997700  0.213700  0.719300  1.0  -0.5672
  O  O94  1  0.947000  0.307700  0.620200  1.0  -0.5728
  O  O95  1  0.996700  0.493700  0.917300  1.0  -0.9276
  O  O96  1  0.003200  0.506400  0.583600  1.0  -0.9325
