# generated using pymatgen
data_ZnH18C26(NO2)2
_symmetry_space_group_name_H-M   'P 1'
_cell_length_a   6.22260000
_cell_length_b   14.70200000
_cell_length_c   17.50450000
_cell_angle_alpha   102.23300000
_cell_angle_beta   90.00000000
_cell_angle_gamma   102.21800000
_symmetry_Int_Tables_number   1
_chemical_formula_structural   ZnH18C26(NO2)2
_chemical_formula_sum   'Zn2 H36 C52 N4 O8'
_cell_volume   1527.89670932
_cell_formula_units_Z   2
loop_
 _symmetry_equiv_pos_site_id
 _symmetry_equiv_pos_as_xyz
  1  'x, y, z'
loop_
 _atom_site_type_symbol
 _atom_site_label
 _atom_site_symmetry_multiplicity
 _atom_site_fract_x
 _atom_site_fract_y
 _atom_site_fract_z
 _atom_site_occupancy
 _atom_site_charge
  Zn  Zn1  1  0.436480  0.000000  0.250000  1.0  0.8364
  Zn  Zn2  1  0.563520  0.000000  0.750000  1.0  0.8359
  H  H3  1  0.021700  0.190600  0.362000  1.0  0.0869
  H  H4  1  0.886200  0.317000  0.431200  1.0  0.1056
  H  H5  1  0.462600  0.492000  0.415200  1.0  0.1027
  H  H6  1  0.597500  0.367600  0.345000  1.0  0.1139
  H  H7  1  0.178200  0.561000  0.481100  1.0  0.0967
  H  H8  1  0.889000  0.098400  0.215000  1.0  0.0813
  H  H9  1  0.128500  0.097800  0.116000  1.0  0.1236
  H  H10  1  0.665100  0.899200  0.978300  1.0  0.1332
  H  H11  1  0.434300  0.916200  0.079700  1.0  0.0747
  H  H12  1  0.831100  0.809400  0.138000  1.0  0.087
  H  H13  1  0.569200  0.683000  0.068800  1.0  0.106
  H  H14  1  0.970600  0.508000  0.084800  1.0  0.1027
  H  H15  1  0.229900  0.632400  0.155000  1.0  0.1147
  H  H16  1  0.617200  0.439000  0.018900  1.0  0.0965
  H  H17  1  0.790600  0.901600  0.285000  1.0  0.0811
  H  H18  1  0.030700  0.902200  0.384000  1.0  0.1239
  H  H19  1  0.765900  0.100800  0.521700  1.0  0.1332
  H  H20  1  0.518100  0.083800  0.420300  1.0  0.0743
  H  H21  1  0.978300  0.809400  0.638000  1.0  0.087
  H  H22  1  0.113800  0.683000  0.568800  1.0  0.1066
  H  H23  1  0.537400  0.508000  0.584800  1.0  0.1026
  H  H24  1  0.402500  0.632400  0.655000  1.0  0.1141
  H  H25  1  0.821800  0.439000  0.518900  1.0  0.0966
  H  H26  1  0.111000  0.901600  0.785000  1.0  0.0811
  H  H27  1  0.871500  0.902200  0.884000  1.0  0.124
  H  H28  1  0.334900  0.100800  0.021700  1.0  0.1332
  H  H29  1  0.565700  0.083800  0.920300  1.0  0.0741
  H  H30  1  0.168900  0.190600  0.862000  1.0  0.087
  H  H31  1  0.430800  0.317000  0.931200  1.0  0.1068
  H  H32  1  0.029400  0.492000  0.915200  1.0  0.1027
  H  H33  1  0.770100  0.367600  0.845000  1.0  0.1138
  H  H34  1  0.382800  0.561000  0.981100  1.0  0.0968
  H  H35  1  0.209400  0.098400  0.715000  1.0  0.0812
  H  H36  1  0.969300  0.097800  0.616000  1.0  0.1237
  H  H37  1  0.234100  0.899200  0.478300  1.0  0.1336
  H  H38  1  0.481900  0.916200  0.579700  1.0  0.0744
  C  C39  1  0.412100  0.182400  0.303700  1.0  0.6517
  C  C40  1  0.322100  0.265400  0.346300  1.0  -0.1468
  C  C41  1  0.110900  0.251400  0.372600  1.0  -0.0282
  C  C42  1  0.029800  0.327400  0.414800  1.0  -0.1324
  C  C43  1  0.161500  0.418200  0.432600  1.0  0.069
  C  C44  1  0.373400  0.431000  0.404800  1.0  -0.1361
  C  C45  1  0.455200  0.356800  0.362500  1.0  -0.0527
  C  C46  1  0.089000  0.501200  0.479900  1.0  -0.1221
  C  C47  1  0.843500  0.058200  0.166500  1.0  0.1825
  C  C48  1  0.988500  0.058800  0.107000  1.0  -0.1701
  C  C49  1  0.924300  0.000000  0.032700  1.0  0.0914
  C  C50  1  0.714400  0.942600  0.025000  1.0  -0.2072
  C  C51  1  0.579200  0.950600  0.087900  1.0  0.1814
  C  C52  1  0.229700  0.817600  0.196300  1.0  0.651
  C  C53  1  0.056700  0.734600  0.153700  1.0  -0.1472
  C  C54  1  0.859500  0.748600  0.127400  1.0  -0.0276
  C  C55  1  0.702400  0.672600  0.085200  1.0  -0.1338
  C  C56  1  0.743300  0.581800  0.067400  1.0  0.0685
  C  C57  1  0.942400  0.569000  0.095200  1.0  -0.1371
  C  C58  1  0.098400  0.643200  0.137500  1.0  -0.0529
  C  C59  1  0.587800  0.498800  0.020100  1.0  -0.1206
  C  C60  1  0.785300  0.941800  0.333500  1.0  0.182
  C  C61  1  0.929700  0.941200  0.393000  1.0  -0.1705
  C  C62  1  0.924300  0.000000  0.467300  1.0  0.0917
  C  C63  1  0.771800  0.057400  0.475000  1.0  -0.2079
  C  C64  1  0.628600  0.049400  0.412100  1.0  0.1857
  C  C65  1  0.587900  0.817600  0.696300  1.0  0.6497
  C  C66  1  0.677900  0.734600  0.653700  1.0  -0.1483
  C  C67  1  0.889100  0.748600  0.627400  1.0  -0.0281
  C  C68  1  0.970200  0.672600  0.585200  1.0  -0.1337
  C  C69  1  0.838500  0.581800  0.567400  1.0  0.0688
  C  C70  1  0.626600  0.569000  0.595200  1.0  -0.1369
  C  C71  1  0.544800  0.643200  0.637500  1.0  -0.05
  C  C72  1  0.911000  0.498800  0.520100  1.0  -0.1223
  C  C73  1  0.156500  0.941800  0.833500  1.0  0.1831
  C  C74  1  0.011500  0.941200  0.893000  1.0  -0.1691
  C  C75  1  0.075700  0.000000  0.967300  1.0  0.0918
  C  C76  1  0.285600  0.057400  0.975000  1.0  -0.2074
  C  C77  1  0.420800  0.049400  0.912100  1.0  0.1856
  C  C78  1  0.770300  0.182400  0.803700  1.0  0.6501
  C  C79  1  0.943300  0.265400  0.846300  1.0  -0.1475
  C  C80  1  0.140500  0.251400  0.872600  1.0  -0.0286
  C  C81  1  0.297600  0.327400  0.914800  1.0  -0.1317
  C  C82  1  0.256700  0.418200  0.932600  1.0  0.0692
  C  C83  1  0.057600  0.431000  0.904800  1.0  -0.1368
  C  C84  1  0.901600  0.356800  0.862500  1.0  -0.0637
  C  C85  1  0.412200  0.501200  0.979900  1.0  -0.123
  C  C86  1  0.214700  0.058200  0.666500  1.0  0.1843
  C  C87  1  0.070300  0.058800  0.607000  1.0  -0.1697
  C  C88  1  0.075700  0.000000  0.532700  1.0  0.0915
  C  C89  1  0.228200  0.942600  0.525000  1.0  -0.207
  C  C90  1  0.371400  0.950600  0.587900  1.0  0.1836
  N  N91  1  0.639100  0.002600  0.158000  1.0  -0.323
  N  N92  1  0.636500  0.997400  0.342000  1.0  -0.3231
  N  N93  1  0.360900  0.997400  0.842000  1.0  -0.3228
  N  N94  1  0.363500  0.002600  0.658000  1.0  -0.3225
  O  O95  1  0.281830  0.101660  0.291100  1.0  -0.6005
  O  O96  1  0.606400  0.194000  0.286800  1.0  -0.5935
  O  O97  1  0.180170  0.898340  0.208900  1.0  -0.601
  O  O98  1  0.412400  0.806000  0.213200  1.0  -0.5937
  O  O99  1  0.718170  0.898340  0.708900  1.0  -0.5995
  O  O100  1  0.393600  0.806000  0.713200  1.0  -0.5935
  O  O101  1  0.819830  0.101660  0.791100  1.0  -0.5994
  O  O102  1  0.587600  0.194000  0.786800  1.0  -0.593
