# generated using pymatgen
data_CuH14C20(NO)4
_symmetry_space_group_name_H-M   'P 1'
_cell_length_a   13.44250000
_cell_length_b   14.42040000
_cell_length_c   20.44690000
_cell_angle_alpha   90.00000000
_cell_angle_beta   108.16800000
_cell_angle_gamma   90.00000000
_symmetry_Int_Tables_number   1
_chemical_formula_structural   CuH14C20(NO)4
_chemical_formula_sum   'Cu6 H84 C120 N24 O24'
_cell_volume   3765.95674063
_cell_formula_units_Z   6
loop_
 _symmetry_equiv_pos_site_id
 _symmetry_equiv_pos_as_xyz
  1  'x, y, z'
loop_
 _atom_site_type_symbol
 _atom_site_label
 _atom_site_symmetry_multiplicity
 _atom_site_fract_x
 _atom_site_fract_y
 _atom_site_fract_z
 _atom_site_occupancy
 _atom_site_charge
  Cu  Cu1  1  0.719890  0.517150  0.487700  1.0  0.9203
  Cu  Cu2  1  0.280110  0.017150  0.012300  1.0  0.9202
  Cu  Cu3  1  0.280110  0.482850  0.512300  1.0  0.9204
  Cu  Cu4  1  0.719890  0.982850  0.987700  1.0  0.9204
  Cu  Cu5  1  0.500000  0.500000  0.000000  1.0  0.7772
  Cu  Cu6  1  0.500000  0.000000  0.500000  1.0  0.7772
  H  H7  1  0.717300  0.382100  0.292000  1.0  0.0916
  H  H8  1  0.651900  0.297100  0.191900  1.0  0.1093
  H  H9  1  0.482400  0.144200  0.282100  1.0  0.0994
  H  H10  1  0.549100  0.228400  0.381900  1.0  0.1017
  H  H11  1  0.377900  0.097200  0.165700  1.0  0.1104
  H  H12  1  0.489900  0.111400  0.011000  1.0  0.0994
  H  H13  1  0.802000  0.724200  0.718800  1.0  0.0968
  H  H14  1  0.775200  0.715700  0.824500  1.0  0.1137
  H  H15  1  0.540100  0.535900  0.746300  1.0  0.0973
  H  H16  1  0.574400  0.537500  0.642900  1.0  0.0895
  H  H17  1  0.662700  0.663400  0.015300  1.0  0.0978
  H  H18  1  0.525400  0.514200  0.852400  1.0  0.104
  H  H19  1  0.688900  0.608600  0.205500  1.0  0.1007
  H  H20  1  0.812600  0.622000  0.313300  1.0  0.1097
  H  H21  1  0.972300  0.411000  0.268100  1.0  0.1078
  H  H22  1  0.846100  0.394300  0.163400  1.0  0.1059
  H  H23  1  0.110500  0.450500  0.366400  1.0  0.0926
  H  H24  1  0.091600  0.611400  0.513500  1.0  0.097
  H  H25  1  0.603900  0.191800  0.105500  1.0  0.3046
  H  H26  1  0.724300  0.712800  0.924200  1.0  0.2754
  H  H27  1  0.922500  0.609000  0.425100  1.0  0.3306
  H  H28  1  0.282700  0.882100  0.208000  1.0  0.0913
  H  H29  1  0.348100  0.797100  0.308100  1.0  0.109
  H  H30  1  0.517600  0.644200  0.217900  1.0  0.0991
  H  H31  1  0.450900  0.728400  0.118100  1.0  0.1014
  H  H32  1  0.622100  0.597200  0.334300  1.0  0.11
  H  H33  1  0.510100  0.611400  0.489000  1.0  0.1
  H  H34  1  0.198000  0.224200  0.781200  1.0  0.0966
  H  H35  1  0.224800  0.215700  0.675500  1.0  0.112
  H  H36  1  0.459900  0.035900  0.753700  1.0  0.0964
  H  H37  1  0.425600  0.037500  0.857100  1.0  0.0895
  H  H38  1  0.337300  0.163400  0.484700  1.0  0.0979
  H  H39  1  0.474600  0.014200  0.647600  1.0  0.1043
  H  H40  1  0.311100  0.108600  0.294500  1.0  0.101
  H  H41  1  0.187400  0.122000  0.186700  1.0  0.109
  H  H42  1  0.027700  0.911000  0.231900  1.0  0.1078
  H  H43  1  0.153900  0.894300  0.336600  1.0  0.1066
  H  H44  1  0.889500  0.950500  0.133600  1.0  0.0926
  H  H45  1  0.908400  0.111400  0.986500  1.0  0.0966
  H  H46  1  0.396100  0.691800  0.394500  1.0  0.3033
  H  H47  1  0.275700  0.212800  0.575800  1.0  0.2768
  H  H48  1  0.077500  0.109000  0.074900  1.0  0.3302
  H  H49  1  0.282700  0.617900  0.708000  1.0  0.0909
  H  H50  1  0.348100  0.702900  0.808100  1.0  0.1089
  H  H51  1  0.517600  0.855800  0.717900  1.0  0.0992
  H  H52  1  0.450900  0.771600  0.618100  1.0  0.1015
  H  H53  1  0.622100  0.902800  0.834300  1.0  0.1099
  H  H54  1  0.510100  0.888600  0.989000  1.0  0.1
  H  H55  1  0.198000  0.275800  0.281200  1.0  0.0963
  H  H56  1  0.224800  0.284300  0.175500  1.0  0.1119
  H  H57  1  0.459900  0.464100  0.253700  1.0  0.0966
  H  H58  1  0.425600  0.462500  0.357100  1.0  0.0894
  H  H59  1  0.337300  0.336600  0.984700  1.0  0.0986
  H  H60  1  0.474600  0.485800  0.147600  1.0  0.1042
  H  H61  1  0.311100  0.391400  0.794500  1.0  0.101
  H  H62  1  0.187400  0.378000  0.686700  1.0  0.1086
  H  H63  1  0.027700  0.589000  0.731900  1.0  0.1081
  H  H64  1  0.153900  0.605700  0.836600  1.0  0.1064
  H  H65  1  0.889500  0.549500  0.633600  1.0  0.0922
  H  H66  1  0.908400  0.388600  0.486500  1.0  0.0962
  H  H67  1  0.396100  0.808200  0.894500  1.0  0.3035
  H  H68  1  0.275700  0.287200  0.075800  1.0  0.2772
  H  H69  1  0.077500  0.391000  0.574900  1.0  0.3302
  H  H70  1  0.717300  0.117900  0.792000  1.0  0.0916
  H  H71  1  0.651900  0.202900  0.691900  1.0  0.1094
  H  H72  1  0.482400  0.355800  0.782100  1.0  0.0991
  H  H73  1  0.549100  0.271600  0.881900  1.0  0.1017
  H  H74  1  0.377900  0.402800  0.665700  1.0  0.1103
  H  H75  1  0.489900  0.388600  0.511000  1.0  0.0993
  H  H76  1  0.802000  0.775800  0.218800  1.0  0.0963
  H  H77  1  0.775200  0.784300  0.324500  1.0  0.1133
  H  H78  1  0.540100  0.964100  0.246300  1.0  0.0975
  H  H79  1  0.574400  0.962500  0.142900  1.0  0.0897
  H  H80  1  0.662700  0.836600  0.515300  1.0  0.0981
  H  H81  1  0.525400  0.985800  0.352400  1.0  0.104
  H  H82  1  0.688900  0.891400  0.705500  1.0  0.1004
  H  H83  1  0.812600  0.878000  0.813300  1.0  0.1092
  H  H84  1  0.972300  0.089000  0.768100  1.0  0.1082
  H  H85  1  0.846100  0.105700  0.663400  1.0  0.1063
  H  H86  1  0.110500  0.049500  0.866400  1.0  0.0924
  H  H87  1  0.091600  0.888600  0.013500  1.0  0.0982
  H  H88  1  0.603900  0.308200  0.605500  1.0  0.3044
  H  H89  1  0.724300  0.787200  0.424200  1.0  0.2762
  H  H90  1  0.922500  0.891000  0.925100  1.0  0.331
  C  C91  1  0.669900  0.334400  0.290000  1.0  -0.003
  C  C92  1  0.630500  0.283600  0.229900  1.0  -0.0942
  C  C93  1  0.559100  0.212400  0.226300  1.0  -0.003
  C  C94  1  0.529400  0.192100  0.283800  1.0  -0.0977
  C  C95  1  0.569300  0.242700  0.343600  1.0  -0.0289
  C  C96  1  0.639100  0.314700  0.346900  1.0  -0.1463
  C  C97  1  0.671900  0.375600  0.408900  1.0  0.6232
  C  C98  1  0.509700  0.162800  0.160700  1.0  0.0757
  C  C99  1  0.420500  0.111900  0.139100  1.0  0.0223
  C  C100  1  0.481400  0.118800  0.054100  1.0  0.2145
  C  C101  1  0.750900  0.684600  0.724700  1.0  -0.0198
  C  C102  1  0.733900  0.680700  0.787900  1.0  -0.1317
  C  C103  1  0.655100  0.624700  0.796700  1.0  0.0062
  C  C104  1  0.594400  0.572300  0.741200  1.0  -0.1414
  C  C105  1  0.614000  0.574100  0.679100  1.0  -0.0494
  C  C106  1  0.693500  0.630800  0.670300  1.0  -0.1655
  C  C107  1  0.716500  0.628000  0.602800  1.0  0.6368
  C  C108  1  0.634100  0.616400  0.862700  1.0  0.0607
  C  C109  1  0.642800  0.639500  0.970800  1.0  0.179
  C  C110  1  0.568300  0.557900  0.881200  1.0  -0.0019
  C  C111  1  0.745500  0.568100  0.218300  1.0  -0.0426
  C  C112  1  0.820500  0.576800  0.282800  1.0  -0.1221
  C  C113  1  0.906400  0.518800  0.301800  1.0  0.0119
  C  C114  1  0.915000  0.450700  0.256000  1.0  -0.1522
  C  C115  1  0.839600  0.441200  0.193100  1.0  -0.0272
  C  C116  1  0.754400  0.500100  0.173300  1.0  -0.1714
  C  C117  1  0.671300  0.487600  0.104500  1.0  0.6263
  C  C118  1  0.988700  0.527000  0.368300  1.0  0.0936
  C  C119  1  0.083300  0.491300  0.391700  1.0  0.0508
  C  C120  1  0.073800  0.577100  0.472900  1.0  0.1584
  C  C121  1  0.330100  0.834400  0.210000  1.0  -0.0042
  C  C122  1  0.369500  0.783600  0.270100  1.0  -0.0982
  C  C123  1  0.440900  0.712400  0.273700  1.0  0.0025
  C  C124  1  0.470600  0.692100  0.216200  1.0  -0.0916
  C  C125  1  0.430700  0.742700  0.156400  1.0  -0.0298
  C  C126  1  0.360900  0.814700  0.153100  1.0  -0.1464
  C  C127  1  0.328100  0.875600  0.091100  1.0  0.6238
  C  C128  1  0.490300  0.662800  0.339300  1.0  0.0768
  C  C129  1  0.579500  0.611900  0.360900  1.0  0.0232
  C  C130  1  0.518600  0.618800  0.445900  1.0  0.215
  C  C131  1  0.249100  0.184600  0.775300  1.0  -0.0205
  C  C132  1  0.266100  0.180700  0.712100  1.0  -0.1307
  C  C133  1  0.344900  0.124700  0.703300  1.0  0.0062
  C  C134  1  0.405600  0.072300  0.758800  1.0  -0.1394
  C  C135  1  0.386000  0.074100  0.820900  1.0  -0.0515
  C  C136  1  0.306500  0.130800  0.829700  1.0  -0.1654
  C  C137  1  0.283500  0.128000  0.897200  1.0  0.6368
  C  C138  1  0.365900  0.116400  0.637300  1.0  0.0587
  C  C139  1  0.357200  0.139500  0.529200  1.0  0.1796
  C  C140  1  0.431700  0.057900  0.618800  1.0  -0.0014
  C  C141  1  0.254500  0.068100  0.281700  1.0  -0.0431
  C  C142  1  0.179500  0.076800  0.217200  1.0  -0.1233
  C  C143  1  0.093600  0.018800  0.198200  1.0  0.0113
  C  C144  1  0.085000  0.950700  0.244000  1.0  -0.1511
  C  C145  1  0.160400  0.941200  0.306900  1.0  -0.0286
  C  C146  1  0.245600  0.000100  0.326700  1.0  -0.17
  C  C147  1  0.328700  0.987600  0.395500  1.0  0.6288
  C  C148  1  0.011300  0.027000  0.131700  1.0  0.0932
  C  C149  1  0.916700  0.991300  0.108300  1.0  0.0497
  C  C150  1  0.926200  0.077100  0.027100  1.0  0.1573
  C  C151  1  0.330100  0.665600  0.710000  1.0  -0.0033
  C  C152  1  0.369500  0.716400  0.770100  1.0  -0.0978
  C  C153  1  0.440900  0.787600  0.773700  1.0  0.002
  C  C154  1  0.470600  0.807900  0.716200  1.0  -0.0909
  C  C155  1  0.430700  0.757300  0.656400  1.0  -0.0303
  C  C156  1  0.360900  0.685300  0.653100  1.0  -0.1473
  C  C157  1  0.328100  0.624400  0.591100  1.0  0.6245
  C  C158  1  0.490300  0.837200  0.839300  1.0  0.0766
  C  C159  1  0.579500  0.888100  0.860900  1.0  0.0232
  C  C160  1  0.518600  0.881200  0.945900  1.0  0.2153
  C  C161  1  0.249100  0.315400  0.275300  1.0  -0.0207
  C  C162  1  0.266100  0.319300  0.212100  1.0  -0.1303
  C  C163  1  0.344900  0.375300  0.203300  1.0  0.006
  C  C164  1  0.405600  0.427700  0.258800  1.0  -0.1375
  C  C165  1  0.386000  0.425900  0.320900  1.0  -0.0502
  C  C166  1  0.306500  0.369200  0.329700  1.0  -0.1653
  C  C167  1  0.283500  0.372000  0.397200  1.0  0.6369
  C  C168  1  0.365900  0.383600  0.137300  1.0  0.0589
  C  C169  1  0.357200  0.360500  0.029200  1.0  0.1805
  C  C170  1  0.431700  0.442100  0.118800  1.0  0.0
  C  C171  1  0.254500  0.431900  0.781700  1.0  -0.0438
  C  C172  1  0.179500  0.423200  0.717200  1.0  -0.1231
  C  C173  1  0.093600  0.481200  0.698200  1.0  0.0115
  C  C174  1  0.085000  0.549300  0.744000  1.0  -0.1525
  C  C175  1  0.160400  0.558800  0.806900  1.0  -0.0298
  C  C176  1  0.245600  0.499900  0.826700  1.0  -0.1698
  C  C177  1  0.328700  0.512400  0.895500  1.0  0.6294
  C  C178  1  0.011300  0.473000  0.631700  1.0  0.0938
  C  C179  1  0.916700  0.508700  0.608300  1.0  0.0496
  C  C180  1  0.926200  0.422900  0.527100  1.0  0.1587
  C  C181  1  0.669900  0.165600  0.790000  1.0  -0.0033
  C  C182  1  0.630500  0.216400  0.729900  1.0  -0.0942
  C  C183  1  0.559100  0.287600  0.726300  1.0  -0.0036
  C  C184  1  0.529400  0.307900  0.783800  1.0  -0.0973
  C  C185  1  0.569300  0.257300  0.843600  1.0  -0.0287
  C  C186  1  0.639100  0.185300  0.846900  1.0  -0.146
  C  C187  1  0.671900  0.124400  0.908900  1.0  0.6232
  C  C188  1  0.509700  0.337200  0.660700  1.0  0.0756
  C  C189  1  0.420500  0.388100  0.639100  1.0  0.022
  C  C190  1  0.481400  0.381200  0.554100  1.0  0.2149
  C  C191  1  0.750900  0.815400  0.224700  1.0  -0.0195
  C  C192  1  0.733900  0.819300  0.287900  1.0  -0.132
  C  C193  1  0.655100  0.875300  0.296700  1.0  0.0064
  C  C194  1  0.594400  0.927700  0.241200  1.0  -0.1402
  C  C195  1  0.614000  0.925900  0.179100  1.0  -0.0488
  C  C196  1  0.693500  0.869200  0.170300  1.0  -0.1653
  C  C197  1  0.716500  0.872000  0.102800  1.0  0.6362
  C  C198  1  0.634100  0.883600  0.362700  1.0  0.0612
  C  C199  1  0.642800  0.860500  0.470800  1.0  0.1788
  C  C200  1  0.568300  0.942100  0.381200  1.0  -0.0008
  C  C201  1  0.745500  0.931900  0.718300  1.0  -0.0428
  C  C202  1  0.820500  0.923200  0.782800  1.0  -0.1227
  C  C203  1  0.906400  0.981200  0.801800  1.0  0.0121
  C  C204  1  0.915000  0.049300  0.756000  1.0  -0.1518
  C  C205  1  0.839600  0.058800  0.693100  1.0  -0.0261
  C  C206  1  0.754400  0.999900  0.673300  1.0  -0.1719
  C  C207  1  0.671300  0.012400  0.604500  1.0  0.6273
  C  C208  1  0.988700  0.973000  0.868300  1.0  0.0942
  C  C209  1  0.083300  0.008700  0.891700  1.0  0.0508
  C  C210  1  0.073800  0.922900  0.972900  1.0  0.1602
  N  N211  1  0.137100  0.519700  0.456100  1.0  -0.3903
  N  N212  1  0.574500  0.572500  0.948550  1.0  -0.3629
  N  N213  1  0.402900  0.085300  0.072100  1.0  -0.3779
  N  N214  1  0.547100  0.165000  0.106200  1.0  -0.2335
  N  N215  1  0.679800  0.668800  0.920700  1.0  -0.1851
  N  N216  1  0.977600  0.580400  0.423200  1.0  -0.2995
  N  N217  1  0.862900  0.019700  0.043900  1.0  -0.3874
  N  N218  1  0.425500  0.072500  0.551450  1.0  -0.3629
  N  N219  1  0.597100  0.585300  0.427900  1.0  -0.3756
  N  N220  1  0.452900  0.665000  0.393800  1.0  -0.2375
  N  N221  1  0.320200  0.168800  0.579300  1.0  -0.1836
  N  N222  1  0.022400  0.080400  0.076800  1.0  -0.2997
  N  N223  1  0.862900  0.480300  0.543900  1.0  -0.3877
  N  N224  1  0.425500  0.427500  0.051450  1.0  -0.3622
  N  N225  1  0.597100  0.914700  0.927900  1.0  -0.3768
  N  N226  1  0.452900  0.835000  0.893800  1.0  -0.237
  N  N227  1  0.320200  0.331200  0.079300  1.0  -0.1823
  N  N228  1  0.022400  0.419600  0.576800  1.0  -0.3038
  N  N229  1  0.137100  0.980300  0.956100  1.0  -0.3902
  N  N230  1  0.574500  0.927500  0.448550  1.0  -0.3627
  N  N231  1  0.402900  0.414700  0.572100  1.0  -0.377
  N  N232  1  0.547100  0.335000  0.606200  1.0  -0.2329
  N  N233  1  0.679800  0.831200  0.420700  1.0  -0.1857
  N  N234  1  0.977600  0.919600  0.923200  1.0  -0.3019
  O  O235  1  0.729400  0.445600  0.407420  1.0  -0.58
  O  O236  1  0.642700  0.358600  0.460010  1.0  -0.64
  O  O237  1  0.685000  0.555100  0.568230  1.0  -0.5756
  O  O238  1  0.765600  0.692700  0.586700  1.0  -0.573
  O  O239  1  0.597800  0.546800  0.088160  1.0  -0.5814
  O  O240  1  0.675800  0.421400  0.067500  1.0  -0.612
  O  O241  1  0.270600  0.945600  0.092580  1.0  -0.5795
  O  O242  1  0.357300  0.858600  0.039990  1.0  -0.6413
  O  O243  1  0.315000  0.055100  0.931770  1.0  -0.5759
  O  O244  1  0.234400  0.192700  0.913300  1.0  -0.5731
  O  O245  1  0.402200  0.046800  0.411840  1.0  -0.5818
  O  O246  1  0.324200  0.921400  0.432500  1.0  -0.6096
  O  O247  1  0.270600  0.554400  0.592580  1.0  -0.5799
  O  O248  1  0.357300  0.641400  0.539990  1.0  -0.641
  O  O249  1  0.315000  0.444900  0.431770  1.0  -0.5757
  O  O250  1  0.234400  0.307300  0.413300  1.0  -0.5711
  O  O251  1  0.402200  0.453200  0.911840  1.0  -0.5809
  O  O252  1  0.324200  0.578600  0.932500  1.0  -0.6112
  O  O253  1  0.729400  0.054400  0.907420  1.0  -0.5801
  O  O254  1  0.642700  0.141400  0.960010  1.0  -0.6404
  O  O255  1  0.685000  0.944900  0.068230  1.0  -0.5756
  O  O256  1  0.765600  0.807300  0.086700  1.0  -0.573
  O  O257  1  0.597800  0.953200  0.588160  1.0  -0.5811
  O  O258  1  0.675800  0.078600  0.567500  1.0  -0.6115
