# generated using pymatgen
data_CdH14C20(NO)4
_symmetry_space_group_name_H-M   'P 1'
_cell_length_a   10.14590000
_cell_length_b   10.14590000
_cell_length_c   23.86340000
_cell_angle_alpha   90.00000000
_cell_angle_beta   90.00000000
_cell_angle_gamma   90.00000000
_symmetry_Int_Tables_number   1
_chemical_formula_structural   CdH14C20(NO)4
_chemical_formula_sum   'Cd4 H56 C80 N16 O16'
_cell_volume   2456.48137686
_cell_formula_units_Z   4
loop_
 _symmetry_equiv_pos_site_id
 _symmetry_equiv_pos_as_xyz
  1  'x, y, z'
loop_
 _atom_site_type_symbol
 _atom_site_label
 _atom_site_symmetry_multiplicity
 _atom_site_fract_x
 _atom_site_fract_y
 _atom_site_fract_z
 _atom_site_occupancy
 _atom_site_charge
  Cd  Cd1  1  0.500000  0.500000  0.500000  1.0  1.0745
  Cd  Cd2  1  0.500000  0.000000  0.250000  1.0  0.8172
  Cd  Cd3  1  0.000000  0.500000  0.750000  1.0  0.8172
  Cd  Cd4  1  0.000000  0.000000  0.000000  1.0  1.0744
  H  H5  1  0.651100  0.204100  0.964000  1.0  0.103
  H  H6  1  0.344000  0.522400  0.172500  1.0  0.115
  H  H7  1  0.380900  0.047900  0.505400  1.0  0.1024
  H  H8  1  0.309300  0.596700  0.792000  1.0  0.1174
  H  H9  1  0.190700  0.096700  0.292000  1.0  0.1174
  H  H10  1  0.236900  0.658100  0.571000  1.0  0.2968
  H  H11  1  0.522400  0.656000  0.827500  1.0  0.1151
  H  H12  1  0.151100  0.295900  0.464000  1.0  0.1026
  H  H13  1  0.225800  0.224000  0.639700  1.0  0.1084
  H  H14  1  0.977600  0.156000  0.327500  1.0  0.1151
  H  H15  1  0.022400  0.844000  0.327500  1.0  0.1148
  H  H16  1  0.656000  0.477600  0.172500  1.0  0.115
  H  H17  1  0.158100  0.736900  0.929000  1.0  0.296
  H  H18  1  0.096700  0.809300  0.708000  1.0  0.117
  H  H19  1  0.809300  0.903300  0.292000  1.0  0.1172
  H  H20  1  0.156000  0.022400  0.672500  1.0  0.1147
  H  H21  1  0.774200  0.776000  0.639700  1.0  0.1081
  H  H22  1  0.848900  0.704100  0.464000  1.0  0.1033
  H  H23  1  0.341900  0.236900  0.429000  1.0  0.2953
  H  H24  1  0.119100  0.547900  0.005400  1.0  0.1025
  H  H25  1  0.596700  0.690700  0.208000  1.0  0.1169
  H  H26  1  0.224000  0.774200  0.360300  1.0  0.109
  H  H27  1  0.156600  0.482400  0.626300  1.0  0.1051
  H  H28  1  0.263100  0.158100  0.071000  1.0  0.2976
  H  H29  1  0.343400  0.982400  0.126300  1.0  0.1051
  H  H30  1  0.047900  0.619100  0.494600  1.0  0.1019
  H  H31  1  0.903300  0.190700  0.708000  1.0  0.117
  H  H32  1  0.204100  0.348900  0.036000  1.0  0.1026
  H  H33  1  0.017600  0.343400  0.873700  1.0  0.1055
  H  H34  1  0.776000  0.225800  0.360300  1.0  0.1088
  H  H35  1  0.348900  0.795900  0.964000  1.0  0.1033
  H  H36  1  0.477600  0.344000  0.827500  1.0  0.1147
  H  H37  1  0.725800  0.276000  0.139700  1.0  0.1085
  H  H38  1  0.658100  0.763100  0.429000  1.0  0.2972
  H  H39  1  0.982400  0.656600  0.873700  1.0  0.1068
  H  H40  1  0.295900  0.848900  0.536000  1.0  0.1022
  H  H41  1  0.795900  0.651100  0.036000  1.0  0.103
  H  H42  1  0.843400  0.517600  0.626300  1.0  0.1038
  H  H43  1  0.952100  0.380900  0.494600  1.0  0.1017
  H  H44  1  0.482400  0.843400  0.373700  1.0  0.1064
  H  H45  1  0.736900  0.841900  0.071000  1.0  0.2967
  H  H46  1  0.274200  0.724000  0.139700  1.0  0.1087
  H  H47  1  0.452100  0.119100  0.994600  1.0  0.1019
  H  H48  1  0.763100  0.341900  0.571000  1.0  0.2975
  H  H49  1  0.724000  0.725800  0.860300  1.0  0.1087
  H  H50  1  0.547900  0.880900  0.994600  1.0  0.1017
  H  H51  1  0.517600  0.156600  0.373700  1.0  0.1036
  H  H52  1  0.276000  0.274200  0.860300  1.0  0.1086
  H  H53  1  0.880900  0.452100  0.005400  1.0  0.1024
  H  H54  1  0.656600  0.017600  0.126300  1.0  0.1047
  H  H55  1  0.690700  0.403300  0.792000  1.0  0.1174
  H  H56  1  0.403300  0.309300  0.208000  1.0  0.1169
  H  H57  1  0.844000  0.977600  0.672500  1.0  0.1155
  H  H58  1  0.841900  0.263100  0.929000  1.0  0.2964
  H  H59  1  0.704100  0.151100  0.536000  1.0  0.1033
  H  H60  1  0.619100  0.952100  0.505400  1.0  0.1025
  C  C61  1  0.778000  0.085300  0.607980  1.0  -0.0741
  C  C62  1  0.314400  0.157600  0.569740  1.0  -0.1026
  C  C63  1  0.342400  0.185600  0.930260  1.0  -0.1056
  C  C64  1  0.784800  0.873300  0.949160  1.0  0.7074
  C  C65  1  0.200400  0.027500  0.638500  1.0  -0.1062
  C  C66  1  0.878300  0.249400  0.680010  1.0  0.0205
  C  C67  1  0.044100  0.665600  0.461000  1.0  -0.0329
  C  C68  1  0.928800  0.345500  0.864210  1.0  0.2004
  C  C69  1  0.799600  0.972500  0.638500  1.0  -0.1045
  C  C70  1  0.244000  0.148200  0.619200  1.0  -0.0779
  C  C71  1  0.285900  0.679800  0.870090  1.0  0.0144
  C  C72  1  0.914700  0.778000  0.392020  1.0  -0.0734
  C  C73  1  0.851800  0.244000  0.380800  1.0  -0.0792
  C  C74  1  0.250600  0.621700  0.819990  1.0  0.0194
  C  C75  1  0.700400  0.472500  0.138500  1.0  -0.1057
  C  C76  1  0.249400  0.121700  0.319990  1.0  0.0203
  C  C77  1  0.842400  0.314400  0.430260  1.0  -0.1055
  C  C78  1  0.126700  0.784800  0.050840  1.0  0.709
  C  C79  1  0.679800  0.714100  0.129910  1.0  0.0132
  C  C80  1  0.351800  0.256000  0.880800  1.0  -0.0764
  C  C81  1  0.345500  0.071200  0.135790  1.0  0.1993
  C  C82  1  0.665600  0.955900  0.539000  1.0  -0.0302
  C  C83  1  0.256000  0.648200  0.119200  1.0  -0.0807
  C  C84  1  0.165600  0.544100  0.039000  1.0  -0.0311
  C  C85  1  0.571200  0.845500  0.364210  1.0  0.1996
  C  C86  1  0.027500  0.799600  0.361500  1.0  -0.106
  C  C87  1  0.428800  0.154500  0.364210  1.0  0.2001
  C  C88  1  0.222000  0.914700  0.607980  1.0  -0.073
  C  C89  1  0.621700  0.749400  0.180010  1.0  0.0197
  C  C90  1  0.814400  0.342400  0.069740  1.0  -0.1028
  C  C91  1  0.648200  0.744000  0.880800  1.0  -0.0779
  C  C92  1  0.154500  0.571200  0.635790  1.0  0.1996
  C  C93  1  0.576000  0.214700  0.942100  1.0  -0.1312
  C  C94  1  0.527500  0.700400  0.861500  1.0  -0.1075
  C  C95  1  0.085300  0.222000  0.392020  1.0  -0.0722
  C  C96  1  0.544100  0.834400  0.961000  1.0  -0.0325
  C  C97  1  0.215200  0.126700  0.949160  1.0  0.7088
  C  C98  1  0.424000  0.785300  0.942100  1.0  -0.1308
  C  C99  1  0.654500  0.928800  0.135790  1.0  0.2001
  C  C100  1  0.320200  0.285900  0.129910  1.0  0.014
  C  C101  1  0.714700  0.076000  0.557900  1.0  -0.1321
  C  C102  1  0.750600  0.878300  0.319990  1.0  0.0199
  C  C103  1  0.472500  0.299600  0.861500  1.0  -0.1039
  C  C104  1  0.179800  0.785900  0.629910  1.0  0.0141
  C  C105  1  0.284800  0.626700  0.449160  1.0  0.7071
  C  C106  1  0.820200  0.214100  0.629910  1.0  0.0133
  C  C107  1  0.756000  0.851800  0.619200  1.0  -0.0779
  C  C108  1  0.148200  0.756000  0.380800  1.0  -0.0803
  C  C109  1  0.214700  0.424000  0.057900  1.0  -0.1318
  C  C110  1  0.626700  0.715200  0.550840  1.0  0.7095
  C  C111  1  0.414700  0.722000  0.892020  1.0  -0.0732
  C  C112  1  0.749400  0.378300  0.819990  1.0  0.0209
  C  C113  1  0.585300  0.278000  0.892020  1.0  -0.0723
  C  C114  1  0.834400  0.455900  0.039000  1.0  -0.0312
  C  C115  1  0.285300  0.924000  0.557900  1.0  -0.1316
  C  C116  1  0.299600  0.527500  0.138500  1.0  -0.1062
  C  C117  1  0.785900  0.820200  0.370090  1.0  0.0148
  C  C118  1  0.121700  0.750600  0.680010  1.0  0.0185
  C  C119  1  0.071200  0.654500  0.864210  1.0  0.1993
  C  C120  1  0.455900  0.165600  0.961000  1.0  -0.0324
  C  C121  1  0.214100  0.179800  0.370090  1.0  0.0139
  C  C122  1  0.955900  0.334400  0.461000  1.0  -0.0328
  C  C123  1  0.715200  0.373300  0.449160  1.0  0.7067
  C  C124  1  0.278000  0.414700  0.107980  1.0  -0.0733
  C  C125  1  0.924000  0.714700  0.442100  1.0  -0.1308
  C  C126  1  0.714100  0.320200  0.870090  1.0  0.0144
  C  C127  1  0.157600  0.685600  0.430260  1.0  -0.1042
  C  C128  1  0.685600  0.842400  0.569740  1.0  -0.1034
  C  C129  1  0.972500  0.200400  0.361500  1.0  -0.1058
  C  C130  1  0.334400  0.044100  0.539000  1.0  -0.0314
  C  C131  1  0.657600  0.814400  0.930260  1.0  -0.1042
  C  C132  1  0.722000  0.585300  0.107980  1.0  -0.0737
  C  C133  1  0.378300  0.250600  0.180010  1.0  0.0205
  C  C134  1  0.744000  0.351800  0.119200  1.0  -0.0784
  C  C135  1  0.076000  0.285300  0.442100  1.0  -0.1313
  C  C136  1  0.845500  0.428800  0.635790  1.0  0.2
  C  C137  1  0.785300  0.576000  0.057900  1.0  -0.1318
  C  C138  1  0.185600  0.657600  0.069740  1.0  -0.103
  C  C139  1  0.373300  0.284800  0.550840  1.0  0.712
  C  C140  1  0.873300  0.215200  0.050840  1.0  0.7118
  N  N141  1  0.606300  0.883100  0.182630  1.0  -0.3436
  N  N142  1  0.299500  0.168000  0.103240  1.0  -0.2277
  N  N143  1  0.116900  0.606300  0.817370  1.0  -0.342
  N  N144  1  0.883100  0.393700  0.817370  1.0  -0.3415
  N  N145  1  0.106300  0.616900  0.682630  1.0  -0.343
  N  N146  1  0.393700  0.116900  0.182630  1.0  -0.3431
  N  N147  1  0.799500  0.332000  0.603240  1.0  -0.2269
  N  N148  1  0.616900  0.893700  0.317370  1.0  -0.3412
  N  N149  1  0.832000  0.299500  0.896760  1.0  -0.2242
  N  N150  1  0.893700  0.383100  0.682630  1.0  -0.3439
  N  N151  1  0.383100  0.106300  0.317370  1.0  -0.3426
  N  N152  1  0.700500  0.832000  0.103240  1.0  -0.2265
  N  N153  1  0.668000  0.799500  0.396760  1.0  -0.2232
  N  N154  1  0.168000  0.700500  0.896760  1.0  -0.2225
  N  N155  1  0.200500  0.668000  0.603240  1.0  -0.226
  N  N156  1  0.332000  0.200500  0.396760  1.0  -0.2241
  O  O157  1  0.103800  0.874400  0.085120  1.0  -0.6453
  O  O158  1  0.099200  0.797600  0.999800  1.0  -0.626
  O  O159  1  0.202400  0.099200  0.000200  1.0  -0.6283
  O  O160  1  0.125600  0.103800  0.914880  1.0  -0.6447
  O  O161  1  0.874400  0.896200  0.914880  1.0  -0.6446
  O  O162  1  0.374400  0.603800  0.414880  1.0  -0.6452
  O  O163  1  0.797600  0.900800  0.000200  1.0  -0.6284
  O  O164  1  0.603800  0.625600  0.585120  1.0  -0.643
  O  O165  1  0.702400  0.400800  0.500200  1.0  -0.629
  O  O166  1  0.297600  0.599200  0.500200  1.0  -0.6278
  O  O167  1  0.896200  0.125600  0.085120  1.0  -0.6411
  O  O168  1  0.396200  0.374400  0.585120  1.0  -0.643
  O  O169  1  0.599200  0.702400  0.499800  1.0  -0.6258
  O  O170  1  0.900800  0.202400  0.999800  1.0  -0.6259
  O  O171  1  0.400800  0.297600  0.499800  1.0  -0.6262
  O  O172  1  0.625600  0.396200  0.414880  1.0  -0.6435
