# generated using pymatgen
data_CdH14C20(NO)4
_symmetry_space_group_name_H-M   'P 1'
_cell_length_a   13.20200000
_cell_length_b   27.47500000
_cell_length_c   7.64100000
_cell_angle_alpha   90.00000000
_cell_angle_beta   123.25400000
_cell_angle_gamma   90.00000000
_symmetry_Int_Tables_number   1
_chemical_formula_structural   CdH14C20(NO)4
_chemical_formula_sum   'Cd4 H56 C80 N16 O16'
_cell_volume   2317.72901043
_cell_formula_units_Z   4
loop_
 _symmetry_equiv_pos_site_id
 _symmetry_equiv_pos_as_xyz
  1  'x, y, z'
loop_
 _atom_site_type_symbol
 _atom_site_label
 _atom_site_symmetry_multiplicity
 _atom_site_fract_x
 _atom_site_fract_y
 _atom_site_fract_z
 _atom_site_occupancy
 _atom_site_charge
  Cd  Cd1  1  0.151110  0.402070  0.439160  1.0  0.9699
  Cd  Cd2  1  0.651110  0.902070  0.439160  1.0  0.9698
  Cd  Cd3  1  0.151110  0.597930  0.939160  1.0  0.97
  Cd  Cd4  1  0.651110  0.097930  0.939160  1.0  0.9698
  H  H5  1  0.947100  0.312100  0.460900  1.0  0.1194
  H  H6  1  0.848300  0.250600  0.217700  1.0  0.1066
  H  H7  1  0.850000  0.168800  0.653900  1.0  0.0979
  H  H8  1  0.950300  0.231300  0.899200  1.0  0.1172
  H  H9  1  0.054000  0.299900  0.135700  1.0  0.1019
  H  H10  1  0.055800  0.429700  0.950700  1.0  0.0919
  H  H11  1  0.551600  0.587400  0.640200  1.0  0.1228
  H  H12  1  0.753000  0.607300  0.784000  1.0  0.1001
  H  H13  1  0.835100  0.466300  0.789900  1.0  0.1119
  H  H14  1  0.637200  0.447400  0.633800  1.0  0.0856
  H  H15  1  0.447600  0.424600  0.618700  1.0  0.1204
  H  H16  1  0.177600  0.519500  0.366600  1.0  0.1075
  H  H17  1  0.974400  0.377800  0.659000  1.0  0.3187
  H  H18  1  0.360100  0.562300  0.471300  1.0  0.3215
  H  H19  1  0.447100  0.812100  0.460900  1.0  0.1194
  H  H20  1  0.348300  0.750600  0.217700  1.0  0.1066
  H  H21  1  0.350000  0.668800  0.653900  1.0  0.0979
  H  H22  1  0.450300  0.731300  0.899200  1.0  0.1172
  H  H23  1  0.554000  0.799900  0.135700  1.0  0.1019
  H  H24  1  0.555800  0.929700  0.950700  1.0  0.0919
  H  H25  1  0.051600  0.087400  0.640200  1.0  0.1228
  H  H26  1  0.253000  0.107300  0.784000  1.0  0.1001
  H  H27  1  0.335100  0.966300  0.789900  1.0  0.1119
  H  H28  1  0.137200  0.947400  0.633800  1.0  0.0856
  H  H29  1  0.947600  0.924600  0.618700  1.0  0.1204
  H  H30  1  0.677600  0.019500  0.366600  1.0  0.1075
  H  H31  1  0.474400  0.877800  0.659000  1.0  0.3187
  H  H32  1  0.860100  0.062300  0.471300  1.0  0.3215
  H  H33  1  0.947100  0.687900  0.960900  1.0  0.1198
  H  H34  1  0.848300  0.749400  0.717700  1.0  0.1067
  H  H35  1  0.850000  0.831200  0.153900  1.0  0.0979
  H  H36  1  0.950300  0.768700  0.399200  1.0  0.1174
  H  H37  1  0.054000  0.700100  0.635700  1.0  0.1011
  H  H38  1  0.055800  0.570300  0.450700  1.0  0.0928
  H  H39  1  0.551600  0.412600  0.140200  1.0  0.123
  H  H40  1  0.753000  0.392700  0.284000  1.0  0.1001
  H  H41  1  0.835100  0.533700  0.289900  1.0  0.112
  H  H42  1  0.637200  0.552600  0.133800  1.0  0.0855
  H  H43  1  0.447600  0.575400  0.118700  1.0  0.1202
  H  H44  1  0.177600  0.480500  0.866600  1.0  0.1058
  H  H45  1  0.974400  0.622200  0.159000  1.0  0.3193
  H  H46  1  0.360100  0.437700  0.971300  1.0  0.3202
  H  H47  1  0.447100  0.187900  0.960900  1.0  0.1198
  H  H48  1  0.348300  0.249400  0.717700  1.0  0.1067
  H  H49  1  0.350000  0.331200  0.153900  1.0  0.0979
  H  H50  1  0.450300  0.268700  0.399200  1.0  0.1174
  H  H51  1  0.554000  0.200100  0.635700  1.0  0.1011
  H  H52  1  0.555800  0.070300  0.450700  1.0  0.0928
  H  H53  1  0.051600  0.912600  0.140200  1.0  0.123
  H  H54  1  0.253000  0.892700  0.284000  1.0  0.1001
  H  H55  1  0.335100  0.033700  0.289900  1.0  0.112
  H  H56  1  0.137200  0.052600  0.133800  1.0  0.0855
  H  H57  1  0.947600  0.075400  0.118700  1.0  0.1202
  H  H58  1  0.677600  0.980500  0.866600  1.0  0.1058
  H  H59  1  0.474400  0.122200  0.159000  1.0  0.3193
  H  H60  1  0.860100  0.937700  0.971300  1.0  0.3202
  C  C61  1  0.925000  0.283600  0.497400  1.0  -0.1211
  C  C62  1  0.869000  0.246400  0.354300  1.0  -0.049
  C  C63  1  0.843300  0.202600  0.413200  1.0  -0.1437
  C  C64  1  0.870000  0.197500  0.615100  1.0  -0.0357
  C  C65  1  0.927300  0.235500  0.761300  1.0  -0.1231
  C  C66  1  0.948200  0.278000  0.698100  1.0  -0.0423
  C  C67  1  0.999500  0.321500  0.845300  1.0  0.076
  C  C68  1  0.044500  0.325700  0.049100  1.0  0.0437
  C  C69  1  0.045800  0.396200  0.952300  1.0  0.2018
  C  C70  1  0.778800  0.160500  0.265200  1.0  0.513
  C  C71  1  0.608700  0.563100  0.675200  1.0  -0.1391
  C  C72  1  0.728500  0.575000  0.753800  1.0  -0.0654
  C  C73  1  0.815400  0.538100  0.789300  1.0  -0.1202
  C  C74  1  0.778900  0.490900  0.756300  1.0  -0.1414
  C  C75  1  0.661300  0.479500  0.674800  1.0  -0.0846
  C  C76  1  0.574300  0.512600  0.648700  1.0  -0.0096
  C  C77  1  0.451200  0.498600  0.562600  1.0  0.1129
  C  C78  1  0.403700  0.453400  0.566700  1.0  0.0257
  C  C79  1  0.254900  0.506300  0.429800  1.0  0.188
  C  C80  1  0.944900  0.552300  0.861100  1.0  0.6739
  C  C81  1  0.425000  0.783600  0.497400  1.0  -0.1211
  C  C82  1  0.369000  0.746400  0.354300  1.0  -0.049
  C  C83  1  0.343300  0.702600  0.413200  1.0  -0.1437
  C  C84  1  0.370000  0.697500  0.615100  1.0  -0.0357
  C  C85  1  0.427300  0.735500  0.761300  1.0  -0.1231
  C  C86  1  0.448200  0.778000  0.698100  1.0  -0.0423
  C  C87  1  0.499500  0.821500  0.845300  1.0  0.076
  C  C88  1  0.544500  0.825700  0.049100  1.0  0.0437
  C  C89  1  0.545800  0.896200  0.952300  1.0  0.2018
  C  C90  1  0.278800  0.660500  0.265200  1.0  0.513
  C  C91  1  0.108700  0.063100  0.675200  1.0  -0.1391
  C  C92  1  0.228500  0.075000  0.753800  1.0  -0.0654
  C  C93  1  0.315400  0.038100  0.789300  1.0  -0.1202
  C  C94  1  0.278900  0.990900  0.756300  1.0  -0.1414
  C  C95  1  0.161300  0.979500  0.674800  1.0  -0.0846
  C  C96  1  0.074300  0.012600  0.648700  1.0  -0.0096
  C  C97  1  0.951200  0.998600  0.562600  1.0  0.1129
  C  C98  1  0.903700  0.953400  0.566700  1.0  0.0257
  C  C99  1  0.754900  0.006300  0.429800  1.0  0.188
  C  C100  1  0.444900  0.052300  0.861100  1.0  0.6739
  C  C101  1  0.925000  0.716400  0.997400  1.0  -0.1206
  C  C102  1  0.869000  0.753600  0.854300  1.0  -0.0485
  C  C103  1  0.843300  0.797400  0.913200  1.0  -0.1434
  C  C104  1  0.870000  0.802500  0.115100  1.0  -0.0351
  C  C105  1  0.927300  0.764500  0.261300  1.0  -0.1232
  C  C106  1  0.948200  0.722000  0.198100  1.0  -0.042
  C  C107  1  0.999500  0.678500  0.345300  1.0  0.0763
  C  C108  1  0.044500  0.674300  0.549100  1.0  0.043
  C  C109  1  0.045800  0.603800  0.452300  1.0  0.2018
  C  C110  1  0.778800  0.839500  0.765200  1.0  0.5138
  C  C111  1  0.608700  0.436900  0.175200  1.0  -0.1379
  C  C112  1  0.728500  0.425000  0.253800  1.0  -0.065
  C  C113  1  0.815400  0.461900  0.289300  1.0  -0.1199
  C  C114  1  0.778900  0.509100  0.256300  1.0  -0.1424
  C  C115  1  0.661300  0.520500  0.174800  1.0  -0.0855
  C  C116  1  0.574300  0.487400  0.148700  1.0  -0.0095
  C  C117  1  0.451200  0.501400  0.062600  1.0  0.1126
  C  C118  1  0.403700  0.546600  0.066700  1.0  0.0266
  C  C119  1  0.254900  0.493700  0.929800  1.0  0.1877
  C  C120  1  0.944900  0.447700  0.361100  1.0  0.674
  C  C121  1  0.425000  0.216400  0.997400  1.0  -0.1206
  C  C122  1  0.369000  0.253600  0.854300  1.0  -0.0485
  C  C123  1  0.343300  0.297400  0.913200  1.0  -0.1434
  C  C124  1  0.370000  0.302500  0.115100  1.0  -0.0351
  C  C125  1  0.427300  0.264500  0.261300  1.0  -0.1232
  C  C126  1  0.448200  0.222000  0.198100  1.0  -0.042
  C  C127  1  0.499500  0.178500  0.345300  1.0  0.0763
  C  C128  1  0.544500  0.174300  0.549100  1.0  0.043
  C  C129  1  0.545800  0.103800  0.452300  1.0  0.2018
  C  C130  1  0.278800  0.339500  0.765200  1.0  0.5138
  C  C131  1  0.108700  0.936900  0.175200  1.0  -0.1379
  C  C132  1  0.228500  0.925000  0.253800  1.0  -0.065
  C  C133  1  0.315400  0.961900  0.289300  1.0  -0.1199
  C  C134  1  0.278900  0.009100  0.256300  1.0  -0.1424
  C  C135  1  0.161300  0.020500  0.174800  1.0  -0.0855
  C  C136  1  0.074300  0.987400  0.148700  1.0  -0.0095
  C  C137  1  0.951200  0.001400  0.062600  1.0  0.1126
  C  C138  1  0.903700  0.046600  0.066700  1.0  0.0266
  C  C139  1  0.754900  0.993700  0.929800  1.0  0.1877
  C  C140  1  0.444900  0.947700  0.361100  1.0  0.674
  N  N141  1  0.074600  0.372700  0.114100  1.0  -0.3759
  N  N142  1  0.999600  0.368300  0.783800  1.0  -0.2129
  N  N143  1  0.283400  0.458400  0.482400  1.0  -0.3674
  N  N144  1  0.355600  0.531400  0.483600  1.0  -0.2385
  N  N145  1  0.574600  0.872700  0.114100  1.0  -0.3759
  N  N146  1  0.499600  0.868300  0.783800  1.0  -0.2129
  N  N147  1  0.783400  0.958400  0.482400  1.0  -0.3674
  N  N148  1  0.855600  0.031400  0.483600  1.0  -0.2385
  N  N149  1  0.074600  0.627300  0.614100  1.0  -0.376
  N  N150  1  0.999600  0.631700  0.283800  1.0  -0.213
  N  N151  1  0.283400  0.541600  0.982400  1.0  -0.3665
  N  N152  1  0.355600  0.468600  0.983600  1.0  -0.2383
  N  N153  1  0.574600  0.127300  0.614100  1.0  -0.376
  N  N154  1  0.499600  0.131700  0.283800  1.0  -0.213
  N  N155  1  0.783400  0.041600  0.982400  1.0  -0.3665
  N  N156  1  0.855600  0.968600  0.983600  1.0  -0.2383
  O  O157  1  0.732000  0.172200  0.067600  1.0  -0.611
  O  O158  1  0.773600  0.121900  0.308500  1.0  -0.6203
  O  O159  1  0.010900  0.523700  0.850000  1.0  -0.6257
  O  O160  1  0.973300  0.596200  0.922100  1.0  -0.6029
  O  O161  1  0.232000  0.672200  0.067600  1.0  -0.611
  O  O162  1  0.273600  0.621900  0.308500  1.0  -0.6217
  O  O163  1  0.510900  0.023700  0.850000  1.0  -0.6257
  O  O164  1  0.473300  0.096200  0.922100  1.0  -0.6029
  O  O165  1  0.732000  0.827800  0.567600  1.0  -0.6109
  O  O166  1  0.773600  0.878100  0.808500  1.0  -0.6197
  O  O167  1  0.010900  0.476300  0.350000  1.0  -0.6248
  O  O168  1  0.973300  0.403800  0.422100  1.0  -0.6025
  O  O169  1  0.232000  0.327800  0.567600  1.0  -0.6109
  O  O170  1  0.273600  0.378100  0.808500  1.0  -0.6211
  O  O171  1  0.510900  0.976300  0.350000  1.0  -0.6248
  O  O172  1  0.473300  0.903800  0.422100  1.0  -0.6025
