# generated using pymatgen
data_CdH14C20(NO)4
_symmetry_space_group_name_H-M   'P 1'
_cell_length_a   16.13220000
_cell_length_b   15.79810000
_cell_length_c   11.60420000
_cell_angle_alpha   90.00000000
_cell_angle_beta   90.00000000
_cell_angle_gamma   90.00000000
_symmetry_Int_Tables_number   1
_chemical_formula_structural   CdH14C20(NO)4
_chemical_formula_sum   'Cd4 H56 C80 N16 O16'
_cell_volume   2957.42446637
_cell_formula_units_Z   4
loop_
 _symmetry_equiv_pos_site_id
 _symmetry_equiv_pos_as_xyz
  1  'x, y, z'
loop_
 _atom_site_type_symbol
 _atom_site_label
 _atom_site_symmetry_multiplicity
 _atom_site_fract_x
 _atom_site_fract_y
 _atom_site_fract_z
 _atom_site_occupancy
 _atom_site_charge
  Cd  Cd1  1  0.750000  0.500000  0.825280  1.0  0.9239
  Cd  Cd2  1  0.250000  0.000000  0.325280  1.0  0.9239
  Cd  Cd3  1  0.750000  0.000000  0.674720  1.0  0.9238
  Cd  Cd4  1  0.250000  0.500000  0.174720  1.0  0.9238
  H  H5  1  0.641400  0.256700  0.067600  1.0  0.0904
  H  H6  1  0.532100  0.176100  0.136100  1.0  0.1065
  H  H7  1  0.371300  0.349400  0.015900  1.0  0.1034
  H  H8  1  0.480900  0.431300  0.950500  1.0  0.0983
  H  H9  1  0.418500  0.096200  0.202500  1.0  0.1078
  H  H10  1  0.185700  0.168000  0.169800  1.0  0.0962
  H  H11  1  0.269600  0.268400  0.076400  1.0  0.2996
  H  H12  1  0.858600  0.743300  0.067600  1.0  0.0906
  H  H13  1  0.967900  0.823900  0.136100  1.0  0.1074
  H  H14  1  0.128700  0.650600  0.015900  1.0  0.1025
  H  H15  1  0.019100  0.568700  0.950500  1.0  0.0983
  H  H16  1  0.081500  0.903800  0.202500  1.0  0.1073
  H  H17  1  0.314300  0.832000  0.169800  1.0  0.0951
  H  H18  1  0.230400  0.731600  0.076400  1.0  0.299
  H  H19  1  0.141400  0.243300  0.567600  1.0  0.0908
  H  H20  1  0.032100  0.323900  0.636100  1.0  0.1066
  H  H21  1  0.871300  0.150600  0.515900  1.0  0.1033
  H  H22  1  0.980900  0.068700  0.450500  1.0  0.0981
  H  H23  1  0.918500  0.403800  0.702500  1.0  0.1073
  H  H24  1  0.685700  0.332000  0.669800  1.0  0.0965
  H  H25  1  0.769600  0.231600  0.576400  1.0  0.299
  H  H26  1  0.358600  0.756700  0.567600  1.0  0.0904
  H  H27  1  0.467900  0.676100  0.636100  1.0  0.1072
  H  H28  1  0.628700  0.849400  0.515900  1.0  0.1029
  H  H29  1  0.519100  0.931300  0.450500  1.0  0.0984
  H  H30  1  0.581500  0.596200  0.702500  1.0  0.1079
  H  H31  1  0.814300  0.668000  0.669800  1.0  0.0948
  H  H32  1  0.730400  0.768400  0.576400  1.0  0.2993
  H  H33  1  0.858600  0.756700  0.432400  1.0  0.0903
  H  H34  1  0.967900  0.676100  0.363900  1.0  0.1074
  H  H35  1  0.128700  0.849400  0.484100  1.0  0.1031
  H  H36  1  0.019100  0.931300  0.549500  1.0  0.098
  H  H37  1  0.081500  0.596200  0.297500  1.0  0.1084
  H  H38  1  0.314300  0.668000  0.330200  1.0  0.096
  H  H39  1  0.230400  0.768400  0.423600  1.0  0.2988
  H  H40  1  0.641400  0.243300  0.432400  1.0  0.0907
  H  H41  1  0.532100  0.323900  0.363900  1.0  0.1065
  H  H42  1  0.371300  0.150600  0.484100  1.0  0.1021
  H  H43  1  0.480900  0.068700  0.549500  1.0  0.0983
  H  H44  1  0.418500  0.403800  0.297500  1.0  0.1076
  H  H45  1  0.185700  0.332000  0.330200  1.0  0.0971
  H  H46  1  0.269600  0.231600  0.423600  1.0  0.2996
  H  H47  1  0.358600  0.743300  0.932400  1.0  0.0904
  H  H48  1  0.467900  0.823900  0.863900  1.0  0.1075
  H  H49  1  0.628700  0.650600  0.984100  1.0  0.1028
  H  H50  1  0.519100  0.568700  0.049500  1.0  0.0983
  H  H51  1  0.581500  0.903800  0.797500  1.0  0.1078
  H  H52  1  0.814300  0.832000  0.830200  1.0  0.0964
  H  H53  1  0.730400  0.731600  0.923600  1.0  0.2989
  H  H54  1  0.141400  0.256700  0.932400  1.0  0.0903
  H  H55  1  0.032100  0.176100  0.863900  1.0  0.1067
  H  H56  1  0.871300  0.349400  0.984100  1.0  0.1023
  H  H57  1  0.980900  0.431300  0.049500  1.0  0.098
  H  H58  1  0.918500  0.096200  0.797500  1.0  0.1081
  H  H59  1  0.685700  0.168000  0.830200  1.0  0.0967
  H  H60  1  0.769600  0.268400  0.923600  1.0  0.2995
  C  C61  1  0.643340  0.401300  0.948500  1.0  0.6831
  C  C62  1  0.572980  0.351500  0.000600  1.0  -0.1425
  C  C63  1  0.587300  0.275400  0.057000  1.0  -0.0465
  C  C64  1  0.521620  0.226700  0.097700  1.0  -0.1148
  C  C65  1  0.439670  0.253680  0.081200  1.0  0.041
  C  C66  1  0.425400  0.330500  0.026300  1.0  -0.1027
  C  C67  1  0.491240  0.379700  0.986400  1.0  -0.0493
  C  C68  1  0.370270  0.202140  0.121800  1.0  0.0454
  C  C69  1  0.371340  0.126140  0.180900  1.0  0.0138
  C  C70  1  0.243000  0.165600  0.162300  1.0  0.1897
  C  C71  1  0.856660  0.598700  0.948500  1.0  0.6829
  C  C72  1  0.927020  0.648500  0.000600  1.0  -0.1438
  C  C73  1  0.912700  0.724600  0.057000  1.0  -0.0458
  C  C74  1  0.978380  0.773300  0.097700  1.0  -0.1145
  C  C75  1  0.060330  0.746320  0.081200  1.0  0.0406
  C  C76  1  0.074600  0.669500  0.026300  1.0  -0.1032
  C  C77  1  0.008760  0.620300  0.986400  1.0  -0.0495
  C  C78  1  0.129730  0.797860  0.121800  1.0  0.0427
  C  C79  1  0.128660  0.873860  0.180900  1.0  0.0164
  C  C80  1  0.257000  0.834400  0.162300  1.0  0.1904
  C  C81  1  0.143340  0.098700  0.448500  1.0  0.6829
  C  C82  1  0.072980  0.148500  0.500600  1.0  -0.1432
  C  C83  1  0.087300  0.224600  0.557000  1.0  -0.0472
  C  C84  1  0.021620  0.273300  0.597700  1.0  -0.1154
  C  C85  1  0.939670  0.246320  0.581200  1.0  0.0425
  C  C86  1  0.925400  0.169500  0.526300  1.0  -0.1024
  C  C87  1  0.991240  0.120300  0.486400  1.0  -0.0493
  C  C88  1  0.870270  0.297860  0.621800  1.0  0.0449
  C  C89  1  0.871340  0.373860  0.680900  1.0  0.0156
  C  C90  1  0.743000  0.334400  0.662300  1.0  0.1901
  C  C91  1  0.356660  0.901300  0.448500  1.0  0.6829
  C  C92  1  0.427020  0.851500  0.500600  1.0  -0.1428
  C  C93  1  0.412700  0.775400  0.557000  1.0  -0.0453
  C  C94  1  0.478380  0.726700  0.597700  1.0  -0.1133
  C  C95  1  0.560330  0.753680  0.581200  1.0  0.0391
  C  C96  1  0.574600  0.830500  0.526300  1.0  -0.1038
  C  C97  1  0.508760  0.879700  0.486400  1.0  -0.05
  C  C98  1  0.629730  0.702140  0.621800  1.0  0.0428
  C  C99  1  0.628660  0.626140  0.680900  1.0  0.016
  C  C100  1  0.757000  0.665600  0.662300  1.0  0.1888
  C  C101  1  0.856660  0.901300  0.551500  1.0  0.683
  C  C102  1  0.927020  0.851500  0.499400  1.0  -0.1433
  C  C103  1  0.912700  0.775400  0.443000  1.0  -0.0457
  C  C104  1  0.978380  0.726700  0.402300  1.0  -0.1136
  C  C105  1  0.060330  0.753680  0.418800  1.0  0.0412
  C  C106  1  0.074600  0.830500  0.473700  1.0  -0.1039
  C  C107  1  0.008760  0.879700  0.513600  1.0  -0.0495
  C  C108  1  0.129730  0.702140  0.378200  1.0  0.0426
  C  C109  1  0.128660  0.626140  0.319100  1.0  0.0148
  C  C110  1  0.257000  0.665600  0.337700  1.0  0.1899
  C  C111  1  0.643340  0.098700  0.551500  1.0  0.6828
  C  C112  1  0.572980  0.148500  0.499400  1.0  -0.1436
  C  C113  1  0.587300  0.224600  0.443000  1.0  -0.0472
  C  C114  1  0.521620  0.273300  0.402300  1.0  -0.1155
  C  C115  1  0.439670  0.246320  0.418800  1.0  0.0419
  C  C116  1  0.425400  0.169500  0.473700  1.0  -0.1038
  C  C117  1  0.491240  0.120300  0.513600  1.0  -0.0505
  C  C118  1  0.370270  0.297860  0.378200  1.0  0.0433
  C  C119  1  0.371340  0.373860  0.319100  1.0  0.0139
  C  C120  1  0.243000  0.334400  0.337700  1.0  0.1894
  C  C121  1  0.356660  0.598700  0.051500  1.0  0.683
  C  C122  1  0.427020  0.648500  0.999400  1.0  -0.1441
  C  C123  1  0.412700  0.724600  0.943000  1.0  -0.046
  C  C124  1  0.478380  0.773300  0.902300  1.0  -0.1147
  C  C125  1  0.560330  0.746320  0.918800  1.0  0.0388
  C  C126  1  0.574600  0.669500  0.973700  1.0  -0.104
  C  C127  1  0.508760  0.620300  0.013600  1.0  -0.0499
  C  C128  1  0.629730  0.797860  0.878200  1.0  0.0421
  C  C129  1  0.628660  0.873860  0.819100  1.0  0.0142
  C  C130  1  0.757000  0.834400  0.837700  1.0  0.1893
  C  C131  1  0.143340  0.401300  0.051500  1.0  0.6831
  C  C132  1  0.072980  0.351500  0.999400  1.0  -0.143
  C  C133  1  0.087300  0.275400  0.943000  1.0  -0.0467
  C  C134  1  0.021620  0.226700  0.902300  1.0  -0.115
  C  C135  1  0.939670  0.253680  0.918800  1.0  0.0438
  C  C136  1  0.925400  0.330500  0.973700  1.0  -0.1037
  C  C137  1  0.991240  0.379700  0.013600  1.0  -0.0497
  C  C138  1  0.870270  0.202140  0.878200  1.0  0.0451
  C  C139  1  0.871340  0.126140  0.819100  1.0  0.013
  C  C140  1  0.743000  0.165600  0.837700  1.0  0.1916
  N  N141  1  0.290160  0.102220  0.202500  1.0  -0.4131
  N  N142  1  0.288240  0.224150  0.110800  1.0  -0.2416
  N  N143  1  0.209840  0.897780  0.202500  1.0  -0.4157
  N  N144  1  0.211760  0.775850  0.110800  1.0  -0.2422
  N  N145  1  0.790160  0.397780  0.702500  1.0  -0.4161
  N  N146  1  0.788240  0.275850  0.610800  1.0  -0.2418
  N  N147  1  0.709840  0.602220  0.702500  1.0  -0.4117
  N  N148  1  0.711760  0.724150  0.610800  1.0  -0.2421
  N  N149  1  0.209840  0.602220  0.297500  1.0  -0.4105
  N  N150  1  0.211760  0.724150  0.389200  1.0  -0.2414
  N  N151  1  0.290160  0.397780  0.297500  1.0  -0.4154
  N  N152  1  0.288240  0.275850  0.389200  1.0  -0.2422
  N  N153  1  0.709840  0.897780  0.797500  1.0  -0.415
  N  N154  1  0.711760  0.775850  0.889200  1.0  -0.2414
  N  N155  1  0.790160  0.102220  0.797500  1.0  -0.4119
  N  N156  1  0.788240  0.224150  0.889200  1.0  -0.2423
  O  O157  1  0.717100  0.376800  0.963470  1.0  -0.627
  O  O158  1  0.625620  0.466250  0.891410  1.0  -0.596
  O  O159  1  0.782900  0.623200  0.963470  1.0  -0.6268
  O  O160  1  0.874380  0.533750  0.891410  1.0  -0.5957
  O  O161  1  0.217100  0.123200  0.463470  1.0  -0.6276
  O  O162  1  0.125620  0.033750  0.391410  1.0  -0.5958
  O  O163  1  0.282900  0.876800  0.463470  1.0  -0.6259
  O  O164  1  0.374380  0.966250  0.391410  1.0  -0.5969
  O  O165  1  0.782900  0.876800  0.536530  1.0  -0.6251
  O  O166  1  0.874380  0.966250  0.608590  1.0  -0.5971
  O  O167  1  0.717100  0.123200  0.536530  1.0  -0.6275
  O  O168  1  0.625620  0.033750  0.608590  1.0  -0.5952
  O  O169  1  0.282900  0.623200  0.036530  1.0  -0.626
  O  O170  1  0.374380  0.533750  0.108590  1.0  -0.5966
  O  O171  1  0.217100  0.376800  0.036530  1.0  -0.6269
  O  O172  1  0.125620  0.466250  0.108590  1.0  -0.5969
