# generated using pymatgen
data_Co2H28C44N6O5
_symmetry_space_group_name_H-M   'P 1'
_cell_length_a   21.11000000
_cell_length_b   21.11000000
_cell_length_c   29.85500000
_cell_angle_alpha   69.29590000
_cell_angle_beta   69.29590000
_cell_angle_gamma   90.00000000
_symmetry_Int_Tables_number   1
_chemical_formula_structural   Co2H28C44N6O5
_chemical_formula_sum   'Co8 H112 C176 N24 O20'
_cell_volume   11522.02801848
_cell_formula_units_Z   4
loop_
 _symmetry_equiv_pos_site_id
 _symmetry_equiv_pos_as_xyz
  1  'x, y, z'
loop_
 _atom_site_type_symbol
 _atom_site_label
 _atom_site_symmetry_multiplicity
 _atom_site_fract_x
 _atom_site_fract_y
 _atom_site_fract_z
 _atom_site_occupancy
 _atom_site_charge
  Co  Co1  1  0.060420  0.421680  0.232720  1.0  0.8925
  Co  Co2  1  0.939580  0.578320  0.767280  1.0  0.8919
  Co  Co3  1  0.793140  0.654400  0.767280  1.0  0.8904
  Co  Co4  1  0.654400  0.939580  0.267280  1.0  0.891
  Co  Co5  1  0.578320  0.793140  0.267280  1.0  0.8943
  Co  Co6  1  0.206860  0.345600  0.232720  1.0  0.8906
  Co  Co7  1  0.345590  0.060420  0.732730  1.0  0.8934
  Co  Co8  1  0.421680  0.206860  0.732720  1.0  0.8906
  H  H9  1  0.501100  0.314200  0.749600  1.0  0.071
  H  H10  1  0.747700  0.336900  0.991600  1.0  0.0985
  H  H11  1  0.128500  0.436700  0.790800  1.0  0.1096
  H  H12  1  0.074600  0.409400  0.956000  1.0  0.1009
  H  H13  1  0.226900  0.294900  0.947200  1.0  0.0995
  H  H14  1  0.996000  0.546100  0.079000  1.0  0.11
  H  H15  1  0.705100  0.674100  0.552800  1.0  0.0982
  H  H16  1  0.365400  0.925400  0.544000  1.0  0.1003
  H  H17  1  0.674200  0.817800  0.412800  1.0  0.0875
  H  H18  1  0.242100  0.773100  0.552800  1.0  0.1003
  H  H19  1  0.207100  0.281600  0.345000  1.0  0.0588
  H  H20  1  0.295000  0.452100  0.238200  1.0  0.0664
  H  H21  1  0.253300  0.301400  0.397800  1.0  0.1093
  H  H22  1  0.661600  0.519700  0.710000  1.0  0.108
  H  H23  1  0.355300  0.343600  0.619800  1.0  0.0963
  H  H24  1  0.409400  0.469400  0.456000  1.0  0.1017
  H  H25  1  0.396800  0.955400  0.458200  1.0  0.1019
  H  H26  1  0.469400  0.634600  0.956000  1.0  0.1002
  H  H27  1  0.128400  0.770300  0.710000  1.0  0.1092
  H  H28  1  0.580700  0.772500  0.790800  1.0  0.1103
  H  H29  1  0.229700  0.338400  0.790000  1.0  0.1101
  H  H30  1  0.942700  0.515800  0.876000  1.0  0.0627
  H  H31  1  0.750700  0.063800  0.250400  1.0  0.0724
  H  H32  1  0.413000  0.769400  0.412800  1.0  0.0868
  H  H33  1  0.328500  0.252300  0.508400  1.0  0.0994
  H  H34  1  0.498900  0.685800  0.250400  1.0  0.0722
  H  H35  1  0.343600  0.524900  0.119800  1.0  0.0973
  H  H36  1  0.645000  0.586400  0.458200  1.0  0.1027
  H  H37  1  0.699200  0.746700  0.102200  1.0  0.1109
  H  H38  1  0.772500  0.128500  0.290800  1.0  0.1104
  H  H39  1  0.586400  0.396800  0.958200  1.0  0.1023
  H  H40  1  0.792900  0.718400  0.655000  1.0  0.0602
  H  H41  1  0.626600  0.792900  0.155000  1.0  0.0618
  H  H42  1  0.063800  0.498900  0.750400  1.0  0.0729
  H  H43  1  0.757900  0.226900  0.447200  1.0  0.0999
  H  H44  1  0.413600  0.603200  0.041800  1.0  0.1019
  H  H45  1  0.057300  0.484200  0.124000  1.0  0.0624
  H  H46  1  0.671500  0.747700  0.491600  1.0  0.0995
  H  H47  1  0.425000  0.374900  0.079000  1.0  0.1111
  H  H48  1  0.338400  0.480300  0.290000  1.0  0.1091
  H  H49  1  0.036600  0.355300  0.119800  1.0  0.0977
  H  H50  1  0.336900  0.760700  0.491600  1.0  0.0984
  H  H51  1  0.524900  0.036600  0.619800  1.0  0.0974
  H  H52  1  0.955400  0.645000  0.958200  1.0  0.101
  H  H53  1  0.674100  0.242100  0.052800  1.0  0.0997
  H  H54  1  0.575000  0.625100  0.921000  1.0  0.1108
  H  H55  1  0.656400  0.475100  0.880200  1.0  0.0975
  H  H56  1  0.151100  0.699200  0.602200  1.0  0.1106
  H  H57  1  0.033200  0.690300  0.761800  1.0  0.0665
  H  H58  1  0.374900  0.996000  0.579000  1.0  0.1105
  H  H59  1  0.318700  0.391800  0.124000  1.0  0.0623
  H  H60  1  0.663100  0.239300  0.508400  1.0  0.0991
  H  H61  1  0.325800  0.182200  0.587200  1.0  0.0878
  H  H62  1  0.519700  0.128400  0.210000  1.0  0.1091
  H  H63  1  0.773100  0.705100  0.052800  1.0  0.0993
  H  H64  1  0.705000  0.547900  0.761800  1.0  0.0658
  H  H65  1  0.530600  0.365400  0.044000  1.0  0.1012
  H  H66  1  0.603200  0.044600  0.541800  1.0  0.1023
  H  H67  1  0.004000  0.453900  0.921000  1.0  0.11
  H  H68  1  0.769400  0.674200  0.912800  1.0  0.0891
  H  H69  1  0.436700  0.580700  0.290800  1.0  0.11
  H  H70  1  0.230600  0.325800  0.087200  1.0  0.0886
  H  H71  1  0.848900  0.300800  0.397800  1.0  0.1117
  H  H72  1  0.373400  0.207100  0.845000  1.0  0.0613
  H  H73  1  0.634600  0.074600  0.456000  1.0  0.1005
  H  H74  1  0.690300  0.705000  0.261800  1.0  0.0656
  H  H75  1  0.546100  0.425000  0.579000  1.0  0.1098
  H  H76  1  0.227500  0.871500  0.709200  1.0  0.1102
  H  H77  1  0.625100  0.004000  0.421000  1.0  0.1105
  H  H78  1  0.314200  0.249300  0.249600  1.0  0.0723
  H  H79  1  0.963400  0.644700  0.880200  1.0  0.0976
  H  H80  1  0.681300  0.608200  0.876000  1.0  0.0626
  H  H81  1  0.355000  0.413600  0.541800  1.0  0.1017
  H  H82  1  0.547900  0.033200  0.261800  1.0  0.0661
  H  H83  1  0.052100  0.626600  0.655000  1.0  0.0621
  H  H84  1  0.644700  0.656400  0.380200  1.0  0.097
  H  H85  1  0.301400  0.848900  0.897800  1.0  0.1078
  H  H86  1  0.239300  0.328500  0.008400  1.0  0.0978
  H  H87  1  0.746700  0.698600  0.602200  1.0  0.1103
  H  H88  1  0.281600  0.947900  0.845000  1.0  0.0615
  H  H89  1  0.770300  0.661600  0.210000  1.0  0.1098
  H  H90  1  0.309700  0.295000  0.738200  1.0  0.0672
  H  H91  1  0.453900  0.575000  0.421000  1.0  0.1101
  H  H92  1  0.452100  0.966800  0.738200  1.0  0.0662
  H  H93  1  0.044600  0.355000  0.041800  1.0  0.1007
  H  H94  1  0.966800  0.309700  0.238200  1.0  0.0675
  H  H95  1  0.590600  0.530600  0.544000  1.0  0.1016
  H  H96  1  0.698600  0.151100  0.102200  1.0  0.1084
  H  H97  1  0.475100  0.963400  0.380200  1.0  0.0972
  H  H98  1  0.325900  0.757900  0.947200  1.0  0.0984
  H  H99  1  0.182200  0.587000  0.087200  1.0  0.0893
  H  H100  1  0.936200  0.501100  0.249600  1.0  0.0738
  H  H101  1  0.419300  0.227500  0.209200  1.0  0.1103
  H  H102  1  0.925400  0.590600  0.044000  1.0  0.1013
  H  H103  1  0.563300  0.419300  0.709200  1.0  0.1101
  H  H104  1  0.587000  0.230600  0.587200  1.0  0.0868
  H  H105  1  0.480300  0.871600  0.790000  1.0  0.1099
  H  H106  1  0.249300  0.936200  0.749600  1.0  0.0741
  H  H107  1  0.484200  0.318700  0.624000  1.0  0.0641
  H  H108  1  0.817800  0.413000  0.912800  1.0  0.0878
  H  H109  1  0.871500  0.563300  0.209200  1.0  0.1102
  H  H110  1  0.718400  0.052100  0.155000  1.0  0.0621
  H  H111  1  0.300800  0.253300  0.897800  1.0  0.1103
  H  H112  1  0.685800  0.750700  0.750400  1.0  0.0729
  H  H113  1  0.515800  0.681300  0.376000  1.0  0.0639
  H  H114  1  0.252300  0.663100  0.008400  1.0  0.0986
  H  H115  1  0.608200  0.942700  0.376000  1.0  0.0631
  H  H116  1  0.760700  0.671500  0.991600  1.0  0.0972
  H  H117  1  0.947900  0.373400  0.345000  1.0  0.0633
  H  H118  1  0.294900  0.325900  0.447200  1.0  0.098
  H  H119  1  0.391800  0.057300  0.624000  1.0  0.0634
  H  H120  1  0.871600  0.229700  0.290000  1.0  0.1095
  C  C121  1  0.728450  0.365050  0.969500  1.0  -0.1493
  C  C122  1  0.561720  0.114320  0.197160  1.0  -0.1343
  C  C123  1  0.344580  0.341480  0.514640  1.0  0.0601
  C  C124  1  0.870170  0.653670  0.838060  1.0  0.7185
  C  C125  1  0.412920  0.787720  0.884960  1.0  0.1275
  C  C126  1  0.865960  0.657760  0.888480  1.0  -0.1495
  C  C127  1  0.856120  0.655420  0.985360  1.0  0.0616
  C  C128  1  0.802330  0.679630  0.066740  1.0  -0.1055
  C  C129  1  0.366610  0.599210  0.050180  1.0  -0.1264
  C  C130  1  0.508270  0.870170  0.338060  1.0  0.7191
  C  C131  1  0.892280  0.611480  0.061640  1.0  -0.0901
  C  C132  1  0.311480  0.438280  0.302840  1.0  -0.1349
  C  C133  1  0.787720  0.202120  0.384960  1.0  0.1286
  C  C134  1  0.596720  0.652220  0.885960  1.0  -0.2028
  C  C135  1  0.333190  0.229290  0.577820  1.0  -0.0507
  C  C136  1  0.738760  0.090560  0.309480  1.0  -0.132
  C  C137  1  0.688520  0.561720  0.697160  1.0  -0.1347
  C  C138  1  0.347780  0.982680  0.614040  1.0  -0.1998
  C  C139  1  0.324650  0.552450  0.097300  1.0  -0.0743
  C  C140  1  0.202120  0.327320  0.884960  1.0  0.1314
  C  C141  1  0.342240  0.254440  0.611520  1.0  -0.1518
  C  C142  1  0.664870  0.127170  0.134460  1.0  -0.2015
  C  C143  1  0.701560  0.605560  0.648480  1.0  0.0789
  C  C144  1  0.369070  0.746370  0.933260  1.0  -0.1053
  C  C145  1  0.271550  0.634950  0.030500  1.0  -0.1476
  C  C146  1  0.605560  0.149960  0.148480  1.0  0.0785
  C  C147  1  0.327320  0.412920  0.384960  1.0  0.1256
  C  C148  1  0.261630  0.335130  0.365540  1.0  -0.2049
  C  C149  1  0.665450  0.728450  0.469500  1.0  -0.1519
  C  C150  1  0.770710  0.411010  0.922180  1.0  -0.0522
  C  C151  1  0.107720  0.388520  0.938360  1.0  -0.0898
  C  C152  1  0.341480  0.640780  0.014640  1.0  0.061
  C  C153  1  0.320370  0.369070  0.433260  1.0  -0.1054
  C  C154  1  0.212280  0.797880  0.615040  1.0  0.1266
  C  C155  1  0.283620  0.884620  0.610760  1.0  0.2117
  C  C156  1  0.982680  0.538180  0.114040  1.0  -0.2025
  C  C157  1  0.660790  0.641890  0.858420  1.0  0.1521
  C  C158  1  0.802050  0.665450  0.969500  1.0  -0.1468
  C  C159  1  0.435530  0.564430  0.362140  1.0  -0.0923
  C  C160  1  0.548240  0.400040  0.690520  1.0  -0.1333
  C  C161  1  0.850040  0.254040  0.351520  1.0  0.083
  C  C162  1  0.724730  0.051230  0.285540  1.0  0.1678
  C  C163  1  0.741120  0.688520  0.197160  1.0  -0.1362
  C  C164  1  0.017320  0.461820  0.885960  1.0  -0.2004
  C  C165  1  0.716380  0.115380  0.389240  1.0  0.2122
  C  C166  1  0.451760  0.599960  0.309480  1.0  -0.1327
  C  C167  1  0.504620  0.283620  0.110760  1.0  0.2115
  C  C168  1  0.335130  0.872830  0.865540  1.0  -0.2014
  C  C169  1  0.387830  0.687330  0.961940  1.0  0.0535
  C  C170  1  0.275270  0.948770  0.714460  1.0  0.1672
  C  C171  1  0.655420  0.658520  0.485360  1.0  0.06
  C  C172  1  0.649270  0.612170  0.538060  1.0  0.0545
  C  C173  1  0.564430  0.702330  0.862140  1.0  -0.0889
  C  C174  1  0.715280  0.579380  0.728240  1.0  0.1857
  C  C175  1  0.538180  0.403280  0.614040  1.0  -0.2039
  C  C176  1  0.229290  0.588990  0.077820  1.0  -0.0559
  C  C177  1  0.980790  0.499690  0.858420  1.0  0.1518
  C  C178  1  0.653670  0.791770  0.338060  1.0  0.7152
  C  C179  1  0.612170  0.312670  0.038060  1.0  0.0538
  C  C180  1  0.339210  0.358110  0.141580  1.0  0.1519
  C  C181  1  0.849770  0.649270  0.038060  1.0  0.0548
  C  C182  1  0.658520  0.359220  0.985360  1.0  0.0613
  C  C183  1  0.350730  0.387830  0.461940  1.0  0.0541
  C  C184  1  0.127170  0.700670  0.634460  1.0  -0.1999
  C  C185  1  0.500310  0.339210  0.641580  1.0  0.1517
  C  C186  1  0.235320  0.322920  0.332360  1.0  0.172
  C  C187  1  0.495380  0.716380  0.889240  1.0  0.2112
  C  C188  1  0.114320  0.741120  0.697160  1.0  -0.1351
  C  C189  1  0.675350  0.447550  0.902700  1.0  -0.0727
  C  C190  1  0.197950  0.334550  0.030500  1.0  -0.1481
  C  C191  1  0.738370  0.664870  0.634460  1.0  -0.2045
  C  C192  1  0.649750  0.675350  0.402700  1.0  -0.0733
  C  C193  1  0.916790  0.649390  0.949820  1.0  -0.1255
  C  C194  1  0.254040  0.298440  0.851520  1.0  0.0794
  C  C195  1  0.400040  0.261240  0.190520  1.0  -0.1319
  C  C196  1  0.359220  0.856120  0.485360  1.0  0.0594
  C  C197  1  0.746370  0.197670  0.433260  1.0  -0.1038
  C  C198  1  0.672680  0.587080  0.615040  1.0  0.1293
  C  C199  1  0.655280  0.764680  0.167640  1.0  0.1702
  C  C200  1  0.489730  0.663230  0.285540  1.0  0.1636
  C  C201  1  0.926570  0.564470  0.137860  1.0  -0.0892
  C  C202  1  0.394440  0.850040  0.851520  1.0  0.0845
  C  C203  1  0.307620  0.284720  0.771760  1.0  0.1819
  C  C204  1  0.322920  0.932320  0.832360  1.0  0.171
  C  C205  1  0.254440  0.546240  0.111520  1.0  -0.1512
  C  C206  1  0.599960  0.738760  0.809480  1.0  -0.133
  C  C207  1  0.564470  0.435570  0.637860  1.0  -0.0889
  C  C208  1  0.312670  0.849770  0.538060  1.0  0.0548
  C  C209  1  0.673120  0.107720  0.438360  1.0  -0.0892
  C  C210  1  0.552450  0.078050  0.597300  1.0  -0.0751
  C  C211  1  0.932320  0.344720  0.332360  1.0  0.1679
  C  C212  1  0.948770  0.510270  0.214460  1.0  0.1638
  C  C213  1  0.499690  0.660790  0.358420  1.0  0.1529
  C  C214  1  0.051230  0.489730  0.785540  1.0  0.1654
  C  C215  1  0.365050  0.802050  0.469500  1.0  -0.1536
  C  C216  1  0.253630  0.802330  0.566740  1.0  -0.1044
  C  C217  1  0.791770  0.508270  0.838060  1.0  0.7132
  C  C218  1  0.679630  0.630930  0.566740  1.0  -0.1041
  C  C219  1  0.394380  0.495380  0.389240  1.0  0.2193
  C  C220  1  0.403280  0.347780  0.114040  1.0  -0.2042
  C  C221  1  0.633390  0.400790  0.949820  1.0  -0.1276
  C  C222  1  0.326880  0.892280  0.561640  1.0  -0.0884
  C  C223  1  0.115380  0.394380  0.889240  1.0  0.2144
  C  C224  1  0.491730  0.129830  0.661940  1.0  0.7183
  C  C225  1  0.909440  0.548240  0.190520  1.0  -0.1349
  C  C226  1  0.149960  0.745960  0.648480  1.0  0.0787
  C  C227  1  0.299330  0.261630  0.865540  1.0  -0.2
  C  C228  1  0.298440  0.394440  0.351520  1.0  0.0842
  C  C229  1  0.605620  0.504620  0.610760  1.0  0.2118
  C  C230  1  0.666810  0.770710  0.422180  1.0  -0.0526
  C  C231  1  0.192890  0.333190  0.077820  1.0  -0.0498
  C  C232  1  0.921950  0.649750  0.902700  1.0  -0.0716
  C  C233  1  0.334550  0.271550  0.530500  1.0  -0.1525
  C  C234  1  0.943520  0.307620  0.271760  1.0  0.1813
  C  C235  1  0.447550  0.921950  0.402700  1.0  -0.0737
  C  C236  1  0.056480  0.692380  0.728240  1.0  0.1791
  C  C237  1  0.073430  0.435530  0.862140  1.0  -0.09
  C  C238  1  0.692380  0.715280  0.228240  1.0  0.181
  C  C239  1  0.634950  0.197950  0.530500  1.0  -0.1533
  C  C240  1  0.358110  0.019210  0.641580  1.0  0.1536
  C  C241  1  0.258880  0.311480  0.802840  1.0  -0.1351
  C  C242  1  0.297670  0.926570  0.637860  1.0  -0.0914
  C  C243  1  0.208230  0.491730  0.161940  1.0  0.713
  C  C244  1  0.143880  0.344580  0.014640  1.0  0.0622
  C  C245  1  0.649390  0.633390  0.449820  1.0  -0.1271
  C  C246  1  0.411010  0.807110  0.422180  1.0  -0.0498
  C  C247  1  0.884620  0.605620  0.110760  1.0  0.2125
  C  C248  1  0.745960  0.701560  0.148480  1.0  0.0791
  C  C249  1  0.510270  0.336770  0.714460  1.0  0.1654
  C  C250  1  0.350250  0.324650  0.597300  1.0  -0.0735
  C  C251  1  0.078050  0.350250  0.097300  1.0  -0.0721
  C  C252  1  0.700670  0.738370  0.134460  1.0  -0.1991
  C  C253  1  0.420620  0.943520  0.771760  1.0  0.1844
  C  C254  1  0.641890  0.980790  0.358420  1.0  0.1545
  C  C255  1  0.453920  0.673120  0.938360  1.0  -0.0883
  C  C256  1  0.350610  0.366610  0.550180  1.0  -0.1289
  C  C257  1  0.579380  0.056480  0.228240  1.0  0.1857
  C  C258  1  0.284720  0.420620  0.271760  1.0  0.1862
  C  C259  1  0.344720  0.235320  0.832360  1.0  0.1698
  C  C260  1  0.702330  0.073430  0.362140  1.0  -0.0931
  C  C261  1  0.588990  0.192890  0.577820  1.0  -0.0515
  C  C262  1  0.745560  0.453760  0.888480  1.0  -0.1529
  C  C263  1  0.546240  0.134040  0.611520  1.0  -0.1544
  C  C264  1  0.587080  0.212280  0.115040  1.0  0.1298
  C  C265  1  0.019210  0.500310  0.141580  1.0  0.1528
  C  C266  1  0.090560  0.451760  0.809480  1.0  -0.1329
  C  C267  1  0.640780  0.143880  0.514640  1.0  0.0601
  C  C268  1  0.438280  0.885680  0.802840  1.0  -0.1337
  C  C269  1  0.657760  0.745560  0.388480  1.0  -0.1508
  C  C270  1  0.083210  0.350610  0.050180  1.0  -0.1248
  C  C271  1  0.872830  0.299330  0.365540  1.0  -0.2014
  C  C272  1  0.150230  0.350730  0.961940  1.0  0.0543
  C  C273  1  0.067680  0.655280  0.667640  1.0  0.1685
  C  C274  1  0.129830  0.346330  0.161940  1.0  0.7159
  C  C275  1  0.687330  0.150230  0.461940  1.0  0.0544
  C  C276  1  0.611480  0.546080  0.561640  1.0  -0.0906
  C  C277  1  0.435570  0.297670  0.137860  1.0  -0.0891
  C  C278  1  0.400790  0.916790  0.449820  1.0  -0.1268
  C  C279  1  0.630930  0.253630  0.066740  1.0  -0.1045
  C  C280  1  0.797880  0.672680  0.115040  1.0  0.129
  C  C281  1  0.885680  0.258880  0.302840  1.0  -0.1351
  C  C282  1  0.663230  0.724730  0.785540  1.0  0.166
  C  C283  1  0.336770  0.275270  0.214460  1.0  0.1683
  C  C284  1  0.197670  0.320370  0.933260  1.0  -0.1047
  C  C285  1  0.807110  0.666810  0.922180  1.0  -0.049
  C  C286  1  0.599210  0.083210  0.550180  1.0  -0.1264
  C  C287  1  0.388520  0.453920  0.438360  1.0  -0.0899
  C  C288  1  0.134040  0.342240  0.111520  1.0  -0.1509
  C  C289  1  0.677080  0.067680  0.167640  1.0  0.1717
  C  C290  1  0.652220  0.017320  0.385960  1.0  -0.1986
  C  C291  1  0.764680  0.677080  0.667640  1.0  0.1717
  C  C292  1  0.546080  0.326880  0.061640  1.0  -0.0892
  C  C293  1  0.461820  0.596720  0.385960  1.0  -0.2028
  C  C294  1  0.346330  0.208230  0.661940  1.0  0.7177
  C  C295  1  0.453760  0.865960  0.388480  1.0  -0.1515
  C  C296  1  0.261240  0.909440  0.690520  1.0  -0.1281
  N  N297  1  0.677210  0.996740  0.307980  1.0  -0.3134
  N  N298  1  0.476020  0.772690  0.861820  1.0  -0.3841
  N  N299  1  0.322790  0.003260  0.692020  1.0  -0.3095
  N  N300  1  0.365490  0.476020  0.361820  1.0  -0.3842
  N  N301  1  0.753630  0.636600  0.713800  1.0  -0.3026
  N  N302  1  0.649600  0.753630  0.213800  1.0  -0.3016
  N  N303  1  0.246370  0.363400  0.286200  1.0  -0.3011
  N  N304  1  0.695280  0.677210  0.807980  1.0  -0.307
  N  N305  1  0.363400  0.967430  0.786200  1.0  -0.3007
  N  N306  1  0.350400  0.246370  0.786200  1.0  -0.3032
  N  N307  1  0.304720  0.322790  0.192020  1.0  -0.3092
  N  N308  1  0.162160  0.365490  0.861820  1.0  -0.3852
  N  N309  1  0.514810  0.695280  0.307980  1.0  -0.3085
  N  N310  1  0.003260  0.485190  0.192020  1.0  -0.3088
  N  N311  1  0.227310  0.837840  0.638180  1.0  -0.3831
  N  N312  1  0.634510  0.523980  0.638180  1.0  -0.3838
  N  N313  1  0.032570  0.649600  0.713800  1.0  -0.2993
  N  N314  1  0.996740  0.514810  0.807980  1.0  -0.3089
  N  N315  1  0.485190  0.304720  0.692020  1.0  -0.3086
  N  N316  1  0.837840  0.634510  0.138180  1.0  -0.389
  N  N317  1  0.636600  0.032570  0.213800  1.0  -0.3016
  N  N318  1  0.523980  0.227310  0.138180  1.0  -0.3842
  N  N319  1  0.772690  0.162160  0.361820  1.0  -0.3834
  N  N320  1  0.967430  0.350400  0.286200  1.0  -0.2988
  O  O321  1  0.076910  0.367350  0.185520  1.0  -0.6401
  O  O322  1  0.506850  0.822010  0.323900  1.0  -0.623
  O  O323  1  0.636750  0.886750  0.226500  1.0  -0.6819
  O  O324  1  0.145910  0.493150  0.176100  1.0  -0.6186
  O  O325  1  0.762430  0.552870  0.814480  1.0  -0.64
  O  O326  1  0.923090  0.632650  0.814480  1.0  -0.6402
  O  O327  1  0.113250  0.363250  0.273500  1.0  -0.6831
  O  O328  1  0.854090  0.506850  0.823900  1.0  -0.6208
  O  O329  1  0.363250  0.113250  0.773500  1.0  -0.6835
  O  O330  1  0.177990  0.330750  0.176100  1.0  -0.6207
  O  O331  1  0.886750  0.636750  0.726500  1.0  -0.6819
  O  O332  1  0.330750  0.145910  0.676100  1.0  -0.6224
  O  O333  1  0.447130  0.076910  0.685520  1.0  -0.6398
  O  O334  1  0.367350  0.237570  0.685520  1.0  -0.6413
  O  O335  1  0.493150  0.177990  0.676100  1.0  -0.624
  O  O336  1  0.822010  0.669250  0.823900  1.0  -0.6199
  O  O337  1  0.552870  0.923090  0.314480  1.0  -0.6405
  O  O338  1  0.669250  0.854090  0.323900  1.0  -0.6225
  O  O339  1  0.237570  0.447130  0.185520  1.0  -0.6401
  O  O340  1  0.632650  0.762430  0.314480  1.0  -0.6401
