# generated using pymatgen
data_MnH4(CO)4
_symmetry_space_group_name_H-M   'P 1'
_cell_length_a   10.78800000
_cell_length_b   12.70200000
_cell_length_c   15.78400000
_cell_angle_alpha   90.00000000
_cell_angle_beta   90.00000000
_cell_angle_gamma   90.00000000
_symmetry_Int_Tables_number   1
_chemical_formula_structural   MnH4(CO)4
_chemical_formula_sum   'Mn12 H48 C48 O48'
_cell_volume   2162.86851398
_cell_formula_units_Z   12
loop_
 _symmetry_equiv_pos_site_id
 _symmetry_equiv_pos_as_xyz
  1  'x, y, z'
loop_
 _atom_site_type_symbol
 _atom_site_label
 _atom_site_symmetry_multiplicity
 _atom_site_fract_x
 _atom_site_fract_y
 _atom_site_fract_z
 _atom_site_occupancy
 _atom_site_charge
  Mn  Mn1  1  0.044470  0.250000  0.637520  1.0  1.2054
  Mn  Mn2  1  0.314140  0.250000  0.717220  1.0  1.2165
  Mn  Mn3  1  0.455530  0.750000  0.137520  1.0  1.2059
  Mn  Mn4  1  0.185860  0.750000  0.217220  1.0  1.2164
  Mn  Mn5  1  0.955530  0.750000  0.362480  1.0  1.2054
  Mn  Mn6  1  0.685860  0.750000  0.282780  1.0  1.2164
  Mn  Mn7  1  0.544470  0.250000  0.862480  1.0  1.2049
  Mn  Mn8  1  0.814140  0.250000  0.782780  1.0  1.2164
  Mn  Mn9  1  0.000000  0.000000  0.500000  1.0  1.3026
  Mn  Mn10  1  0.500000  0.000000  0.000000  1.0  1.3026
  Mn  Mn11  1  0.000000  0.500000  0.500000  1.0  1.3026
  Mn  Mn12  1  0.500000  0.500000  0.000000  1.0  1.3026
  H  H13  1  0.376400  0.556800  0.604800  1.0  0.1733
  H  H14  1  0.412000  0.452500  0.656200  1.0  0.1412
  H  H15  1  0.434100  0.457800  0.556000  1.0  0.1673
  H  H16  1  0.704900  0.508600  0.639500  1.0  0.1671
  H  H17  1  0.706300  0.450000  0.729200  1.0  0.1476
  H  H18  1  0.761900  0.566300  0.720800  1.0  0.1756
  H  H19  1  0.123600  0.443200  0.104800  1.0  0.1742
  H  H20  1  0.088000  0.547500  0.156200  1.0  0.1428
  H  H21  1  0.065900  0.542200  0.056000  1.0  0.1663
  H  H22  1  0.795100  0.491400  0.139500  1.0  0.1673
  H  H23  1  0.793700  0.550000  0.229200  1.0  0.1478
  H  H24  1  0.738100  0.433700  0.220800  1.0  0.1793
  H  H25  1  0.623600  0.056800  0.395200  1.0  0.1735
  H  H26  1  0.588000  0.952500  0.343800  1.0  0.1423
  H  H27  1  0.565900  0.957800  0.444000  1.0  0.1649
  H  H28  1  0.295100  0.008600  0.360500  1.0  0.1667
  H  H29  1  0.293700  0.950000  0.270800  1.0  0.1472
  H  H30  1  0.238100  0.066300  0.279200  1.0  0.1772
  H  H31  1  0.876400  0.943200  0.895200  1.0  0.1747
  H  H32  1  0.912000  0.047500  0.843800  1.0  0.141
  H  H33  1  0.934100  0.042200  0.944000  1.0  0.1663
  H  H34  1  0.204900  0.991400  0.860500  1.0  0.1656
  H  H35  1  0.206300  0.050000  0.770800  1.0  0.1478
  H  H36  1  0.261900  0.933700  0.779200  1.0  0.179
  H  H37  1  0.623600  0.443200  0.395200  1.0  0.1737
  H  H38  1  0.588000  0.547500  0.343800  1.0  0.1423
  H  H39  1  0.565900  0.542200  0.444000  1.0  0.1648
  H  H40  1  0.295100  0.491400  0.360500  1.0  0.1668
  H  H41  1  0.293700  0.550000  0.270800  1.0  0.1486
  H  H42  1  0.238100  0.433700  0.279200  1.0  0.1792
  H  H43  1  0.876400  0.556800  0.895200  1.0  0.1726
  H  H44  1  0.912000  0.452500  0.843800  1.0  0.1415
  H  H45  1  0.934100  0.457800  0.944000  1.0  0.1661
  H  H46  1  0.204900  0.508600  0.860500  1.0  0.1658
  H  H47  1  0.206300  0.450000  0.770800  1.0  0.1497
  H  H48  1  0.261900  0.566300  0.779200  1.0  0.1771
  H  H49  1  0.376400  0.943200  0.604800  1.0  0.1739
  H  H50  1  0.412000  0.047500  0.656200  1.0  0.1426
  H  H51  1  0.434100  0.042200  0.556000  1.0  0.1679
  H  H52  1  0.704900  0.991400  0.639500  1.0  0.1669
  H  H53  1  0.706300  0.050000  0.729200  1.0  0.1491
  H  H54  1  0.761900  0.933700  0.720800  1.0  0.1791
  H  H55  1  0.123600  0.056800  0.104800  1.0  0.1726
  H  H56  1  0.088000  0.952500  0.156200  1.0  0.1418
  H  H57  1  0.065900  0.957800  0.056000  1.0  0.166
  H  H58  1  0.795100  0.008600  0.139500  1.0  0.167
  H  H59  1  0.793700  0.950000  0.229200  1.0  0.1484
  H  H60  1  0.738100  0.066300  0.220800  1.0  0.1756
  C  C61  1  0.251580  0.437050  0.587840  1.0  0.8195
  C  C62  1  0.379700  0.479800  0.602500  1.0  -0.5457
  C  C63  1  0.876900  0.453010  0.671960  1.0  0.8271
  C  C64  1  0.751600  0.498400  0.692100  1.0  -0.5511
  C  C65  1  0.248420  0.562950  0.087840  1.0  0.8152
  C  C66  1  0.120300  0.520200  0.102500  1.0  -0.5446
  C  C67  1  0.623100  0.546990  0.171960  1.0  0.8295
  C  C68  1  0.748400  0.501600  0.192100  1.0  -0.5546
  C  C69  1  0.748420  0.937050  0.412160  1.0  0.8185
  C  C70  1  0.620300  0.979800  0.397500  1.0  -0.5421
  C  C71  1  0.123100  0.953010  0.328040  1.0  0.8308
  C  C72  1  0.248400  0.998400  0.307900  1.0  -0.5537
  C  C73  1  0.751580  0.062950  0.912160  1.0  0.8252
  C  C74  1  0.879700  0.020200  0.897500  1.0  -0.5453
  C  C75  1  0.376900  0.046990  0.828040  1.0  0.8273
  C  C76  1  0.251600  0.001600  0.807900  1.0  -0.5519
  C  C77  1  0.748420  0.562950  0.412160  1.0  0.8199
  C  C78  1  0.620300  0.520200  0.397500  1.0  -0.5432
  C  C79  1  0.123100  0.546990  0.328040  1.0  0.8302
  C  C80  1  0.248400  0.501600  0.307900  1.0  -0.5546
  C  C81  1  0.751580  0.437050  0.912160  1.0  0.8236
  C  C82  1  0.879700  0.479800  0.897500  1.0  -0.5443
  C  C83  1  0.376900  0.453010  0.828040  1.0  0.8271
  C  C84  1  0.251600  0.498400  0.807900  1.0  -0.5511
  C  C85  1  0.251580  0.062950  0.587840  1.0  0.8211
  C  C86  1  0.379700  0.020200  0.602500  1.0  -0.5468
  C  C87  1  0.876900  0.046990  0.671960  1.0  0.8267
  C  C88  1  0.751600  0.001600  0.692100  1.0  -0.5522
  C  C89  1  0.248420  0.937050  0.087840  1.0  0.8138
  C  C90  1  0.120300  0.979800  0.102500  1.0  -0.5436
  C  C91  1  0.623100  0.953010  0.171960  1.0  0.8303
  C  C92  1  0.748400  0.998400  0.192100  1.0  -0.5533
  C  C93  1  0.956600  0.250000  0.476000  1.0  0.7067
  C  C94  1  0.904800  0.250000  0.388070  1.0  -0.2185
  C  C95  1  0.083600  0.250000  0.846200  1.0  0.6755
  C  C96  1  0.170400  0.250000  0.921620  1.0  -0.2393
  C  C97  1  0.543400  0.750000  0.976000  1.0  0.7063
  C  C98  1  0.595200  0.750000  0.888070  1.0  -0.2189
  C  C99  1  0.416400  0.750000  0.346200  1.0  0.6757
  C  C100  1  0.329600  0.750000  0.421620  1.0  -0.2378
  C  C101  1  0.043400  0.750000  0.524000  1.0  0.7036
  C  C102  1  0.095200  0.750000  0.611930  1.0  -0.2222
  C  C103  1  0.916400  0.750000  0.153800  1.0  0.6768
  C  C104  1  0.829600  0.750000  0.078380  1.0  -0.2341
  C  C105  1  0.456600  0.250000  0.024000  1.0  0.7045
  C  C106  1  0.404800  0.250000  0.111930  1.0  -0.2223
  C  C107  1  0.583600  0.250000  0.653800  1.0  0.6768
  C  C108  1  0.670400  0.250000  0.578380  1.0  -0.2356
  O  O109  1  0.214100  0.357670  0.630720  1.0  -0.6914
  O  O110  1  0.950680  0.508270  0.631870  1.0  -0.6275
  O  O111  1  0.190260  0.481740  0.532180  1.0  -0.6198
  O  O112  1  0.900820  0.357760  0.693950  1.0  -0.6996
  O  O113  1  0.978150  0.166210  0.514920  1.0  -0.611
  O  O114  1  0.285900  0.642330  0.130720  1.0  -0.6925
  O  O115  1  0.549320  0.491730  0.131870  1.0  -0.6283
  O  O116  1  0.309740  0.518260  0.032180  1.0  -0.6198
  O  O117  1  0.599180  0.642240  0.193950  1.0  -0.7
  O  O118  1  0.521850  0.833790  0.014920  1.0  -0.6112
  O  O119  1  0.785900  0.857670  0.369280  1.0  -0.6921
  O  O120  1  0.049320  0.008270  0.368130  1.0  -0.6274
  O  O121  1  0.809740  0.981740  0.467820  1.0  -0.6203
  O  O122  1  0.099180  0.857760  0.306050  1.0  -0.7004
  O  O123  1  0.021850  0.666210  0.485080  1.0  -0.6105
  O  O124  1  0.714100  0.142330  0.869280  1.0  -0.6927
  O  O125  1  0.450680  0.991730  0.868130  1.0  -0.628
  O  O126  1  0.690260  0.018260  0.967820  1.0  -0.6202
  O  O127  1  0.400820  0.142240  0.806050  1.0  -0.7004
  O  O128  1  0.478150  0.333790  0.985080  1.0  -0.6103
  O  O129  1  0.785900  0.642330  0.369280  1.0  -0.6975
  O  O130  1  0.049320  0.491730  0.368130  1.0  -0.6282
  O  O131  1  0.809740  0.518260  0.467820  1.0  -0.6202
  O  O132  1  0.099180  0.642240  0.306050  1.0  -0.7008
  O  O133  1  0.021850  0.833790  0.485080  1.0  -0.6105
  O  O134  1  0.714100  0.357670  0.869280  1.0  -0.6967
  O  O135  1  0.450680  0.508270  0.868130  1.0  -0.6274
  O  O136  1  0.690260  0.481740  0.967820  1.0  -0.6203
  O  O137  1  0.400820  0.357760  0.806050  1.0  -0.7005
  O  O138  1  0.478150  0.166210  0.985080  1.0  -0.6106
  O  O139  1  0.214100  0.142330  0.630720  1.0  -0.6969
  O  O140  1  0.950680  0.991730  0.631870  1.0  -0.6281
  O  O141  1  0.190260  0.018260  0.532180  1.0  -0.6199
  O  O142  1  0.900820  0.142240  0.693950  1.0  -0.6995
  O  O143  1  0.978150  0.333790  0.514920  1.0  -0.6107
  O  O144  1  0.285900  0.857670  0.130720  1.0  -0.6961
  O  O145  1  0.549320  0.008270  0.131870  1.0  -0.6274
  O  O146  1  0.309740  0.981740  0.032180  1.0  -0.6198
  O  O147  1  0.599180  0.857760  0.193950  1.0  -0.6995
  O  O148  1  0.521850  0.666210  0.014920  1.0  -0.6109
  O  O149  1  0.128870  0.250000  0.771350  1.0  -0.642
  O  O150  1  0.970800  0.250000  0.861560  1.0  -0.5508
  O  O151  1  0.371130  0.750000  0.271350  1.0  -0.6421
  O  O152  1  0.529200  0.750000  0.361560  1.0  -0.5511
  O  O153  1  0.871130  0.750000  0.228650  1.0  -0.6425
  O  O154  1  0.029200  0.750000  0.138440  1.0  -0.5514
  O  O155  1  0.628870  0.250000  0.728650  1.0  -0.6424
  O  O156  1  0.470800  0.250000  0.638440  1.0  -0.5509
