# generated using pymatgen
data_Sm2Cu5Si2H36W22C44(N10O33)2
_symmetry_space_group_name_H-M   'P 1'
_cell_length_a   11.38400000
_cell_length_b   12.18900000
_cell_length_c   23.33100000
_cell_angle_alpha   83.75000000
_cell_angle_beta   82.02200000
_cell_angle_gamma   70.69700000
_symmetry_Int_Tables_number   1
_chemical_formula_structural   Sm2Cu5Si2H36W22C44(N10O33)2
_chemical_formula_sum   'Sm2 Cu5 Si2 H36 W22 C44 N20 O66'
_cell_volume   3018.95411270
_cell_formula_units_Z   1
loop_
 _symmetry_equiv_pos_site_id
 _symmetry_equiv_pos_as_xyz
  1  'x, y, z'
loop_
 _atom_site_type_symbol
 _atom_site_label
 _atom_site_symmetry_multiplicity
 _atom_site_fract_x
 _atom_site_fract_y
 _atom_site_fract_z
 _atom_site_occupancy
 _atom_site_charge
  Sm  Sm1  1  0.263500  0.732970  0.260110  1.0  2.2056
  Sm  Sm2  1  0.736500  0.267030  0.739890  1.0  2.2063
  Cu  Cu3  1  0.691600  0.130500  0.972220  1.0  0.7682
  Cu  Cu4  1  0.108600  0.242500  0.255020  1.0  0.5268
  Cu  Cu5  1  0.308400  0.869500  0.027780  1.0  0.7643
  Cu  Cu6  1  0.891400  0.757500  0.744980  1.0  0.5302
  Cu  Cu7  1  0.500000  0.500000  0.500000  1.0  0.4619
  Si  Si8  1  0.126400  0.212700  0.762700  1.0  1.369
  Si  Si9  1  0.873600  0.787300  0.237300  1.0  1.3673
  H  H10  1  0.323700  0.701900  0.431000  1.0  0.0764
  H  H11  1  0.108000  0.247900  0.010400  1.0  0.0912
  H  H12  1  0.082000  0.331000  0.496500  1.0  0.1231
  H  H13  1  0.278300  0.254800  0.336300  1.0  0.0387
  H  H14  1  0.541400  0.876200  0.929600  1.0  0.0804
  H  H15  1  0.286700  0.236800  0.148800  1.0  0.0853
  H  H16  1  0.255400  0.471200  0.459500  1.0  0.0705
  H  H17  1  0.535000  0.647500  0.062900  1.0  0.106
  H  H18  1  0.933700  0.251100  0.173600  1.0  0.0715
  H  H19  1  0.747900  0.448900  0.418700  1.0  0.0816
  H  H20  1  0.743000  0.391300  0.115100  1.0  0.1031
  H  H21  1  0.892000  0.752100  0.989600  1.0  0.0907
  H  H22  1  0.415500  0.761300  0.543200  1.0  0.0707
  H  H23  1  0.458600  0.123800  0.070400  1.0  0.0805
  H  H24  1  0.904700  0.199300  0.537500  1.0  0.1068
  H  H25  1  0.066300  0.748900  0.826400  1.0  0.0718
  H  H26  1  0.397600  0.647400  0.945700  1.0  0.066
  H  H27  1  0.940000  0.130100  0.014000  1.0  0.0743
  H  H28  1  0.754800  0.622800  0.023300  1.0  0.1059
  H  H29  1  0.257000  0.608700  0.884900  1.0  0.1024
  H  H30  1  0.744600  0.528800  0.540500  1.0  0.0697
  H  H31  1  0.546300  0.850200  0.585400  1.0  0.0938
  H  H32  1  0.602400  0.352600  0.054300  1.0  0.0662
  H  H33  1  0.245200  0.377200  0.976700  1.0  0.1059
  H  H34  1  0.676300  0.298100  0.569000  1.0  0.0776
  H  H35  1  0.095300  0.800700  0.462500  1.0  0.1061
  H  H36  1  0.465000  0.352500  0.937100  1.0  0.1053
  H  H37  1  0.918000  0.669000  0.503500  1.0  0.1244
  H  H38  1  0.937500  0.255200  0.359200  1.0  0.0544
  H  H39  1  0.252100  0.551100  0.581300  1.0  0.0829
  H  H40  1  0.584500  0.238700  0.456800  1.0  0.0709
  H  H41  1  0.453700  0.149800  0.414600  1.0  0.093
  H  H42  1  0.713300  0.763200  0.851200  1.0  0.0847
  H  H43  1  0.721700  0.745200  0.663700  1.0  0.039
  H  H44  1  0.062500  0.744800  0.640800  1.0  0.0557
  H  H45  1  0.060000  0.869900  0.986000  1.0  0.0745
  W  W46  1  0.927580  0.118110  0.867210  1.0  2.3536
  W  W47  1  0.684000  0.686520  0.354380  1.0  1.3701
  W  W48  1  0.743160  0.924670  0.107660  1.0  2.1982
  W  W49  1  0.562890  0.834240  0.216580  1.0  2.5776
  W  W50  1  0.911170  0.490880  0.764470  1.0  2.3824
  W  W51  1  0.088830  0.509120  0.235530  1.0  2.3827
  W  W52  1  0.437110  0.165760  0.783420  1.0  2.5722
  W  W53  1  0.233960  0.078450  0.631000  1.0  1.3682
  W  W54  1  0.010590  0.343660  0.630910  1.0  1.4452
  W  W55  1  0.017310  0.985750  0.745170  1.0  2.3219
  W  W56  1  0.788880  0.534680  0.218000  1.0  1.3454
  W  W57  1  0.649990  0.068320  0.230900  1.0  1.3078
  W  W58  1  0.256840  0.075330  0.892340  1.0  2.199
  W  W59  1  0.971100  0.629200  0.110830  1.0  1.2507
  W  W60  1  0.982690  0.014250  0.254830  1.0  2.3187
  W  W61  1  0.350010  0.931680  0.769100  1.0  1.3001
  W  W62  1  0.072420  0.881890  0.132790  1.0  2.3542
  W  W63  1  0.989410  0.656340  0.369090  1.0  1.4426
  W  W64  1  0.028900  0.370800  0.889170  1.0  1.2499
  W  W65  1  0.316000  0.313480  0.645620  1.0  1.3706
  W  W66  1  0.766040  0.921550  0.369000  1.0  1.3714
  W  W67  1  0.211120  0.465320  0.782000  1.0  1.3452
  C  C68  1  0.214000  0.239800  0.074300  1.0  0.1553
  C  C69  1  0.797200  0.711900  0.584200  1.0  0.0453
  C  C70  1  0.317000  0.324000  0.990300  1.0  -0.1613
  C  C71  1  0.438000  0.308000  0.967300  1.0  -0.0682
  C  C72  1  0.152000  0.740000  0.482400  1.0  -0.1328
  C  C73  1  0.237000  0.663000  0.912800  1.0  -0.121
  C  C74  1  0.683000  0.676000  0.009700  1.0  -0.1599
  C  C75  1  0.202800  0.288100  0.415800  1.0  0.0446
  C  C76  1  0.321000  0.402000  0.454800  1.0  0.0658
  C  C77  1  0.000900  0.251300  0.089000  1.0  0.0588
  C  C78  1  0.500000  0.275000  0.452000  1.0  0.0286
  C  C79  1  0.241000  0.603200  0.548700  1.0  0.0571
  C  C80  1  0.434000  0.182000  0.041400  1.0  0.0733
  C  C81  1  0.571000  0.777000  0.570400  1.0  -0.0838
  C  C82  1  0.003600  0.268300  0.373600  1.0  0.1377
  C  C83  1  0.429000  0.223000  0.429600  1.0  -0.0844
  C  C84  1  0.562000  0.692000  0.032700  1.0  -0.0665
  C  C85  1  0.996400  0.731700  0.626400  1.0  0.1375
  C  C86  1  0.005000  0.248900  0.148400  1.0  0.0823
  C  C87  1  0.500000  0.725000  0.548000  1.0  0.0283
  C  C88  1  0.720000  0.313000  0.533900  1.0  -0.0428
  C  C89  1  0.214000  0.239600  0.133700  1.0  0.0988
  C  C90  1  0.566000  0.818000  0.958600  1.0  0.0726
  C  C91  1  0.012200  0.700400  0.568700  1.0  0.1227
  C  C92  1  0.280000  0.687000  0.466100  1.0  -0.0435
  C  C93  1  0.795700  0.734700  0.639100  1.0  0.1638
  C  C94  1  0.999100  0.748700  0.911000  1.0  0.0586
  C  C95  1  0.763000  0.337000  0.087200  1.0  -0.1197
  C  C96  1  0.987800  0.299600  0.431300  1.0  0.1228
  C  C97  1  0.759000  0.396800  0.451300  1.0  0.0567
  C  C98  1  0.108000  0.246500  0.050300  1.0  -0.2146
  C  C99  1  0.687000  0.311000  0.054800  1.0  0.0431
  C  C100  1  0.995000  0.751100  0.851600  1.0  0.0858
  C  C101  1  0.892000  0.753500  0.949700  1.0  -0.2165
  C  C102  1  0.679000  0.598000  0.545200  1.0  0.0658
  C  C103  1  0.912000  0.688000  0.541500  1.0  -0.1701
  C  C104  1  0.848000  0.260000  0.517600  1.0  -0.1322
  C  C105  1  0.874000  0.189000  0.031100  1.0  0.141
  C  C106  1  0.786000  0.760200  0.925700  1.0  0.1537
  C  C107  1  0.786000  0.760400  0.866300  1.0  0.1018
  C  C108  1  0.204300  0.265300  0.360900  1.0  0.1631
  C  C109  1  0.088000  0.312000  0.458500  1.0  -0.1719
  C  C110  1  0.126000  0.811000  0.968900  1.0  0.1418
  C  C111  1  0.313000  0.689000  0.945200  1.0  0.0426
  N  N112  1  0.128500  0.682900  0.534800  1.0  -0.0129
  N  N113  1  0.871500  0.317100  0.465200  1.0  -0.0128
  N  N114  1  0.677900  0.753100  0.963300  1.0  0.0954
  N  N115  1  0.686400  0.697800  0.565300  1.0  -0.0157
  N  N116  1  0.673100  0.386300  0.491600  1.0  -0.2636
  N  N117  1  0.890400  0.756600  0.830100  1.0  -0.3301
  N  N118  1  0.322100  0.246900  0.036700  1.0  0.0959
  N  N119  1  0.326900  0.613700  0.508400  1.0  -0.264
  N  N120  1  0.115800  0.740800  0.932900  1.0  -0.0595
  N  N121  1  0.488600  0.788300  0.002500  1.0  -0.3696
  N  N122  1  0.106700  0.257000  0.340000  1.0  -0.2989
  N  N123  1  0.248600  0.785600  0.977700  1.0  -0.4273
  N  N124  1  0.109600  0.243400  0.169900  1.0  -0.3276
  N  N125  1  0.893300  0.743000  0.660000  1.0  -0.2964
  N  N126  1  0.563400  0.616600  0.533800  1.0  -0.4104
  N  N127  1  0.884200  0.259200  0.067100  1.0  -0.0593
  N  N128  1  0.436600  0.383400  0.466200  1.0  -0.4079
  N  N129  1  0.751400  0.214400  0.022300  1.0  -0.4299
  N  N130  1  0.313600  0.302200  0.434700  1.0  -0.0152
  N  N131  1  0.511400  0.211700  0.997500  1.0  -0.3667
  O  O132  1  0.914300  0.664400  0.211500  1.0  -0.8223
  O  O133  1  0.476700  0.009900  0.766100  1.0  -0.7235
  O  O134  1  0.791000  0.187700  0.835300  1.0  -0.7407
  O  O135  1  0.946200  0.258900  0.885900  1.0  -0.7343
  O  O136  1  0.105400  0.055900  0.890300  1.0  -0.7836
  O  O137  1  0.085700  0.335600  0.788500  1.0  -0.8216
  O  O138  1  0.661000  0.065100  0.147900  1.0  -0.6941
  O  O139  1  0.894600  0.944100  0.109700  1.0  -0.7839
  O  O140  1  0.406600  0.837700  0.218200  1.0  -0.828
  O  O141  1  0.863800  0.071600  0.731100  1.0  -0.7341
  O  O142  1  0.907300  0.489500  0.848600  1.0  -0.7025
  O  O143  1  0.987700  0.151600  0.266100  1.0  -0.7997
  O  O144  1  0.593400  0.162300  0.781800  1.0  -0.8306
  O  O145  1  0.411200  0.115700  0.864000  1.0  -0.6779
  O  O146  1  0.836900  0.770300  0.308200  1.0  -0.7877
  O  O147  1  0.012300  0.848400  0.733900  1.0  -0.8012
  O  O148  1  0.032600  0.021400  0.173500  1.0  -0.7695
  O  O149  1  0.347200  0.166000  0.606100  1.0  -0.6794
  O  O150  1  0.105500  0.021700  0.674200  1.0  -0.7155
  O  O151  1  0.339000  0.934900  0.852100  1.0  -0.6918
  O  O152  1  0.807300  0.630100  0.757500  1.0  -0.7712
  O  O153  1  0.170700  0.239500  0.902700  1.0  -0.7294
  O  O154  1  0.741300  0.581100  0.295700  1.0  -0.7114
  O  O155  1  0.105000  0.203000  0.595000  1.0  -0.7306
  O  O156  1  0.967400  0.978600  0.826500  1.0  -0.7708
  O  O157  1  0.751700  0.865000  0.208000  1.0  -0.801
  O  O158  1  0.662600  0.678500  0.200200  1.0  -0.7596
  O  O159  1  0.977200  0.461000  0.686700  1.0  -0.7827
  O  O160  1  0.022800  0.539000  0.313300  1.0  -0.7805
  O  O161  1  0.022000  0.151000  0.778800  1.0  -0.7702
  O  O162  1  0.588800  0.884300  0.136000  1.0  -0.6788
  O  O163  1  0.671800  0.999500  0.309300  1.0  -0.7351
  O  O164  1  0.829300  0.760500  0.097300  1.0  -0.7282
  O  O165  1  0.822700  0.618900  0.389500  1.0  -0.7403
  O  O166  1  0.294500  0.020300  0.962500  1.0  -0.7635
  O  O167  1  0.187500  0.929700  0.771400  1.0  -0.7593
  O  O168  1  0.328200  0.000500  0.690700  1.0  -0.7362
  O  O169  1  0.895000  0.797000  0.405000  1.0  -0.7297
  O  O170  1  0.860200  0.072200  0.933500  1.0  -0.7656
  O  O171  1  0.209000  0.812300  0.164700  1.0  -0.7427
  O  O172  1  0.139800  0.927800  0.066500  1.0  -0.7651
  O  O173  1  0.812500  0.070300  0.228600  1.0  -0.7621
  O  O174  1  0.941800  0.440000  0.236900  1.0  -0.7832
  O  O175  1  0.183100  0.595400  0.231800  1.0  -0.7986
  O  O176  1  0.523300  0.990100  0.233900  1.0  -0.7205
  O  O177  1  0.588400  0.786900  0.294600  1.0  -0.7367
  O  O178  1  0.102300  0.715000  0.332200  1.0  -0.7192
  O  O179  1  0.143800  0.456800  0.862400  1.0  -0.653
  O  O180  1  0.897700  0.285000  0.667800  1.0  -0.721
  O  O181  1  0.192700  0.369900  0.242500  1.0  -0.7706
  O  O182  1  0.136200  0.928400  0.268900  1.0  -0.7355
  O  O183  1  0.411600  0.213100  0.705400  1.0  -0.7357
  O  O184  1  0.258700  0.418900  0.704300  1.0  -0.7123
  O  O185  1  0.816900  0.404600  0.768200  1.0  -0.7997
  O  O186  1  0.856200  0.543200  0.137600  1.0  -0.6543
  O  O187  1  0.058200  0.560000  0.763100  1.0  -0.7809
  O  O188  1  0.092700  0.510500  0.151400  1.0  -0.7024
  O  O189  1  0.652800  0.834000  0.393900  1.0  -0.6786
  O  O190  1  0.978000  0.849000  0.221200  1.0  -0.7712
  O  O191  1  0.177300  0.381100  0.610500  1.0  -0.742
  O  O192  1  0.894500  0.978300  0.325800  1.0  -0.7142
  O  O193  1  0.337400  0.321500  0.799800  1.0  -0.7593
  O  O194  1  0.248300  0.135000  0.792000  1.0  -0.8011
  O  O195  1  0.163100  0.229700  0.691800  1.0  -0.7874
  O  O196  1  0.705500  0.979700  0.037500  1.0  -0.7637
  O  O197  1  0.053800  0.741100  0.114100  1.0  -0.735
