# generated using pymatgen
data_Eu2Cu5Si2H36W22C44(N10O33)2
_symmetry_space_group_name_H-M   'P 1'
_cell_length_a   11.37800000
_cell_length_b   12.18400000
_cell_length_c   23.32800000
_cell_angle_alpha   83.71500000
_cell_angle_beta   81.99000000
_cell_angle_gamma   70.71400000
_symmetry_Int_Tables_number   1
_chemical_formula_structural   Eu2Cu5Si2H36W22C44(N10O33)2
_chemical_formula_sum   'Eu2 Cu5 Si2 H36 W22 C44 N20 O66'
_cell_volume   3015.71286397
_cell_formula_units_Z   1
loop_
 _symmetry_equiv_pos_site_id
 _symmetry_equiv_pos_as_xyz
  1  'x, y, z'
loop_
 _atom_site_type_symbol
 _atom_site_label
 _atom_site_symmetry_multiplicity
 _atom_site_fract_x
 _atom_site_fract_y
 _atom_site_fract_z
 _atom_site_occupancy
 _atom_site_charge
  Eu  Eu1  1  0.262360  0.733700  0.259920  1.0  2.0806
  Eu  Eu2  1  0.737640  0.266300  0.740080  1.0  2.0806
  Cu  Cu3  1  0.891540  0.756760  0.745140  1.0  0.7044
  Cu  Cu4  1  0.308160  0.869190  0.027640  1.0  0.7256
  Cu  Cu5  1  0.108460  0.243240  0.254860  1.0  0.7022
  Cu  Cu6  1  0.691840  0.130810  0.972360  1.0  0.7292
  Cu  Cu7  1  0.500000  0.500000  0.500000  1.0  0.4124
  Si  Si8  1  0.127800  0.213300  0.762200  1.0  1.381
  Si  Si9  1  0.872200  0.786700  0.237800  1.0  1.382
  H  H10  1  0.252900  0.466600  0.463400  1.0  0.0582
  H  H11  1  0.248800  0.563000  0.583800  1.0  0.0681
  H  H12  1  0.533900  0.881000  0.933400  1.0  0.0599
  H  H13  1  0.891500  0.748100  0.989600  1.0  0.0843
  H  H14  1  0.715200  0.767900  0.850500  1.0  0.0713
  H  H15  1  0.393600  0.647600  0.944800  1.0  0.0611
  H  H16  1  0.928500  0.250600  0.173700  1.0  0.0947
  H  H17  1  0.087000  0.319400  0.493200  1.0  0.0887
  H  H18  1  0.319500  0.721700  0.433900  1.0  0.072
  H  H19  1  0.910000  0.208200  0.539600  1.0  0.1072
  H  H20  1  0.680500  0.278300  0.566100  1.0  0.0729
  H  H21  1  0.746000  0.387100  0.112900  1.0  0.0914
  H  H22  1  0.937900  0.136700  0.012500  1.0  0.0571
  H  H23  1  0.073000  0.738700  0.638500  1.0  0.0958
  H  H24  1  0.466100  0.119000  0.066600  1.0  0.0599
  H  H25  1  0.277900  0.262100  0.336300  1.0  0.0655
  H  H26  1  0.927000  0.261300  0.361500  1.0  0.0957
  H  H27  1  0.751200  0.437000  0.416200  1.0  0.0674
  H  H28  1  0.246300  0.383900  0.978100  1.0  0.0777
  H  H29  1  0.090000  0.791800  0.460400  1.0  0.1062
  H  H30  1  0.450400  0.144900  0.417600  1.0  0.0945
  H  H31  1  0.415200  0.760700  0.545800  1.0  0.0755
  H  H32  1  0.471400  0.355600  0.936200  1.0  0.1459
  H  H33  1  0.284800  0.232100  0.149500  1.0  0.0721
  H  H34  1  0.254000  0.612900  0.887100  1.0  0.0914
  H  H35  1  0.913000  0.680600  0.506800  1.0  0.0885
  H  H36  1  0.747100  0.533400  0.536600  1.0  0.059
  H  H37  1  0.606400  0.352400  0.055200  1.0  0.0606
  H  H38  1  0.722100  0.737900  0.663700  1.0  0.0661
  H  H39  1  0.062100  0.863300  0.987500  1.0  0.0575
  H  H40  1  0.108500  0.251900  0.010400  1.0  0.0842
  H  H41  1  0.071500  0.749400  0.826300  1.0  0.0949
  H  H42  1  0.753700  0.616100  0.021900  1.0  0.0775
  H  H43  1  0.528600  0.644400  0.063800  1.0  0.1455
  H  H44  1  0.549600  0.855100  0.582400  1.0  0.0952
  H  H45  1  0.584800  0.239300  0.454200  1.0  0.0754
  W  W46  1  0.437940  0.166210  0.783130  1.0  2.5687
  W  W47  1  0.911590  0.490500  0.764470  1.0  2.384
  W  W48  1  0.788660  0.534350  0.218130  1.0  1.3387
  W  W49  1  0.257900  0.075240  0.892230  1.0  2.2795
  W  W50  1  0.928370  0.117570  0.867020  1.0  2.367
  W  W51  1  0.234620  0.078670  0.630810  1.0  1.3569
  W  W52  1  0.350860  0.931840  0.769090  1.0  1.3814
  W  W53  1  0.982560  0.014340  0.254840  1.0  2.4007
  W  W54  1  0.011030  0.343210  0.630860  1.0  1.3929
  W  W55  1  0.970350  0.629090  0.111020  1.0  1.261
  W  W56  1  0.017440  0.985660  0.745160  1.0  2.4027
  W  W57  1  0.211340  0.465650  0.781870  1.0  1.3395
  W  W58  1  0.742100  0.924760  0.107770  1.0  2.2773
  W  W59  1  0.988970  0.656790  0.369140  1.0  1.3902
  W  W60  1  0.316330  0.313800  0.645340  1.0  1.3561
  W  W61  1  0.562060  0.833790  0.216870  1.0  2.5702
  W  W62  1  0.029650  0.370910  0.888980  1.0  1.2606
  W  W63  1  0.088410  0.509500  0.235530  1.0  2.3847
  W  W64  1  0.071630  0.882430  0.132980  1.0  2.3666
  W  W65  1  0.683670  0.686200  0.354660  1.0  1.3547
  W  W66  1  0.765380  0.921330  0.369190  1.0  1.3599
  W  W67  1  0.649140  0.068160  0.230910  1.0  1.3895
  C  C68  1  0.309000  0.690000  0.944800  1.0  0.0024
  C  C69  1  0.499800  0.274700  0.451000  1.0  0.0277
  C  C70  1  0.572000  0.780000  0.569500  1.0  -0.0849
  C  C71  1  0.558600  0.689000  0.034300  1.0  -0.0777
  C  C72  1  0.995500  0.272200  0.374800  1.0  0.0868
  C  C73  1  0.788800  0.760500  0.925000  1.0  0.1256
  C  C74  1  0.201300  0.292400  0.417400  1.0  0.1725
  C  C75  1  0.000600  0.749300  0.851500  1.0  0.077
  C  C76  1  0.682600  0.671900  0.009200  1.0  -0.0883
  C  C77  1  0.999400  0.250700  0.148500  1.0  0.0808
  C  C78  1  0.233000  0.668000  0.914800  1.0  -0.1493
  C  C79  1  0.001500  0.745600  0.910200  1.0  0.0925
  C  C80  1  0.788800  0.761300  0.865600  1.0  0.1024
  C  C81  1  0.724000  0.303800  0.533500  1.0  -0.071
  C  C82  1  0.317400  0.328100  0.990800  1.0  -0.0869
  C  C83  1  0.850800  0.262100  0.518200  1.0  -0.1443
  C  C84  1  0.204300  0.270300  0.361000  1.0  0.0869
  C  C85  1  0.679600  0.600500  0.543900  1.0  0.1431
  C  C86  1  0.767000  0.332000  0.085200  1.0  -0.1504
  C  C87  1  0.871000  0.192800  0.031100  1.0  0.1491
  C  C88  1  0.559600  0.821000  0.961800  1.0  0.1393
  C  C89  1  0.998500  0.254400  0.089800  1.0  0.0925
  C  C90  1  0.761800  0.391000  0.450900  1.0  0.0918
  C  C91  1  0.691000  0.310000  0.055200  1.0  0.0028
  C  C92  1  0.908600  0.693300  0.545700  1.0  -0.1655
  C  C93  1  0.129000  0.807200  0.968900  1.0  0.1502
  C  C94  1  0.010100  0.698600  0.569100  1.0  0.1189
  C  C95  1  0.108500  0.249000  0.050400  1.0  -0.2109
  C  C96  1  0.795700  0.729700  0.639000  1.0  0.0862
  C  C97  1  0.211200  0.239500  0.075000  1.0  0.1264
  C  C98  1  0.441400  0.311000  0.965700  1.0  -0.0768
  C  C99  1  0.440400  0.179000  0.038200  1.0  0.1413
  C  C100  1  0.211200  0.238700  0.134400  1.0  0.102
  C  C101  1  0.798700  0.707600  0.582600  1.0  0.1721
  C  C102  1  0.149200  0.737900  0.481800  1.0  -0.1465
  C  C103  1  0.091400  0.306700  0.454300  1.0  -0.1687
  C  C104  1  0.320400  0.399500  0.456100  1.0  0.1429
  C  C105  1  0.989900  0.301400  0.430900  1.0  0.1192
  C  C106  1  0.500200  0.725300  0.549000  1.0  0.0282
  C  C107  1  0.238200  0.609000  0.549100  1.0  0.0888
  C  C108  1  0.276000  0.696200  0.466500  1.0  -0.0711
  C  C109  1  0.428000  0.220000  0.430500  1.0  -0.0831
  C  C110  1  0.004500  0.727800  0.625200  1.0  0.0868
  C  C111  1  0.891500  0.751000  0.949600  1.0  -0.214
  N  N112  1  0.872100  0.315500  0.465600  1.0  0.0208
  N  N113  1  0.564500  0.613500  0.533700  1.0  -0.4517
  N  N114  1  0.488700  0.795600  0.002500  1.0  -0.3385
  N  N115  1  0.435500  0.386500  0.466300  1.0  -0.4502
  N  N116  1  0.895500  0.740200  0.660300  1.0  -0.3661
  N  N117  1  0.108900  0.247000  0.169400  1.0  -0.3342
  N  N118  1  0.753700  0.213200  0.022600  1.0  -0.4527
  N  N119  1  0.127900  0.684500  0.534400  1.0  0.0238
  N  N120  1  0.689100  0.694100  0.565800  1.0  0.0217
  N  N121  1  0.104500  0.259800  0.339700  1.0  -0.3662
  N  N122  1  0.319400  0.250500  0.036200  1.0  0.0074
  N  N123  1  0.328100  0.610000  0.507500  1.0  -0.3226
  N  N124  1  0.680600  0.749500  0.963800  1.0  0.0064
  N  N125  1  0.883800  0.259400  0.068400  1.0  0.0155
  N  N126  1  0.310900  0.305900  0.434200  1.0  0.0207
  N  N127  1  0.671900  0.390000  0.492500  1.0  -0.3235
  N  N128  1  0.246300  0.786800  0.977400  1.0  -0.4495
  N  N129  1  0.511300  0.204400  0.997500  1.0  -0.339
  N  N130  1  0.116200  0.740600  0.931600  1.0  0.0184
  N  N131  1  0.891100  0.753000  0.830600  1.0  -0.3375
  O  O132  1  0.969300  0.978500  0.828300  1.0  -0.7975
  O  O133  1  0.083400  0.343400  0.787900  1.0  -0.8268
  O  O134  1  0.091800  0.510000  0.151700  1.0  -0.7009
  O  O135  1  0.333900  0.998800  0.689700  1.0  -0.7521
  O  O136  1  0.012000  0.847200  0.731700  1.0  -0.7618
  O  O137  1  0.170900  0.234800  0.903200  1.0  -0.7651
  O  O138  1  0.660200  0.679100  0.198700  1.0  -0.7512
  O  O139  1  0.658200  0.064100  0.147500  1.0  -0.7034
  O  O140  1  0.136400  0.931000  0.066000  1.0  -0.7687
  O  O141  1  0.339800  0.320900  0.801300  1.0  -0.7485
  O  O142  1  0.892300  0.946700  0.110900  1.0  -0.7843
  O  O143  1  0.586100  0.790000  0.294900  1.0  -0.746
  O  O144  1  0.978700  0.459000  0.687200  1.0  -0.784
  O  O145  1  0.829100  0.765200  0.096800  1.0  -0.7663
  O  O146  1  0.195100  0.926000  0.770100  1.0  -0.7827
  O  O147  1  0.816200  0.403600  0.768700  1.0  -0.7913
  O  O148  1  0.175900  0.382100  0.610300  1.0  -0.7396
  O  O149  1  0.145100  0.452900  0.861900  1.0  -0.6897
  O  O150  1  0.840000  0.773300  0.306900  1.0  -0.7614
  O  O151  1  0.345400  0.171400  0.609500  1.0  -0.6906
  O  O152  1  0.824100  0.617900  0.389700  1.0  -0.7382
  O  O153  1  0.103700  0.028200  0.675400  1.0  -0.7273
  O  O154  1  0.908200  0.490000  0.848300  1.0  -0.6997
  O  O155  1  0.102900  0.712800  0.332300  1.0  -0.7493
  O  O156  1  0.194900  0.368500  0.243800  1.0  -0.7846
  O  O157  1  0.410100  0.830600  0.218400  1.0  -0.8168
  O  O158  1  0.107000  0.201700  0.593900  1.0  -0.7319
  O  O159  1  0.135500  0.930700  0.269300  1.0  -0.7416
  O  O160  1  0.804900  0.074000  0.229900  1.0  -0.7866
  O  O161  1  0.988000  0.152800  0.268300  1.0  -0.7603
  O  O162  1  0.020900  0.148300  0.778300  1.0  -0.8025
  O  O163  1  0.666100  0.001200  0.310300  1.0  -0.7506
  O  O164  1  0.519800  0.995200  0.233700  1.0  -0.7018
  O  O165  1  0.863600  0.069000  0.934000  1.0  -0.7699
  O  O166  1  0.030700  0.021500  0.171700  1.0  -0.7987
  O  O167  1  0.589900  0.169400  0.781600  1.0  -0.8167
  O  O168  1  0.979100  0.851700  0.221700  1.0  -0.8023
  O  O169  1  0.480200  0.004800  0.766300  1.0  -0.703
  O  O170  1  0.707400  0.978800  0.038700  1.0  -0.7797
  O  O171  1  0.740900  0.576800  0.295300  1.0  -0.7075
  O  O172  1  0.292600  0.021200  0.961300  1.0  -0.7785
  O  O173  1  0.893000  0.798300  0.406100  1.0  -0.7309
  O  O174  1  0.341800  0.935900  0.852500  1.0  -0.7034
  O  O175  1  0.183800  0.596400  0.231300  1.0  -0.7916
  O  O176  1  0.789000  0.187900  0.834600  1.0  -0.7522
  O  O177  1  0.854900  0.547100  0.138100  1.0  -0.6902
  O  O178  1  0.160000  0.226700  0.693100  1.0  -0.7621
  O  O179  1  0.896300  0.971800  0.324600  1.0  -0.7282
  O  O180  1  0.805100  0.631500  0.756200  1.0  -0.7832
  O  O181  1  0.916600  0.656600  0.212100  1.0  -0.8265
  O  O182  1  0.864500  0.069300  0.730700  1.0  -0.7418
  O  O183  1  0.413900  0.210000  0.705100  1.0  -0.7451
  O  O184  1  0.942400  0.438200  0.237200  1.0  -0.8009
  O  O185  1  0.211000  0.812100  0.165400  1.0  -0.7537
  O  O186  1  0.897100  0.287200  0.667700  1.0  -0.7496
  O  O187  1  0.021300  0.541000  0.312800  1.0  -0.7818
  O  O188  1  0.259100  0.423200  0.704700  1.0  -0.7092
  O  O189  1  0.943400  0.261700  0.885300  1.0  -0.7156
  O  O190  1  0.056600  0.738300  0.114700  1.0  -0.7137
  O  O191  1  0.590300  0.881900  0.136200  1.0  -0.6836
  O  O192  1  0.746900  0.868700  0.208300  1.0  -0.7943
  O  O193  1  0.107700  0.053300  0.889100  1.0  -0.7834
  O  O194  1  0.253100  0.131300  0.791700  1.0  -0.7935
  O  O195  1  0.057600  0.561800  0.762800  1.0  -0.7995
  O  O196  1  0.654600  0.828600  0.390500  1.0  -0.693
  O  O197  1  0.409700  0.118100  0.863800  1.0  -0.6827
