# generated using pymatgen
data_Ce2Cu5Si2H36W22C44(N10O33)2
_symmetry_space_group_name_H-M   'P 1'
_cell_length_a   11.32200000
_cell_length_b   12.13900000
_cell_length_c   23.31100000
_cell_angle_alpha   83.58600000
_cell_angle_beta   81.75300000
_cell_angle_gamma   71.16900000
_symmetry_Int_Tables_number   1
_chemical_formula_structural   Ce2Cu5Si2H36W22C44(N10O33)2
_chemical_formula_sum   'Ce2 Cu5 Si2 H36 W22 C44 N20 O66'
_cell_volume   2993.64278703
_cell_formula_units_Z   1
loop_
 _symmetry_equiv_pos_site_id
 _symmetry_equiv_pos_as_xyz
  1  'x, y, z'
loop_
 _atom_site_type_symbol
 _atom_site_label
 _atom_site_symmetry_multiplicity
 _atom_site_fract_x
 _atom_site_fract_y
 _atom_site_fract_z
 _atom_site_occupancy
 _atom_site_charge
  Ce  Ce1  1  0.256180  0.236420  0.758830  1.0  2.126
  Ce  Ce2  1  0.743820  0.763580  0.241170  1.0  2.1285
  Cu  Cu3  1  0.691900  0.630300  0.472170  1.0  0.7663
  Cu  Cu4  1  0.892320  0.255780  0.245160  1.0  0.7062
  Cu  Cu5  1  0.107680  0.744220  0.754840  1.0  0.7022
  Cu  Cu6  1  0.308100  0.369700  0.527830  1.0  0.7545
  Cu  Cu7  1  0.500000  0.000000  0.000000  1.0  0.6927
  Si  Si8  1  0.869300  0.286700  0.737600  1.0  1.382
  Si  Si9  1  0.130700  0.713300  0.262400  1.0  1.3823
  H  H10  1  0.253100  0.110700  0.388200  1.0  0.1038
  H  H11  1  0.248600  0.895500  0.482900  1.0  0.1032
  H  H12  1  0.249600  0.966100  0.963600  1.0  0.0784
  H  H13  1  0.914700  0.170500  0.008800  1.0  0.0949
  H  H14  1  0.678400  0.786500  0.068300  1.0  0.0689
  H  H15  1  0.061200  0.368500  0.485200  1.0  0.0708
  H  H16  1  0.746900  0.889300  0.611800  1.0  0.102
  H  H17  1  0.085300  0.829500  0.991200  1.0  0.0942
  H  H18  1  0.926500  0.760800  0.672600  1.0  0.0877
  H  H19  1  0.279700  0.753200  0.835200  1.0  0.0742
  H  H20  1  0.589000  0.738500  0.951200  1.0  0.0743
  H  H21  1  0.321600  0.213500  0.931700  1.0  0.0681
  H  H22  1  0.904500  0.708200  0.042200  1.0  0.1012
  H  H23  1  0.073500  0.239200  0.327400  1.0  0.0873
  H  H24  1  0.283300  0.739400  0.648000  1.0  0.0561
  H  H25  1  0.720300  0.246800  0.164800  1.0  0.0742
  H  H26  1  0.925700  0.770600  0.860500  1.0  0.0508
  H  H27  1  0.095500  0.291800  0.957800  1.0  0.1036
  H  H28  1  0.531900  0.161300  0.570100  1.0  0.0756
  H  H29  1  0.538800  0.386500  0.435600  1.0  0.0667
  H  H30  1  0.753000  0.939200  0.916700  1.0  0.0687
  H  H31  1  0.411000  0.261500  0.048800  1.0  0.0732
  H  H32  1  0.938800  0.631500  0.514800  1.0  0.0735
  H  H33  1  0.074300  0.229400  0.139500  1.0  0.0513
  H  H34  1  0.108300  0.741900  0.511900  1.0  0.0885
  H  H35  1  0.450300  0.649300  0.918000  1.0  0.0933
  H  H36  1  0.468100  0.838700  0.429900  1.0  0.0748
  H  H37  1  0.603200  0.844000  0.556600  1.0  0.0646
  H  H38  1  0.549700  0.350700  0.082000  1.0  0.0931
  H  H39  1  0.461200  0.613500  0.564400  1.0  0.0668
  H  H40  1  0.247000  0.060800  0.083300  1.0  0.0691
  H  H41  1  0.750400  0.033900  0.036400  1.0  0.0804
  H  H42  1  0.751400  0.104500  0.517100  1.0  0.1022
  H  H43  1  0.716700  0.260600  0.352000  1.0  0.0559
  H  H44  1  0.396800  0.156000  0.443400  1.0  0.0635
  H  H45  1  0.891700  0.258100  0.488100  1.0  0.0873
  W  W46  1  0.647370  0.567040  0.731140  1.0  1.3755
  W  W47  1  0.033310  0.870310  0.388760  1.0  1.2373
  W  W48  1  0.441120  0.667860  0.282200  1.0  2.517
  W  W49  1  0.785200  0.033530  0.719010  1.0  1.3531
  W  W50  1  0.914850  0.988210  0.264600  1.0  2.3768
  W  W51  1  0.930430  0.616780  0.367150  1.0  2.3628
  W  W52  1  0.319110  0.814990  0.144620  1.0  1.3622
  W  W53  1  0.260550  0.575600  0.391770  1.0  2.2631
  W  W54  1  0.069570  0.383220  0.632850  1.0  2.3634
  W  W55  1  0.986600  0.158150  0.868620  1.0  1.4115
  W  W56  1  0.763030  0.420920  0.869390  1.0  1.3538
  W  W57  1  0.352630  0.432960  0.268860  1.0  1.368
  W  W58  1  0.680890  0.185010  0.855380  1.0  1.3611
  W  W59  1  0.214800  0.966470  0.280990  1.0  1.3547
  W  W60  1  0.018650  0.485950  0.245560  1.0  2.338
  W  W61  1  0.236970  0.579080  0.130610  1.0  1.3516
  W  W62  1  0.558880  0.332140  0.717800  1.0  2.5149
  W  W63  1  0.739450  0.424400  0.608230  1.0  2.2611
  W  W64  1  0.085150  0.011790  0.735400  1.0  2.3763
  W  W65  1  0.966690  0.129690  0.611240  1.0  1.2391
  W  W66  1  0.981350  0.514050  0.754440  1.0  2.3366
  W  W67  1  0.013400  0.841850  0.131380  1.0  1.4147
  C  C68  1  0.996500  0.775700  0.874600  1.0  0.0861
  C  C69  1  0.789900  0.256500  0.367000  1.0  0.1154
  C  C70  1  0.311000  0.194000  0.445100  1.0  -0.0131
  C  C71  1  0.238200  0.107900  0.048900  1.0  0.1094
  C  C72  1  0.152900  0.237000  0.979800  1.0  -0.1001
  C  C73  1  0.211500  0.743700  0.575000  1.0  0.1748
  C  C74  1  0.768100  0.832000  0.585200  1.0  -0.1738
  C  C75  1  0.107200  0.746100  0.551600  1.0  -0.2067
  C  C76  1  0.892800  0.253900  0.448400  1.0  -0.2053
  C  C77  1  0.000200  0.244300  0.352200  1.0  0.0247
  C  C78  1  0.497000  0.226000  0.050600  1.0  -0.0063
  C  C79  1  0.441300  0.802000  0.464100  1.0  -0.0356
  C  C80  1  0.503000  0.774000  0.949400  1.0  -0.0079
  C  C81  1  0.872400  0.690400  0.531900  1.0  0.1363
  C  C82  1  0.799600  0.208600  0.083500  1.0  0.128
  C  C83  1  0.988700  0.798900  0.931500  1.0  0.1636
  C  C84  1  0.210100  0.743500  0.633000  1.0  0.1129
  C  C85  1  0.003500  0.224300  0.125400  1.0  0.0822
  C  C86  1  0.090500  0.810100  0.953200  1.0  -0.2216
  C  C87  1  0.909500  0.189900  0.046800  1.0  -0.2217
  C  C88  1  0.573000  0.276000  0.069000  1.0  -0.1196
  C  C89  1  0.277500  0.192000  0.965500  1.0  -0.0266
  C  C90  1  0.795400  0.233800  0.140500  1.0  0.0937
  C  C91  1  0.000000  0.754900  0.589600  1.0  0.1124
  C  C92  1  0.722500  0.808000  0.034500  1.0  -0.0259
  C  C93  1  0.788500  0.256300  0.425000  1.0  0.1734
  C  C94  1  0.200400  0.791400  0.916500  1.0  0.1286
  C  C95  1  0.317000  0.832000  0.492400  1.0  -0.1347
  C  C96  1  0.231900  0.168000  0.414800  1.0  -0.1769
  C  C97  1  0.847100  0.763000  0.020200  1.0  -0.0999
  C  C98  1  0.682500  0.100000  0.043700  1.0  0.1083
  C  C99  1  0.127600  0.309600  0.468100  1.0  0.1393
  C  C100  1  0.317500  0.900000  0.956300  1.0  0.1084
  C  C101  1  0.999800  0.755700  0.647800  1.0  0.0251
  C  C102  1  0.011300  0.201100  0.068500  1.0  0.1636
  C  C103  1  0.204600  0.766200  0.859500  1.0  0.0932
  C  C104  1  0.558700  0.198000  0.535900  1.0  -0.0346
  C  C105  1  0.761800  0.892100  0.951100  1.0  0.1115
  C  C106  1  0.427000  0.724000  0.931000  1.0  -0.1189
  C  C107  1  0.562900  0.322600  0.462100  1.0  0.1302
  C  C108  1  0.000000  0.245100  0.410400  1.0  0.1131
  C  C109  1  0.689000  0.806000  0.554900  1.0  -0.013
  C  C110  1  0.683000  0.168000  0.507600  1.0  -0.1361
  C  C111  1  0.437100  0.677400  0.537900  1.0  0.1299
  N  N112  1  0.884300  0.759600  0.569500  1.0  -0.0027
  N  N113  1  0.102900  0.760100  0.838800  1.0  -0.3459
  N  N114  1  0.246300  0.283900  0.478400  1.0  -0.4343
  N  N115  1  0.871600  0.815500  0.965700  1.0  0.0075
  N  N116  1  0.436200  0.886200  0.965500  1.0  -0.5001
  N  N117  1  0.484300  0.289800  0.504500  1.0  -0.3678
  N  N118  1  0.897100  0.239900  0.161200  1.0  -0.3422
  N  N119  1  0.310600  0.802700  0.935100  1.0  0.0111
  N  N120  1  0.689400  0.197300  0.064900  1.0  0.0115
  N  N121  1  0.893600  0.251100  0.330700  1.0  -0.3474
  N  N122  1  0.115700  0.240400  0.430500  1.0  -0.0004
  N  N123  1  0.128400  0.184500  0.034300  1.0  0.0076
  N  N124  1  0.668700  0.891200  0.992400  1.0  -0.3307
  N  N125  1  0.563800  0.113800  0.034500  1.0  -0.5004
  N  N126  1  0.106400  0.748900  0.669300  1.0  -0.3421
  N  N127  1  0.515700  0.710200  0.495500  1.0  -0.3686
  N  N128  1  0.320300  0.748900  0.536600  1.0  0.037
  N  N129  1  0.753700  0.716100  0.521600  1.0  -0.4371
  N  N130  1  0.679700  0.251100  0.463400  1.0  0.0356
  N  N131  1  0.331300  0.108800  0.007600  1.0  -0.3316
  O  O132  1  0.892500  0.298600  0.906000  1.0  -0.7253
  O  O133  1  0.915000  0.159200  0.711300  1.0  -0.7758
  O  O134  1  0.653800  0.179400  0.701200  1.0  -0.7381
  O  O135  1  0.823600  0.264200  0.597800  1.0  -0.7373
  O  O136  1  0.739000  0.076400  0.797200  1.0  -0.6932
  O  O137  1  0.836900  0.269400  0.806900  1.0  -0.7637
  O  O138  1  0.180100  0.882100  0.108600  1.0  -0.7233
  O  O139  1  0.103700  0.214600  0.830200  1.0  -0.7346
  O  O140  1  0.663200  0.502500  0.810300  1.0  -0.7445
  O  O141  1  0.193000  0.870000  0.742600  1.0  -0.7679
  O  O142  1  0.850200  0.045500  0.638600  1.0  -0.6864
  O  O143  1  0.890500  0.444900  0.611500  1.0  -0.7858
  O  O144  1  0.135300  0.432000  0.566400  1.0  -0.7697
  O  O145  1  0.013200  0.348700  0.232900  1.0  -0.7876
  O  O146  1  0.176400  0.735800  0.402200  1.0  -0.7364
  O  O147  1  0.585200  0.382500  0.637900  1.0  -0.7126
  O  O148  1  0.021300  0.650300  0.279600  1.0  -0.7937
  O  O149  1  0.939500  0.940100  0.736400  1.0  -0.7894
  O  O150  1  0.346600  0.670300  0.108100  1.0  -0.6762
  O  O151  1  0.653400  0.329700  0.891900  1.0  -0.6746
  O  O152  1  0.978700  0.349700  0.720400  1.0  -0.7942
  O  O153  1  0.163100  0.730600  0.193100  1.0  -0.7643
  O  O154  1  0.030200  0.521400  0.671600  1.0  -0.7882
  O  O155  1  0.134800  0.425900  0.768300  1.0  -0.7436
  O  O156  1  0.986800  0.651300  0.767100  1.0  -0.7852
  O  O157  1  0.819900  0.117900  0.891400  1.0  -0.7227
  O  O158  1  0.180300  0.101900  0.731200  1.0  -0.7754
  O  O159  1  0.655100  0.565400  0.648700  1.0  -0.7016
  O  O160  1  0.107500  0.701400  0.094000  1.0  -0.7248
  O  O161  1  0.819700  0.898100  0.268800  1.0  -0.7785
  O  O162  1  0.744600  0.368100  0.708600  1.0  -0.8195
  O  O163  1  0.104700  0.527700  0.176500  1.0  -0.7378
  O  O164  1  0.261000  0.923600  0.202800  1.0  -0.694
  O  O165  1  0.060500  0.059900  0.263600  1.0  -0.7883
  O  O166  1  0.109500  0.555100  0.388500  1.0  -0.7861
  O  O167  1  0.208200  0.312800  0.667000  1.0  -0.7153
  O  O168  1  0.296200  0.523600  0.461600  1.0  -0.7671
  O  O169  1  0.947200  0.759800  0.385800  1.0  -0.7378
  O  O170  1  0.982900  0.956500  0.186800  1.0  -0.7748
  O  O171  1  0.017100  0.043500  0.813200  1.0  -0.7738
  O  O172  1  0.194100  0.424700  0.270500  1.0  -0.7747
  O  O173  1  0.417400  0.714200  0.204300  1.0  -0.7583
  O  O174  1  0.595500  0.671500  0.280300  1.0  -0.8266
  O  O175  1  0.087300  0.014200  0.652600  1.0  -0.721
  O  O176  1  0.344900  0.434600  0.351300  1.0  -0.7009
  O  O177  1  0.791800  0.687200  0.333000  1.0  -0.7124
  O  O178  1  0.895300  0.472300  0.823500  1.0  -0.7338
  O  O179  1  0.255400  0.631900  0.291400  1.0  -0.8195
  O  O180  1  0.969800  0.478600  0.328400  1.0  -0.7877
  O  O181  1  0.085000  0.840800  0.288700  1.0  -0.7754
  O  O182  1  0.864700  0.568000  0.433600  1.0  -0.769
  O  O183  1  0.336800  0.497500  0.189700  1.0  -0.7467
  O  O184  1  0.582600  0.285800  0.795700  1.0  -0.7598
  O  O185  1  0.483300  0.508800  0.264200  1.0  -0.725
  O  O186  1  0.807000  0.130000  0.257400  1.0  -0.7606
  O  O187  1  0.896300  0.785400  0.169800  1.0  -0.7356
  O  O188  1  0.912700  0.985800  0.347400  1.0  -0.7187
  O  O189  1  0.516700  0.491200  0.735800  1.0  -0.7218
  O  O190  1  0.404500  0.328500  0.719700  1.0  -0.8268
  O  O191  1  0.865200  0.574100  0.231700  1.0  -0.7432
  O  O192  1  0.346200  0.820600  0.298800  1.0  -0.7361
  O  O193  1  0.149800  0.954500  0.361400  1.0  -0.6848
  O  O194  1  0.703800  0.476400  0.538400  1.0  -0.7672
  O  O195  1  0.052800  0.240200  0.614200  1.0  -0.7346
  O  O196  1  0.414800  0.617500  0.362100  1.0  -0.7118
  O  O197  1  0.805900  0.575300  0.729500  1.0  -0.7792
