# generated using pymatgen
data_Y2Cu5Si2H36W22C44(N5O16)4
_symmetry_space_group_name_H-M   'P 1'
_cell_length_a   11.33500000
_cell_length_b   12.15200000
_cell_length_c   23.31900000
_cell_angle_alpha   83.54300000
_cell_angle_beta   81.74100000
_cell_angle_gamma   71.11200000
_symmetry_Int_Tables_number   1
_chemical_formula_structural   Y2Cu5Si2H36W22C44(N5O16)4
_chemical_formula_sum   'Y2 Cu5 Si2 H36 W22 C44 N20 O64'
_cell_volume   3000.08029517
_cell_formula_units_Z   1
loop_
 _symmetry_equiv_pos_site_id
 _symmetry_equiv_pos_as_xyz
  1  'x, y, z'
loop_
 _atom_site_type_symbol
 _atom_site_label
 _atom_site_symmetry_multiplicity
 _atom_site_fract_x
 _atom_site_fract_y
 _atom_site_fract_z
 _atom_site_occupancy
 _atom_site_charge
  Y  Y1  1  0.255500  0.236530  0.258900  1.0  2.0276
  Y  Y2  1  0.744500  0.763470  0.741100  1.0  2.0295
  Cu  Cu3  1  0.107800  0.744000  0.254840  1.0  0.7587
  Cu  Cu4  1  0.692500  0.629800  0.971740  1.0  0.6928
  Cu  Cu5  1  0.892200  0.256000  0.745160  1.0  0.7619
  Cu  Cu6  1  0.307500  0.370200  0.028260  1.0  0.6924
  Cu  Cu7  1  0.500000  0.000000  0.500000  1.0  0.6458
  Si  Si8  1  0.868800  0.286800  0.237700  1.0  1.4012
  Si  Si9  1  0.131200  0.713200  0.762300  1.0  1.4009
  H  H10  1  0.927200  0.769000  0.359900  1.0  0.0547
  H  H11  1  0.083600  0.830900  0.492200  1.0  0.0842
  H  H12  1  0.277400  0.755300  0.335300  1.0  0.0458
  H  H13  1  0.752100  0.927100  0.418000  1.0  0.0353
  H  H14  1  0.675300  0.798400  0.569600  1.0  0.0695
  H  H15  1  0.905200  0.699900  0.537100  1.0  0.1414
  H  H16  1  0.454100  0.649100  0.412700  1.0  0.0881
  H  H17  1  0.592100  0.730800  0.452500  1.0  0.0722
  H  H18  1  0.254000  0.960400  0.462300  1.0  0.0649
  H  H19  1  0.929700  0.754500  0.172300  1.0  0.0681
  H  H20  1  0.101500  0.752800  0.010300  1.0  0.0868
  H  H21  1  0.285200  0.735000  0.149500  1.0  0.0644
  H  H22  1  0.462400  0.614400  0.066400  1.0  0.0578
  H  H23  1  0.253200  0.903500  0.982300  1.0  0.1032
  H  H24  1  0.472200  0.832100  0.931900  1.0  0.0777
  H  H25  1  0.939000  0.629300  0.013500  1.0  0.0694
  H  H26  1  0.750000  0.894800  0.110400  1.0  0.1005
  H  H27  1  0.598000  0.841600  0.061000  1.0  0.0752
  H  H28  1  0.072800  0.231000  0.640100  1.0  0.0552
  H  H29  1  0.916400  0.169100  0.507800  1.0  0.0853
  H  H30  1  0.722600  0.244700  0.664700  1.0  0.0458
  H  H31  1  0.247900  0.072900  0.582000  1.0  0.0365
  H  H32  1  0.324700  0.201600  0.430400  1.0  0.0687
  H  H33  1  0.094800  0.300100  0.462900  1.0  0.1439
  H  H34  1  0.545900  0.350900  0.587300  1.0  0.0857
  H  H35  1  0.407900  0.269200  0.547500  1.0  0.0721
  H  H36  1  0.746000  0.039600  0.537700  1.0  0.0654
  H  H37  1  0.070300  0.245500  0.827700  1.0  0.068
  H  H38  1  0.898500  0.247200  0.989700  1.0  0.0864
  H  H39  1  0.714800  0.265000  0.850500  1.0  0.0641
  H  H40  1  0.537600  0.385600  0.933600  1.0  0.0571
  H  H41  1  0.746800  0.096500  0.017700  1.0  0.1033
  H  H42  1  0.527800  0.167900  0.068100  1.0  0.0817
  H  H43  1  0.061000  0.370700  0.986500  1.0  0.0674
  H  H44  1  0.250000  0.105200  0.889600  1.0  0.1016
  H  H45  1  0.402000  0.158400  0.939000  1.0  0.0747
  W  W46  1  0.086150  0.010980  0.235580  1.0  2.3961
  W  W47  1  0.986870  0.157290  0.368910  1.0  1.4083
  W  W48  1  0.980080  0.514580  0.254690  1.0  2.2991
  W  W49  1  0.762390  0.420680  0.369720  1.0  1.3068
  W  W50  1  0.680970  0.184450  0.355600  1.0  1.3684
  W  W51  1  0.786090  0.032830  0.219180  1.0  1.3203
  W  W52  1  0.967370  0.129520  0.111260  1.0  1.2447
  W  W53  1  0.739090  0.424280  0.108300  1.0  1.425
  W  W54  1  0.646210  0.567190  0.231550  1.0  1.3974
  W  W55  1  0.068950  0.383380  0.133010  1.0  2.3438
  W  W56  1  0.558730  0.331430  0.217970  1.0  2.5509
  W  W57  1  0.913850  0.989020  0.764420  1.0  2.3976
  W  W58  1  0.013130  0.842710  0.631090  1.0  1.4117
  W  W59  1  0.019920  0.485420  0.745310  1.0  2.3013
  W  W60  1  0.237610  0.579320  0.630280  1.0  1.3031
  W  W61  1  0.319030  0.815550  0.644400  1.0  1.37
  W  W62  1  0.213910  0.967170  0.780820  1.0  1.3246
  W  W63  1  0.032630  0.870480  0.888740  1.0  1.2425
  W  W64  1  0.260910  0.575720  0.891700  1.0  1.4257
  W  W65  1  0.353790  0.432810  0.768450  1.0  1.3913
  W  W66  1  0.931050  0.616620  0.866990  1.0  2.3443
  W  W67  1  0.441270  0.668570  0.782030  1.0  2.5496
  C  C68  1  0.998600  0.772400  0.373800  1.0  0.1178
  C  C69  1  0.991900  0.791300  0.430000  1.0  0.0866
  C  C70  1  0.091000  0.808000  0.454800  1.0  -0.142
  C  C71  1  0.203800  0.786000  0.416400  1.0  0.1386
  C  C72  1  0.203000  0.765300  0.359900  1.0  0.1305
  C  C73  1  0.763000  0.886000  0.453900  1.0  0.1808
  C  C74  1  0.719000  0.814600  0.534500  1.0  -0.0422
  C  C75  1  0.848000  0.761000  0.518100  1.0  -0.0893
  C  C76  1  0.431000  0.721000  0.428300  1.0  -0.1141
  C  C77  1  0.507000  0.768000  0.449300  1.0  -0.0316
  C  C78  1  0.322000  0.893000  0.455500  1.0  0.1555
  C  C79  1  0.002000  0.752400  0.147400  1.0  0.0901
  C  C80  1  0.998300  0.755400  0.089300  1.0  0.1296
  C  C81  1  0.102800  0.751700  0.050100  1.0  -0.2116
  C  C82  1  0.211700  0.746300  0.074500  1.0  0.1151
  C  C83  1  0.211400  0.741700  0.134400  1.0  0.1049
  C  C84  1  0.439700  0.676200  0.038600  1.0  0.0683
  C  C85  1  0.318000  0.837000  0.992200  1.0  -0.0921
  C  C86  1  0.443000  0.797600  0.966300  1.0  0.0268
  C  C87  1  0.872600  0.687700  0.030900  1.0  0.1611
  C  C88  1  0.768000  0.835700  0.085400  1.0  -0.1693
  C  C89  1  0.685000  0.807000  0.057700  1.0  -0.0678
  C  C90  1  0.001400  0.227600  0.626200  1.0  0.1151
  C  C91  1  0.008100  0.208700  0.570000  1.0  0.0867
  C  C92  1  0.909000  0.192000  0.545200  1.0  -0.1414
  C  C93  1  0.796200  0.214000  0.583600  1.0  0.1378
  C  C94  1  0.797000  0.234700  0.640100  1.0  0.1312
  C  C95  1  0.237000  0.114000  0.546100  1.0  0.1826
  C  C96  1  0.281000  0.185400  0.465500  1.0  -0.042
  C  C97  1  0.152000  0.239000  0.481900  1.0  -0.0882
  C  C98  1  0.569000  0.279000  0.571700  1.0  -0.114
  C  C99  1  0.493000  0.232000  0.550700  1.0  -0.0315
  C  C100  1  0.678000  0.107000  0.544500  1.0  0.1556
  C  C101  1  0.998000  0.247600  0.852600  1.0  0.0896
  C  C102  1  0.001700  0.244600  0.910700  1.0  0.1296
  C  C103  1  0.897200  0.248300  0.949900  1.0  -0.2129
  C  C104  1  0.788300  0.253700  0.925500  1.0  0.1146
  C  C105  1  0.788600  0.258300  0.865600  1.0  0.1126
  C  C106  1  0.560300  0.323800  0.961400  1.0  0.0681
  C  C107  1  0.682000  0.163000  0.007800  1.0  -0.0911
  C  C108  1  0.557000  0.202400  0.033700  1.0  0.0286
  C  C109  1  0.127400  0.312300  0.969100  1.0  0.1622
  C  C110  1  0.232000  0.164300  0.914600  1.0  -0.1654
  C  C111  1  0.315000  0.193000  0.942300  1.0  -0.0673
  N  N112  1  0.103900  0.758300  0.337100  1.0  -0.3486
  N  N113  1  0.867700  0.824500  0.466200  1.0  -0.0645
  N  N114  1  0.668900  0.890000  0.493000  1.0  -0.2745
  N  N115  1  0.311800  0.800100  0.434300  1.0  0.0014
  N  N116  1  0.437700  0.881700  0.465900  1.0  -0.4715
  N  N117  1  0.108100  0.746600  0.170500  1.0  -0.352
  N  N118  1  0.318300  0.752000  0.035800  1.0  -0.0053
  N  N119  1  0.518700  0.703600  0.996200  1.0  -0.4184
  N  N120  1  0.885400  0.757100  0.067700  1.0  0.0062
  N  N121  1  0.756700  0.710500  0.022000  1.0  -0.3551
  N  N122  1  0.896100  0.241700  0.662900  1.0  -0.345
  N  N123  1  0.132300  0.175500  0.533800  1.0  -0.0629
  N  N124  1  0.331100  0.110000  0.507000  1.0  -0.2749
  N  N125  1  0.688200  0.199900  0.565700  1.0  -0.0007
  N  N126  1  0.562300  0.118300  0.534100  1.0  -0.474
  N  N127  1  0.891900  0.253400  0.829500  1.0  -0.358
  N  N128  1  0.681700  0.248000  0.964200  1.0  -0.0036
  N  N129  1  0.481300  0.296400  0.003800  1.0  -0.4185
  N  N130  1  0.114600  0.242900  0.932300  1.0  0.0065
  N  N131  1  0.243300  0.289500  0.978000  1.0  -0.353
  O  O132  1  0.193900  0.869200  0.242600  1.0  -0.7649
  O  O133  1  0.984600  0.654700  0.267800  1.0  -0.7673
  O  O134  1  0.137400  0.431000  0.065700  1.0  -0.7434
  O  O135  1  0.408200  0.324100  0.219700  1.0  -0.832
  O  O136  1  0.744500  0.366300  0.208800  1.0  -0.7957
  O  O137  1  0.653300  0.329600  0.391700  1.0  -0.6791
  O  O138  1  0.893500  0.297800  0.405100  1.0  -0.7224
  O  O139  1  0.822600  0.113000  0.391300  1.0  -0.6973
  O  O140  1  0.660500  0.503500  0.311500  1.0  -0.7358
  O  O141  1  0.742900  0.071200  0.298000  1.0  -0.7149
  O  O142  1  0.016200  0.043200  0.312600  1.0  -0.7632
  O  O143  1  0.101200  0.217800  0.331100  1.0  -0.7565
  O  O144  1  0.803700  0.577500  0.229700  1.0  -0.7686
  O  O145  1  0.133700  0.425600  0.268800  1.0  -0.7598
  O  O146  1  0.183200  0.099600  0.231500  1.0  -0.7805
  O  O147  1  0.206100  0.314600  0.166000  1.0  -0.7357
  O  O148  1  0.031800  0.520600  0.170500  1.0  -0.794
  O  O149  1  0.890800  0.444600  0.111100  1.0  -0.7715
  O  O150  1  0.655600  0.563400  0.150100  1.0  -0.6824
  O  O151  1  0.822000  0.265500  0.098800  1.0  -0.7289
  O  O152  1  0.089400  0.012500  0.151600  1.0  -0.7043
  O  O153  1  0.937900  0.941700  0.237300  1.0  -0.8127
  O  O154  1  0.516600  0.491000  0.235500  1.0  -0.7147
  O  O155  1  0.852200  0.042800  0.138000  1.0  -0.6612
  O  O156  1  0.653200  0.179800  0.200400  1.0  -0.747
  O  O157  1  0.050700  0.241100  0.115500  1.0  -0.7382
  O  O158  1  0.581900  0.285500  0.296600  1.0  -0.7449
  O  O159  1  0.894200  0.473800  0.324700  1.0  -0.723
  O  O160  1  0.588400  0.378200  0.136800  1.0  -0.6909
  O  O161  1  0.836100  0.268100  0.307900  1.0  -0.7853
  O  O162  1  0.915400  0.158800  0.211700  1.0  -0.8058
  O  O163  1  0.977300  0.347500  0.220900  1.0  -0.7769
  O  O164  1  0.806100  0.130800  0.757400  1.0  -0.758
  O  O165  1  0.015400  0.345300  0.732200  1.0  -0.7687
  O  O166  1  0.862600  0.569000  0.934300  1.0  -0.7439
  O  O167  1  0.591800  0.675900  0.780300  1.0  -0.8318
  O  O168  1  0.255500  0.633700  0.791200  1.0  -0.796
  O  O169  1  0.346700  0.670400  0.608300  1.0  -0.6778
  O  O170  1  0.106500  0.702200  0.594900  1.0  -0.7223
  O  O171  1  0.177400  0.887000  0.608700  1.0  -0.6998
  O  O172  1  0.339500  0.496500  0.688500  1.0  -0.7361
  O  O173  1  0.257100  0.928800  0.702000  1.0  -0.7152
  O  O174  1  0.983800  0.956800  0.687400  1.0  -0.7653
  O  O175  1  0.898800  0.782200  0.668900  1.0  -0.7591
  O  O176  1  0.196300  0.422500  0.770300  1.0  -0.762
  O  O177  1  0.866300  0.574400  0.731200  1.0  -0.7606
  O  O178  1  0.816800  0.900400  0.768500  1.0  -0.7807
  O  O179  1  0.793900  0.685400  0.834000  1.0  -0.7341
  O  O180  1  0.968200  0.479400  0.829500  1.0  -0.7927
  O  O181  1  0.109200  0.555400  0.888900  1.0  -0.772
  O  O182  1  0.344400  0.436600  0.849900  1.0  -0.6824
  O  O183  1  0.178000  0.734500  0.901200  1.0  -0.7284
  O  O184  1  0.910600  0.987500  0.848400  1.0  -0.7017
  O  O185  1  0.062100  0.058300  0.762700  1.0  -0.8111
  O  O186  1  0.483400  0.509000  0.764500  1.0  -0.7166
  O  O187  1  0.147800  0.957200  0.862000  1.0  -0.6612
  O  O188  1  0.346800  0.820200  0.799600  1.0  -0.7489
  O  O189  1  0.949300  0.758900  0.884500  1.0  -0.7387
  O  O190  1  0.418100  0.714500  0.703400  1.0  -0.7426
  O  O191  1  0.105800  0.526200  0.675300  1.0  -0.7274
  O  O192  1  0.411600  0.621800  0.863200  1.0  -0.6926
  O  O193  1  0.163900  0.731900  0.692100  1.0  -0.7861
  O  O194  1  0.084600  0.841200  0.788300  1.0  -0.8063
  O  O195  1  0.022700  0.652500  0.779100  1.0  -0.7766
