# generated using pymatgen
data_DyAgH8C14(NO4)2
_symmetry_space_group_name_H-M   'P 1'
_cell_length_a   9.12620000
_cell_length_b   9.67980000
_cell_length_c   22.27330000
_cell_angle_alpha   90.00000000
_cell_angle_beta   90.00000000
_cell_angle_gamma   117.87200000
_symmetry_Int_Tables_number   1
_chemical_formula_structural   DyAgH8C14(NO4)2
_chemical_formula_sum   'Dy4 Ag4 H32 C56 N8 O32'
_cell_volume   1739.36348106
_cell_formula_units_Z   4
loop_
 _symmetry_equiv_pos_site_id
 _symmetry_equiv_pos_as_xyz
  1  'x, y, z'
loop_
 _atom_site_type_symbol
 _atom_site_label
 _atom_site_symmetry_multiplicity
 _atom_site_fract_x
 _atom_site_fract_y
 _atom_site_fract_z
 _atom_site_occupancy
 _atom_site_charge
  Dy  Dy1  1  0.618980  0.354990  0.008330  1.0  2.2867
  Dy  Dy2  1  0.881020  0.645010  0.508330  1.0  2.2911
  Dy  Dy3  1  0.381020  0.645010  0.991670  1.0  2.2868
  Dy  Dy4  1  0.118980  0.354990  0.491670  1.0  2.2917
  Ag  Ag5  1  0.012590  0.680190  0.851870  1.0  0.4046
  Ag  Ag6  1  0.487410  0.319810  0.351870  1.0  0.4041
  Ag  Ag7  1  0.987410  0.319810  0.148130  1.0  0.4035
  Ag  Ag8  1  0.512590  0.680190  0.648130  1.0  0.4044
  H  H9  1  0.944700  0.226500  0.928300  1.0  0.0968
  H  H10  1  0.745000  0.036700  0.868300  1.0  0.1359
  H  H11  1  0.776400  0.823600  0.840500  1.0  0.0687
  H  H12  1  0.183300  0.972100  0.934300  1.0  0.0835
  H  H13  1  0.987000  0.639400  0.716500  1.0  0.0809
  H  H14  1  0.101800  0.309700  0.660000  1.0  0.1128
  H  H15  1  0.138300  0.263300  0.759900  1.0  0.1275
  H  H16  1  0.109700  0.412900  0.833700  1.0  0.0787
  H  H17  1  0.555300  0.773500  0.428300  1.0  0.0966
  H  H18  1  0.755000  0.963300  0.368300  1.0  0.1336
  H  H19  1  0.723600  0.176400  0.340500  1.0  0.0682
  H  H20  1  0.316700  0.027900  0.434300  1.0  0.0833
  H  H21  1  0.513000  0.360600  0.216500  1.0  0.0809
  H  H22  1  0.398200  0.690300  0.160000  1.0  0.1131
  H  H23  1  0.361700  0.736700  0.259900  1.0  0.1279
  H  H24  1  0.390300  0.587100  0.333700  1.0  0.0787
  H  H25  1  0.055300  0.773500  0.071700  1.0  0.0967
  H  H26  1  0.255000  0.963300  0.131700  1.0  0.1337
  H  H27  1  0.223600  0.176400  0.159500  1.0  0.0684
  H  H28  1  0.816700  0.027900  0.065700  1.0  0.0836
  H  H29  1  0.013000  0.360600  0.283500  1.0  0.081
  H  H30  1  0.898200  0.690300  0.340000  1.0  0.1128
  H  H31  1  0.861700  0.736700  0.240100  1.0  0.128
  H  H32  1  0.890300  0.587100  0.166300  1.0  0.0791
  H  H33  1  0.444700  0.226500  0.571700  1.0  0.0969
  H  H34  1  0.245000  0.036700  0.631700  1.0  0.1349
  H  H35  1  0.276400  0.823600  0.659500  1.0  0.0691
  H  H36  1  0.683300  0.972100  0.565700  1.0  0.0833
  H  H37  1  0.487000  0.639400  0.783500  1.0  0.0812
  H  H38  1  0.601800  0.309700  0.840000  1.0  0.113
  H  H39  1  0.638300  0.263300  0.740100  1.0  0.1277
  H  H40  1  0.609700  0.412900  0.666300  1.0  0.079
  C  C41  1  0.223900  0.245200  0.974200  1.0  0.7754
  C  C42  1  0.087500  0.119300  0.937500  1.0  -0.2298
  C  C43  1  0.954100  0.138200  0.917500  1.0  0.0545
  C  C44  1  0.836000  0.026300  0.881600  1.0  -0.1325
  C  C45  1  0.855000  0.898300  0.865600  1.0  0.1644
  C  C46  1  0.095400  0.986600  0.920500  1.0  0.1822
  C  C47  1  0.019300  0.563500  0.725000  1.0  0.1567
  C  C48  1  0.039700  0.481100  0.677500  1.0  -0.22
  C  C49  1  0.086400  0.367100  0.690500  1.0  0.0515
  C  C50  1  0.109600  0.340800  0.749900  1.0  -0.1914
  C  C51  1  0.090100  0.429500  0.794100  1.0  0.1631
  C  C52  1  0.009800  0.517100  0.614900  1.0  0.7602
  C  C53  1  0.508500  0.008200  0.965500  1.0  0.5482
  C  C54  1  0.998400  0.520900  0.966800  1.0  0.5482
  C  C55  1  0.276100  0.754800  0.474200  1.0  0.7746
  C  C56  1  0.412500  0.880700  0.437500  1.0  -0.2294
  C  C57  1  0.545900  0.861800  0.417500  1.0  0.0535
  C  C58  1  0.664000  0.973700  0.381600  1.0  -0.1291
  C  C59  1  0.645000  0.101700  0.365600  1.0  0.1646
  C  C60  1  0.404600  0.013400  0.420500  1.0  0.1815
  C  C61  1  0.480700  0.436500  0.225000  1.0  0.1573
  C  C62  1  0.460300  0.518900  0.177500  1.0  -0.2198
  C  C63  1  0.413600  0.632900  0.190500  1.0  0.0531
  C  C64  1  0.390400  0.659200  0.249900  1.0  -0.1912
  C  C65  1  0.409900  0.570500  0.294100  1.0  0.1626
  C  C66  1  0.490200  0.482900  0.114900  1.0  0.759
  C  C67  1  0.991500  0.991800  0.465500  1.0  0.5482
  C  C68  1  0.501600  0.479100  0.466800  1.0  0.5479
  C  C69  1  0.776100  0.754800  0.025800  1.0  0.7732
  C  C70  1  0.912500  0.880700  0.062500  1.0  -0.2286
  C  C71  1  0.045900  0.861800  0.082500  1.0  0.0539
  C  C72  1  0.164000  0.973700  0.118400  1.0  -0.1294
  C  C73  1  0.145000  0.101700  0.134400  1.0  0.1631
  C  C74  1  0.904600  0.013400  0.079500  1.0  0.1825
  C  C75  1  0.980700  0.436500  0.275000  1.0  0.1563
  C  C76  1  0.960300  0.518900  0.322500  1.0  -0.2199
  C  C77  1  0.913600  0.632900  0.309500  1.0  0.054
  C  C78  1  0.890400  0.659200  0.250100  1.0  -0.1911
  C  C79  1  0.909900  0.570500  0.205900  1.0  0.1604
  C  C80  1  0.990200  0.482900  0.385100  1.0  0.7614
  C  C81  1  0.491500  0.991800  0.034500  1.0  0.5484
  C  C82  1  0.001600  0.479100  0.033200  1.0  0.5488
  C  C83  1  0.723900  0.245200  0.525800  1.0  0.7747
  C  C84  1  0.587500  0.119300  0.562500  1.0  -0.2297
  C  C85  1  0.454100  0.138200  0.582500  1.0  0.0548
  C  C86  1  0.336000  0.026300  0.618400  1.0  -0.1331
  C  C87  1  0.355000  0.898300  0.634400  1.0  0.1632
  C  C88  1  0.595400  0.986600  0.579500  1.0  0.1834
  C  C89  1  0.519300  0.563500  0.775000  1.0  0.156
  C  C90  1  0.539700  0.481100  0.822500  1.0  -0.2201
  C  C91  1  0.586400  0.367100  0.809500  1.0  0.0533
  C  C92  1  0.609600  0.340800  0.750100  1.0  -0.1916
  C  C93  1  0.590100  0.429500  0.705900  1.0  0.1609
  C  C94  1  0.509800  0.517100  0.885100  1.0  0.7615
  C  C95  1  0.008500  0.008200  0.534500  1.0  0.5482
  C  C96  1  0.498400  0.520900  0.533200  1.0  0.5489
  N  N97  1  0.981500  0.876500  0.884670  1.0  -0.3213
  N  N98  1  0.043800  0.539400  0.782290  1.0  -0.3064
  N  N99  1  0.518500  0.123500  0.384670  1.0  -0.3195
  N  N100  1  0.456200  0.460600  0.282290  1.0  -0.3075
  N  N101  1  0.018500  0.123500  0.115330  1.0  -0.323
  N  N102  1  0.956200  0.460600  0.217710  1.0  -0.3095
  N  N103  1  0.481500  0.876500  0.615330  1.0  -0.3238
  N  N104  1  0.543800  0.539400  0.717710  1.0  -0.3077
  O  O105  1  0.327100  0.212000  0.998640  1.0  -0.7307
  O  O106  1  0.222400  0.373100  0.975550  1.0  -0.7323
  O  O107  1  0.948200  0.607900  0.607490  1.0  -0.677
  O  O108  1  0.047800  0.453700  0.572810  1.0  -0.7858
  O  O109  1  0.133700  0.615600  0.943600  1.0  -0.6339
  O  O110  1  0.860700  0.457500  0.940940  1.0  -0.6221
  O  O111  1  0.578500  0.143500  0.944460  1.0  -0.6622
  O  O112  1  0.450500  0.882700  0.936280  1.0  -0.6353
  O  O113  1  0.172900  0.788000  0.498640  1.0  -0.7305
  O  O114  1  0.277600  0.626900  0.475550  1.0  -0.7331
  O  O115  1  0.551800  0.392100  0.107490  1.0  -0.6776
  O  O116  1  0.452200  0.546300  0.072810  1.0  -0.7854
  O  O117  1  0.366300  0.384400  0.443600  1.0  -0.6332
  O  O118  1  0.639300  0.542500  0.440940  1.0  -0.6223
  O  O119  1  0.921500  0.856500  0.444460  1.0  -0.6616
  O  O120  1  0.049500  0.117300  0.436280  1.0  -0.6364
  O  O121  1  0.672900  0.788000  0.001360  1.0  -0.729
  O  O122  1  0.777600  0.626900  0.024450  1.0  -0.7331
  O  O123  1  0.051800  0.392100  0.392510  1.0  -0.6779
  O  O124  1  0.952200  0.546300  0.427190  1.0  -0.7861
  O  O125  1  0.866300  0.384400  0.056400  1.0  -0.6337
  O  O126  1  0.139300  0.542500  0.059060  1.0  -0.622
  O  O127  1  0.421500  0.856500  0.055540  1.0  -0.6619
  O  O128  1  0.549500  0.117300  0.063720  1.0  -0.6356
  O  O129  1  0.827100  0.212000  0.501360  1.0  -0.7288
  O  O130  1  0.722400  0.373100  0.524450  1.0  -0.7324
  O  O131  1  0.448200  0.607900  0.892510  1.0  -0.6775
  O  O132  1  0.547800  0.453700  0.927190  1.0  -0.7854
  O  O133  1  0.633700  0.615600  0.556400  1.0  -0.6356
  O  O134  1  0.360700  0.457500  0.559060  1.0  -0.6211
  O  O135  1  0.078500  0.143500  0.555540  1.0  -0.6618
  O  O136  1  0.950500  0.882700  0.563720  1.0  -0.635
