# generated using pymatgen
data_EuAgH8C14(NO4)2
_symmetry_space_group_name_H-M   'P 1'
_cell_length_a   9.15810000
_cell_length_b   9.71090000
_cell_length_c   22.33580000
_cell_angle_alpha   90.00000000
_cell_angle_beta   90.00000000
_cell_angle_gamma   117.48500000
_symmetry_Int_Tables_number   1
_chemical_formula_structural   EuAgH8C14(NO4)2
_chemical_formula_sum   'Eu4 Ag4 H32 C56 N8 O32'
_cell_volume   1762.19704235
_cell_formula_units_Z   4
loop_
 _symmetry_equiv_pos_site_id
 _symmetry_equiv_pos_as_xyz
  1  'x, y, z'
loop_
 _atom_site_type_symbol
 _atom_site_label
 _atom_site_symmetry_multiplicity
 _atom_site_fract_x
 _atom_site_fract_y
 _atom_site_fract_z
 _atom_site_occupancy
 _atom_site_charge
  Eu  Eu1  1  0.617900  0.356600  0.008620  1.0  2.1092
  Eu  Eu2  1  0.882100  0.643400  0.508620  1.0  2.1106
  Eu  Eu3  1  0.382100  0.643400  0.991380  1.0  2.1106
  Eu  Eu4  1  0.117900  0.356600  0.491380  1.0  2.1173
  Ag  Ag5  1  0.016550  0.679700  0.852160  1.0  0.4146
  Ag  Ag6  1  0.483450  0.320300  0.352160  1.0  0.4138
  Ag  Ag7  1  0.983450  0.320300  0.147840  1.0  0.4132
  Ag  Ag8  1  0.516550  0.679700  0.647840  1.0  0.4141
  H  H9  1  0.940400  0.221800  0.927500  1.0  0.1071
  H  H10  1  0.743300  0.030900  0.868400  1.0  0.143
  H  H11  1  0.778200  0.821600  0.840700  1.0  0.0754
  H  H12  1  0.182300  0.971200  0.934200  1.0  0.0805
  H  H13  1  0.988900  0.639500  0.717600  1.0  0.0855
  H  H14  1  0.100900  0.311100  0.659100  1.0  0.1259
  H  H15  1  0.137500  0.261700  0.758100  1.0  0.1326
  H  H16  1  0.110400  0.408600  0.832700  1.0  0.082
  H  H17  1  0.559600  0.778200  0.427500  1.0  0.1069
  H  H18  1  0.756700  0.969100  0.368400  1.0  0.14
  H  H19  1  0.721800  0.178400  0.340700  1.0  0.0749
  H  H20  1  0.317700  0.028800  0.434200  1.0  0.08
  H  H21  1  0.511100  0.360500  0.217600  1.0  0.0858
  H  H22  1  0.399100  0.688900  0.159100  1.0  0.1256
  H  H23  1  0.362500  0.738300  0.258100  1.0  0.133
  H  H24  1  0.389600  0.591400  0.332700  1.0  0.0821
  H  H25  1  0.059600  0.778200  0.072500  1.0  0.1072
  H  H26  1  0.256700  0.969100  0.131600  1.0  0.1401
  H  H27  1  0.221800  0.178400  0.159300  1.0  0.0751
  H  H28  1  0.817700  0.028800  0.065800  1.0  0.0799
  H  H29  1  0.011100  0.360500  0.282400  1.0  0.0859
  H  H30  1  0.899100  0.688900  0.340900  1.0  0.1254
  H  H31  1  0.862500  0.738300  0.241900  1.0  0.1332
  H  H32  1  0.889600  0.591400  0.167300  1.0  0.0823
  H  H33  1  0.440400  0.221800  0.572500  1.0  0.1073
  H  H34  1  0.243300  0.030900  0.631600  1.0  0.1422
  H  H35  1  0.278200  0.821600  0.659300  1.0  0.0758
  H  H36  1  0.682300  0.971200  0.565800  1.0  0.0803
  H  H37  1  0.488900  0.639500  0.782400  1.0  0.0857
  H  H38  1  0.600900  0.311100  0.840900  1.0  0.126
  H  H39  1  0.637500  0.261700  0.741900  1.0  0.1327
  H  H40  1  0.610400  0.408600  0.667300  1.0  0.0821
  C  C41  1  0.219600  0.242900  0.972890  1.0  0.7589
  C  C42  1  0.084800  0.117200  0.936390  1.0  -0.2339
  C  C43  1  0.951400  0.134500  0.916780  1.0  0.0569
  C  C44  1  0.835000  0.021900  0.881400  1.0  -0.156
  C  C45  1  0.856200  0.896200  0.865500  1.0  0.1715
  C  C46  1  0.094700  0.985000  0.919890  1.0  0.1988
  C  C47  1  0.020900  0.563400  0.725630  1.0  0.163
  C  C48  1  0.039900  0.482100  0.677930  1.0  -0.2147
  C  C49  1  0.086000  0.367700  0.690000  1.0  0.0614
  C  C50  1  0.109300  0.339800  0.748800  1.0  -0.1771
  C  C51  1  0.091000  0.427200  0.793400  1.0  0.1882
  C  C52  1  0.007800  0.521200  0.616270  1.0  0.7423
  C  C53  1  0.508100  0.008300  0.965640  1.0  0.5621
  C  C54  1  0.996800  0.519900  0.967000  1.0  0.5751
  C  C55  1  0.280400  0.757100  0.472890  1.0  0.7591
  C  C56  1  0.415200  0.882800  0.436390  1.0  -0.234
  C  C57  1  0.548600  0.865500  0.416780  1.0  0.0561
  C  C58  1  0.665000  0.978100  0.381400  1.0  -0.1542
  C  C59  1  0.643800  0.103800  0.365500  1.0  0.1715
  C  C60  1  0.405300  0.015000  0.419890  1.0  0.1986
  C  C61  1  0.479100  0.436600  0.225630  1.0  0.1637
  C  C62  1  0.460100  0.517900  0.177930  1.0  -0.2145
  C  C63  1  0.414000  0.632300  0.190000  1.0  0.0626
  C  C64  1  0.390700  0.660200  0.248800  1.0  -0.1787
  C  C65  1  0.409000  0.572800  0.293400  1.0  0.1875
  C  C66  1  0.492200  0.478800  0.116270  1.0  0.7421
  C  C67  1  0.991900  0.991700  0.465640  1.0  0.5621
  C  C68  1  0.503200  0.480100  0.467000  1.0  0.5735
  C  C69  1  0.780400  0.757100  0.027110  1.0  0.7585
  C  C70  1  0.915200  0.882800  0.063610  1.0  -0.2336
  C  C71  1  0.048600  0.865500  0.083220  1.0  0.0567
  C  C72  1  0.165000  0.978100  0.118600  1.0  -0.1552
  C  C73  1  0.143800  0.103800  0.134500  1.0  0.171
  C  C74  1  0.905300  0.015000  0.080110  1.0  0.1996
  C  C75  1  0.979100  0.436600  0.274370  1.0  0.1629
  C  C76  1  0.960100  0.517900  0.322070  1.0  -0.214
  C  C77  1  0.914000  0.632300  0.310000  1.0  0.0631
  C  C78  1  0.890700  0.660200  0.251200  1.0  -0.1779
  C  C79  1  0.909000  0.572800  0.206600  1.0  0.1863
  C  C80  1  0.992200  0.478800  0.383730  1.0  0.744
  C  C81  1  0.491900  0.991700  0.034360  1.0  0.5621
  C  C82  1  0.003200  0.480100  0.033000  1.0  0.5745
  C  C83  1  0.719600  0.242900  0.527110  1.0  0.7584
  C  C84  1  0.584800  0.117200  0.563610  1.0  -0.2338
  C  C85  1  0.451400  0.134500  0.583220  1.0  0.0573
  C  C86  1  0.335000  0.021900  0.618600  1.0  -0.1563
  C  C87  1  0.356200  0.896200  0.634500  1.0  0.1714
  C  C88  1  0.594700  0.985000  0.580110  1.0  0.1998
  C  C89  1  0.520900  0.563400  0.774370  1.0  0.1625
  C  C90  1  0.539900  0.482100  0.822070  1.0  -0.214
  C  C91  1  0.586000  0.367700  0.810000  1.0  0.063
  C  C92  1  0.609300  0.339800  0.751200  1.0  -0.1766
  C  C93  1  0.591000  0.427200  0.706600  1.0  0.1868
  C  C94  1  0.507800  0.521200  0.883730  1.0  0.7436
  C  C95  1  0.008100  0.008300  0.534360  1.0  0.562
  C  C96  1  0.496800  0.519900  0.533000  1.0  0.5758
  N  N97  1  0.983800  0.874900  0.884030  1.0  -0.3206
  N  N98  1  0.046200  0.538400  0.782770  1.0  -0.3095
  N  N99  1  0.516200  0.125100  0.384030  1.0  -0.3189
  N  N100  1  0.453800  0.461600  0.282770  1.0  -0.3108
  N  N101  1  0.016200  0.125100  0.115970  1.0  -0.323
  N  N102  1  0.953800  0.461600  0.217230  1.0  -0.3137
  N  N103  1  0.483800  0.874900  0.615970  1.0  -0.3227
  N  N104  1  0.546200  0.538400  0.717230  1.0  -0.311
  O  O105  1  0.323900  0.210100  0.997230  1.0  -0.7236
  O  O106  1  0.217600  0.370100  0.974280  1.0  -0.7074
  O  O107  1  0.945300  0.610900  0.610780  1.0  -0.663
  O  O108  1  0.045800  0.462000  0.572490  1.0  -0.7872
  O  O109  1  0.131700  0.616300  0.943930  1.0  -0.6489
  O  O110  1  0.861700  0.458400  0.940840  1.0  -0.6041
  O  O111  1  0.578500  0.142400  0.944330  1.0  -0.6482
  O  O112  1  0.450100  0.883700  0.936180  1.0  -0.6364
  O  O113  1  0.176100  0.789900  0.497230  1.0  -0.7237
  O  O114  1  0.282400  0.629900  0.474280  1.0  -0.7082
  O  O115  1  0.554700  0.389100  0.110780  1.0  -0.6631
  O  O116  1  0.454200  0.538000  0.072490  1.0  -0.7881
  O  O117  1  0.368300  0.383700  0.443930  1.0  -0.6482
  O  O118  1  0.638300  0.541600  0.440840  1.0  -0.6038
  O  O119  1  0.921500  0.857600  0.444330  1.0  -0.6465
  O  O120  1  0.049900  0.116300  0.436180  1.0  -0.6366
  O  O121  1  0.676100  0.789900  0.002770  1.0  -0.7246
  O  O122  1  0.782400  0.629900  0.025720  1.0  -0.7085
  O  O123  1  0.054700  0.389100  0.389220  1.0  -0.6636
  O  O124  1  0.954200  0.538000  0.427510  1.0  -0.7888
  O  O125  1  0.868300  0.383700  0.056070  1.0  -0.6504
  O  O126  1  0.138300  0.541600  0.059160  1.0  -0.6032
  O  O127  1  0.421500  0.857600  0.055670  1.0  -0.6471
  O  O128  1  0.549900  0.116300  0.063820  1.0  -0.6368
  O  O129  1  0.823900  0.210100  0.502770  1.0  -0.7244
  O  O130  1  0.717600  0.370100  0.525720  1.0  -0.7076
  O  O131  1  0.445300  0.610900  0.889220  1.0  -0.6635
  O  O132  1  0.545800  0.462000  0.927510  1.0  -0.7879
  O  O133  1  0.631700  0.616300  0.556070  1.0  -0.6525
  O  O134  1  0.361700  0.458400  0.559160  1.0  -0.6029
  O  O135  1  0.078500  0.142400  0.555670  1.0  -0.6483
  O  O136  1  0.950100  0.883700  0.563820  1.0  -0.6373
