# generated using pymatgen
data_HoAgH8C14(NO4)2
_symmetry_space_group_name_H-M   'P 1'
_cell_length_a   9.11370000
_cell_length_b   9.66390000
_cell_length_c   22.25900000
_cell_angle_alpha   90.00000000
_cell_angle_beta   90.00000000
_cell_angle_gamma   117.96000000
_symmetry_Int_Tables_number   1
_chemical_formula_structural   HoAgH8C14(NO4)2
_chemical_formula_sum   'Ho4 Ag4 H32 C56 N8 O32'
_cell_volume   1731.60490793
_cell_formula_units_Z   4
loop_
 _symmetry_equiv_pos_site_id
 _symmetry_equiv_pos_as_xyz
  1  'x, y, z'
loop_
 _atom_site_type_symbol
 _atom_site_label
 _atom_site_symmetry_multiplicity
 _atom_site_fract_x
 _atom_site_fract_y
 _atom_site_fract_z
 _atom_site_occupancy
 _atom_site_charge
  Ho  Ho1  1  0.619220  0.354600  0.008270  1.0  2.2469
  Ho  Ho2  1  0.880780  0.645400  0.508270  1.0  2.2525
  Ho  Ho3  1  0.380780  0.645400  0.991730  1.0  2.2485
  Ho  Ho4  1  0.119220  0.354600  0.491730  1.0  2.253
  Ag  Ag5  1  0.011770  0.679840  0.851680  1.0  0.475
  Ag  Ag6  1  0.488230  0.320160  0.351680  1.0  0.4724
  Ag  Ag7  1  0.988230  0.320160  0.148320  1.0  0.4703
  Ag  Ag8  1  0.511770  0.679840  0.648320  1.0  0.4734
  H  H9  1  0.945200  0.227200  0.928900  1.0  0.0974
  H  H10  1  0.746000  0.036800  0.867800  1.0  0.1354
  H  H11  1  0.775300  0.823200  0.841100  1.0  0.0662
  H  H12  1  0.182500  0.971100  0.935000  1.0  0.0732
  H  H13  1  0.985100  0.638000  0.715900  1.0  0.0759
  H  H14  1  0.101800  0.309500  0.659900  1.0  0.1125
  H  H15  1  0.138700  0.262500  0.759800  1.0  0.1348
  H  H16  1  0.108400  0.412200  0.833400  1.0  0.0737
  H  H17  1  0.554800  0.772800  0.428900  1.0  0.0974
  H  H18  1  0.754000  0.963200  0.367800  1.0  0.134
  H  H19  1  0.724700  0.176800  0.341100  1.0  0.0657
  H  H20  1  0.317500  0.028900  0.435000  1.0  0.0733
  H  H21  1  0.514900  0.362000  0.215900  1.0  0.0759
  H  H22  1  0.398200  0.690500  0.159900  1.0  0.1126
  H  H23  1  0.361300  0.737500  0.259800  1.0  0.1351
  H  H24  1  0.391600  0.587800  0.333400  1.0  0.0736
  H  H25  1  0.054800  0.772800  0.071100  1.0  0.0976
  H  H26  1  0.254000  0.963200  0.132200  1.0  0.1342
  H  H27  1  0.224700  0.176800  0.158900  1.0  0.0659
  H  H28  1  0.817500  0.028900  0.065000  1.0  0.0736
  H  H29  1  0.014900  0.362000  0.284100  1.0  0.076
  H  H30  1  0.898200  0.690500  0.340100  1.0  0.1123
  H  H31  1  0.861300  0.737500  0.240200  1.0  0.1352
  H  H32  1  0.891600  0.587800  0.166600  1.0  0.0739
  H  H33  1  0.445200  0.227200  0.571100  1.0  0.0976
  H  H34  1  0.246000  0.036800  0.632200  1.0  0.1348
  H  H35  1  0.275300  0.823200  0.658900  1.0  0.0666
  H  H36  1  0.682500  0.971100  0.565000  1.0  0.0732
  H  H37  1  0.485100  0.638000  0.784100  1.0  0.0761
  H  H38  1  0.601800  0.309500  0.840100  1.0  0.1126
  H  H39  1  0.638700  0.262500  0.740200  1.0  0.1349
  H  H40  1  0.608400  0.412200  0.666667  1.0  0.0755
  C  C41  1  0.224400  0.246100  0.974360  1.0  0.7764
  C  C42  1  0.088100  0.119700  0.937700  1.0  -0.2426
  C  C43  1  0.954900  0.139100  0.917870  1.0  0.0471
  C  C44  1  0.836500  0.026000  0.881400  1.0  -0.1644
  C  C45  1  0.854800  0.898300  0.865900  1.0  0.1587
  C  C46  1  0.095000  0.986100  0.920800  1.0  0.188
  C  C47  1  0.018400  0.562700  0.724490  1.0  0.158
  C  C48  1  0.039400  0.481100  0.677200  1.0  -0.24
  C  C49  1  0.086300  0.366900  0.690500  1.0  0.0435
  C  C50  1  0.109700  0.339900  0.749800  1.0  -0.2023
  C  C51  1  0.089400  0.429000  0.793700  1.0  0.1649
  C  C52  1  0.010800  0.516800  0.614200  1.0  0.7584
  C  C53  1  0.508100  0.007500  0.965590  1.0  0.5431
  C  C54  1  0.997800  0.520000  0.966830  1.0  0.5389
  C  C55  1  0.275600  0.753900  0.474360  1.0  0.7765
  C  C56  1  0.411900  0.880300  0.437700  1.0  -0.2421
  C  C57  1  0.545100  0.860900  0.417870  1.0  0.0463
  C  C58  1  0.663500  0.974000  0.381400  1.0  -0.1643
  C  C59  1  0.645200  0.101700  0.365900  1.0  0.1589
  C  C60  1  0.405000  0.013900  0.420800  1.0  0.1879
  C  C61  1  0.481600  0.437300  0.224490  1.0  0.1582
  C  C62  1  0.460600  0.518900  0.177200  1.0  -0.2398
  C  C63  1  0.413700  0.633100  0.190500  1.0  0.0448
  C  C64  1  0.390300  0.660100  0.249800  1.0  -0.2037
  C  C65  1  0.410600  0.571000  0.293700  1.0  0.1647
  C  C66  1  0.489200  0.483200  0.114200  1.0  0.7574
  C  C67  1  0.991900  0.992500  0.465590  1.0  0.5432
  C  C68  1  0.502200  0.480000  0.466830  1.0  0.5386
  C  C69  1  0.775600  0.753900  0.025640  1.0  0.7753
  C  C70  1  0.911900  0.880300  0.062300  1.0  -0.2415
  C  C71  1  0.045100  0.860900  0.082130  1.0  0.0468
  C  C72  1  0.163500  0.974000  0.118600  1.0  -0.1647
  C  C73  1  0.145200  0.101700  0.134100  1.0  0.1579
  C  C74  1  0.905000  0.013900  0.079200  1.0  0.189
  C  C75  1  0.981600  0.437300  0.275510  1.0  0.157
  C  C76  1  0.960600  0.518900  0.322800  1.0  -0.2397
  C  C77  1  0.913700  0.633100  0.309500  1.0  0.0465
  C  C78  1  0.890300  0.660100  0.250200  1.0  -0.2038
  C  C79  1  0.910600  0.571000  0.206300  1.0  0.1633
  C  C80  1  0.989200  0.483200  0.385800  1.0  0.7596
  C  C81  1  0.491900  0.992500  0.034410  1.0  0.5427
  C  C82  1  0.002200  0.480000  0.033170  1.0  0.5396
  C  C83  1  0.724400  0.246100  0.525640  1.0  0.7756
  C  C84  1  0.588100  0.119700  0.562300  1.0  -0.2425
  C  C85  1  0.454900  0.139100  0.582130  1.0  0.0474
  C  C86  1  0.336500  0.026000  0.618600  1.0  -0.1642
  C  C87  1  0.354800  0.898300  0.634100  1.0  0.1579
  C  C88  1  0.595000  0.986100  0.579200  1.0  0.1894
  C  C89  1  0.518400  0.562700  0.775510  1.0  0.1571
  C  C90  1  0.539400  0.481100  0.822800  1.0  -0.2394
  C  C91  1  0.586300  0.366900  0.809500  1.0  0.0459
  C  C92  1  0.609700  0.339900  0.750200  1.0  -0.1946
  C  C93  1  0.589400  0.429000  0.706300  1.0  0.1623
  C  C94  1  0.510800  0.516800  0.885800  1.0  0.76
  C  C95  1  0.008100  0.007500  0.534410  1.0  0.5426
  C  C96  1  0.497800  0.520000  0.533170  1.0  0.5398
  N  N97  1  0.981900  0.876000  0.884760  1.0  -0.3327
  N  N98  1  0.043300  0.539500  0.781980  1.0  -0.3225
  N  N99  1  0.518100  0.124000  0.384760  1.0  -0.3299
  N  N100  1  0.456700  0.460500  0.281980  1.0  -0.3242
  N  N101  1  0.018100  0.124000  0.115240  1.0  -0.3341
  N  N102  1  0.956700  0.460500  0.218020  1.0  -0.3268
  N  N103  1  0.481900  0.876000  0.615240  1.0  -0.3352
  N  N104  1  0.543300  0.539500  0.718020  1.0  -0.324
  O  O105  1  0.328000  0.212600  0.999120  1.0  -0.7244
  O  O106  1  0.223500  0.374500  0.976130  1.0  -0.7254
  O  O107  1  0.949200  0.607600  0.606680  1.0  -0.6725
  O  O108  1  0.048200  0.451700  0.572640  1.0  -0.7818
  O  O109  1  0.134000  0.614900  0.943460  1.0  -0.6176
  O  O110  1  0.860500  0.456900  0.940950  1.0  -0.5976
  O  O111  1  0.578100  0.143700  0.944390  1.0  -0.6343
  O  O112  1  0.450700  0.882600  0.936190  1.0  -0.6103
  O  O113  1  0.172000  0.787400  0.499120  1.0  -0.7257
  O  O114  1  0.276500  0.625500  0.476130  1.0  -0.7255
  O  O115  1  0.550800  0.392400  0.106680  1.0  -0.6729
  O  O116  1  0.451800  0.548300  0.072640  1.0  -0.7817
  O  O117  1  0.366000  0.385100  0.443460  1.0  -0.6164
  O  O118  1  0.639500  0.543100  0.440950  1.0  -0.5976
  O  O119  1  0.921900  0.856300  0.444390  1.0  -0.6338
  O  O120  1  0.049300  0.117400  0.436190  1.0  -0.6109
  O  O121  1  0.672000  0.787400  0.000880  1.0  -0.7267
  O  O122  1  0.776500  0.625500  0.023870  1.0  -0.7254
  O  O123  1  0.050800  0.392400  0.393320  1.0  -0.6732
  O  O124  1  0.951800  0.548300  0.427360  1.0  -0.7823
  O  O125  1  0.866000  0.385100  0.056540  1.0  -0.6148
  O  O126  1  0.139500  0.543100  0.059050  1.0  -0.5968
  O  O127  1  0.421900  0.856300  0.055610  1.0  -0.6345
  O  O128  1  0.549300  0.117400  0.063810  1.0  -0.6113
  O  O129  1  0.828000  0.212600  0.500880  1.0  -0.7254
  O  O130  1  0.723500  0.374500  0.523870  1.0  -0.7255
  O  O131  1  0.449200  0.607600  0.893320  1.0  -0.6731
  O  O132  1  0.548200  0.451700  0.927360  1.0  -0.7816
  O  O133  1  0.634000  0.614900  0.556540  1.0  -0.6174
  O  O134  1  0.360500  0.456900  0.559050  1.0  -0.5964
  O  O135  1  0.078100  0.143700  0.555610  1.0  -0.6345
  O  O136  1  0.950700  0.882600  0.563810  1.0  -0.6112
