# generated using pymatgen
data_CdNi2H58C80(N10Cl)2
_symmetry_space_group_name_H-M   'P 1'
_cell_length_a   23.90110000
_cell_length_b   34.63950000
_cell_length_c   13.45530000
_cell_angle_alpha   90.00000000
_cell_angle_beta   90.00000000
_cell_angle_gamma   90.00000000
_symmetry_Int_Tables_number   1
_chemical_formula_structural   CdNi2H58C80(N10Cl)2
_chemical_formula_sum   'Cd4 Ni8 H232 C320 N80 Cl8'
_cell_volume   11139.94095132
_cell_formula_units_Z   4
loop_
 _symmetry_equiv_pos_site_id
 _symmetry_equiv_pos_as_xyz
  1  'x, y, z'
loop_
 _atom_site_type_symbol
 _atom_site_label
 _atom_site_symmetry_multiplicity
 _atom_site_fract_x
 _atom_site_fract_y
 _atom_site_fract_z
 _atom_site_occupancy
 _atom_site_charge
  Cd  Cd1  1  0.000000  0.238330  0.157240  1.0  0.8055
  Cd  Cd2  1  0.500000  0.738330  0.657240  1.0  0.8055
  Cd  Cd3  1  0.000000  0.761670  0.157240  1.0  0.8041
  Cd  Cd4  1  0.500000  0.261670  0.657240  1.0  0.8041
  Ni  Ni5  1  0.230960  0.417060  0.400970  1.0  0.8232
  Ni  Ni6  1  0.730960  0.917060  0.900970  1.0  0.8232
  Ni  Ni7  1  0.769040  0.582940  0.400970  1.0  0.8229
  Ni  Ni8  1  0.269040  0.082940  0.900970  1.0  0.8229
  Ni  Ni9  1  0.230960  0.582940  0.400970  1.0  0.8231
  Ni  Ni10  1  0.730960  0.082940  0.900970  1.0  0.8231
  Ni  Ni11  1  0.769040  0.417060  0.400970  1.0  0.8231
  Ni  Ni12  1  0.269040  0.917060  0.900970  1.0  0.8231
  H  H13  1  0.328200  0.454300  0.536900  1.0  0.0861
  H  H14  1  0.342100  0.444500  0.719700  1.0  0.1114
  H  H15  1  0.265400  0.402300  0.777100  1.0  0.1144
  H  H16  1  0.090000  0.335000  0.594300  1.0  0.1115
  H  H17  1  0.061000  0.330000  0.417500  1.0  0.1152
  H  H18  1  0.130600  0.368000  0.319400  1.0  0.0888
  H  H19  1  0.156900  0.415700  0.788600  1.0  0.1016
  H  H20  1  0.124000  0.393400  0.939800  1.0  0.1205
  H  H21  1  0.142900  0.283900  0.843300  1.0  0.122
  H  H22  1  0.173900  0.307000  0.690900  1.0  0.0998
  H  H23  1  0.134100  0.361400  0.108400  1.0  0.1122
  H  H24  1  0.085900  0.318300  0.222600  1.0  0.0977
  H  H25  1  0.069800  0.272700  0.958900  1.0  0.0944
  H  H26  1  0.176800  0.139000  0.989400  1.0  0.0922
  H  H27  1  0.118500  0.187200  0.899600  1.0  0.1149
  H  H28  1  0.141700  0.179900  0.720000  1.0  0.1174
  H  H29  1  0.274800  0.081800  0.520100  1.0  0.1215
  H  H30  1  0.354400  0.040000  0.570500  1.0  0.1142
  H  H31  1  0.362300  0.045200  0.753700  1.0  0.0991
  H  H32  1  0.121100  0.115500  0.601300  1.0  0.1121
  H  H33  1  0.087000  0.133600  0.445900  1.0  0.1184
  H  H34  1  0.235000  0.181200  0.381000  1.0  0.1105
  H  H35  1  0.269600  0.161200  0.532700  1.0  0.0925
  H  H36  1  0.198600  0.171600  0.203900  1.0  0.1227
  H  H37  1  0.130100  0.200200  0.091600  1.0  0.0948
  H  H38  1  0.056200  0.188800  0.348800  1.0  0.0932
  H  H39  1  0.106700  0.442400  0.479500  1.0  0.0881
  H  H40  1  0.349300  0.442900  0.301000  1.0  0.08
  H  H41  1  0.828200  0.954300  0.036900  1.0  0.0861
  H  H42  1  0.842100  0.944500  0.219700  1.0  0.1114
  H  H43  1  0.765400  0.902300  0.277100  1.0  0.1144
  H  H44  1  0.590000  0.835000  0.094300  1.0  0.1115
  H  H45  1  0.561000  0.830000  0.917500  1.0  0.1152
  H  H46  1  0.630600  0.868000  0.819400  1.0  0.0888
  H  H47  1  0.656900  0.915700  0.288600  1.0  0.1016
  H  H48  1  0.624000  0.893400  0.439800  1.0  0.1205
  H  H49  1  0.642900  0.783900  0.343300  1.0  0.122
  H  H50  1  0.673900  0.807000  0.190900  1.0  0.0998
  H  H51  1  0.634100  0.861400  0.608400  1.0  0.1122
  H  H52  1  0.585900  0.818300  0.722600  1.0  0.0977
  H  H53  1  0.569800  0.772700  0.458900  1.0  0.0944
  H  H54  1  0.676800  0.639000  0.489400  1.0  0.0922
  H  H55  1  0.618500  0.687200  0.399600  1.0  0.1149
  H  H56  1  0.641700  0.679900  0.220000  1.0  0.1174
  H  H57  1  0.774800  0.581800  0.020100  1.0  0.1215
  H  H58  1  0.854400  0.540000  0.070500  1.0  0.1142
  H  H59  1  0.862300  0.545200  0.253700  1.0  0.0991
  H  H60  1  0.621100  0.615500  0.101300  1.0  0.1121
  H  H61  1  0.587000  0.633600  0.945900  1.0  0.1184
  H  H62  1  0.735000  0.681200  0.881000  1.0  0.1105
  H  H63  1  0.769600  0.661200  0.032700  1.0  0.0925
  H  H64  1  0.698600  0.671600  0.703900  1.0  0.1227
  H  H65  1  0.630100  0.700200  0.591600  1.0  0.0948
  H  H66  1  0.556200  0.688800  0.848800  1.0  0.0932
  H  H67  1  0.606700  0.942400  0.979500  1.0  0.0881
  H  H68  1  0.849300  0.942900  0.801000  1.0  0.08
  H  H69  1  0.671800  0.545700  0.536900  1.0  0.0856
  H  H70  1  0.657900  0.555500  0.719700  1.0  0.1116
  H  H71  1  0.734600  0.597700  0.777100  1.0  0.1152
  H  H72  1  0.910000  0.665000  0.594300  1.0  0.111
  H  H73  1  0.939000  0.670000  0.417500  1.0  0.1154
  H  H74  1  0.869400  0.632000  0.319400  1.0  0.089
  H  H75  1  0.843100  0.584300  0.788600  1.0  0.1026
  H  H76  1  0.876000  0.606600  0.939800  1.0  0.121
  H  H77  1  0.857100  0.716100  0.843300  1.0  0.1221
  H  H78  1  0.826100  0.693000  0.690900  1.0  0.1007
  H  H79  1  0.865900  0.638600  0.108400  1.0  0.1121
  H  H80  1  0.914100  0.681700  0.222600  1.0  0.0972
  H  H81  1  0.930200  0.727300  0.958900  1.0  0.0947
  H  H82  1  0.823200  0.861000  0.989400  1.0  0.0922
  H  H83  1  0.881500  0.812800  0.899600  1.0  0.1148
  H  H84  1  0.858300  0.820100  0.720000  1.0  0.1174
  H  H85  1  0.725200  0.918200  0.520100  1.0  0.1215
  H  H86  1  0.645600  0.960000  0.570500  1.0  0.1144
  H  H87  1  0.637700  0.954800  0.753700  1.0  0.0984
  H  H88  1  0.878900  0.884500  0.601300  1.0  0.1116
  H  H89  1  0.913000  0.866400  0.445900  1.0  0.1198
  H  H90  1  0.765000  0.818800  0.381000  1.0  0.1109
  H  H91  1  0.730400  0.838800  0.532700  1.0  0.0925
  H  H92  1  0.801400  0.828400  0.203900  1.0  0.1221
  H  H93  1  0.869900  0.799800  0.091600  1.0  0.0945
  H  H94  1  0.943800  0.811200  0.348800  1.0  0.0934
  H  H95  1  0.893300  0.557600  0.479500  1.0  0.0881
  H  H96  1  0.650700  0.557100  0.301000  1.0  0.0792
  H  H97  1  0.171800  0.045700  0.036900  1.0  0.0856
  H  H98  1  0.157900  0.055500  0.219700  1.0  0.1116
  H  H99  1  0.234600  0.097700  0.277100  1.0  0.1152
  H  H100  1  0.410000  0.165000  0.094300  1.0  0.111
  H  H101  1  0.439000  0.170000  0.917500  1.0  0.1154
  H  H102  1  0.369400  0.132000  0.819400  1.0  0.089
  H  H103  1  0.343100  0.084300  0.288600  1.0  0.1026
  H  H104  1  0.376000  0.106600  0.439800  1.0  0.121
  H  H105  1  0.357100  0.216100  0.343300  1.0  0.1221
  H  H106  1  0.326100  0.193000  0.190900  1.0  0.1007
  H  H107  1  0.365900  0.138600  0.608400  1.0  0.1121
  H  H108  1  0.414100  0.181700  0.722600  1.0  0.0972
  H  H109  1  0.430200  0.227300  0.458900  1.0  0.0947
  H  H110  1  0.323200  0.361000  0.489400  1.0  0.0922
  H  H111  1  0.381500  0.312800  0.399600  1.0  0.1148
  H  H112  1  0.358300  0.320100  0.220000  1.0  0.1174
  H  H113  1  0.225200  0.418200  0.020100  1.0  0.1215
  H  H114  1  0.145600  0.460000  0.070500  1.0  0.1144
  H  H115  1  0.137700  0.454800  0.253700  1.0  0.0984
  H  H116  1  0.378900  0.384500  0.101300  1.0  0.1116
  H  H117  1  0.413000  0.366400  0.945900  1.0  0.1198
  H  H118  1  0.265000  0.318800  0.881000  1.0  0.1109
  H  H119  1  0.230400  0.338800  0.032700  1.0  0.0925
  H  H120  1  0.301400  0.328400  0.703900  1.0  0.1221
  H  H121  1  0.369900  0.299800  0.591600  1.0  0.0945
  H  H122  1  0.443800  0.311200  0.848800  1.0  0.0934
  H  H123  1  0.393300  0.057600  0.979500  1.0  0.0881
  H  H124  1  0.150700  0.057100  0.801000  1.0  0.0792
  H  H125  1  0.328200  0.545700  0.536900  1.0  0.0859
  H  H126  1  0.342100  0.555500  0.719700  1.0  0.111
  H  H127  1  0.265400  0.597700  0.777100  1.0  0.1148
  H  H128  1  0.090000  0.665000  0.594300  1.0  0.1113
  H  H129  1  0.061000  0.670000  0.417500  1.0  0.1155
  H  H130  1  0.130600  0.632000  0.319400  1.0  0.0889
  H  H131  1  0.156900  0.584300  0.788600  1.0  0.1021
  H  H132  1  0.124000  0.606600  0.939800  1.0  0.1206
  H  H133  1  0.142900  0.716100  0.843300  1.0  0.1219
  H  H134  1  0.173900  0.693000  0.690900  1.0  0.1009
  H  H135  1  0.134100  0.638600  0.108400  1.0  0.1124
  H  H136  1  0.085900  0.681700  0.222600  1.0  0.0974
  H  H137  1  0.069800  0.727300  0.958900  1.0  0.0947
  H  H138  1  0.176800  0.861000  0.989400  1.0  0.0923
  H  H139  1  0.118500  0.812800  0.899600  1.0  0.1151
  H  H140  1  0.141700  0.820100  0.720000  1.0  0.117
  H  H141  1  0.274800  0.918200  0.520100  1.0  0.1212
  H  H142  1  0.354400  0.960000  0.570500  1.0  0.1145
  H  H143  1  0.362300  0.954800  0.753700  1.0  0.0993
  H  H144  1  0.121100  0.884500  0.601300  1.0  0.1117
  H  H145  1  0.087000  0.866400  0.445900  1.0  0.1187
  H  H146  1  0.235000  0.818800  0.381000  1.0  0.1107
  H  H147  1  0.269600  0.838800  0.532700  1.0  0.0931
  H  H148  1  0.198600  0.828400  0.203900  1.0  0.1225
  H  H149  1  0.130100  0.799800  0.091600  1.0  0.0946
  H  H150  1  0.056200  0.811200  0.348800  1.0  0.0932
  H  H151  1  0.106700  0.557600  0.479500  1.0  0.0886
  H  H152  1  0.349300  0.557100  0.301000  1.0  0.0796
  H  H153  1  0.828200  0.045700  0.036900  1.0  0.0859
  H  H154  1  0.842100  0.055500  0.219700  1.0  0.111
  H  H155  1  0.765400  0.097700  0.277100  1.0  0.1148
  H  H156  1  0.590000  0.165000  0.094300  1.0  0.1113
  H  H157  1  0.561000  0.170000  0.917500  1.0  0.1155
  H  H158  1  0.630600  0.132000  0.819400  1.0  0.0889
  H  H159  1  0.656900  0.084300  0.288600  1.0  0.1021
  H  H160  1  0.624000  0.106600  0.439800  1.0  0.1206
  H  H161  1  0.642900  0.216100  0.343300  1.0  0.1219
  H  H162  1  0.673900  0.193000  0.190900  1.0  0.1009
  H  H163  1  0.634100  0.138600  0.608400  1.0  0.1124
  H  H164  1  0.585900  0.181700  0.722600  1.0  0.0974
  H  H165  1  0.569800  0.227300  0.458900  1.0  0.0947
  H  H166  1  0.676800  0.361000  0.489400  1.0  0.0923
  H  H167  1  0.618500  0.312800  0.399600  1.0  0.1151
  H  H168  1  0.641700  0.320100  0.220000  1.0  0.117
  H  H169  1  0.774800  0.418200  0.020100  1.0  0.1212
  H  H170  1  0.854400  0.460000  0.070500  1.0  0.1145
  H  H171  1  0.862300  0.454800  0.253700  1.0  0.0993
  H  H172  1  0.621100  0.384500  0.101300  1.0  0.1117
  H  H173  1  0.587000  0.366400  0.945900  1.0  0.1187
  H  H174  1  0.735000  0.318800  0.881000  1.0  0.1107
  H  H175  1  0.769600  0.338800  0.032700  1.0  0.0931
  H  H176  1  0.698600  0.328400  0.703900  1.0  0.1225
  H  H177  1  0.630100  0.299800  0.591600  1.0  0.0946
  H  H178  1  0.556200  0.311200  0.848800  1.0  0.0932
  H  H179  1  0.606700  0.057600  0.979500  1.0  0.0886
  H  H180  1  0.849300  0.057100  0.801000  1.0  0.0796
  H  H181  1  0.671800  0.454300  0.536900  1.0  0.0857
  H  H182  1  0.657900  0.444500  0.719700  1.0  0.1105
  H  H183  1  0.734600  0.402300  0.777100  1.0  0.1149
  H  H184  1  0.910000  0.335000  0.594300  1.0  0.1109
  H  H185  1  0.939000  0.330000  0.417500  1.0  0.1151
  H  H186  1  0.869400  0.368000  0.319400  1.0  0.0886
  H  H187  1  0.843100  0.415700  0.788600  1.0  0.1017
  H  H188  1  0.876000  0.393400  0.939800  1.0  0.1206
  H  H189  1  0.857100  0.283900  0.843300  1.0  0.122
  H  H190  1  0.826100  0.307000  0.690900  1.0  0.0996
  H  H191  1  0.865900  0.361400  0.108400  1.0  0.1121
  H  H192  1  0.914100  0.318300  0.222600  1.0  0.0976
  H  H193  1  0.930200  0.272700  0.958900  1.0  0.0943
  H  H194  1  0.823200  0.139000  0.989400  1.0  0.092
  H  H195  1  0.881500  0.187200  0.899600  1.0  0.1147
  H  H196  1  0.858300  0.179900  0.720000  1.0  0.1176
  H  H197  1  0.725200  0.081800  0.520100  1.0  0.1216
  H  H198  1  0.645600  0.040000  0.570500  1.0  0.114
  H  H199  1  0.637700  0.045200  0.753700  1.0  0.0982
  H  H200  1  0.878900  0.115500  0.601300  1.0  0.1117
  H  H201  1  0.913000  0.133600  0.445900  1.0  0.1192
  H  H202  1  0.765000  0.181200  0.381000  1.0  0.1109
  H  H203  1  0.730400  0.161200  0.532700  1.0  0.0922
  H  H204  1  0.801400  0.171600  0.203900  1.0  0.1225
  H  H205  1  0.869900  0.200200  0.091600  1.0  0.0947
  H  H206  1  0.943800  0.188800  0.348800  1.0  0.0931
  H  H207  1  0.893300  0.442400  0.479500  1.0  0.0884
  H  H208  1  0.650700  0.442900  0.301000  1.0  0.079
  H  H209  1  0.171800  0.954300  0.036900  1.0  0.0857
  H  H210  1  0.157900  0.944500  0.219700  1.0  0.1105
  H  H211  1  0.234600  0.902300  0.277100  1.0  0.1149
  H  H212  1  0.410000  0.835000  0.094300  1.0  0.1109
  H  H213  1  0.439000  0.830000  0.917500  1.0  0.1151
  H  H214  1  0.369400  0.868000  0.819400  1.0  0.0886
  H  H215  1  0.343100  0.915700  0.288600  1.0  0.1017
  H  H216  1  0.376000  0.893400  0.439800  1.0  0.1206
  H  H217  1  0.357100  0.783900  0.343300  1.0  0.122
  H  H218  1  0.326100  0.807000  0.190900  1.0  0.0996
  H  H219  1  0.365900  0.861400  0.608400  1.0  0.1121
  H  H220  1  0.414100  0.818300  0.722600  1.0  0.0976
  H  H221  1  0.430200  0.772700  0.458900  1.0  0.0943
  H  H222  1  0.323200  0.639000  0.489400  1.0  0.092
  H  H223  1  0.381500  0.687200  0.399600  1.0  0.1147
  H  H224  1  0.358300  0.679900  0.220000  1.0  0.1176
  H  H225  1  0.225200  0.581800  0.020100  1.0  0.1216
  H  H226  1  0.145600  0.540000  0.070500  1.0  0.114
  H  H227  1  0.137700  0.545200  0.253700  1.0  0.0982
  H  H228  1  0.378900  0.615500  0.101300  1.0  0.1117
  H  H229  1  0.413000  0.633600  0.945900  1.0  0.1192
  H  H230  1  0.265000  0.681200  0.881000  1.0  0.1109
  H  H231  1  0.230400  0.661200  0.032700  1.0  0.0922
  H  H232  1  0.301400  0.671600  0.703900  1.0  0.1225
  H  H233  1  0.369900  0.700200  0.591600  1.0  0.0947
  H  H234  1  0.443800  0.688800  0.848800  1.0  0.0931
  H  H235  1  0.393300  0.942400  0.979500  1.0  0.0884
  H  H236  1  0.150700  0.942900  0.801000  1.0  0.079
  H  H237  1  0.060100  0.500000  0.510500  1.0  0.1108
  H  H238  1  0.394900  0.500000  0.265400  1.0  0.1223
  H  H239  1  0.560100  0.000000  0.010500  1.0  0.1108
  H  H240  1  0.894900  0.000000  0.765400  1.0  0.1223
  H  H241  1  0.939900  0.500000  0.510500  1.0  0.1113
  H  H242  1  0.605100  0.500000  0.265400  1.0  0.1211
  H  H243  1  0.439900  0.000000  0.010500  1.0  0.1113
  H  H244  1  0.105100  0.000000  0.765400  1.0  0.1211
  C  C245  1  0.305080  0.439550  0.577350  1.0  0.0281
  C  C246  1  0.313410  0.434170  0.681090  1.0  -0.1376
  C  C247  1  0.271120  0.410960  0.712510  1.0  -0.1766
  C  C248  1  0.237250  0.402370  0.628660  1.0  0.1377
  C  C249  1  0.189370  0.378740  0.626000  1.0  -0.0946
  C  C250  1  0.158520  0.368490  0.543530  1.0  0.1401
  C  C251  1  0.108210  0.345860  0.540090  1.0  -0.1902
  C  C252  1  0.091870  0.343190  0.442490  1.0  -0.1684
  C  C253  1  0.131850  0.364660  0.387990  1.0  0.0529
  C  C254  1  0.169240  0.363750  0.723740  1.0  0.059
  C  C255  1  0.153930  0.389260  0.799380  1.0  -0.0909
  C  C256  1  0.134370  0.376060  0.890210  1.0  -0.1988
  C  C257  1  0.130550  0.336460  0.905810  1.0  0.1558
  C  C258  1  0.145510  0.310320  0.831990  1.0  -0.1743
  C  C259  1  0.164380  0.324300  0.740980  1.0  -0.1033
  C  C260  1  0.115640  0.338670  0.092220  1.0  -0.1425
  C  C261  1  0.088670  0.314700  0.154300  1.0  0.0279
  C  C262  1  0.079610  0.289340  0.010310  1.0  0.134
  C  C263  1  0.177460  0.142550  0.920870  1.0  0.0632
  C  C264  1  0.143890  0.170030  0.871300  1.0  -0.1643
  C  C265  1  0.156810  0.165920  0.772500  1.0  -0.17
  C  C266  1  0.197840  0.136190  0.765750  1.0  0.1595
  C  C267  1  0.222180  0.121720  0.678800  1.0  -0.0774
  C  C268  1  0.266360  0.094840  0.672960  1.0  0.1475
  C  C269  1  0.287940  0.077920  0.584390  1.0  -0.1972
  C  C270  1  0.331830  0.054740  0.611950  1.0  -0.1855
  C  C271  1  0.335550  0.057920  0.715650  1.0  0.0672
  C  C272  1  0.199550  0.135650  0.582490  1.0  0.0847
  C  C273  1  0.144390  0.128260  0.556600  1.0  -0.1095
  C  C274  1  0.123410  0.139690  0.464300  1.0  -0.1995
  C  C275  1  0.157520  0.160000  0.401450  1.0  0.1518
  C  C276  1  0.212130  0.167870  0.425300  1.0  -0.1671
  C  C277  1  0.232730  0.155750  0.515990  1.0  -0.0947
  C  C278  1  0.161860  0.178130  0.218970  1.0  -0.1334
  C  C279  1  0.123660  0.193930  0.157800  1.0  0.038
  C  C280  1  0.082520  0.187680  0.297990  1.0  0.1251
  C  C281  1  0.124840  0.465830  0.468790  1.0  0.1805
  C  C282  1  0.332170  0.466300  0.316500  1.0  0.1957
  C  C283  1  0.805080  0.939550  0.077350  1.0  0.0281
  C  C284  1  0.813410  0.934170  0.181090  1.0  -0.1376
  C  C285  1  0.771120  0.910960  0.212510  1.0  -0.1766
  C  C286  1  0.737250  0.902370  0.128660  1.0  0.1377
  C  C287  1  0.689370  0.878740  0.126000  1.0  -0.0946
  C  C288  1  0.658520  0.868490  0.043530  1.0  0.1401
  C  C289  1  0.608210  0.845860  0.040090  1.0  -0.1902
  C  C290  1  0.591870  0.843190  0.942490  1.0  -0.1684
  C  C291  1  0.631850  0.864660  0.887990  1.0  0.0529
  C  C292  1  0.669240  0.863750  0.223740  1.0  0.059
  C  C293  1  0.653930  0.889260  0.299380  1.0  -0.0909
  C  C294  1  0.634370  0.876060  0.390210  1.0  -0.1988
  C  C295  1  0.630550  0.836460  0.405810  1.0  0.1558
  C  C296  1  0.645510  0.810320  0.331990  1.0  -0.1743
  C  C297  1  0.664380  0.824300  0.240980  1.0  -0.1033
  C  C298  1  0.615640  0.838670  0.592220  1.0  -0.1425
  C  C299  1  0.588670  0.814700  0.654300  1.0  0.0279
  C  C300  1  0.579610  0.789340  0.510310  1.0  0.134
  C  C301  1  0.677460  0.642550  0.420870  1.0  0.0632
  C  C302  1  0.643890  0.670030  0.371300  1.0  -0.1643
  C  C303  1  0.656810  0.665920  0.272500  1.0  -0.17
  C  C304  1  0.697840  0.636190  0.265750  1.0  0.1595
  C  C305  1  0.722180  0.621720  0.178800  1.0  -0.0774
  C  C306  1  0.766360  0.594840  0.172960  1.0  0.1475
  C  C307  1  0.787940  0.577920  0.084390  1.0  -0.1972
  C  C308  1  0.831830  0.554740  0.111950  1.0  -0.1855
  C  C309  1  0.835550  0.557920  0.215650  1.0  0.0672
  C  C310  1  0.699550  0.635650  0.082490  1.0  0.0847
  C  C311  1  0.644390  0.628260  0.056600  1.0  -0.1095
  C  C312  1  0.623410  0.639690  0.964300  1.0  -0.1995
  C  C313  1  0.657520  0.660000  0.901450  1.0  0.1518
  C  C314  1  0.712130  0.667870  0.925300  1.0  -0.1671
  C  C315  1  0.732730  0.655750  0.015990  1.0  -0.0947
  C  C316  1  0.661860  0.678130  0.718970  1.0  -0.1334
  C  C317  1  0.623660  0.693930  0.657800  1.0  0.038
  C  C318  1  0.582520  0.687680  0.797990  1.0  0.1251
  C  C319  1  0.624840  0.965830  0.968790  1.0  0.1805
  C  C320  1  0.832170  0.966300  0.816500  1.0  0.1957
  C  C321  1  0.694920  0.560450  0.577350  1.0  0.0272
  C  C322  1  0.686590  0.565830  0.681090  1.0  -0.1394
  C  C323  1  0.728880  0.589040  0.712510  1.0  -0.1763
  C  C324  1  0.762750  0.597630  0.628660  1.0  0.1382
  C  C325  1  0.810630  0.621260  0.626000  1.0  -0.0947
  C  C326  1  0.841480  0.631510  0.543530  1.0  0.141
  C  C327  1  0.891790  0.654140  0.540090  1.0  -0.1899
  C  C328  1  0.908130  0.656810  0.442490  1.0  -0.1703
  C  C329  1  0.868150  0.635340  0.387990  1.0  0.0537
  C  C330  1  0.830760  0.636250  0.723740  1.0  0.0601
  C  C331  1  0.846070  0.610740  0.799380  1.0  -0.0901
  C  C332  1  0.865630  0.623940  0.890210  1.0  -0.1992
  C  C333  1  0.869450  0.663540  0.905810  1.0  0.154
  C  C334  1  0.854490  0.689680  0.831990  1.0  -0.1741
  C  C335  1  0.835620  0.675700  0.740980  1.0  -0.1007
  C  C336  1  0.884360  0.661330  0.092220  1.0  -0.1436
  C  C337  1  0.911330  0.685300  0.154300  1.0  0.0283
  C  C338  1  0.920390  0.710660  0.010310  1.0  0.1352
  C  C339  1  0.822540  0.857450  0.920870  1.0  0.0645
  C  C340  1  0.856110  0.829970  0.871300  1.0  -0.1616
  C  C341  1  0.843190  0.834080  0.772500  1.0  -0.1695
  C  C342  1  0.802160  0.863810  0.765750  1.0  0.1595
  C  C343  1  0.777820  0.878280  0.678800  1.0  -0.0766
  C  C344  1  0.733640  0.905160  0.672960  1.0  0.1472
  C  C345  1  0.712060  0.922080  0.584390  1.0  -0.1976
  C  C346  1  0.668170  0.945260  0.611950  1.0  -0.1873
  C  C347  1  0.664450  0.942080  0.715650  1.0  0.0663
  C  C348  1  0.800450  0.864350  0.582490  1.0  0.0851
  C  C349  1  0.855610  0.871740  0.556600  1.0  -0.1094
  C  C350  1  0.876590  0.860310  0.464300  1.0  -0.2003
  C  C351  1  0.842480  0.840000  0.401450  1.0  0.1522
  C  C352  1  0.787870  0.832130  0.425300  1.0  -0.1673
  C  C353  1  0.767270  0.844250  0.515990  1.0  -0.0938
  C  C354  1  0.838140  0.821870  0.218970  1.0  -0.1341
  C  C355  1  0.876340  0.806070  0.157800  1.0  0.0362
  C  C356  1  0.917480  0.812320  0.297990  1.0  0.1253
  C  C357  1  0.875160  0.534170  0.468790  1.0  0.1834
  C  C358  1  0.667830  0.533700  0.316500  1.0  0.1967
  C  C359  1  0.194920  0.060450  0.077350  1.0  0.0272
  C  C360  1  0.186590  0.065830  0.181090  1.0  -0.1394
  C  C361  1  0.228880  0.089040  0.212510  1.0  -0.1763
  C  C362  1  0.262750  0.097630  0.128660  1.0  0.1382
  C  C363  1  0.310630  0.121260  0.126000  1.0  -0.0947
  C  C364  1  0.341480  0.131510  0.043530  1.0  0.141
  C  C365  1  0.391790  0.154140  0.040090  1.0  -0.1899
  C  C366  1  0.408130  0.156810  0.942490  1.0  -0.1703
  C  C367  1  0.368150  0.135340  0.887990  1.0  0.0537
  C  C368  1  0.330760  0.136250  0.223740  1.0  0.0601
  C  C369  1  0.346070  0.110740  0.299380  1.0  -0.0901
  C  C370  1  0.365630  0.123940  0.390210  1.0  -0.1992
  C  C371  1  0.369450  0.163540  0.405810  1.0  0.154
  C  C372  1  0.354490  0.189680  0.331990  1.0  -0.1741
  C  C373  1  0.335620  0.175700  0.240980  1.0  -0.1007
  C  C374  1  0.384360  0.161330  0.592220  1.0  -0.1436
  C  C375  1  0.411330  0.185300  0.654300  1.0  0.0283
  C  C376  1  0.420390  0.210660  0.510310  1.0  0.1352
  C  C377  1  0.322540  0.357450  0.420870  1.0  0.0645
  C  C378  1  0.356110  0.329970  0.371300  1.0  -0.1616
  C  C379  1  0.343190  0.334080  0.272500  1.0  -0.1695
  C  C380  1  0.302160  0.363810  0.265750  1.0  0.1595
  C  C381  1  0.277820  0.378280  0.178800  1.0  -0.0766
  C  C382  1  0.233640  0.405160  0.172960  1.0  0.1472
  C  C383  1  0.212060  0.422080  0.084390  1.0  -0.1976
  C  C384  1  0.168170  0.445260  0.111950  1.0  -0.1873
  C  C385  1  0.164450  0.442080  0.215650  1.0  0.0663
  C  C386  1  0.300450  0.364350  0.082490  1.0  0.0851
  C  C387  1  0.355610  0.371740  0.056600  1.0  -0.1094
  C  C388  1  0.376590  0.360310  0.964300  1.0  -0.2003
  C  C389  1  0.342480  0.340000  0.901450  1.0  0.1522
  C  C390  1  0.287870  0.332130  0.925300  1.0  -0.1673
  C  C391  1  0.267270  0.344250  0.015990  1.0  -0.0938
  C  C392  1  0.338140  0.321870  0.718970  1.0  -0.1341
  C  C393  1  0.376340  0.306070  0.657800  1.0  0.0362
  C  C394  1  0.417480  0.312320  0.797990  1.0  0.1253
  C  C395  1  0.375160  0.034170  0.968790  1.0  0.1834
  C  C396  1  0.167830  0.033700  0.816500  1.0  0.1967
  C  C397  1  0.305080  0.560450  0.577350  1.0  0.0283
  C  C398  1  0.313410  0.565830  0.681090  1.0  -0.1375
  C  C399  1  0.271120  0.589040  0.712510  1.0  -0.1766
  C  C400  1  0.237250  0.597630  0.628660  1.0  0.1377
  C  C401  1  0.189370  0.621260  0.626000  1.0  -0.0947
  C  C402  1  0.158520  0.631510  0.543530  1.0  0.1401
  C  C403  1  0.108210  0.654140  0.540090  1.0  -0.1914
  C  C404  1  0.091870  0.656810  0.442490  1.0  -0.1691
  C  C405  1  0.131850  0.635340  0.387990  1.0  0.0534
  C  C406  1  0.169240  0.636250  0.723740  1.0  0.059
  C  C407  1  0.153930  0.610740  0.799380  1.0  -0.0904
  C  C408  1  0.134370  0.623940  0.890210  1.0  -0.1986
  C  C409  1  0.130550  0.663540  0.905810  1.0  0.1558
  C  C410  1  0.145510  0.689680  0.831990  1.0  -0.1751
  C  C411  1  0.164380  0.675700  0.740980  1.0  -0.102
  C  C412  1  0.115640  0.661330  0.092220  1.0  -0.1434
  C  C413  1  0.088670  0.685300  0.154300  1.0  0.0275
  C  C414  1  0.079610  0.710660  0.010310  1.0  0.1335
  C  C415  1  0.177460  0.857450  0.920870  1.0  0.064
  C  C416  1  0.143890  0.829970  0.871300  1.0  -0.1636
  C  C417  1  0.156810  0.834080  0.772500  1.0  -0.1701
  C  C418  1  0.197840  0.863810  0.765750  1.0  0.16
  C  C419  1  0.222180  0.878280  0.678800  1.0  -0.0773
  C  C420  1  0.266360  0.905160  0.672960  1.0  0.1476
  C  C421  1  0.287940  0.922080  0.584390  1.0  -0.1982
  C  C422  1  0.331830  0.945260  0.611950  1.0  -0.1852
  C  C423  1  0.335550  0.942080  0.715650  1.0  0.0673
  C  C424  1  0.199550  0.864350  0.582490  1.0  0.0852
  C  C425  1  0.144390  0.871740  0.556600  1.0  -0.11
  C  C426  1  0.123410  0.860310  0.464300  1.0  -0.2003
  C  C427  1  0.157520  0.840000  0.401450  1.0  0.1523
  C  C428  1  0.212130  0.832130  0.425300  1.0  -0.1686
  C  C429  1  0.232730  0.844250  0.515990  1.0  -0.0963
  C  C430  1  0.161860  0.821870  0.218970  1.0  -0.1346
  C  C431  1  0.123660  0.806070  0.157800  1.0  0.0374
  C  C432  1  0.082520  0.812320  0.297990  1.0  0.1242
  C  C433  1  0.124840  0.534170  0.468790  1.0  0.1803
  C  C434  1  0.332170  0.533700  0.316500  1.0  0.1972
  C  C435  1  0.805080  0.060450  0.077350  1.0  0.0283
  C  C436  1  0.813410  0.065830  0.181090  1.0  -0.1375
  C  C437  1  0.771120  0.089040  0.212510  1.0  -0.1766
  C  C438  1  0.737250  0.097630  0.128660  1.0  0.1377
  C  C439  1  0.689370  0.121260  0.126000  1.0  -0.0947
  C  C440  1  0.658520  0.131510  0.043530  1.0  0.1401
  C  C441  1  0.608210  0.154140  0.040090  1.0  -0.1914
  C  C442  1  0.591870  0.156810  0.942490  1.0  -0.1691
  C  C443  1  0.631850  0.135340  0.887990  1.0  0.0534
  C  C444  1  0.669240  0.136250  0.223740  1.0  0.059
  C  C445  1  0.653930  0.110740  0.299380  1.0  -0.0904
  C  C446  1  0.634370  0.123940  0.390210  1.0  -0.1986
  C  C447  1  0.630550  0.163540  0.405810  1.0  0.1558
  C  C448  1  0.645510  0.189680  0.331990  1.0  -0.1751
  C  C449  1  0.664380  0.175700  0.240980  1.0  -0.102
  C  C450  1  0.615640  0.161330  0.592220  1.0  -0.1434
  C  C451  1  0.588670  0.185300  0.654300  1.0  0.0275
  C  C452  1  0.579610  0.210660  0.510310  1.0  0.1335
  C  C453  1  0.677460  0.357450  0.420870  1.0  0.064
  C  C454  1  0.643890  0.329970  0.371300  1.0  -0.1636
  C  C455  1  0.656810  0.334080  0.272500  1.0  -0.1701
  C  C456  1  0.697840  0.363810  0.265750  1.0  0.16
  C  C457  1  0.722180  0.378280  0.178800  1.0  -0.0773
  C  C458  1  0.766360  0.405160  0.172960  1.0  0.1476
  C  C459  1  0.787940  0.422080  0.084390  1.0  -0.1982
  C  C460  1  0.831830  0.445260  0.111950  1.0  -0.1852
  C  C461  1  0.835550  0.442080  0.215650  1.0  0.0673
  C  C462  1  0.699550  0.364350  0.082490  1.0  0.0852
  C  C463  1  0.644390  0.371740  0.056600  1.0  -0.11
  C  C464  1  0.623410  0.360310  0.964300  1.0  -0.2003
  C  C465  1  0.657520  0.340000  0.901450  1.0  0.1523
  C  C466  1  0.712130  0.332130  0.925300  1.0  -0.1686
  C  C467  1  0.732730  0.344250  0.015990  1.0  -0.0963
  C  C468  1  0.661860  0.321870  0.718970  1.0  -0.1346
  C  C469  1  0.623660  0.306070  0.657800  1.0  0.0374
  C  C470  1  0.582520  0.312320  0.797990  1.0  0.1242
  C  C471  1  0.624840  0.034170  0.968790  1.0  0.1803
  C  C472  1  0.832170  0.033700  0.816500  1.0  0.1972
  C  C473  1  0.694920  0.439550  0.577350  1.0  0.0264
  C  C474  1  0.686590  0.434170  0.681090  1.0  -0.1402
  C  C475  1  0.728880  0.410960  0.712510  1.0  -0.1769
  C  C476  1  0.762750  0.402370  0.628660  1.0  0.1377
  C  C477  1  0.810630  0.378740  0.626000  1.0  -0.0946
  C  C478  1  0.841480  0.368490  0.543530  1.0  0.1407
  C  C479  1  0.891790  0.345860  0.540090  1.0  -0.1893
  C  C480  1  0.908130  0.343190  0.442490  1.0  -0.1696
  C  C481  1  0.868150  0.364660  0.387990  1.0  0.0529
  C  C482  1  0.830760  0.363750  0.723740  1.0  0.06
  C  C483  1  0.846070  0.389260  0.799380  1.0  -0.0918
  C  C484  1  0.865630  0.376060  0.890210  1.0  -0.1991
  C  C485  1  0.869450  0.336460  0.905810  1.0  0.1541
  C  C486  1  0.854490  0.310320  0.831990  1.0  -0.1722
  C  C487  1  0.835620  0.324300  0.740980  1.0  -0.1006
  C  C488  1  0.884360  0.338670  0.092220  1.0  -0.1428
  C  C489  1  0.911330  0.314700  0.154300  1.0  0.0284
  C  C490  1  0.920390  0.289340  0.010310  1.0  0.1359
  C  C491  1  0.822540  0.142550  0.920870  1.0  0.0642
  C  C492  1  0.856110  0.170030  0.871300  1.0  -0.162
  C  C493  1  0.843190  0.165920  0.772500  1.0  -0.1693
  C  C494  1  0.802160  0.136190  0.765750  1.0  0.1597
  C  C495  1  0.777820  0.121720  0.678800  1.0  -0.0767
  C  C496  1  0.733640  0.094840  0.672960  1.0  0.1474
  C  C497  1  0.712060  0.077920  0.584390  1.0  -0.1969
  C  C498  1  0.668170  0.054740  0.611950  1.0  -0.1875
  C  C499  1  0.664450  0.057920  0.715650  1.0  0.0662
  C  C500  1  0.800450  0.135650  0.582490  1.0  0.0845
  C  C501  1  0.855610  0.128260  0.556600  1.0  -0.1084
  C  C502  1  0.876590  0.139690  0.464300  1.0  -0.1997
  C  C503  1  0.842480  0.160000  0.401450  1.0  0.1517
  C  C504  1  0.787870  0.167870  0.425300  1.0  -0.1665
  C  C505  1  0.767270  0.155750  0.515990  1.0  -0.0928
  C  C506  1  0.838140  0.178130  0.218970  1.0  -0.1336
  C  C507  1  0.876340  0.193930  0.157800  1.0  0.0367
  C  C508  1  0.917480  0.187680  0.297990  1.0  0.1264
  C  C509  1  0.875160  0.465830  0.468790  1.0  0.1837
  C  C510  1  0.667830  0.466300  0.316500  1.0  0.1971
  C  C511  1  0.194920  0.939550  0.077350  1.0  0.0264
  C  C512  1  0.186590  0.934170  0.181090  1.0  -0.1402
  C  C513  1  0.228880  0.910960  0.212510  1.0  -0.1769
  C  C514  1  0.262750  0.902370  0.128660  1.0  0.1377
  C  C515  1  0.310630  0.878740  0.126000  1.0  -0.0946
  C  C516  1  0.341480  0.868490  0.043530  1.0  0.1407
  C  C517  1  0.391790  0.845860  0.040090  1.0  -0.1893
  C  C518  1  0.408130  0.843190  0.942490  1.0  -0.1696
  C  C519  1  0.368150  0.864660  0.887990  1.0  0.0529
  C  C520  1  0.330760  0.863750  0.223740  1.0  0.06
  C  C521  1  0.346070  0.889260  0.299380  1.0  -0.0918
  C  C522  1  0.365630  0.876060  0.390210  1.0  -0.1991
  C  C523  1  0.369450  0.836460  0.405810  1.0  0.1541
  C  C524  1  0.354490  0.810320  0.331990  1.0  -0.1722
  C  C525  1  0.335620  0.824300  0.240980  1.0  -0.1006
  C  C526  1  0.384360  0.838670  0.592220  1.0  -0.1428
  C  C527  1  0.411330  0.814700  0.654300  1.0  0.0284
  C  C528  1  0.420390  0.789340  0.510310  1.0  0.1359
  C  C529  1  0.322540  0.642550  0.420870  1.0  0.0642
  C  C530  1  0.356110  0.670030  0.371300  1.0  -0.162
  C  C531  1  0.343190  0.665920  0.272500  1.0  -0.1693
  C  C532  1  0.302160  0.636190  0.265750  1.0  0.1597
  C  C533  1  0.277820  0.621720  0.178800  1.0  -0.0767
  C  C534  1  0.233640  0.594840  0.172960  1.0  0.1474
  C  C535  1  0.212060  0.577920  0.084390  1.0  -0.1969
  C  C536  1  0.168170  0.554740  0.111950  1.0  -0.1875
  C  C537  1  0.164450  0.557920  0.215650  1.0  0.0662
  C  C538  1  0.300450  0.635650  0.082490  1.0  0.0845
  C  C539  1  0.355610  0.628260  0.056600  1.0  -0.1084
  C  C540  1  0.376590  0.639690  0.964300  1.0  -0.1997
  C  C541  1  0.342480  0.660000  0.901450  1.0  0.1517
  C  C542  1  0.287870  0.667870  0.925300  1.0  -0.1665
  C  C543  1  0.267270  0.655750  0.015990  1.0  -0.0928
  C  C544  1  0.338140  0.678130  0.718970  1.0  -0.1336
  C  C545  1  0.376340  0.693930  0.657800  1.0  0.0367
  C  C546  1  0.417480  0.687680  0.797990  1.0  0.1264
  C  C547  1  0.375160  0.965830  0.968790  1.0  0.1837
  C  C548  1  0.167830  0.966300  0.816500  1.0  0.1971
  C  C549  1  0.096640  0.500000  0.486900  1.0  -0.1424
  C  C550  1  0.201080  0.500000  0.419900  1.0  0.368
  C  C551  1  0.258330  0.500000  0.378000  1.0  0.3663
  C  C552  1  0.359580  0.500000  0.294200  1.0  -0.1601
  C  C553  1  0.596640  0.000000  0.986900  1.0  -0.1424
  C  C554  1  0.701080  0.000000  0.919900  1.0  0.368
  C  C555  1  0.758330  0.000000  0.878000  1.0  0.3663
  C  C556  1  0.859580  0.000000  0.794200  1.0  -0.1601
  C  C557  1  0.903360  0.500000  0.486900  1.0  -0.1398
  C  C558  1  0.798920  0.500000  0.419900  1.0  0.3685
  C  C559  1  0.741670  0.500000  0.378000  1.0  0.3661
  C  C560  1  0.640420  0.500000  0.294200  1.0  -0.162
  C  C561  1  0.403360  0.000000  0.986900  1.0  -0.1398
  C  C562  1  0.298920  0.000000  0.919900  1.0  0.3685
  C  C563  1  0.241670  0.000000  0.878000  1.0  0.3661
  C  C564  1  0.140420  0.000000  0.794200  1.0  -0.162
  N  N565  1  0.259780  0.420730  0.545510  1.0  -0.3811
  N  N566  1  0.171430  0.379510  0.446200  1.0  -0.3983
  N  N567  1  0.110030  0.322140  0.998500  1.0  0.0123
  N  N568  1  0.065840  0.284210  0.103820  1.0  -0.347
  N  N569  1  0.209710  0.122440  0.861180  1.0  -0.4166
  N  N570  1  0.296860  0.081060  0.753680  1.0  -0.4018
  N  N571  1  0.134790  0.173700  0.309000  1.0  0.0385
  N  N572  1  0.073400  0.199550  0.207020  1.0  -0.3855
  N  N573  1  0.281630  0.465780  0.359920  1.0  -0.334
  N  N574  1  0.177630  0.465910  0.436080  1.0  -0.3222
  N  N575  1  0.759780  0.920730  0.045510  1.0  -0.3811
  N  N576  1  0.671430  0.879510  0.946200  1.0  -0.3983
  N  N577  1  0.610030  0.822140  0.498500  1.0  0.0123
  N  N578  1  0.565840  0.784210  0.603820  1.0  -0.347
  N  N579  1  0.709710  0.622440  0.361180  1.0  -0.4166
  N  N580  1  0.796860  0.581060  0.253680  1.0  -0.4018
  N  N581  1  0.634790  0.673700  0.809000  1.0  0.0385
  N  N582  1  0.573400  0.699550  0.707020  1.0  -0.3855
  N  N583  1  0.781630  0.965780  0.859920  1.0  -0.334
  N  N584  1  0.677630  0.965910  0.936080  1.0  -0.3222
  N  N585  1  0.740220  0.579270  0.545510  1.0  -0.3817
  N  N586  1  0.828570  0.620490  0.446200  1.0  -0.3981
  N  N587  1  0.889970  0.677860  0.998500  1.0  0.0127
  N  N588  1  0.934160  0.715790  0.103820  1.0  -0.3479
  N  N589  1  0.790290  0.877560  0.861180  1.0  -0.4165
  N  N590  1  0.703140  0.918940  0.753680  1.0  -0.4014
  N  N591  1  0.865210  0.826300  0.309000  1.0  0.038
  N  N592  1  0.926600  0.800450  0.207020  1.0  -0.3874
  N  N593  1  0.718370  0.534220  0.359920  1.0  -0.3328
  N  N594  1  0.822370  0.534090  0.436080  1.0  -0.3243
  N  N595  1  0.240220  0.079270  0.045510  1.0  -0.3817
  N  N596  1  0.328570  0.120490  0.946200  1.0  -0.3981
  N  N597  1  0.389970  0.177860  0.498500  1.0  0.0127
  N  N598  1  0.434160  0.215790  0.603820  1.0  -0.3479
  N  N599  1  0.290290  0.377560  0.361180  1.0  -0.4165
  N  N600  1  0.203140  0.418940  0.253680  1.0  -0.4014
  N  N601  1  0.365210  0.326300  0.809000  1.0  0.038
  N  N602  1  0.426600  0.300450  0.707020  1.0  -0.3874
  N  N603  1  0.218370  0.034220  0.859920  1.0  -0.3328
  N  N604  1  0.322370  0.034090  0.936080  1.0  -0.3243
  N  N605  1  0.259780  0.579270  0.545510  1.0  -0.3811
  N  N606  1  0.171430  0.620490  0.446200  1.0  -0.3976
  N  N607  1  0.110030  0.677860  0.998500  1.0  0.0123
  N  N608  1  0.065840  0.715790  0.103820  1.0  -0.3478
  N  N609  1  0.209710  0.877560  0.861180  1.0  -0.4152
  N  N610  1  0.296860  0.918940  0.753680  1.0  -0.4014
  N  N611  1  0.134790  0.826300  0.309000  1.0  0.0384
  N  N612  1  0.073400  0.800450  0.207020  1.0  -0.3864
  N  N613  1  0.281630  0.534220  0.359920  1.0  -0.3337
  N  N614  1  0.177630  0.534090  0.436080  1.0  -0.323
  N  N615  1  0.759780  0.079270  0.045510  1.0  -0.3811
  N  N616  1  0.671430  0.120490  0.946200  1.0  -0.3976
  N  N617  1  0.610030  0.177860  0.498500  1.0  0.0123
  N  N618  1  0.565840  0.215790  0.603820  1.0  -0.3478
  N  N619  1  0.709710  0.377560  0.361180  1.0  -0.4152
  N  N620  1  0.796860  0.418940  0.253680  1.0  -0.4014
  N  N621  1  0.634790  0.326300  0.809000  1.0  0.0384
  N  N622  1  0.573400  0.300450  0.707020  1.0  -0.3864
  N  N623  1  0.781630  0.034220  0.859920  1.0  -0.3337
  N  N624  1  0.677630  0.034090  0.936080  1.0  -0.323
  N  N625  1  0.740220  0.420730  0.545510  1.0  -0.3819
  N  N626  1  0.828570  0.379510  0.446200  1.0  -0.3985
  N  N627  1  0.889970  0.322140  0.998500  1.0  0.0127
  N  N628  1  0.934160  0.284210  0.103820  1.0  -0.3466
  N  N629  1  0.790290  0.122440  0.861180  1.0  -0.4181
  N  N630  1  0.703140  0.081060  0.753680  1.0  -0.4017
  N  N631  1  0.865210  0.173700  0.309000  1.0  0.0381
  N  N632  1  0.926600  0.199550  0.207020  1.0  -0.3872
  N  N633  1  0.718370  0.465780  0.359920  1.0  -0.3324
  N  N634  1  0.822370  0.465910  0.436080  1.0  -0.3242
  N  N635  1  0.240220  0.920730  0.045510  1.0  -0.3819
  N  N636  1  0.328570  0.879510  0.946200  1.0  -0.3985
  N  N637  1  0.389970  0.822140  0.498500  1.0  0.0127
  N  N638  1  0.434160  0.784210  0.603820  1.0  -0.3466
  N  N639  1  0.290290  0.622440  0.361180  1.0  -0.4181
  N  N640  1  0.203140  0.581060  0.253680  1.0  -0.4017
  N  N641  1  0.365210  0.673700  0.809000  1.0  0.0381
  N  N642  1  0.426600  0.699550  0.707020  1.0  -0.3872
  N  N643  1  0.218370  0.965780  0.859920  1.0  -0.3324
  N  N644  1  0.322370  0.965910  0.936080  1.0  -0.3242
  Cl  Cl645  1  0.000000  0.209370  0.977690  1.0  -0.525
  Cl  Cl646  1  0.000000  0.269670  0.334320  1.0  -0.5603
  Cl  Cl647  1  0.500000  0.709370  0.477690  1.0  -0.525
  Cl  Cl648  1  0.500000  0.769670  0.834320  1.0  -0.5603
  Cl  Cl649  1  0.000000  0.790630  0.977690  1.0  -0.5266
  Cl  Cl650  1  0.000000  0.730330  0.334320  1.0  -0.5604
  Cl  Cl651  1  0.500000  0.290630  0.477690  1.0  -0.5266
  Cl  Cl652  1  0.500000  0.230330  0.834320  1.0  -0.5604
