# generated using pymatgen
data_Pr2C12(NO4)3
_symmetry_space_group_name_H-M   'P 1'
_cell_length_a   8.71980000
_cell_length_b   18.42180000
_cell_length_c   9.27250000
_cell_angle_alpha   90.00000000
_cell_angle_beta   108.24800000
_cell_angle_gamma   90.00000000
_symmetry_Int_Tables_number   1
_chemical_formula_structural   Pr2C12(NO4)3
_chemical_formula_sum   'Pr4 C24 N6 O24'
_cell_volume   1414.57658794
_cell_formula_units_Z   2
loop_
 _symmetry_equiv_pos_site_id
 _symmetry_equiv_pos_as_xyz
  1  'x, y, z'
loop_
 _atom_site_type_symbol
 _atom_site_label
 _atom_site_symmetry_multiplicity
 _atom_site_fract_x
 _atom_site_fract_y
 _atom_site_fract_z
 _atom_site_occupancy
 _atom_site_charge
  Pr  Pr1  1  0.008900  0.976000  0.782100  1.0  2.2331
  Pr  Pr2  1  0.991100  0.476000  0.217900  1.0  2.2336
  Pr  Pr3  1  0.991100  0.024000  0.217900  1.0  2.2335
  Pr  Pr4  1  0.008900  0.524000  0.782100  1.0  2.2331
  C  C5  1  0.727900  0.045500  0.449300  1.0  0.7208
  C  C6  1  0.564400  0.082000  0.408500  1.0  0.0064
  C  C7  1  0.485900  0.085400  0.120800  1.0  0.0505
  C  C8  1  0.304900  0.064700  0.074000  1.0  0.7187
  C  C9  1  0.807200  0.182100  0.830100  1.0  -0.0475
  C  C10  1  0.850100  0.121600  0.950500  1.0  0.6823
  C  C11  1  0.272100  0.545500  0.550700  1.0  0.72
  C  C12  1  0.435600  0.582000  0.591500  1.0  0.0076
  C  C13  1  0.514100  0.585400  0.879200  1.0  0.0461
  C  C14  1  0.695100  0.564700  0.926000  1.0  0.7201
  C  C15  1  0.192800  0.682100  0.169900  1.0  -0.0447
  C  C16  1  0.149900  0.621600  0.049500  1.0  0.6821
  C  C17  1  0.272100  0.954500  0.550700  1.0  0.7206
  C  C18  1  0.435600  0.918000  0.591500  1.0  0.0069
  C  C19  1  0.514100  0.914600  0.879200  1.0  0.0454
  C  C20  1  0.695100  0.935300  0.926000  1.0  0.7199
  C  C21  1  0.192800  0.817900  0.169900  1.0  -0.0455
  C  C22  1  0.149900  0.878400  0.049500  1.0  0.6823
  C  C23  1  0.727900  0.454500  0.449300  1.0  0.721
  C  C24  1  0.564400  0.418000  0.408500  1.0  0.005
  C  C25  1  0.485900  0.414600  0.120800  1.0  0.0502
  C  C26  1  0.304900  0.435300  0.074000  1.0  0.7184
  C  C27  1  0.807200  0.317900  0.830100  1.0  -0.0476
  C  C28  1  0.850100  0.378400  0.950500  1.0  0.6824
  N  N29  1  0.532700  0.128100  0.266800  1.0  -0.2868
  N  N30  1  0.467300  0.628100  0.733200  1.0  -0.2871
  N  N31  1  0.467300  0.871900  0.733200  1.0  -0.2891
  N  N32  1  0.532700  0.371900  0.266800  1.0  -0.2886
  N  N33  1  0.780400  0.250000  0.915600  1.0  -0.2814
  N  N34  1  0.219600  0.750000  0.084400  1.0  -0.2808
  O  O35  1  0.770100  0.010800  0.575900  1.0  -0.6785
  O  O36  1  0.816200  0.052400  0.364200  1.0  -0.6894
  O  O37  1  0.255600  0.032000  0.947900  1.0  -0.6761
  O  O38  1  0.232300  0.079000  0.163300  1.0  -0.5723
  O  O39  1  0.919500  0.064600  0.918800  1.0  -0.7219
  O  O40  1  0.821500  0.132200  0.077600  1.0  -0.598
  O  O41  1  0.229900  0.510800  0.424100  1.0  -0.68
  O  O42  1  0.183800  0.552400  0.635800  1.0  -0.6882
  O  O43  1  0.744400  0.532000  0.052100  1.0  -0.6751
  O  O44  1  0.767700  0.579000  0.836700  1.0  -0.5719
  O  O45  1  0.080500  0.564600  0.081200  1.0  -0.7234
  O  O46  1  0.178500  0.632200  0.922400  1.0  -0.597
  O  O47  1  0.229900  0.989200  0.424100  1.0  -0.6808
  O  O48  1  0.183800  0.947600  0.635800  1.0  -0.6878
  O  O49  1  0.744400  0.968000  0.052100  1.0  -0.6748
  O  O50  1  0.767700  0.921000  0.836700  1.0  -0.572
  O  O51  1  0.080500  0.935400  0.081200  1.0  -0.7228
  O  O52  1  0.178500  0.867800  0.922400  1.0  -0.5964
  O  O53  1  0.770100  0.489200  0.575900  1.0  -0.6791
  O  O54  1  0.816200  0.447600  0.364200  1.0  -0.6892
  O  O55  1  0.255600  0.468000  0.947900  1.0  -0.6765
  O  O56  1  0.232300  0.421000  0.163300  1.0  -0.571
  O  O57  1  0.919500  0.435400  0.918800  1.0  -0.7217
  O  O58  1  0.821500  0.367800  0.077600  1.0  -0.5971
