# generated using pymatgen
data_Nd2H18C42(SO6)3
_symmetry_space_group_name_H-M   'P 1'
_cell_length_a   15.01620000
_cell_length_b   19.21410000
_cell_length_c   30.38120000
_cell_angle_alpha   98.39490000
_cell_angle_beta   90.00000000
_cell_angle_gamma   113.00200000
_symmetry_Int_Tables_number   1
_chemical_formula_structural   Nd2H18C42(SO6)3
_chemical_formula_sum   'Nd8 H72 C168 S12 O72'
_cell_volume   7966.58673775
_cell_formula_units_Z   4
loop_
 _symmetry_equiv_pos_site_id
 _symmetry_equiv_pos_as_xyz
  1  'x, y, z'
loop_
 _atom_site_type_symbol
 _atom_site_label
 _atom_site_symmetry_multiplicity
 _atom_site_fract_x
 _atom_site_fract_y
 _atom_site_fract_z
 _atom_site_occupancy
 _atom_site_charge
  Nd  Nd1  1  0.350500  0.581700  0.641050  1.0  2.2328
  Nd  Nd2  1  0.440200  0.830260  0.656790  1.0  2.3049
  Nd  Nd3  1  0.231200  0.581700  0.141050  1.0  2.2339
  Nd  Nd4  1  0.390060  0.830260  0.156790  1.0  2.3047
  Nd  Nd5  1  0.768800  0.418300  0.858950  1.0  2.234
  Nd  Nd6  1  0.609940  0.169740  0.843210  1.0  2.3043
  Nd  Nd7  1  0.649500  0.418300  0.358950  1.0  2.2349
  Nd  Nd8  1  0.559800  0.169740  0.343210  1.0  2.3045
  H  H9  1  0.395400  0.812000  0.811000  1.0  0.1301
  H  H10  1  0.401100  0.604600  0.777000  1.0  0.1092
  H  H11  1  0.397800  0.587800  0.850100  1.0  0.1293
  H  H12  1  0.371900  0.582000  0.931200  1.0  0.1251
  H  H13  1  0.338700  0.799600  0.004300  1.0  0.1299
  H  H14  1  0.344300  0.593600  0.005800  1.0  0.1144
  H  H15  1  0.749600  0.848000  0.659400  1.0  0.1138
  H  H16  1  0.645300  0.619800  0.647900  1.0  0.1304
  H  H17  1  0.908400  0.854400  0.659200  1.0  0.1223
  H  H18  1  0.067100  0.839000  0.655600  1.0  0.1265
  H  H19  1  0.197400  0.804000  0.650700  1.0  0.1162
  H  H20  1  0.020800  0.582400  0.642000  1.0  0.1297
  H  H21  1  0.062200  0.338400  0.601400  1.0  0.1288
  H  H22  1  0.111100  0.406800  0.732900  1.0  0.1097
  H  H23  1  0.974100  0.304800  0.745800  1.0  0.1158
  H  H24  1  0.825200  0.184000  0.746700  1.0  0.1118
  H  H25  1  0.708400  0.054400  0.603300  1.0  0.1177
  H  H26  1  0.691000  0.069000  0.736900  1.0  0.1182
  H  H27  1  0.416600  0.812000  0.311000  1.0  0.1298
  H  H28  1  0.203500  0.604600  0.277000  1.0  0.1093
  H  H29  1  0.190000  0.587800  0.350100  1.0  0.1294
  H  H30  1  0.210100  0.582000  0.431200  1.0  0.1251
  H  H31  1  0.460900  0.799600  0.504300  1.0  0.1296
  H  H32  1  0.249300  0.593600  0.505800  1.0  0.1146
  H  H33  1  0.098400  0.848000  0.159400  1.0  0.1135
  H  H34  1  0.974500  0.619800  0.147900  1.0  0.1304
  H  H35  1  0.946000  0.854400  0.159200  1.0  0.123
  H  H36  1  0.771900  0.839000  0.155600  1.0  0.1261
  H  H37  1  0.606600  0.804000  0.150700  1.0  0.1167
  H  H38  1  0.561600  0.582400  0.142000  1.0  0.1297
  H  H39  1  0.276200  0.338400  0.101400  1.0  0.1286
  H  H40  1  0.295700  0.406800  0.232900  1.0  0.1095
  H  H41  1  0.330700  0.304800  0.245800  1.0  0.1161
  H  H42  1  0.358800  0.184000  0.246700  1.0  0.1112
  H  H43  1  0.346000  0.054400  0.103300  1.0  0.1177
  H  H44  1  0.378000  0.069000  0.236900  1.0  0.1181
  H  H45  1  0.583400  0.188000  0.689000  1.0  0.1295
  H  H46  1  0.796500  0.395400  0.723000  1.0  0.1098
  H  H47  1  0.810000  0.412200  0.649900  1.0  0.129
  H  H48  1  0.789900  0.418000  0.568800  1.0  0.1258
  H  H49  1  0.539100  0.200400  0.495700  1.0  0.1295
  H  H50  1  0.750700  0.406400  0.494200  1.0  0.1143
  H  H51  1  0.901600  0.152000  0.840600  1.0  0.1141
  H  H52  1  0.025500  0.380200  0.852100  1.0  0.1315
  H  H53  1  0.054000  0.145600  0.840800  1.0  0.1221
  H  H54  1  0.228100  0.161000  0.844400  1.0  0.1259
  H  H55  1  0.393400  0.196000  0.849300  1.0  0.1156
  H  H56  1  0.438400  0.417600  0.858000  1.0  0.1294
  H  H57  1  0.723800  0.661600  0.898600  1.0  0.1286
  H  H58  1  0.704300  0.593200  0.767100  1.0  0.1093
  H  H59  1  0.669300  0.695200  0.754200  1.0  0.1156
  H  H60  1  0.641200  0.816000  0.753300  1.0  0.1114
  H  H61  1  0.654000  0.945600  0.896700  1.0  0.118
  H  H62  1  0.622000  0.931000  0.763100  1.0  0.117
  H  H63  1  0.604600  0.188000  0.189000  1.0  0.1292
  H  H64  1  0.598900  0.395400  0.223000  1.0  0.11
  H  H65  1  0.602200  0.412200  0.149900  1.0  0.1293
  H  H66  1  0.628100  0.418000  0.068800  1.0  0.1256
  H  H67  1  0.661300  0.200400  0.995700  1.0  0.1299
  H  H68  1  0.655700  0.406400  0.994200  1.0  0.1143
  H  H69  1  0.250400  0.152000  0.340600  1.0  0.1139
  H  H70  1  0.354700  0.380200  0.352100  1.0  0.131
  H  H71  1  0.091600  0.145600  0.340800  1.0  0.1219
  H  H72  1  0.932900  0.161000  0.344400  1.0  0.1258
  H  H73  1  0.802600  0.196000  0.349300  1.0  0.1154
  H  H74  1  0.979200  0.417600  0.358000  1.0  0.1294
  H  H75  1  0.937800  0.661600  0.398600  1.0  0.1288
  H  H76  1  0.888900  0.593200  0.267100  1.0  0.1091
  H  H77  1  0.025900  0.695200  0.254200  1.0  0.1157
  H  H78  1  0.174800  0.816000  0.253300  1.0  0.1112
  H  H79  1  0.291600  0.945600  0.396700  1.0  0.1185
  H  H80  1  0.309000  0.931000  0.263100  1.0  0.1168
  C  C81  1  0.407380  0.720360  0.738100  1.0  0.7204
  C  C82  1  0.401720  0.710840  0.786300  1.0  -0.165
  C  C83  1  0.393760  0.766320  0.818500  1.0  0.0246
  C  C84  1  0.399170  0.643140  0.798900  1.0  -0.0128
  C  C85  1  0.383080  0.752560  0.862000  1.0  -0.1703
  C  C86  1  0.393830  0.631460  0.842200  1.0  -0.1524
  C  C87  1  0.382180  0.686760  0.874600  1.0  0.0467
  C  C88  1  0.367880  0.683160  0.922200  1.0  0.038
  C  C89  1  0.359210  0.747620  0.945500  1.0  -0.1752
  C  C90  1  0.363850  0.625100  0.945500  1.0  -0.1416
  C  C91  1  0.344030  0.755460  0.989700  1.0  0.0077
  C  C92  1  0.347770  0.632540  0.990200  1.0  -0.0338
  C  C93  1  0.336760  0.696320  0.012310  1.0  -0.186
  C  C94  1  0.316570  0.699940  0.061300  1.0  0.7932
  C  C95  1  0.582750  0.731700  0.651600  1.0  0.7322
  C  C96  1  0.684240  0.734480  0.653400  1.0  -0.1202
  C  C97  1  0.760700  0.803400  0.657000  1.0  -0.0324
  C  C98  1  0.697470  0.666940  0.650600  1.0  -0.0535
  C  C99  1  0.856400  0.807200  0.657100  1.0  -0.0951
  C  C100  1  0.792400  0.672800  0.652000  1.0  -0.2129
  C  C101  1  0.872550  0.741300  0.654300  1.0  0.0585
  C  C102  1  0.964270  0.732140  0.652600  1.0  0.1001
  C  C103  1  0.057250  0.787700  0.653300  1.0  -0.1257
  C  C104  1  0.954030  0.656860  0.648600  1.0  -0.1355
  C  C105  1  0.135170  0.766540  0.650600  1.0  -0.0298
  C  C106  1  0.030540  0.633880  0.645500  1.0  -0.0158
  C  C107  1  0.122480  0.691160  0.647600  1.0  -0.1657
  C  C108  1  0.209750  0.670500  0.646300  1.0  0.738
  C  C109  1  0.191020  0.449440  0.658400  1.0  0.6763
  C  C110  1  0.098860  0.383320  0.666100  1.0  -0.1432
  C  C111  1  0.044420  0.332440  0.630400  1.0  0.0194
  C  C112  1  0.072750  0.372300  0.708900  1.0  -0.0306
  C  C113  1  0.961830  0.271660  0.638600  1.0  -0.235
  C  C114  1  0.991100  0.311200  0.716800  1.0  -0.1343
  C  C115  1  0.935590  0.260380  0.681500  1.0  -0.035
  C  C116  1  0.846530  0.187860  0.681800  1.0  -0.0165
  C  C117  1  0.810270  0.148940  0.639700  1.0  -0.2042
  C  C118  1  0.801570  0.157940  0.718100  1.0  -0.076
  C  C119  1  0.731300  0.080200  0.632000  1.0  -0.0139
  C  C120  1  0.721490  0.089380  0.712300  1.0  -0.0142
  C  C121  1  0.687150  0.051300  0.669700  1.0  -0.1406
  C  C122  1  0.599380  0.975160  0.663100  1.0  0.7066
  C  C123  1  0.312980  0.720360  0.238100  1.0  0.7194
  C  C124  1  0.309120  0.710840  0.286300  1.0  -0.1641
  C  C125  1  0.372560  0.766320  0.318500  1.0  0.0256
  C  C126  1  0.243970  0.643140  0.298900  1.0  -0.0131
  C  C127  1  0.369480  0.752560  0.362000  1.0  -0.1702
  C  C128  1  0.237630  0.631460  0.342200  1.0  -0.152
  C  C129  1  0.304580  0.686760  0.374600  1.0  0.0458
  C  C130  1  0.315280  0.683160  0.422200  1.0  0.0377
  C  C131  1  0.388410  0.747620  0.445500  1.0  -0.1775
  C  C132  1  0.261250  0.625100  0.445500  1.0  -0.1402
  C  C133  1  0.411430  0.755460  0.489700  1.0  0.0079
  C  C134  1  0.284770  0.632540  0.490200  1.0  -0.0341
  C  C135  1  0.359560  0.696320  0.512310  1.0  -0.1867
  C  C136  1  0.383370  0.699940  0.561300  1.0  0.7807
  C  C137  1  0.148950  0.731700  0.151600  1.0  0.7314
  C  C138  1  0.050240  0.734480  0.153400  1.0  -0.1197
  C  C139  1  0.042700  0.803400  0.157000  1.0  -0.0322
  C  C140  1  0.969470  0.666940  0.150600  1.0  -0.0535
  C  C141  1  0.950800  0.807200  0.157100  1.0  -0.0954
  C  C142  1  0.880400  0.672800  0.152000  1.0  -0.213
  C  C143  1  0.868750  0.741300  0.154300  1.0  0.0598
  C  C144  1  0.767870  0.732140  0.152600  1.0  0.0996
  C  C145  1  0.730450  0.787700  0.153300  1.0  -0.1248
  C  C146  1  0.702830  0.656860  0.148600  1.0  -0.1349
  C  C147  1  0.631370  0.766540  0.150600  1.0  -0.0295
  C  C148  1  0.603340  0.633880  0.145500  1.0  -0.0154
  C  C149  1  0.568680  0.691160  0.147600  1.0  -0.1659
  C  C150  1  0.460750  0.670500  0.146300  1.0  0.7372
  C  C151  1  0.258420  0.449440  0.158400  1.0  0.6785
  C  C152  1  0.284460  0.383320  0.166100  1.0  -0.1431
  C  C153  1  0.288020  0.332440  0.130400  1.0  0.021
  C  C154  1  0.299550  0.372300  0.208900  1.0  -0.0305
  C  C155  1  0.309830  0.271660  0.138600  1.0  -0.2359
  C  C156  1  0.320100  0.311200  0.216800  1.0  -0.134
  C  C157  1  0.324790  0.260380  0.181500  1.0  -0.035
  C  C158  1  0.341330  0.187860  0.181800  1.0  -0.0159
  C  C159  1  0.338670  0.148940  0.139700  1.0  -0.2034
  C  C160  1  0.356370  0.157940  0.218100  1.0  -0.075
  C  C161  1  0.348900  0.080200  0.132000  1.0  -0.0137
  C  C162  1  0.367890  0.089380  0.212300  1.0  -0.0134
  C  C163  1  0.364150  0.051300  0.169700  1.0  -0.1404
  C  C164  1  0.375780  0.975160  0.163100  1.0  0.7048
  C  C165  1  0.687020  0.279640  0.761900  1.0  0.7197
  C  C166  1  0.690880  0.289160  0.713700  1.0  -0.1646
  C  C167  1  0.627440  0.233680  0.681500  1.0  0.0257
  C  C168  1  0.756030  0.356860  0.701100  1.0  -0.0096
  C  C169  1  0.630520  0.247440  0.638000  1.0  -0.1704
  C  C170  1  0.762370  0.368540  0.657800  1.0  -0.1513
  C  C171  1  0.695420  0.313240  0.625400  1.0  0.0462
  C  C172  1  0.684720  0.316840  0.577800  1.0  0.0391
  C  C173  1  0.611590  0.252380  0.554500  1.0  -0.1751
  C  C174  1  0.738750  0.374900  0.554500  1.0  -0.1427
  C  C175  1  0.588570  0.244540  0.510300  1.0  0.0076
  C  C176  1  0.715230  0.367460  0.509800  1.0  -0.0325
  C  C177  1  0.640440  0.303680  0.487690  1.0  -0.1855
  C  C178  1  0.616630  0.300060  0.438700  1.0  0.7928
  C  C179  1  0.851050  0.268300  0.848400  1.0  0.7304
  C  C180  1  0.949760  0.265520  0.846600  1.0  -0.1196
  C  C181  1  0.957300  0.196600  0.843000  1.0  -0.0325
  C  C182  1  0.030530  0.333060  0.849400  1.0  -0.0544
  C  C183  1  0.049200  0.192800  0.842900  1.0  -0.097
  C  C184  1  0.119600  0.327200  0.848000  1.0  -0.213
  C  C185  1  0.131250  0.258700  0.845700  1.0  0.0596
  C  C186  1  0.232130  0.267860  0.847400  1.0  0.1003
  C  C187  1  0.269550  0.212300  0.846700  1.0  -0.1271
  C  C188  1  0.297170  0.343140  0.851400  1.0  -0.1362
  C  C189  1  0.368630  0.233460  0.849400  1.0  -0.0314
  C  C190  1  0.396660  0.366120  0.854500  1.0  -0.0166
  C  C191  1  0.431320  0.308840  0.852400  1.0  -0.1653
  C  C192  1  0.539250  0.329500  0.853700  1.0  0.7381
  C  C193  1  0.741580  0.550560  0.841600  1.0  0.6762
  C  C194  1  0.715540  0.616680  0.833900  1.0  -0.1434
  C  C195  1  0.711980  0.667560  0.869600  1.0  0.0198
  C  C196  1  0.700450  0.627700  0.791100  1.0  -0.0302
  C  C197  1  0.690170  0.728340  0.861400  1.0  -0.2321
  C  C198  1  0.679900  0.688800  0.783200  1.0  -0.1324
  C  C199  1  0.675210  0.739620  0.818500  1.0  -0.0336
  C  C200  1  0.658670  0.812140  0.818200  1.0  -0.016
  C  C201  1  0.661330  0.851060  0.860300  1.0  -0.2021
  C  C202  1  0.643630  0.842060  0.781900  1.0  -0.0754
  C  C203  1  0.651100  0.919800  0.868000  1.0  -0.0164
  C  C204  1  0.632110  0.910620  0.787700  1.0  -0.0131
  C  C205  1  0.635850  0.948700  0.830300  1.0  -0.1397
  C  C206  1  0.624220  0.024840  0.836900  1.0  0.7053
  C  C207  1  0.592620  0.279640  0.261900  1.0  0.7191
  C  C208  1  0.598280  0.289160  0.213700  1.0  -0.1656
  C  C209  1  0.606240  0.233680  0.181500  1.0  0.0252
  C  C210  1  0.600830  0.356860  0.201100  1.0  -0.0103
  C  C211  1  0.616920  0.247440  0.138000  1.0  -0.1702
  C  C212  1  0.606170  0.368540  0.157800  1.0  -0.1517
  C  C213  1  0.617820  0.313240  0.125400  1.0  0.0451
  C  C214  1  0.632120  0.316840  0.077800  1.0  0.0384
  C  C215  1  0.640790  0.252380  0.054500  1.0  -0.1771
  C  C216  1  0.636150  0.374900  0.054500  1.0  -0.1413
  C  C217  1  0.655970  0.244540  0.010300  1.0  0.0074
  C  C218  1  0.652230  0.367460  0.009800  1.0  -0.033
  C  C219  1  0.663240  0.303680  0.987690  1.0  -0.1858
  C  C220  1  0.683430  0.300060  0.938700  1.0  0.778
  C  C221  1  0.417250  0.268300  0.348400  1.0  0.7312
  C  C222  1  0.315760  0.265520  0.346600  1.0  -0.1195
  C  C223  1  0.239300  0.196600  0.343000  1.0  -0.0325
  C  C224  1  0.302530  0.333060  0.349400  1.0  -0.0532
  C  C225  1  0.143600  0.192800  0.342900  1.0  -0.0971
  C  C226  1  0.207600  0.327200  0.348000  1.0  -0.2131
  C  C227  1  0.127450  0.258700  0.345700  1.0  0.0603
  C  C228  1  0.035730  0.267860  0.347400  1.0  0.0999
  C  C229  1  0.942750  0.212300  0.346700  1.0  -0.1265
  C  C230  1  0.045970  0.343140  0.351400  1.0  -0.1356
  C  C231  1  0.864830  0.233460  0.349400  1.0  -0.0295
  C  C232  1  0.969460  0.366120  0.354500  1.0  -0.0165
  C  C233  1  0.877520  0.308840  0.352400  1.0  -0.1652
  C  C234  1  0.790250  0.329500  0.353700  1.0  0.7373
  C  C235  1  0.808980  0.550560  0.341600  1.0  0.6781
  C  C236  1  0.901140  0.616680  0.333900  1.0  -0.1441
  C  C237  1  0.955580  0.667560  0.369600  1.0  0.0197
  C  C238  1  0.927250  0.627700  0.291100  1.0  -0.0303
  C  C239  1  0.038170  0.728340  0.361400  1.0  -0.2323
  C  C240  1  0.008900  0.688800  0.283200  1.0  -0.1333
  C  C241  1  0.064410  0.739620  0.318500  1.0  -0.0349
  C  C242  1  0.153470  0.812140  0.318200  1.0  -0.0151
  C  C243  1  0.189730  0.851060  0.360300  1.0  -0.2011
  C  C244  1  0.198430  0.842060  0.281900  1.0  -0.0751
  C  C245  1  0.268700  0.919800  0.368000  1.0  -0.0161
  C  C246  1  0.278510  0.910620  0.287700  1.0  -0.0126
  C  C247  1  0.312850  0.948700  0.330300  1.0  -0.1396
  C  C248  1  0.400620  0.024840  0.336900  1.0  0.7045
  S  S249  1  0.363590  0.812080  0.908150  1.0  1.1437
  S  S250  1  0.830610  0.595960  0.650250  1.0  1.1573
  S  S251  1  0.879800  0.198440  0.598310  1.0  1.1483
  S  S252  1  0.448490  0.812080  0.408150  1.0  1.1441
  S  S253  1  0.765350  0.595960  0.150250  1.0  1.1572
  S  S254  1  0.318640  0.198440  0.098310  1.0  1.1482
  S  S255  1  0.551510  0.187920  0.591850  1.0  1.1441
  S  S256  1  0.234650  0.404040  0.849750  1.0  1.1561
  S  S257  1  0.681360  0.801560  0.901690  1.0  1.1458
  S  S258  1  0.636410  0.187920  0.091850  1.0  1.1445
  S  S259  1  0.169390  0.404040  0.349750  1.0  1.156
  S  S260  1  0.120200  0.801560  0.401690  1.0  1.1455
  O  O261  1  0.427680  0.785760  0.729070  1.0  -0.663
  O  O262  1  0.392870  0.661740  0.710790  1.0  -0.7405
  O  O263  1  0.445130  0.883860  0.919120  1.0  -0.5412
  O  O264  1  0.271250  0.815500  0.902370  1.0  -0.5159
  O  O265  1  0.327960  0.763920  0.082800  1.0  -0.7269
  O  O266  1  0.289010  0.637820  0.075770  1.0  -0.7606
  O  O267  1  0.574660  0.794520  0.662370  1.0  -0.7166
  O  O268  1  0.516910  0.667820  0.638010  1.0  -0.767
  O  O269  1  0.814900  0.564800  0.691400  1.0  -0.5996
  O  O270  1  0.795420  0.544240  0.609300  1.0  -0.5658
  O  O271  1  0.291680  0.723560  0.649000  1.0  -0.8009
  O  O272  1  0.198740  0.604080  0.643030  1.0  -0.6727
  O  O273  1  0.217290  0.452980  0.619340  1.0  -0.6758
  O  O274  1  0.238260  0.497120  0.691570  1.0  -0.6676
  O  O275  1  0.926560  0.154920  0.573830  1.0  -0.5258
  O  O276  1  0.825430  0.228260  0.573610  1.0  -0.538
  O  O277  1  0.573280  0.937160  0.624840  1.0  -0.6346
  O  O278  1  0.556520  0.953040  0.696570  1.0  -0.6478
  O  O279  1  0.358080  0.785760  0.229070  1.0  -0.6611
  O  O280  1  0.268870  0.661740  0.210790  1.0  -0.7399
  O  O281  1  0.438730  0.883860  0.419120  1.0  -0.5403
  O  O282  1  0.544250  0.815500  0.402370  1.0  -0.5182
  O  O283  1  0.435960  0.763920  0.582800  1.0  -0.7302
  O  O284  1  0.348810  0.637820  0.575770  1.0  -0.7598
  O  O285  1  0.219860  0.794520  0.162370  1.0  -0.7172
  O  O286  1  0.150910  0.667820  0.138010  1.0  -0.7676
  O  O287  1  0.749900  0.564800  0.191400  1.0  -0.5995
  O  O288  1  0.748820  0.544240  0.109300  1.0  -0.5655
  O  O289  1  0.431880  0.723560  0.149000  1.0  -0.8001
  O  O290  1  0.405340  0.604080  0.143030  1.0  -0.6734
  O  O291  1  0.235690  0.452980  0.119340  1.0  -0.6752
  O  O292  1  0.258860  0.497120  0.191570  1.0  -0.6672
  O  O293  1  0.228360  0.154920  0.073830  1.0  -0.5246
  O  O294  1  0.402830  0.228260  0.073610  1.0  -0.5388
  O  O295  1  0.363880  0.937160  0.124840  1.0  -0.6354
  O  O296  1  0.396520  0.953040  0.196570  1.0  -0.6487
  O  O297  1  0.641920  0.214240  0.770930  1.0  -0.6615
  O  O298  1  0.731130  0.338260  0.789210  1.0  -0.7412
  O  O299  1  0.561270  0.116140  0.580880  1.0  -0.5389
  O  O300  1  0.455750  0.184500  0.597630  1.0  -0.5156
  O  O301  1  0.564040  0.236080  0.417200  1.0  -0.7262
  O  O302  1  0.651190  0.362180  0.424230  1.0  -0.7601
  O  O303  1  0.780140  0.205480  0.837630  1.0  -0.7144
  O  O304  1  0.849090  0.332180  0.861990  1.0  -0.7689
  O  O305  1  0.250100  0.435200  0.808600  1.0  -0.5979
  O  O306  1  0.251180  0.455760  0.890700  1.0  -0.5657
  O  O307  1  0.568120  0.276440  0.851000  1.0  -0.8002
  O  O308  1  0.594660  0.395920  0.856970  1.0  -0.6723
  O  O309  1  0.764310  0.547020  0.880660  1.0  -0.6757
  O  O310  1  0.741140  0.502880  0.808430  1.0  -0.6682
  O  O311  1  0.771640  0.845080  0.926170  1.0  -0.5244
  O  O312  1  0.597170  0.771740  0.926390  1.0  -0.5348
  O  O313  1  0.636120  0.062840  0.875160  1.0  -0.6351
  O  O314  1  0.603480  0.046960  0.803430  1.0  -0.6478
  O  O315  1  0.572320  0.214240  0.270930  1.0  -0.6613
  O  O316  1  0.607130  0.338260  0.289210  1.0  -0.7399
  O  O317  1  0.554870  0.116140  0.080880  1.0  -0.5388
  O  O318  1  0.728750  0.184500  0.097630  1.0  -0.5189
  O  O319  1  0.672040  0.236080  0.917200  1.0  -0.7298
  O  O320  1  0.710990  0.362180  0.924230  1.0  -0.7591
  O  O321  1  0.425340  0.205480  0.337630  1.0  -0.7149
  O  O322  1  0.483090  0.332180  0.361990  1.0  -0.7702
  O  O323  1  0.185100  0.435200  0.308600  1.0  -0.5979
  O  O324  1  0.204580  0.455760  0.390700  1.0  -0.565
  O  O325  1  0.708320  0.276440  0.351000  1.0  -0.8003
  O  O326  1  0.801260  0.395920  0.356970  1.0  -0.6728
  O  O327  1  0.782710  0.547020  0.380660  1.0  -0.6763
  O  O328  1  0.761740  0.502880  0.308430  1.0  -0.6675
  O  O329  1  0.073440  0.845080  0.426170  1.0  -0.5213
  O  O330  1  0.174570  0.771740  0.426390  1.0  -0.5347
  O  O331  1  0.426720  0.062840  0.375160  1.0  -0.6342
  O  O332  1  0.443480  0.046960  0.303430  1.0  -0.6489
