# generated using pymatgen
data_Eu2H18C42(SO6)3
_symmetry_space_group_name_H-M   'P 1'
_cell_length_a   14.86020000
_cell_length_b   18.92190000
_cell_length_c   29.77400000
_cell_angle_alpha   98.08910000
_cell_angle_beta   90.00000000
_cell_angle_gamma   113.12100000
_symmetry_Int_Tables_number   1
_chemical_formula_structural   Eu2H18C42(SO6)3
_chemical_formula_sum   'Eu8 H72 C168 S12 O72'
_cell_volume   7608.83914520
_cell_formula_units_Z   4
loop_
 _symmetry_equiv_pos_site_id
 _symmetry_equiv_pos_as_xyz
  1  'x, y, z'
loop_
 _atom_site_type_symbol
 _atom_site_label
 _atom_site_symmetry_multiplicity
 _atom_site_fract_x
 _atom_site_fract_y
 _atom_site_fract_z
 _atom_site_occupancy
 _atom_site_charge
  Eu  Eu1  1  0.387250  0.580700  0.641050  1.0  2.1442
  Eu  Eu2  1  0.466370  0.825910  0.656210  1.0  2.1554
  Eu  Eu3  1  0.193450  0.580700  0.141050  1.0  2.1445
  Eu  Eu4  1  0.359540  0.825910  0.156210  1.0  2.1542
  Eu  Eu5  1  0.806550  0.419300  0.858950  1.0  2.1447
  Eu  Eu6  1  0.640460  0.174090  0.843790  1.0  2.1552
  Eu  Eu7  1  0.612750  0.419300  0.358950  1.0  2.1438
  Eu  Eu8  1  0.533630  0.174090  0.343790  1.0  2.1531
  H  H9  1  0.423200  0.810000  0.809700  1.0  0.1438
  H  H10  1  0.468800  0.610600  0.784700  1.0  0.11
  H  H11  1  0.462900  0.599600  0.860800  1.0  0.1258
  H  H12  1  0.426200  0.593800  0.942700  1.0  0.134
  H  H13  1  0.339400  0.799600  0.004800  1.0  0.1421
  H  H14  1  0.371700  0.599800  0.015700  1.0  0.1176
  H  H15  1  0.787100  0.851800  0.655400  1.0  0.1235
  H  H16  1  0.670500  0.617600  0.644800  1.0  0.1423
  H  H17  1  0.946300  0.854400  0.651700  1.0  0.1364
  H  H18  1  0.101500  0.835200  0.649500  1.0  0.1361
  H  H19  1  0.231700  0.797400  0.650700  1.0  0.1187
  H  H20  1  0.046000  0.570200  0.641300  1.0  0.1318
  H  H21  1  0.106600  0.330600  0.598400  1.0  0.136
  H  H22  1  0.153500  0.401800  0.734500  1.0  0.1214
  H  H23  1  0.011300  0.298000  0.747600  1.0  0.1192
  H  H24  1  0.854600  0.180600  0.747800  1.0  0.1279
  H  H25  1  0.738200  0.048800  0.599600  1.0  0.1394
  H  H26  1  0.713500  0.066400  0.736300  1.0  0.1101
  H  H27  1  0.386800  0.810000  0.309700  1.0  0.1433
  H  H28  1  0.141800  0.610600  0.284700  1.0  0.1099
  H  H29  1  0.136700  0.599600  0.360800  1.0  0.1255
  H  H30  1  0.167600  0.593800  0.442700  1.0  0.1332
  H  H31  1  0.460200  0.799600  0.504800  1.0  0.1416
  H  H32  1  0.228100  0.599800  0.515700  1.0  0.1178
  H  H33  1  0.064700  0.851800  0.155400  1.0  0.123
  H  H34  1  0.947100  0.617600  0.144800  1.0  0.1423
  H  H35  1  0.908100  0.854400  0.151700  1.0  0.1368
  H  H36  1  0.733700  0.835200  0.149500  1.0  0.1357
  H  H37  1  0.565700  0.797400  0.150700  1.0  0.1189
  H  H38  1  0.524200  0.570200  0.141300  1.0  0.1316
  H  H39  1  0.224000  0.330600  0.098400  1.0  0.1359
  H  H40  1  0.248300  0.401800  0.234500  1.0  0.1213
  H  H41  1  0.286700  0.298000  0.247600  1.0  0.1193
  H  H42  1  0.326000  0.180600  0.247800  1.0  0.1278
  H  H43  1  0.310600  0.048800  0.099600  1.0  0.1398
  H  H44  1  0.352900  0.066400  0.236300  1.0  0.11
  H  H45  1  0.613200  0.190000  0.690300  1.0  0.1428
  H  H46  1  0.858200  0.389400  0.715300  1.0  0.1097
  H  H47  1  0.863300  0.400400  0.639200  1.0  0.1254
  H  H48  1  0.832400  0.406200  0.557300  1.0  0.134
  H  H49  1  0.539800  0.200400  0.495200  1.0  0.1407
  H  H50  1  0.771900  0.400200  0.484300  1.0  0.1178
  H  H51  1  0.935300  0.148200  0.844600  1.0  0.1231
  H  H52  1  0.052900  0.382400  0.855200  1.0  0.143
  H  H53  1  0.091900  0.145600  0.848300  1.0  0.1364
  H  H54  1  0.266300  0.164800  0.850500  1.0  0.1357
  H  H55  1  0.434300  0.202600  0.849300  1.0  0.1185
  H  H56  1  0.475800  0.429800  0.858700  1.0  0.1319
  H  H57  1  0.776000  0.669400  0.901600  1.0  0.1356
  H  H58  1  0.751700  0.598200  0.765500  1.0  0.1215
  H  H59  1  0.713300  0.702000  0.752400  1.0  0.1194
  H  H60  1  0.674000  0.819400  0.752200  1.0  0.1275
  H  H61  1  0.689400  0.951200  0.900400  1.0  0.1393
  H  H62  1  0.647100  0.933600  0.763700  1.0  0.1097
  H  H63  1  0.576800  0.190000  0.190300  1.0  0.1423
  H  H64  1  0.531200  0.389400  0.215300  1.0  0.1102
  H  H65  1  0.537100  0.400400  0.139200  1.0  0.1254
  H  H66  1  0.573800  0.406200  0.057300  1.0  0.134
  H  H67  1  0.660600  0.200400  0.995200  1.0  0.1412
  H  H68  1  0.628300  0.400200  0.984300  1.0  0.1177
  H  H69  1  0.212900  0.148200  0.344600  1.0  0.1228
  H  H70  1  0.329500  0.382400  0.355200  1.0  0.1422
  H  H71  1  0.053700  0.145600  0.348300  1.0  0.1365
  H  H72  1  0.898500  0.164800  0.350500  1.0  0.1355
  H  H73  1  0.768300  0.202600  0.349300  1.0  0.1179
  H  H74  1  0.954000  0.429800  0.358700  1.0  0.132
  H  H75  1  0.893400  0.669400  0.401600  1.0  0.1359
  H  H76  1  0.846500  0.598200  0.265500  1.0  0.1213
  H  H77  1  0.988700  0.702000  0.252400  1.0  0.1194
  H  H78  1  0.145400  0.819400  0.252200  1.0  0.1278
  H  H79  1  0.261800  0.951200  0.400400  1.0  0.1399
  H  H80  1  0.286500  0.933600  0.263700  1.0  0.1096
  C  C81  1  0.448550  0.716100  0.739100  1.0  0.7369
  C  C82  1  0.445730  0.711060  0.789000  1.0  -0.1389
  C  C83  1  0.428960  0.766120  0.819500  1.0  -0.016
  C  C84  1  0.457080  0.648560  0.805500  1.0  -0.0267
  C  C85  1  0.420780  0.755760  0.864700  1.0  -0.194
  C  C86  1  0.451860  0.640920  0.850300  1.0  -0.1579
  C  C87  1  0.430120  0.694440  0.880600  1.0  0.0415
  C  C88  1  0.409550  0.691500  0.929000  1.0  0.0436
  C  C89  1  0.383410  0.751820  0.948200  1.0  -0.2138
  C  C90  1  0.406620  0.634440  0.954800  1.0  -0.1224
  C  C91  1  0.353990  0.756780  0.991800  1.0  -0.0235
  C  C92  1  0.374600  0.638600  0.997900  1.0  -0.0267
  C  C93  1  0.346160  0.698120  0.016520  1.0  -0.1437
  C  C94  1  0.301560  0.694920  0.061680  1.0  0.7781
  C  C95  1  0.615610  0.738020  0.647850  1.0  0.7335
  C  C96  1  0.715140  0.734880  0.648900  1.0  -0.1464
  C  C97  1  0.796200  0.804400  0.652300  1.0  -0.0291
  C  C98  1  0.725530  0.665860  0.646700  1.0  -0.0818
  C  C99  1  0.891200  0.806600  0.651300  1.0  -0.1236
  C  C100  1  0.823080  0.670160  0.647400  1.0  -0.1465
  C  C101  1  0.902800  0.738200  0.649600  1.0  0.0579
  C  C102  1  0.998350  0.727500  0.648800  1.0  -0.0167
  C  C103  1  0.090300  0.782200  0.649200  1.0  -0.0992
  C  C104  1  0.981220  0.649840  0.646000  1.0  -0.1982
  C  C105  1  0.166500  0.759200  0.649200  1.0  -0.0278
  C  C106  1  0.057900  0.623800  0.644300  1.0  -0.0586
  C  C107  1  0.151540  0.681080  0.647100  1.0  -0.1184
  C  C108  1  0.239900  0.660200  0.648210  1.0  0.7562
  C  C109  1  0.235430  0.443660  0.658300  1.0  0.6886
  C  C110  1  0.143070  0.375140  0.665700  1.0  -0.1341
  C  C111  1  0.087380  0.323960  0.628400  1.0  -0.0443
  C  C112  1  0.114560  0.365520  0.709500  1.0  -0.035
  C  C113  1  0.002300  0.262600  0.636800  1.0  -0.2281
  C  C114  1  0.030170  0.303940  0.717400  1.0  -0.1114
  C  C115  1  0.973470  0.250940  0.680800  1.0  0.0824
  C  C116  1  0.881890  0.180580  0.680500  1.0  -0.0053
  C  C117  1  0.846720  0.142440  0.637660  1.0  -0.1803
  C  C118  1  0.831720  0.153440  0.717940  1.0  -0.0662
  C  C119  1  0.761540  0.074680  0.629600  1.0  -0.0173
  C  C120  1  0.747770  0.086140  0.710900  1.0  -0.0164
  C  C121  1  0.712190  0.046380  0.667100  1.0  -0.144
  C  C122  1  0.623050  0.972500  0.660760  1.0  0.7083
  C  C123  1  0.267550  0.716100  0.239100  1.0  0.7368
  C  C124  1  0.265330  0.711060  0.289000  1.0  -0.1402
  C  C125  1  0.337160  0.766120  0.319500  1.0  -0.0169
  C  C126  1  0.191480  0.648560  0.305500  1.0  -0.0256
  C  C127  1  0.334980  0.755760  0.364700  1.0  -0.1943
  C  C128  1  0.189060  0.640920  0.350300  1.0  -0.1575
  C  C129  1  0.264320  0.694440  0.380600  1.0  0.0413
  C  C130  1  0.281950  0.691500  0.429000  1.0  0.0429
  C  C131  1  0.368410  0.751820  0.448200  1.0  -0.214
  C  C132  1  0.227820  0.634440  0.454800  1.0  -0.1229
  C  C133  1  0.402790  0.756780  0.491800  1.0  -0.0224
  C  C134  1  0.264000  0.638600  0.497900  1.0  -0.0268
  C  C135  1  0.351960  0.698120  0.516520  1.0  -0.1446
  C  C136  1  0.393360  0.694920  0.561680  1.0  0.771
  C  C137  1  0.122410  0.738020  0.147850  1.0  0.7323
  C  C138  1  0.019740  0.734880  0.148900  1.0  -0.1451
  C  C139  1  0.008200  0.804400  0.152300  1.0  -0.0288
  C  C140  1  0.940330  0.665860  0.146700  1.0  -0.0826
  C  C141  1  0.915400  0.806600  0.151300  1.0  -0.125
  C  C142  1  0.847080  0.670160  0.147400  1.0  -0.146
  C  C143  1  0.835400  0.738200  0.149600  1.0  0.0581
  C  C144  1  0.729150  0.727500  0.148800  1.0  -0.0161
  C  C145  1  0.691900  0.782200  0.149200  1.0  -0.0969
  C  C146  1  0.668620  0.649840  0.146000  1.0  -0.1979
  C  C147  1  0.592700  0.759200  0.149200  1.0  -0.0286
  C  C148  1  0.565900  0.623800  0.144300  1.0  -0.059
  C  C149  1  0.529540  0.681080  0.147100  1.0  -0.119
  C  C150  1  0.420300  0.660200  0.148210  1.0  0.7533
  C  C151  1  0.208230  0.443660  0.158300  1.0  0.6894
  C  C152  1  0.232070  0.375140  0.165700  1.0  -0.1343
  C  C153  1  0.236580  0.323960  0.128400  1.0  -0.0429
  C  C154  1  0.250960  0.365520  0.209500  1.0  -0.0351
  C  C155  1  0.260300  0.262600  0.136800  1.0  -0.2311
  C  C156  1  0.273770  0.303940  0.217400  1.0  -0.112
  C  C157  1  0.277470  0.250940  0.180800  1.0  0.0799
  C  C158  1  0.298690  0.180580  0.180500  1.0  -0.0053
  C  C159  1  0.295720  0.142440  0.137660  1.0  -0.1796
  C  C160  1  0.321720  0.153440  0.217940  1.0  -0.0661
  C  C161  1  0.313140  0.074680  0.129600  1.0  -0.0172
  C  C162  1  0.338370  0.086140  0.210900  1.0  -0.0161
  C  C163  1  0.334190  0.046380  0.167100  1.0  -0.1433
  C  C164  1  0.349450  0.972500  0.160760  1.0  0.7072
  C  C165  1  0.732450  0.283900  0.760900  1.0  0.736
  C  C166  1  0.734670  0.288940  0.711000  1.0  -0.1394
  C  C167  1  0.662840  0.233880  0.680500  1.0  -0.0166
  C  C168  1  0.808520  0.351440  0.694500  1.0  -0.0261
  C  C169  1  0.665020  0.244240  0.635300  1.0  -0.1931
  C  C170  1  0.810940  0.359080  0.649700  1.0  -0.1584
  C  C171  1  0.735680  0.305560  0.619400  1.0  0.0412
  C  C172  1  0.718050  0.308500  0.571000  1.0  0.0438
  C  C173  1  0.631590  0.248180  0.551800  1.0  -0.2127
  C  C174  1  0.772180  0.365560  0.545200  1.0  -0.1223
  C  C175  1  0.597210  0.243220  0.508200  1.0  -0.0225
  C  C176  1  0.736000  0.361400  0.502100  1.0  -0.0268
  C  C177  1  0.648040  0.301880  0.483480  1.0  -0.1436
  C  C178  1  0.606640  0.305080  0.438320  1.0  0.7777
  C  C179  1  0.877590  0.261980  0.852150  1.0  0.7318
  C  C180  1  0.980260  0.265120  0.851100  1.0  -0.1455
  C  C181  1  0.991800  0.195600  0.847700  1.0  -0.0308
  C  C182  1  0.059670  0.334140  0.853300  1.0  -0.08
  C  C183  1  0.084600  0.193400  0.848700  1.0  -0.1238
  C  C184  1  0.152920  0.329840  0.852600  1.0  -0.1463
  C  C185  1  0.164600  0.261800  0.850400  1.0  0.0587
  C  C186  1  0.270850  0.272500  0.851200  1.0  -0.017
  C  C187  1  0.308100  0.217800  0.850800  1.0  -0.1011
  C  C188  1  0.331380  0.350160  0.854000  1.0  -0.1986
  C  C189  1  0.407300  0.240800  0.850800  1.0  -0.0285
  C  C190  1  0.434100  0.376200  0.855700  1.0  -0.0593
  C  C191  1  0.470460  0.318920  0.852900  1.0  -0.118
  C  C192  1  0.579700  0.339800  0.851790  1.0  0.7571
  C  C193  1  0.791770  0.556340  0.841700  1.0  0.6879
  C  C194  1  0.767930  0.624860  0.834300  1.0  -0.1337
  C  C195  1  0.763420  0.676040  0.871600  1.0  -0.0433
  C  C196  1  0.749040  0.634480  0.790500  1.0  -0.0341
  C  C197  1  0.739700  0.737400  0.863200  1.0  -0.227
  C  C198  1  0.726230  0.696060  0.782600  1.0  -0.1094
  C  C199  1  0.722530  0.749060  0.819200  1.0  0.0825
  C  C200  1  0.701310  0.819420  0.819500  1.0  -0.0048
  C  C201  1  0.704280  0.857560  0.862340  1.0  -0.1793
  C  C202  1  0.678280  0.846560  0.782060  1.0  -0.0651
  C  C203  1  0.686860  0.925320  0.870400  1.0  -0.0168
  C  C204  1  0.661630  0.913860  0.789100  1.0  -0.015
  C  C205  1  0.665810  0.953620  0.832900  1.0  -0.1411
  C  C206  1  0.650550  0.027500  0.839240  1.0  0.708
  C  C207  1  0.551450  0.283900  0.260900  1.0  0.7366
  C  C208  1  0.554270  0.288940  0.211000  1.0  -0.1412
  C  C209  1  0.571040  0.233880  0.180500  1.0  -0.0172
  C  C210  1  0.542920  0.351440  0.194500  1.0  -0.0254
  C  C211  1  0.579220  0.244240  0.135300  1.0  -0.1934
  C  C212  1  0.548140  0.359080  0.149700  1.0  -0.1586
  C  C213  1  0.569880  0.305560  0.119400  1.0  0.0405
  C  C214  1  0.590450  0.308500  0.071000  1.0  0.0428
  C  C215  1  0.616590  0.248180  0.051800  1.0  -0.2126
  C  C216  1  0.593380  0.365560  0.045200  1.0  -0.1231
  C  C217  1  0.646010  0.243220  0.008200  1.0  -0.0219
  C  C218  1  0.625400  0.361400  0.002100  1.0  -0.0271
  C  C219  1  0.653840  0.301880  0.983480  1.0  -0.1439
  C  C220  1  0.698440  0.305080  0.938320  1.0  0.7701
  C  C221  1  0.384390  0.261980  0.352150  1.0  0.7326
  C  C222  1  0.284860  0.265120  0.351100  1.0  -0.1447
  C  C223  1  0.203800  0.195600  0.347700  1.0  -0.0307
  C  C224  1  0.274470  0.334140  0.353300  1.0  -0.0796
  C  C225  1  0.108800  0.193400  0.348700  1.0  -0.124
  C  C226  1  0.176920  0.329840  0.352600  1.0  -0.1456
  C  C227  1  0.097200  0.261800  0.350400  1.0  0.0589
  C  C228  1  0.001650  0.272500  0.351200  1.0  -0.0158
  C  C229  1  0.909700  0.217800  0.350800  1.0  -0.0985
  C  C230  1  0.018780  0.350160  0.354000  1.0  -0.1982
  C  C231  1  0.833500  0.240800  0.350800  1.0  -0.029
  C  C232  1  0.942100  0.376200  0.355700  1.0  -0.0601
  C  C233  1  0.848460  0.318920  0.352900  1.0  -0.1186
  C  C234  1  0.760100  0.339800  0.351790  1.0  0.7541
  C  C235  1  0.764570  0.556340  0.341700  1.0  0.6889
  C  C236  1  0.856930  0.624860  0.334300  1.0  -0.1349
  C  C237  1  0.912620  0.676040  0.371600  1.0  -0.043
  C  C238  1  0.885440  0.634480  0.290500  1.0  -0.0342
  C  C239  1  0.997700  0.737400  0.363200  1.0  -0.2291
  C  C240  1  0.969830  0.696060  0.282600  1.0  -0.1096
  C  C241  1  0.026530  0.749060  0.319200  1.0  0.0796
  C  C242  1  0.118110  0.819420  0.319500  1.0  -0.0045
  C  C243  1  0.153280  0.857560  0.362340  1.0  -0.1785
  C  C244  1  0.168280  0.846560  0.282060  1.0  -0.0653
  C  C245  1  0.238460  0.925320  0.370400  1.0  -0.0173
  C  C246  1  0.252230  0.913860  0.289100  1.0  -0.0145
  C  C247  1  0.287810  0.953620  0.332900  1.0  -0.1408
  C  C248  1  0.376950  0.027500  0.339240  1.0  0.7076
  S  S249  1  0.386700  0.812540  0.908040  1.0  1.1496
  S  S250  1  0.856870  0.590420  0.647150  1.0  1.1544
  S  S251  1  0.921340  0.189060  0.595820  1.0  1.1629
  S  S252  1  0.425840  0.812540  0.408040  1.0  1.1503
  S  S253  1  0.733550  0.590420  0.147150  1.0  1.153
  S  S254  1  0.267720  0.189060  0.095820  1.0  1.1629
  S  S255  1  0.574160  0.187460  0.591960  1.0  1.1503
  S  S256  1  0.266450  0.409580  0.852850  1.0  1.1538
  S  S257  1  0.732280  0.810940  0.904180  1.0  1.1609
  S  S258  1  0.613300  0.187460  0.091960  1.0  1.1507
  S  S259  1  0.143130  0.409580  0.352850  1.0  1.1528
  S  S260  1  0.078660  0.810940  0.404180  1.0  1.1611
  O  O261  1  0.466270  0.780940  0.727680  1.0  -0.6848
  O  O262  1  0.432170  0.653540  0.713290  1.0  -0.7205
  O  O263  1  0.463730  0.888660  0.919570  1.0  -0.5501
  O  O264  1  0.290400  0.808000  0.898160  1.0  -0.5064
  O  O265  1  0.302130  0.758060  0.082510  1.0  -0.7088
  O  O266  1  0.266990  0.629980  0.074940  1.0  -0.738
  O  O267  1  0.610800  0.802600  0.659320  1.0  -0.6865
  O  O268  1  0.544300  0.674400  0.635970  1.0  -0.7675
  O  O269  1  0.839250  0.560500  0.690400  1.0  -0.59
  O  O270  1  0.821200  0.536200  0.606500  1.0  -0.5366
  O  O271  1  0.323600  0.714400  0.652340  1.0  -0.8012
  O  O272  1  0.226720  0.590640  0.645720  1.0  -0.6039
  O  O273  1  0.259740  0.450880  0.617840  1.0  -0.65
  O  O274  1  0.283660  0.490520  0.691910  1.0  -0.6635
  O  O275  1  0.968770  0.141540  0.573290  1.0  -0.5314
  O  O276  1  0.870830  0.219260  0.567430  1.0  -0.568
  O  O277  1  0.594070  0.933940  0.621910  1.0  -0.6343
  O  O278  1  0.577320  0.950840  0.695590  1.0  -0.6736
  O  O279  1  0.314670  0.780940  0.227680  1.0  -0.683
  O  O280  1  0.221370  0.653540  0.213290  1.0  -0.7199
  O  O281  1  0.424930  0.888660  0.419570  1.0  -0.5488
  O  O282  1  0.517600  0.808000  0.398160  1.0  -0.508
  O  O283  1  0.455930  0.758060  0.582510  1.0  -0.7071
  O  O284  1  0.362990  0.629980  0.574940  1.0  -0.7388
  O  O285  1  0.191800  0.802600  0.159320  1.0  -0.6861
  O  O286  1  0.130100  0.674400  0.135970  1.0  -0.7699
  O  O287  1  0.721250  0.560500  0.190400  1.0  -0.5901
  O  O288  1  0.715000  0.536200  0.106500  1.0  -0.536
  O  O289  1  0.390800  0.714400  0.152340  1.0  -0.7991
  O  O290  1  0.363920  0.590640  0.145720  1.0  -0.605
  O  O291  1  0.191140  0.450880  0.117840  1.0  -0.6511
  O  O292  1  0.206860  0.490520  0.191910  1.0  -0.6648
  O  O293  1  0.172770  0.141540  0.073290  1.0  -0.5303
  O  O294  1  0.348430  0.219260  0.067430  1.0  -0.5691
  O  O295  1  0.339870  0.933940  0.121910  1.0  -0.6359
  O  O296  1  0.373520  0.950840  0.195590  1.0  -0.6744
  O  O297  1  0.685330  0.219060  0.772320  1.0  -0.6843
  O  O298  1  0.778630  0.346460  0.786710  1.0  -0.7194
  O  O299  1  0.575070  0.111340  0.580430  1.0  -0.5486
  O  O300  1  0.482400  0.192000  0.601840  1.0  -0.5048
  O  O301  1  0.544070  0.241940  0.417490  1.0  -0.7079
  O  O302  1  0.637010  0.370020  0.425060  1.0  -0.7391
  O  O303  1  0.808200  0.197400  0.840680  1.0  -0.6871
  O  O304  1  0.869900  0.325600  0.864030  1.0  -0.7678
  O  O305  1  0.278750  0.439500  0.809600  1.0  -0.5892
  O  O306  1  0.285000  0.463800  0.893500  1.0  -0.5344
  O  O307  1  0.609200  0.285600  0.847660  1.0  -0.7999
  O  O308  1  0.636080  0.409360  0.854280  1.0  -0.6043
  O  O309  1  0.808860  0.549120  0.882160  1.0  -0.6498
  O  O310  1  0.793140  0.509480  0.808090  1.0  -0.6622
  O  O311  1  0.827230  0.858460  0.926710  1.0  -0.5313
  O  O312  1  0.651570  0.780740  0.932570  1.0  -0.5667
  O  O313  1  0.660130  0.066060  0.878090  1.0  -0.6305
  O  O314  1  0.626480  0.049160  0.804410  1.0  -0.6765
  O  O315  1  0.533730  0.219060  0.272320  1.0  -0.6846
  O  O316  1  0.567830  0.346460  0.286710  1.0  -0.7185
  O  O317  1  0.536270  0.111340  0.080430  1.0  -0.5479
  O  O318  1  0.709600  0.192000  0.101840  1.0  -0.5082
  O  O319  1  0.697870  0.241940  0.917490  1.0  -0.7065
  O  O320  1  0.733010  0.370020  0.925060  1.0  -0.7382
  O  O321  1  0.389200  0.197400  0.340680  1.0  -0.6872
  O  O322  1  0.455700  0.325600  0.364030  1.0  -0.7706
  O  O323  1  0.160750  0.439500  0.309600  1.0  -0.5891
  O  O324  1  0.178800  0.463800  0.393500  1.0  -0.5334
  O  O325  1  0.676400  0.285600  0.347660  1.0  -0.7985
  O  O326  1  0.773280  0.409360  0.354280  1.0  -0.6054
  O  O327  1  0.740260  0.549120  0.382160  1.0  -0.6504
  O  O328  1  0.716340  0.509480  0.308090  1.0  -0.6622
  O  O329  1  0.031230  0.858460  0.426710  1.0  -0.5289
  O  O330  1  0.129170  0.780740  0.432570  1.0  -0.568
  O  O331  1  0.405930  0.066060  0.378090  1.0  -0.6302
  O  O332  1  0.422680  0.049160  0.304410  1.0  -0.6769
