# generated using pymatgen
data_Eu2H18C42(SO6)3
_symmetry_space_group_name_H-M   'P 1'
_cell_length_a   14.91780000
_cell_length_b   19.04210000
_cell_length_c   30.14290000
_cell_angle_alpha   97.71160000
_cell_angle_beta   90.00000000
_cell_angle_gamma   113.06100000
_symmetry_Int_Tables_number   1
_chemical_formula_structural   Eu2H18C42(SO6)3
_chemical_formula_sum   'Eu8 H72 C168 S12 O72'
_cell_volume   7794.09520190
_cell_formula_units_Z   4
loop_
 _symmetry_equiv_pos_site_id
 _symmetry_equiv_pos_as_xyz
  1  'x, y, z'
loop_
 _atom_site_type_symbol
 _atom_site_label
 _atom_site_symmetry_multiplicity
 _atom_site_fract_x
 _atom_site_fract_y
 _atom_site_fract_z
 _atom_site_occupancy
 _atom_site_charge
  Eu  Eu1  1  0.361890  0.582240  0.642720  1.0  2.1242
  Eu  Eu2  1  0.445820  0.828170  0.656980  1.0  2.1638
  Eu  Eu3  1  0.220350  0.582240  0.142720  1.0  2.1245
  Eu  Eu4  1  0.382350  0.828170  0.156980  1.0  2.1638
  Eu  Eu5  1  0.779650  0.417760  0.857280  1.0  2.1241
  Eu  Eu6  1  0.617650  0.171830  0.843020  1.0  2.1638
  Eu  Eu7  1  0.638110  0.417760  0.357280  1.0  2.1236
  Eu  Eu8  1  0.554180  0.171830  0.343020  1.0  2.1628
  H  H9  1  0.402500  0.811400  0.810800  1.0  0.1329
  H  H10  1  0.426500  0.607600  0.780400  1.0  0.1111
  H  H11  1  0.420300  0.592000  0.855100  1.0  0.1183
  H  H12  1  0.393900  0.586400  0.936500  1.0  0.1276
  H  H13  1  0.339600  0.800400  0.005000  1.0  0.1332
  H  H14  1  0.357600  0.597000  0.010900  1.0  0.1103
  H  H15  1  0.762000  0.849600  0.654700  1.0  0.1045
  H  H16  1  0.653700  0.619600  0.648000  1.0  0.1319
  H  H17  1  0.917100  0.856400  0.655700  1.0  0.1365
  H  H18  1  0.075600  0.838000  0.651100  1.0  0.1301
  H  H19  1  0.206900  0.801200  0.647900  1.0  0.1123
  H  H20  1  0.027400  0.579000  0.641600  1.0  0.1265
  H  H21  1  0.078400  0.336200  0.601300  1.0  0.1279
  H  H22  1  0.122400  0.404000  0.734100  1.0  0.1075
  H  H23  1  0.983200  0.299800  0.746600  1.0  0.1143
  H  H24  1  0.831300  0.179200  0.747100  1.0  0.118
  H  H25  1  0.720100  0.051600  0.602300  1.0  0.128
  H  H26  1  0.693200  0.066800  0.735900  1.0  0.1009
  H  H27  1  0.408900  0.811400  0.310800  1.0  0.133
  H  H28  1  0.181100  0.607600  0.280400  1.0  0.1112
  H  H29  1  0.171700  0.592000  0.355100  1.0  0.1181
  H  H30  1  0.192500  0.586400  0.436500  1.0  0.1273
  H  H31  1  0.460800  0.800400  0.505000  1.0  0.133
  H  H32  1  0.239400  0.597000  0.510900  1.0  0.1103
  H  H33  1  0.087600  0.849600  0.154700  1.0  0.1043
  H  H34  1  0.965900  0.619600  0.148000  1.0  0.1318
  H  H35  1  0.939300  0.856400  0.155700  1.0  0.1367
  H  H36  1  0.762400  0.838000  0.151100  1.0  0.1298
  H  H37  1  0.594300  0.801200  0.147900  1.0  0.1129
  H  H38  1  0.551600  0.579000  0.141600  1.0  0.1265
  H  H39  1  0.257800  0.336200  0.101300  1.0  0.128
  H  H40  1  0.281600  0.404000  0.234100  1.0  0.1073
  H  H41  1  0.316600  0.299800  0.246600  1.0  0.1146
  H  H42  1  0.347900  0.179200  0.247100  1.0  0.1177
  H  H43  1  0.331500  0.051600  0.102300  1.0  0.1282
  H  H44  1  0.373600  0.066800  0.235900  1.0  0.1014
  H  H45  1  0.591100  0.188600  0.689200  1.0  0.132
  H  H46  1  0.818900  0.392400  0.719600  1.0  0.1114
  H  H47  1  0.828300  0.408000  0.644900  1.0  0.1186
  H  H48  1  0.807500  0.413600  0.563500  1.0  0.1279
  H  H49  1  0.539200  0.199600  0.495000  1.0  0.1329
  H  H50  1  0.760600  0.403000  0.489100  1.0  0.1108
  H  H51  1  0.912400  0.150400  0.845300  1.0  0.104
  H  H52  1  0.034100  0.380400  0.852000  1.0  0.1322
  H  H53  1  0.060700  0.143600  0.844300  1.0  0.1367
  H  H54  1  0.237600  0.162000  0.848900  1.0  0.13
  H  H55  1  0.405700  0.198800  0.852100  1.0  0.1124
  H  H56  1  0.448400  0.421000  0.858400  1.0  0.1265
  H  H57  1  0.742200  0.663800  0.898700  1.0  0.1272
  H  H58  1  0.718400  0.596000  0.765900  1.0  0.1072
  H  H59  1  0.683400  0.700200  0.753400  1.0  0.1141
  H  H60  1  0.652100  0.820800  0.752900  1.0  0.1175
  H  H61  1  0.668500  0.948400  0.897700  1.0  0.1276
  H  H62  1  0.626400  0.933200  0.764100  1.0  0.1007
  H  H63  1  0.597500  0.188600  0.189200  1.0  0.132
  H  H64  1  0.573500  0.392400  0.219600  1.0  0.1116
  H  H65  1  0.579700  0.408000  0.144900  1.0  0.1185
  H  H66  1  0.606100  0.413600  0.063500  1.0  0.1279
  H  H67  1  0.660400  0.199600  0.995000  1.0  0.1332
  H  H68  1  0.642400  0.403000  0.989100  1.0  0.1107
  H  H69  1  0.238000  0.150400  0.345300  1.0  0.104
  H  H70  1  0.346300  0.380400  0.352000  1.0  0.1317
  H  H71  1  0.082900  0.143600  0.344300  1.0  0.1366
  H  H72  1  0.924400  0.162000  0.348900  1.0  0.1299
  H  H73  1  0.793100  0.198800  0.352100  1.0  0.1122
  H  H74  1  0.972600  0.421000  0.358400  1.0  0.1266
  H  H75  1  0.921600  0.663800  0.398700  1.0  0.1278
  H  H76  1  0.877600  0.596000  0.265900  1.0  0.1069
  H  H77  1  0.016800  0.700200  0.253400  1.0  0.1141
  H  H78  1  0.168700  0.820800  0.252900  1.0  0.1173
  H  H79  1  0.279900  0.948400  0.397700  1.0  0.1283
  H  H80  1  0.306800  0.933200  0.264100  1.0  0.101
  C  C81  1  0.419110  0.718220  0.738800  1.0  0.7376
  C  C82  1  0.415020  0.710240  0.787870  1.0  -0.1707
  C  C83  1  0.404500  0.766800  0.819270  1.0  0.0141
  C  C84  1  0.419760  0.645120  0.801630  1.0  -0.0363
  C  C85  1  0.397230  0.754260  0.863120  1.0  -0.1708
  C  C86  1  0.414600  0.635000  0.846220  1.0  -0.1262
  C  C87  1  0.401170  0.688940  0.877250  1.0  0.0482
  C  C88  1  0.385540  0.687080  0.925580  1.0  0.025
  C  C89  1  0.369800  0.749800  0.946840  1.0  -0.2269
  C  C90  1  0.382040  0.628680  0.949890  1.0  -0.1288
  C  C91  1  0.348870  0.757140  0.991340  1.0  0.0117
  C  C92  1  0.360290  0.635380  0.994320  1.0  -0.0259
  C  C93  1  0.342180  0.697760  0.014960  1.0  -0.1852
  C  C94  1  0.312150  0.698500  0.062960  1.0  0.7955
  C  C95  1  0.591180  0.734560  0.650980  1.0  0.7482
  C  C96  1  0.692450  0.735100  0.651610  1.0  -0.1659
  C  C97  1  0.772460  0.804320  0.653400  1.0  -0.0161
  C  C98  1  0.706330  0.666860  0.649480  1.0  -0.0325
  C  C99  1  0.864780  0.808960  0.653600  1.0  -0.1384
  C  C100  1  0.800150  0.671700  0.649590  1.0  -0.1014
  C  C101  1  0.880000  0.740000  0.650420  1.0  0.0361
  C  C102  1  0.974320  0.730640  0.648570  1.0  0.0302
  C  C103  1  0.065670  0.786340  0.649400  1.0  -0.1109
  C  C104  1  0.960860  0.653720  0.646170  1.0  -0.1432
  C  C105  1  0.143970  0.763740  0.647700  1.0  -0.0246
  C  C106  1  0.037960  0.630920  0.644040  1.0  0.0224
  C  C107  1  0.131070  0.686940  0.645590  1.0  -0.1574
  C  C108  1  0.218940  0.667080  0.646620  1.0  0.7431
  C  C109  1  0.206210  0.447220  0.659510  1.0  0.7006
  C  C110  1  0.115000  0.379800  0.666780  1.0  -0.1651
  C  C111  1  0.060170  0.329140  0.630360  1.0  0.0196
  C  C112  1  0.085440  0.368880  0.709860  1.0  -0.0364
  C  C113  1  0.976800  0.267200  0.638640  1.0  -0.2462
  C  C114  1  0.001910  0.306620  0.717530  1.0  -0.1166
  C  C115  1  0.947290  0.254980  0.681570  1.0  0.0616
  C  C116  1  0.858190  0.183780  0.681580  1.0  0.057
  C  C117  1  0.823200  0.144000  0.639150  1.0  -0.1933
  C  C118  1  0.808910  0.153820  0.718150  1.0  -0.0728
  C  C119  1  0.742000  0.076600  0.631300  1.0  0.0057
  C  C120  1  0.727020  0.086440  0.711370  1.0  -0.0271
  C  C121  1  0.693560  0.046920  0.668190  1.0  -0.1545
  C  C122  1  0.604780  0.972560  0.661910  1.0  0.7066
  C  C123  1  0.299110  0.718220  0.238800  1.0  0.7375
  C  C124  1  0.295220  0.710240  0.287870  1.0  -0.1693
  C  C125  1  0.362300  0.766800  0.319270  1.0  0.0143
  C  C126  1  0.225360  0.645120  0.301630  1.0  -0.0362
  C  C127  1  0.357030  0.754260  0.363120  1.0  -0.1715
  C  C128  1  0.220400  0.635000  0.346220  1.0  -0.126
  C  C129  1  0.287770  0.688940  0.377250  1.0  0.0477
  C  C130  1  0.301540  0.687080  0.425580  1.0  0.0241
  C  C131  1  0.380000  0.749800  0.446840  1.0  -0.226
  C  C132  1  0.246640  0.628680  0.449890  1.0  -0.1281
  C  C133  1  0.408270  0.757140  0.491340  1.0  0.0118
  C  C134  1  0.275090  0.635380  0.494320  1.0  -0.0257
  C  C135  1  0.355580  0.697760  0.514960  1.0  -0.1854
  C  C136  1  0.386350  0.698500  0.562960  1.0  0.7901
  C  C137  1  0.143380  0.734560  0.150980  1.0  0.7473
  C  C138  1  0.042650  0.735100  0.151610  1.0  -0.1651
  C  C139  1  0.031860  0.804320  0.153400  1.0  -0.017
  C  C140  1  0.960530  0.666860  0.149480  1.0  -0.033
  C  C141  1  0.944180  0.808960  0.153600  1.0  -0.1384
  C  C142  1  0.871550  0.671700  0.149590  1.0  -0.1022
  C  C143  1  0.860000  0.740000  0.150420  1.0  0.0369
  C  C144  1  0.756320  0.730640  0.148570  1.0  0.029
  C  C145  1  0.720670  0.786340  0.149400  1.0  -0.1098
  C  C146  1  0.692860  0.653720  0.146170  1.0  -0.1425
  C  C147  1  0.619770  0.763740  0.147700  1.0  -0.0248
  C  C148  1  0.592960  0.630920  0.144040  1.0  0.0218
  C  C149  1  0.555870  0.686940  0.145590  1.0  -0.1579
  C  C150  1  0.448140  0.667080  0.146620  1.0  0.7357
  C  C151  1  0.241010  0.447220  0.159510  1.0  0.7008
  C  C152  1  0.264800  0.379800  0.166780  1.0  -0.1662
  C  C153  1  0.268970  0.329140  0.130360  1.0  0.0212
  C  C154  1  0.283440  0.368880  0.209860  1.0  -0.0359
  C  C155  1  0.290400  0.267200  0.138640  1.0  -0.2485
  C  C156  1  0.304710  0.306620  0.217530  1.0  -0.1161
  C  C157  1  0.307690  0.254980  0.181570  1.0  0.0608
  C  C158  1  0.325590  0.183780  0.181580  1.0  0.0571
  C  C159  1  0.320800  0.144000  0.139150  1.0  -0.1923
  C  C160  1  0.344910  0.153820  0.218150  1.0  -0.0722
  C  C161  1  0.334600  0.076600  0.131300  1.0  0.0059
  C  C162  1  0.359420  0.086440  0.211370  1.0  -0.0267
  C  C163  1  0.353360  0.046920  0.168190  1.0  -0.1544
  C  C164  1  0.367780  0.972560  0.161910  1.0  0.706
  C  C165  1  0.700890  0.281780  0.761200  1.0  0.7388
  C  C166  1  0.704780  0.289760  0.712130  1.0  -0.171
  C  C167  1  0.637700  0.233200  0.680730  1.0  0.0138
  C  C168  1  0.774640  0.354880  0.698370  1.0  -0.0359
  C  C169  1  0.642970  0.245740  0.636880  1.0  -0.1707
  C  C170  1  0.779600  0.365000  0.653780  1.0  -0.1248
  C  C171  1  0.712230  0.311060  0.622750  1.0  0.0467
  C  C172  1  0.698460  0.312920  0.574420  1.0  0.0251
  C  C173  1  0.620000  0.250200  0.553160  1.0  -0.2264
  C  C174  1  0.753360  0.371320  0.550110  1.0  -0.1291
  C  C175  1  0.591730  0.242860  0.508660  1.0  0.0111
  C  C176  1  0.724910  0.364620  0.505680  1.0  -0.0251
  C  C177  1  0.644420  0.302240  0.485040  1.0  -0.1858
  C  C178  1  0.613650  0.301500  0.437040  1.0  0.795
  C  C179  1  0.856620  0.265440  0.849020  1.0  0.7466
  C  C180  1  0.957350  0.264900  0.848390  1.0  -0.1653
  C  C181  1  0.968140  0.195680  0.846600  1.0  -0.0171
  C  C182  1  0.039470  0.333140  0.850520  1.0  -0.032
  C  C183  1  0.055820  0.191040  0.846400  1.0  -0.1382
  C  C184  1  0.128450  0.328300  0.850410  1.0  -0.1006
  C  C185  1  0.140000  0.260000  0.849580  1.0  0.0368
  C  C186  1  0.243680  0.269360  0.851430  1.0  0.0306
  C  C187  1  0.279330  0.213660  0.850600  1.0  -0.1106
  C  C188  1  0.307140  0.346280  0.853830  1.0  -0.1446
  C  C189  1  0.380230  0.236260  0.852300  1.0  -0.0239
  C  C190  1  0.407040  0.369080  0.855960  1.0  0.0218
  C  C191  1  0.444130  0.313060  0.854410  1.0  -0.1574
  C  C192  1  0.551860  0.332920  0.853380  1.0  0.7549
  C  C193  1  0.758990  0.552780  0.840490  1.0  0.6997
  C  C194  1  0.735200  0.620200  0.833220  1.0  -0.1644
  C  C195  1  0.731030  0.670860  0.869640  1.0  0.02
  C  C196  1  0.716560  0.631120  0.790140  1.0  -0.0363
  C  C197  1  0.709600  0.732800  0.861360  1.0  -0.2433
  C  C198  1  0.695290  0.693380  0.782470  1.0  -0.116
  C  C199  1  0.692310  0.745020  0.818430  1.0  0.0621
  C  C200  1  0.674410  0.816220  0.818420  1.0  0.0575
  C  C201  1  0.679200  0.856000  0.860850  1.0  -0.1938
  C  C202  1  0.655090  0.846180  0.781850  1.0  -0.072
  C  C203  1  0.665400  0.923400  0.868700  1.0  0.005
  C  C204  1  0.640580  0.913560  0.788630  1.0  -0.0258
  C  C205  1  0.646640  0.953080  0.831810  1.0  -0.1517
  C  C206  1  0.632220  0.027440  0.838090  1.0  0.7048
  C  C207  1  0.580890  0.281780  0.261200  1.0  0.7393
  C  C208  1  0.584980  0.289760  0.212130  1.0  -0.1712
  C  C209  1  0.595500  0.233200  0.180730  1.0  0.0141
  C  C210  1  0.580240  0.354880  0.198370  1.0  -0.0369
  C  C211  1  0.602770  0.245740  0.136880  1.0  -0.1708
  C  C212  1  0.585400  0.365000  0.153780  1.0  -0.1251
  C  C213  1  0.598830  0.311060  0.122750  1.0  0.0456
  C  C214  1  0.614460  0.312920  0.074420  1.0  0.0244
  C  C215  1  0.630200  0.250200  0.053160  1.0  -0.2254
  C  C216  1  0.617960  0.371320  0.050110  1.0  -0.1287
  C  C217  1  0.651130  0.242860  0.008660  1.0  0.0104
  C  C218  1  0.639710  0.364620  0.005680  1.0  -0.025
  C  C219  1  0.657820  0.302240  0.985040  1.0  -0.1857
  C  C220  1  0.687850  0.301500  0.937040  1.0  0.7889
  C  C221  1  0.408820  0.265440  0.349020  1.0  0.747
  C  C222  1  0.307550  0.264900  0.348390  1.0  -0.1649
  C  C223  1  0.227540  0.195680  0.346600  1.0  -0.0172
  C  C224  1  0.293670  0.333140  0.350520  1.0  -0.0319
  C  C225  1  0.135220  0.191040  0.346400  1.0  -0.1379
  C  C226  1  0.199850  0.328300  0.350410  1.0  -0.1009
  C  C227  1  0.120000  0.260000  0.349580  1.0  0.0373
  C  C228  1  0.025680  0.269360  0.351430  1.0  0.0288
  C  C229  1  0.934330  0.213660  0.350600  1.0  -0.1091
  C  C230  1  0.039140  0.346280  0.353830  1.0  -0.144
  C  C231  1  0.856030  0.236260  0.352300  1.0  -0.0229
  C  C232  1  0.962040  0.369080  0.355960  1.0  0.0213
  C  C233  1  0.868930  0.313060  0.354410  1.0  -0.1579
  C  C234  1  0.781060  0.332920  0.353380  1.0  0.7245
  C  C235  1  0.793790  0.552780  0.340490  1.0  0.7006
  C  C236  1  0.885000  0.620200  0.333220  1.0  -0.1664
  C  C237  1  0.939830  0.670860  0.369640  1.0  0.0207
  C  C238  1  0.914560  0.631120  0.290140  1.0  -0.0359
  C  C239  1  0.023200  0.732800  0.361360  1.0  -0.2448
  C  C240  1  0.998090  0.693380  0.282470  1.0  -0.1162
  C  C241  1  0.052710  0.745020  0.318430  1.0  0.0609
  C  C242  1  0.141810  0.816220  0.318420  1.0  0.057
  C  C243  1  0.176800  0.856000  0.360850  1.0  -0.1925
  C  C244  1  0.191090  0.846180  0.281850  1.0  -0.0722
  C  C245  1  0.258000  0.923400  0.368700  1.0  0.005
  C  C246  1  0.272980  0.913560  0.288630  1.0  -0.0255
  C  C247  1  0.306440  0.953080  0.331810  1.0  -0.1519
  C  C248  1  0.395220  0.027440  0.338090  1.0  0.7046
  S  S249  1  0.373650  0.812900  0.908460  1.0  1.1471
  S  S250  1  0.837440  0.594180  0.648740  1.0  1.1515
  S  S251  1  0.897080  0.193360  0.597950  1.0  1.163
  S  S252  1  0.439250  0.812900  0.408460  1.0  1.1472
  S  S253  1  0.756740  0.594180  0.148740  1.0  1.1518
  S  S254  1  0.296280  0.193360  0.097950  1.0  1.1629
  S  S255  1  0.560750  0.187100  0.591540  1.0  1.1474
  S  S256  1  0.243260  0.405820  0.851260  1.0  1.1504
  S  S257  1  0.703720  0.806640  0.902050  1.0  1.1608
  S  S258  1  0.626350  0.187100  0.091540  1.0  1.1474
  S  S259  1  0.162560  0.405820  0.351260  1.0  1.1508
  S  S260  1  0.102920  0.806640  0.402050  1.0  1.1604
  O  O261  1  0.438580  0.783760  0.728340  1.0  -0.6974
  O  O262  1  0.400290  0.657780  0.712400  1.0  -0.713
  O  O263  1  0.454340  0.886480  0.919050  1.0  -0.5778
  O  O264  1  0.279110  0.813820  0.901830  1.0  -0.5163
  O  O265  1  0.321270  0.762540  0.084090  1.0  -0.734
  O  O266  1  0.282820  0.635840  0.077320  1.0  -0.7351
  O  O267  1  0.582860  0.797140  0.662080  1.0  -0.6512
  O  O268  1  0.522750  0.671180  0.639230  1.0  -0.7658
  O  O269  1  0.821310  0.563820  0.691130  1.0  -0.6005
  O  O270  1  0.800580  0.540760  0.608930  1.0  -0.5309
  O  O271  1  0.301590  0.720940  0.650090  1.0  -0.8174
  O  O272  1  0.205560  0.597600  0.643730  1.0  -0.6857
  O  O273  1  0.232610  0.454420  0.620390  1.0  -0.6912
  O  O274  1  0.251110  0.495820  0.692620  1.0  -0.6472
  O  O275  1  0.946000  0.148800  0.575550  1.0  -0.5231
  O  O276  1  0.845390  0.222180  0.570250  1.0  -0.5239
  O  O277  1  0.580320  0.933440  0.623800  1.0  -0.6327
  O  O278  1  0.558420  0.951240  0.695700  1.0  -0.6651
  O  O279  1  0.345180  0.783760  0.228340  1.0  -0.6957
  O  O280  1  0.257490  0.657780  0.212400  1.0  -0.712
  O  O281  1  0.432140  0.886480  0.419050  1.0  -0.5769
  O  O282  1  0.534710  0.813820  0.401830  1.0  -0.5185
  O  O283  1  0.441270  0.762540  0.584090  1.0  -0.7359
  O  O284  1  0.353020  0.635840  0.577320  1.0  -0.7354
  O  O285  1  0.214280  0.797140  0.162080  1.0  -0.6514
  O  O286  1  0.148430  0.671180  0.139230  1.0  -0.767
  O  O287  1  0.742510  0.563820  0.191130  1.0  -0.6005
  O  O288  1  0.740180  0.540760  0.108930  1.0  -0.5303
  O  O289  1  0.419350  0.720940  0.150090  1.0  -0.8167
  O  O290  1  0.392040  0.597600  0.143730  1.0  -0.6848
  O  O291  1  0.221810  0.454420  0.120390  1.0  -0.6901
  O  O292  1  0.244710  0.495820  0.192620  1.0  -0.6468
  O  O293  1  0.202800  0.148800  0.075550  1.0  -0.5201
  O  O294  1  0.376790  0.222180  0.070250  1.0  -0.5251
  O  O295  1  0.353120  0.933440  0.123800  1.0  -0.6327
  O  O296  1  0.392820  0.951240  0.195700  1.0  -0.6662
  O  O297  1  0.654820  0.216240  0.771660  1.0  -0.6961
  O  O298  1  0.742510  0.342220  0.787600  1.0  -0.7136
  O  O299  1  0.567860  0.113520  0.580950  1.0  -0.5756
  O  O300  1  0.465290  0.186180  0.598170  1.0  -0.5161
  O  O301  1  0.558730  0.237460  0.415910  1.0  -0.7329
  O  O302  1  0.646980  0.364160  0.422680  1.0  -0.7353
  O  O303  1  0.785720  0.202860  0.837920  1.0  -0.6507
  O  O304  1  0.851570  0.328820  0.860770  1.0  -0.7664
  O  O305  1  0.257490  0.436180  0.808870  1.0  -0.6014
  O  O306  1  0.259820  0.459240  0.891070  1.0  -0.5293
  O  O307  1  0.580650  0.279060  0.849910  1.0  -0.8166
  O  O308  1  0.607960  0.402400  0.856270  1.0  -0.6859
  O  O309  1  0.778190  0.545580  0.879610  1.0  -0.6895
  O  O310  1  0.755290  0.504180  0.807380  1.0  -0.6477
  O  O311  1  0.797200  0.851200  0.924450  1.0  -0.5214
  O  O312  1  0.623210  0.777820  0.929750  1.0  -0.5253
  O  O313  1  0.646880  0.066560  0.876200  1.0  -0.6322
  O  O314  1  0.607180  0.048760  0.804300  1.0  -0.6682
  O  O315  1  0.561420  0.216240  0.271660  1.0  -0.6968
  O  O316  1  0.599710  0.342220  0.287600  1.0  -0.7121
  O  O317  1  0.545660  0.113520  0.080950  1.0  -0.5753
  O  O318  1  0.720890  0.186180  0.098170  1.0  -0.5197
  O  O319  1  0.678730  0.237460  0.915910  1.0  -0.7356
  O  O320  1  0.717180  0.364160  0.922680  1.0  -0.7349
  O  O321  1  0.417140  0.202860  0.337920  1.0  -0.6509
  O  O322  1  0.477250  0.328820  0.360770  1.0  -0.7678
  O  O323  1  0.178690  0.436180  0.308870  1.0  -0.6014
  O  O324  1  0.199420  0.459240  0.391070  1.0  -0.5278
  O  O325  1  0.698410  0.279060  0.349910  1.0  -0.8164
  O  O326  1  0.794440  0.402400  0.356270  1.0  -0.6844
  O  O327  1  0.767390  0.545580  0.379610  1.0  -0.6892
  O  O328  1  0.748890  0.504180  0.307380  1.0  -0.647
  O  O329  1  0.054000  0.851200  0.424450  1.0  -0.5169
  O  O330  1  0.154610  0.777820  0.429750  1.0  -0.5251
  O  O331  1  0.419680  0.066560  0.376200  1.0  -0.6307
  O  O332  1  0.441580  0.048760  0.304300  1.0  -0.6694
