# generated using pymatgen
data_Gd2H18C42(SO6)3
_symmetry_space_group_name_H-M   'P 1'
_cell_length_a   14.89870000
_cell_length_b   19.02030000
_cell_length_c   30.08460000
_cell_angle_alpha   97.33240000
_cell_angle_beta   90.00000000
_cell_angle_gamma   113.05700000
_symmetry_Int_Tables_number   1
_chemical_formula_structural   Gd2H18C42(SO6)3
_chemical_formula_sum   'Gd8 H72 C168 S12 O72'
_cell_volume   7768.44210491
_cell_formula_units_Z   4
loop_
 _symmetry_equiv_pos_site_id
 _symmetry_equiv_pos_as_xyz
  1  'x, y, z'
loop_
 _atom_site_type_symbol
 _atom_site_label
 _atom_site_symmetry_multiplicity
 _atom_site_fract_x
 _atom_site_fract_y
 _atom_site_fract_z
 _atom_site_occupancy
 _atom_site_charge
  Gd  Gd1  1  0.362080  0.582710  0.643360  1.0  2.1695
  Gd  Gd2  1  0.446180  0.828320  0.656880  1.0  2.2024
  Gd  Gd3  1  0.220630  0.582710  0.143360  1.0  2.169
  Gd  Gd4  1  0.382140  0.828320  0.156880  1.0  2.2013
  Gd  Gd5  1  0.779370  0.417290  0.856640  1.0  2.1693
  Gd  Gd6  1  0.617850  0.171660  0.843120  1.0  2.2004
  Gd  Gd7  1  0.637920  0.417290  0.356640  1.0  2.168
  Gd  Gd8  1  0.553810  0.171660  0.343120  1.0  2.1984
  H  H9  1  0.404000  0.812600  0.810300  1.0  0.1335
  H  H10  1  0.426200  0.607800  0.781200  1.0  0.11
  H  H11  1  0.420400  0.592400  0.856000  1.0  0.1145
  H  H12  1  0.396500  0.587800  0.938000  1.0  0.1267
  H  H13  1  0.341100  0.800800  0.004900  1.0  0.1271
  H  H14  1  0.357200  0.597200  0.011700  1.0  0.1058
  H  H15  1  0.762100  0.850000  0.654700  1.0  0.1082
  H  H16  1  0.653500  0.620600  0.648300  1.0  0.1299
  H  H17  1  0.918400  0.855000  0.651500  1.0  0.1359
  H  H18  1  0.076400  0.837000  0.647400  1.0  0.1275
  H  H19  1  0.206500  0.802000  0.646100  1.0  0.1115
  H  H20  1  0.028500  0.579200  0.641400  1.0  0.1254
  H  H21  1  0.080100  0.335600  0.601800  1.0  0.1265
  H  H22  1  0.121400  0.404000  0.734200  1.0  0.1073
  H  H23  1  0.982000  0.298800  0.747000  1.0  0.1192
  H  H24  1  0.829300  0.178400  0.747400  1.0  0.1265
  H  H25  1  0.723400  0.051200  0.602200  1.0  0.1213
  H  H26  1  0.691500  0.065600  0.735500  1.0  0.0953
  H  H27  1  0.408600  0.812600  0.310300  1.0  0.1336
  H  H28  1  0.181600  0.607800  0.281200  1.0  0.1099
  H  H29  1  0.172000  0.592400  0.356000  1.0  0.1143
  H  H30  1  0.191300  0.587800  0.438000  1.0  0.1266
  H  H31  1  0.459700  0.800800  0.504900  1.0  0.1266
  H  H32  1  0.240000  0.597200  0.511700  1.0  0.106
  H  H33  1  0.087900  0.850000  0.154700  1.0  0.1076
  H  H34  1  0.967100  0.620600  0.148300  1.0  0.1299
  H  H35  1  0.936600  0.855000  0.151500  1.0  0.1367
  H  H36  1  0.760600  0.837000  0.147400  1.0  0.1275
  H  H37  1  0.595500  0.802000  0.146100  1.0  0.1122
  H  H38  1  0.550700  0.579200  0.141400  1.0  0.1252
  H  H39  1  0.255500  0.335600  0.101800  1.0  0.1265
  H  H40  1  0.282600  0.404000  0.234200  1.0  0.1071
  H  H41  1  0.316800  0.298800  0.247000  1.0  0.1194
  H  H42  1  0.349100  0.178400  0.247400  1.0  0.1265
  H  H43  1  0.327800  0.051200  0.102200  1.0  0.1212
  H  H44  1  0.374100  0.065600  0.235500  1.0  0.0955
  H  H45  1  0.591400  0.187400  0.689700  1.0  0.133
  H  H46  1  0.818400  0.392200  0.718800  1.0  0.1101
  H  H47  1  0.828000  0.407600  0.644000  1.0  0.1146
  H  H48  1  0.808700  0.412200  0.562000  1.0  0.127
  H  H49  1  0.540300  0.199200  0.495100  1.0  0.1269
  H  H50  1  0.760000  0.402800  0.488300  1.0  0.1066
  H  H51  1  0.912100  0.150000  0.845300  1.0  0.1079
  H  H52  1  0.032900  0.379400  0.851700  1.0  0.1305
  H  H53  1  0.063400  0.145000  0.848500  1.0  0.1352
  H  H54  1  0.239400  0.163000  0.852600  1.0  0.1277
  H  H55  1  0.404500  0.198000  0.853900  1.0  0.1114
  H  H56  1  0.449300  0.420800  0.858600  1.0  0.1255
  H  H57  1  0.744500  0.664400  0.898200  1.0  0.126
  H  H58  1  0.717400  0.596000  0.765800  1.0  0.1074
  H  H59  1  0.683200  0.701200  0.753000  1.0  0.1188
  H  H60  1  0.650900  0.821600  0.752600  1.0  0.1269
  H  H61  1  0.672200  0.948800  0.897800  1.0  0.1211
  H  H62  1  0.625900  0.934400  0.764500  1.0  0.0953
  H  H63  1  0.596000  0.187400  0.189700  1.0  0.133
  H  H64  1  0.573800  0.392200  0.218800  1.0  0.1103
  H  H65  1  0.579600  0.407600  0.144000  1.0  0.1145
  H  H66  1  0.603500  0.412200  0.062000  1.0  0.127
  H  H67  1  0.658900  0.199200  0.995100  1.0  0.127
  H  H68  1  0.642800  0.402800  0.988300  1.0  0.1065
  H  H69  1  0.237900  0.150000  0.345300  1.0  0.1077
  H  H70  1  0.346500  0.379400  0.351700  1.0  0.13
  H  H71  1  0.081600  0.145000  0.348500  1.0  0.1351
  H  H72  1  0.923600  0.163000  0.352600  1.0  0.1279
  H  H73  1  0.793500  0.198000  0.353900  1.0  0.1111
  H  H74  1  0.971500  0.420800  0.358600  1.0  0.1255
  H  H75  1  0.919900  0.664400  0.398200  1.0  0.1264
  H  H76  1  0.878600  0.596000  0.265800  1.0  0.1069
  H  H77  1  0.018000  0.701200  0.253000  1.0  0.119
  H  H78  1  0.170700  0.821600  0.252600  1.0  0.127
  H  H79  1  0.276600  0.948800  0.397800  1.0  0.1216
  H  H80  1  0.308500  0.934400  0.264500  1.0  0.0953
  C  C81  1  0.418320  0.718840  0.738620  1.0  0.7357
  C  C82  1  0.415400  0.710600  0.787820  1.0  -0.175
  C  C83  1  0.405510  0.767820  0.819050  1.0  0.0176
  C  C84  1  0.419930  0.645660  0.802200  1.0  -0.0224
  C  C85  1  0.398100  0.755200  0.863670  1.0  -0.2131
  C  C86  1  0.415410  0.635820  0.847060  1.0  -0.1376
  C  C87  1  0.403440  0.690280  0.878230  1.0  0.0433
  C  C88  1  0.387440  0.687280  0.926290  1.0  0.0369
  C  C89  1  0.371390  0.750380  0.947230  1.0  -0.2299
  C  C90  1  0.383630  0.629660  0.950930  1.0  -0.1553
  C  C91  1  0.349950  0.757300  0.991410  1.0  0.0124
  C  C92  1  0.360500  0.636000  0.995010  1.0  -0.0345
  C  C93  1  0.342000  0.698000  0.015480  1.0  -0.1895
  C  C94  1  0.312790  0.699380  0.063320  1.0  0.8175
  C  C95  1  0.591000  0.734600  0.651360  1.0  0.7344
  C  C96  1  0.692580  0.735760  0.651290  1.0  -0.1501
  C  C97  1  0.772000  0.804400  0.652700  1.0  -0.0293
  C  C98  1  0.706310  0.667820  0.649280  1.0  -0.0019
  C  C99  1  0.865620  0.808040  0.651300  1.0  -0.1583
  C  C100  1  0.799860  0.672120  0.648710  1.0  -0.0868
  C  C101  1  0.879560  0.740120  0.649400  1.0  0.0002
  C  C102  1  0.974150  0.730500  0.646790  1.0  0.036
  C  C103  1  0.066290  0.785380  0.646800  1.0  -0.1267
  C  C104  1  0.961450  0.654100  0.645390  1.0  -0.1604
  C  C105  1  0.143680  0.764160  0.646000  1.0  -0.0149
  C  C106  1  0.038860  0.631120  0.643560  1.0  0.021
  C  C107  1  0.131540  0.687680  0.645060  1.0  -0.166
  C  C108  1  0.219830  0.667460  0.646450  1.0  0.7566
  C  C109  1  0.206180  0.448160  0.660380  1.0  0.6866
  C  C110  1  0.115300  0.380000  0.667320  1.0  -0.1666
  C  C111  1  0.061130  0.328660  0.630950  1.0  0.0188
  C  C112  1  0.084940  0.368680  0.709990  1.0  -0.0291
  C  C113  1  0.979020  0.267440  0.638910  1.0  -0.1868
  C  C114  1  0.001340  0.305880  0.717930  1.0  -0.139
  C  C115  1  0.947820  0.254440  0.681530  1.0  0.0502
  C  C116  1  0.858720  0.183240  0.681600  1.0  0.0565
  C  C117  1  0.823990  0.143580  0.638880  1.0  -0.155
  C  C118  1  0.808100  0.153200  0.718450  1.0  -0.1362
  C  C119  1  0.744010  0.076420  0.631270  1.0  0.0049
  C  C120  1  0.726080  0.085560  0.711090  1.0  -0.0189
  C  C121  1  0.693530  0.046060  0.667950  1.0  -0.1762
  C  C122  1  0.605350  0.972300  0.661730  1.0  0.6947
  C  C123  1  0.300520  0.718840  0.238620  1.0  0.7341
  C  C124  1  0.295200  0.710600  0.287820  1.0  -0.1746
  C  C125  1  0.362310  0.767820  0.319050  1.0  0.0188
  C  C126  1  0.225730  0.645660  0.302200  1.0  -0.0226
  C  C127  1  0.357100  0.755200  0.363670  1.0  -0.2138
  C  C128  1  0.220410  0.635820  0.347060  1.0  -0.1371
  C  C129  1  0.286840  0.690280  0.378230  1.0  0.0439
  C  C130  1  0.299840  0.687280  0.426290  1.0  0.0363
  C  C131  1  0.378990  0.750380  0.447230  1.0  -0.2296
  C  C132  1  0.246030  0.629660  0.450930  1.0  -0.1546
  C  C133  1  0.407350  0.757300  0.491410  1.0  0.0121
  C  C134  1  0.275500  0.636000  0.495010  1.0  -0.0344
  C  C135  1  0.356000  0.698000  0.515480  1.0  -0.1905
  C  C136  1  0.386590  0.699380  0.563320  1.0  0.7976
  C  C137  1  0.143600  0.734600  0.151360  1.0  0.7343
  C  C138  1  0.043180  0.735760  0.151290  1.0  -0.1494
  C  C139  1  0.032400  0.804400  0.152700  1.0  -0.0293
  C  C140  1  0.961510  0.667820  0.149280  1.0  -0.0021
  C  C141  1  0.942420  0.808040  0.151300  1.0  -0.1595
  C  C142  1  0.872260  0.672120  0.148710  1.0  -0.0866
  C  C143  1  0.860560  0.740120  0.149400  1.0  -0.0002
  C  C144  1  0.756350  0.730500  0.146790  1.0  0.0355
  C  C145  1  0.719090  0.785380  0.146800  1.0  -0.126
  C  C146  1  0.692650  0.654100  0.145390  1.0  -0.159
  C  C147  1  0.620480  0.764160  0.146000  1.0  -0.0152
  C  C148  1  0.592260  0.631120  0.143560  1.0  0.0204
  C  C149  1  0.556140  0.687680  0.145060  1.0  -0.1667
  C  C150  1  0.447630  0.667460  0.146450  1.0  0.7383
  C  C151  1  0.241980  0.448160  0.160380  1.0  0.6879
  C  C152  1  0.264700  0.380000  0.167320  1.0  -0.1665
  C  C153  1  0.267530  0.328660  0.130950  1.0  0.0189
  C  C154  1  0.283740  0.368680  0.209990  1.0  -0.0292
  C  C155  1  0.288420  0.267440  0.138910  1.0  -0.1867
  C  C156  1  0.304540  0.305880  0.217930  1.0  -0.1383
  C  C157  1  0.306620  0.254440  0.181530  1.0  0.05
  C  C158  1  0.324520  0.183240  0.181600  1.0  0.0553
  C  C159  1  0.319590  0.143580  0.138880  1.0  -0.1531
  C  C160  1  0.345100  0.153200  0.218450  1.0  -0.1356
  C  C161  1  0.332410  0.076420  0.131270  1.0  0.0054
  C  C162  1  0.359480  0.085560  0.211090  1.0  -0.0188
  C  C163  1  0.352530  0.046060  0.167950  1.0  -0.1762
  C  C164  1  0.366950  0.972300  0.161730  1.0  0.6937
  C  C165  1  0.699480  0.281160  0.761380  1.0  0.7361
  C  C166  1  0.704800  0.289400  0.712180  1.0  -0.1761
  C  C167  1  0.637690  0.232180  0.680950  1.0  0.018
  C  C168  1  0.774270  0.354340  0.697800  1.0  -0.0219
  C  C169  1  0.642900  0.244800  0.636330  1.0  -0.2127
  C  C170  1  0.779590  0.364180  0.652940  1.0  -0.1381
  C  C171  1  0.713160  0.309720  0.621770  1.0  0.0434
  C  C172  1  0.700160  0.312720  0.573710  1.0  0.0376
  C  C173  1  0.621010  0.249620  0.552770  1.0  -0.2285
  C  C174  1  0.753970  0.370340  0.549070  1.0  -0.1557
  C  C175  1  0.592650  0.242700  0.508590  1.0  0.0124
  C  C176  1  0.724500  0.364000  0.504990  1.0  -0.0346
  C  C177  1  0.644000  0.302000  0.484520  1.0  -0.1893
  C  C178  1  0.613410  0.300620  0.436680  1.0  0.8166
  C  C179  1  0.856400  0.265400  0.848640  1.0  0.7332
  C  C180  1  0.956820  0.264240  0.848710  1.0  -0.1491
  C  C181  1  0.967600  0.195600  0.847300  1.0  -0.0289
  C  C182  1  0.038490  0.332180  0.850720  1.0  -0.0033
  C  C183  1  0.057580  0.191960  0.848700  1.0  -0.1582
  C  C184  1  0.127740  0.327880  0.851290  1.0  -0.0862
  C  C185  1  0.139440  0.259880  0.850600  1.0  -0.0002
  C  C186  1  0.243650  0.269500  0.853210  1.0  0.0357
  C  C187  1  0.280910  0.214620  0.853200  1.0  -0.1267
  C  C188  1  0.307350  0.345900  0.854610  1.0  -0.1618
  C  C189  1  0.379520  0.235840  0.854000  1.0  -0.0145
  C  C190  1  0.407740  0.368880  0.856440  1.0  0.0196
  C  C191  1  0.443860  0.312320  0.854940  1.0  -0.1659
  C  C192  1  0.552370  0.332540  0.853550  1.0  0.7562
  C  C193  1  0.758020  0.551840  0.839620  1.0  0.6862
  C  C194  1  0.735300  0.620000  0.832680  1.0  -0.1668
  C  C195  1  0.732470  0.671340  0.869050  1.0  0.0188
  C  C196  1  0.716260  0.631320  0.790010  1.0  -0.0294
  C  C197  1  0.711580  0.732560  0.861090  1.0  -0.1862
  C  C198  1  0.695460  0.694120  0.782070  1.0  -0.1371
  C  C199  1  0.693380  0.745560  0.818470  1.0  0.0509
  C  C200  1  0.675480  0.816760  0.818400  1.0  0.0574
  C  C201  1  0.680410  0.856420  0.861120  1.0  -0.1576
  C  C202  1  0.654900  0.846800  0.781550  1.0  -0.1348
  C  C203  1  0.667590  0.923580  0.868730  1.0  0.0051
  C  C204  1  0.640520  0.914440  0.788910  1.0  -0.0182
  C  C205  1  0.647470  0.953940  0.832050  1.0  -0.1743
  C  C206  1  0.633050  0.027700  0.838270  1.0  0.6938
  C  C207  1  0.581680  0.281160  0.261380  1.0  0.7355
  C  C208  1  0.584600  0.289400  0.212180  1.0  -0.1766
  C  C209  1  0.594490  0.232180  0.180950  1.0  0.0183
  C  C210  1  0.580070  0.354340  0.197800  1.0  -0.0222
  C  C211  1  0.601900  0.244800  0.136330  1.0  -0.2135
  C  C212  1  0.584590  0.364180  0.152940  1.0  -0.138
  C  C213  1  0.596560  0.309720  0.121770  1.0  0.0433
  C  C214  1  0.612560  0.312720  0.073710  1.0  0.0367
  C  C215  1  0.628610  0.249620  0.052770  1.0  -0.228
  C  C216  1  0.616370  0.370340  0.049070  1.0  -0.1553
  C  C217  1  0.650050  0.242700  0.008590  1.0  0.0111
  C  C218  1  0.639500  0.364000  0.004990  1.0  -0.0348
  C  C219  1  0.658000  0.302000  0.984520  1.0  -0.1895
  C  C220  1  0.687210  0.300620  0.936680  1.0  0.7961
  C  C221  1  0.409000  0.265400  0.348640  1.0  0.7345
  C  C222  1  0.307420  0.264240  0.348710  1.0  -0.1487
  C  C223  1  0.228000  0.195600  0.347300  1.0  -0.0289
  C  C224  1  0.293690  0.332180  0.350720  1.0  -0.0024
  C  C225  1  0.134380  0.191960  0.348700  1.0  -0.1589
  C  C226  1  0.200140  0.327880  0.351290  1.0  -0.0859
  C  C227  1  0.120440  0.259880  0.350600  1.0  -0.0004
  C  C228  1  0.025850  0.269500  0.353210  1.0  0.0354
  C  C229  1  0.933710  0.214620  0.353200  1.0  -0.1254
  C  C230  1  0.038550  0.345900  0.354610  1.0  -0.1604
  C  C231  1  0.856320  0.235840  0.354000  1.0  -0.014
  C  C232  1  0.961140  0.368880  0.356440  1.0  0.0191
  C  C233  1  0.868460  0.312320  0.354940  1.0  -0.1668
  C  C234  1  0.780170  0.332540  0.353550  1.0  0.7379
  C  C235  1  0.793820  0.551840  0.339620  1.0  0.6875
  C  C236  1  0.884700  0.620000  0.332680  1.0  -0.1677
  C  C237  1  0.938870  0.671340  0.369050  1.0  0.0191
  C  C238  1  0.915060  0.631320  0.290010  1.0  -0.0293
  C  C239  1  0.020980  0.732560  0.361090  1.0  -0.1862
  C  C240  1  0.998660  0.694120  0.282070  1.0  -0.1371
  C  C241  1  0.052180  0.745560  0.318470  1.0  0.05
  C  C242  1  0.141280  0.816760  0.318400  1.0  0.0553
  C  C243  1  0.176010  0.856420  0.361120  1.0  -0.1549
  C  C244  1  0.191900  0.846800  0.281550  1.0  -0.1347
  C  C245  1  0.255990  0.923580  0.368730  1.0  0.0053
  C  C246  1  0.273920  0.914440  0.288910  1.0  -0.0187
  C  C247  1  0.306470  0.953940  0.332050  1.0  -0.1745
  C  C248  1  0.394650  0.027700  0.338270  1.0  0.6936
  S  S249  1  0.375410  0.813780  0.908430  1.0  1.1501
  S  S250  1  0.837530  0.594280  0.648090  1.0  1.1532
  S  S251  1  0.899850  0.193200  0.598000  1.0  1.1492
  S  S252  1  0.438370  0.813780  0.408430  1.0  1.1503
  S  S253  1  0.756750  0.594280  0.148090  1.0  1.1524
  S  S254  1  0.293350  0.193200  0.098000  1.0  1.1484
  S  S255  1  0.561630  0.186220  0.591570  1.0  1.1511
  S  S256  1  0.243250  0.405720  0.851910  1.0  1.1514
  S  S257  1  0.706650  0.806800  0.902000  1.0  1.147
  S  S258  1  0.624590  0.186220  0.091570  1.0  1.151
  S  S259  1  0.162470  0.405720  0.351910  1.0  1.1527
  S  S260  1  0.100150  0.806800  0.402000  1.0  1.1463
  O  O261  1  0.438460  0.783920  0.728040  1.0  -0.6918
  O  O262  1  0.398780  0.657360  0.712640  1.0  -0.6874
  O  O263  1  0.456370  0.886940  0.918860  1.0  -0.5477
  O  O264  1  0.281340  0.815480  0.901600  1.0  -0.5076
  O  O265  1  0.320730  0.763460  0.084360  1.0  -0.7353
  O  O266  1  0.282830  0.636660  0.078250  1.0  -0.7476
  O  O267  1  0.583160  0.797520  0.662210  1.0  -0.6526
  O  O268  1  0.522420  0.671240  0.640070  1.0  -0.7936
  O  O269  1  0.822240  0.564080  0.690610  1.0  -0.5995
  O  O270  1  0.800600  0.540800  0.608090  1.0  -0.5285
  O  O271  1  0.301880  0.722200  0.650120  1.0  -0.8157
  O  O272  1  0.206730  0.598460  0.644280  1.0  -0.6232
  O  O273  1  0.233830  0.455060  0.620650  1.0  -0.6448
  O  O274  1  0.251480  0.495960  0.693360  1.0  -0.6688
  O  O275  1  0.948840  0.148280  0.576400  1.0  -0.5336
  O  O276  1  0.848320  0.222840  0.570120  1.0  -0.5576
  O  O277  1  0.581460  0.932720  0.623590  1.0  -0.6141
  O  O278  1  0.557520  0.950440  0.695420  1.0  -0.668
  O  O279  1  0.345460  0.783920  0.228040  1.0  -0.6894
  O  O280  1  0.258580  0.657360  0.212640  1.0  -0.6865
  O  O281  1  0.430570  0.886940  0.418860  1.0  -0.5471
  O  O282  1  0.534140  0.815480  0.401600  1.0  -0.5108
  O  O283  1  0.442730  0.763460  0.584360  1.0  -0.7374
  O  O284  1  0.353830  0.636660  0.578250  1.0  -0.7475
  O  O285  1  0.214360  0.797520  0.162210  1.0  -0.6529
  O  O286  1  0.148820  0.671240  0.140070  1.0  -0.7945
  O  O287  1  0.741840  0.564080  0.190610  1.0  -0.5994
  O  O288  1  0.740200  0.540800  0.108090  1.0  -0.5281
  O  O289  1  0.420320  0.722200  0.150120  1.0  -0.8143
  O  O290  1  0.391730  0.598460  0.144280  1.0  -0.6228
  O  O291  1  0.221230  0.455060  0.120650  1.0  -0.6441
  O  O292  1  0.244480  0.495960  0.193360  1.0  -0.6681
  O  O293  1  0.199440  0.148280  0.076400  1.0  -0.5317
  O  O294  1  0.374520  0.222840  0.070120  1.0  -0.5599
  O  O295  1  0.351260  0.932720  0.123590  1.0  -0.6134
  O  O296  1  0.392920  0.950440  0.195420  1.0  -0.6695
  O  O297  1  0.654540  0.216080  0.771960  1.0  -0.6903
  O  O298  1  0.741420  0.342640  0.787360  1.0  -0.688
  O  O299  1  0.569430  0.113060  0.581140  1.0  -0.5461
  O  O300  1  0.465860  0.184520  0.598400  1.0  -0.5074
  O  O301  1  0.557270  0.236540  0.415640  1.0  -0.7346
  O  O302  1  0.646170  0.363340  0.421750  1.0  -0.7486
  O  O303  1  0.785640  0.202480  0.837790  1.0  -0.654
  O  O304  1  0.851180  0.328760  0.859930  1.0  -0.793
  O  O305  1  0.258160  0.435920  0.809390  1.0  -0.6
  O  O306  1  0.259800  0.459200  0.891910  1.0  -0.5262
  O  O307  1  0.579680  0.277800  0.849880  1.0  -0.8162
  O  O308  1  0.608270  0.401540  0.855720  1.0  -0.6236
  O  O309  1  0.778770  0.544940  0.879350  1.0  -0.6436
  O  O310  1  0.755520  0.504040  0.806640  1.0  -0.6692
  O  O311  1  0.800560  0.851720  0.923600  1.0  -0.5322
  O  O312  1  0.625480  0.777160  0.929880  1.0  -0.5583
  O  O313  1  0.648740  0.067280  0.876410  1.0  -0.6151
  O  O314  1  0.607080  0.049560  0.804580  1.0  -0.6713
  O  O315  1  0.561540  0.216080  0.271960  1.0  -0.6901
  O  O316  1  0.601220  0.342640  0.287360  1.0  -0.6868
  O  O317  1  0.543630  0.113060  0.081140  1.0  -0.5458
  O  O318  1  0.718660  0.184520  0.098400  1.0  -0.5119
  O  O319  1  0.679270  0.236540  0.915640  1.0  -0.7378
  O  O320  1  0.717170  0.363340  0.921750  1.0  -0.7482
  O  O321  1  0.416840  0.202480  0.337790  1.0  -0.6546
  O  O322  1  0.477580  0.328760  0.359930  1.0  -0.7947
  O  O323  1  0.177760  0.435920  0.309390  1.0  -0.6001
  O  O324  1  0.199400  0.459200  0.391910  1.0  -0.5252
  O  O325  1  0.698120  0.277800  0.349880  1.0  -0.8158
  O  O326  1  0.793270  0.401540  0.355720  1.0  -0.6228
  O  O327  1  0.766170  0.544940  0.379350  1.0  -0.6427
  O  O328  1  0.748520  0.504040  0.306640  1.0  -0.6682
  O  O329  1  0.051160  0.851720  0.423600  1.0  -0.5279
  O  O330  1  0.151680  0.777160  0.429880  1.0  -0.5593
  O  O331  1  0.418540  0.067280  0.376410  1.0  -0.6139
  O  O332  1  0.442480  0.049560  0.304580  1.0  -0.6723
