# generated using pymatgen
data_SmH24C44S4(NO3)4
_symmetry_space_group_name_H-M   'P 1'
_cell_length_a   15.36830000
_cell_length_b   15.36830000
_cell_length_c   9.89500000
_cell_angle_alpha   90.00000000
_cell_angle_beta   90.00000000
_cell_angle_gamma   90.00000000
_symmetry_Int_Tables_number   1
_chemical_formula_structural   SmH24C44S4(NO3)4
_chemical_formula_sum   'Sm2 H48 C88 S8 N8 O24'
_cell_volume   2337.04706119
_cell_formula_units_Z   2
loop_
 _symmetry_equiv_pos_site_id
 _symmetry_equiv_pos_as_xyz
  1  'x, y, z'
loop_
 _atom_site_type_symbol
 _atom_site_label
 _atom_site_symmetry_multiplicity
 _atom_site_fract_x
 _atom_site_fract_y
 _atom_site_fract_z
 _atom_site_occupancy
 _atom_site_charge
  Sm  Sm1  1  0.000000  0.000000  0.250000  1.0  2.3888
  Sm  Sm2  1  0.000000  0.000000  0.750000  1.0  2.3888
  H  H3  1  0.240300  0.912900  0.796400  1.0  0.1384
  H  H4  1  0.322600  0.787600  0.797800  1.0  0.1049
  H  H5  1  0.759700  0.087100  0.796400  1.0  0.1386
  H  H6  1  0.677400  0.212400  0.797800  1.0  0.1047
  H  H7  1  0.087100  0.240300  0.796400  1.0  0.1381
  H  H8  1  0.212400  0.322600  0.797800  1.0  0.1041
  H  H9  1  0.912900  0.759700  0.796400  1.0  0.1379
  H  H10  1  0.787600  0.677400  0.797800  1.0  0.104
  H  H11  1  0.759700  0.912900  0.703600  1.0  0.1383
  H  H12  1  0.677400  0.787600  0.702200  1.0  0.1043
  H  H13  1  0.240300  0.087100  0.703600  1.0  0.1381
  H  H14  1  0.322600  0.212400  0.702200  1.0  0.104
  H  H15  1  0.912900  0.240300  0.703600  1.0  0.1377
  H  H16  1  0.787600  0.322600  0.702200  1.0  0.1034
  H  H17  1  0.087100  0.759700  0.703600  1.0  0.1379
  H  H18  1  0.212400  0.677400  0.702200  1.0  0.1038
  H  H19  1  0.759700  0.087100  0.203600  1.0  0.1388
  H  H20  1  0.677400  0.212400  0.202200  1.0  0.1041
  H  H21  1  0.240300  0.912900  0.203600  1.0  0.138
  H  H22  1  0.322600  0.787600  0.202200  1.0  0.1042
  H  H23  1  0.912900  0.759700  0.203600  1.0  0.138
  H  H24  1  0.787600  0.677400  0.202200  1.0  0.1036
  H  H25  1  0.087100  0.240300  0.203600  1.0  0.1378
  H  H26  1  0.212400  0.322600  0.202200  1.0  0.1035
  H  H27  1  0.240300  0.087100  0.296400  1.0  0.1383
  H  H28  1  0.322600  0.212400  0.297800  1.0  0.1046
  H  H29  1  0.759700  0.912900  0.296400  1.0  0.1385
  H  H30  1  0.677400  0.787600  0.297800  1.0  0.105
  H  H31  1  0.087100  0.759700  0.296400  1.0  0.1379
  H  H32  1  0.212400  0.677400  0.297800  1.0  0.104
  H  H33  1  0.912900  0.240300  0.296400  1.0  0.1379
  H  H34  1  0.787600  0.322600  0.297800  1.0  0.1043
  H  H35  1  0.202300  0.653300  0.000000  1.0  0.1342
  H  H36  1  0.166900  0.497400  0.000000  1.0  0.127
  H  H37  1  0.797700  0.346700  0.000000  1.0  0.135
  H  H38  1  0.833100  0.502600  0.000000  1.0  0.1271
  H  H39  1  0.346700  0.202300  0.000000  1.0  0.1327
  H  H40  1  0.502600  0.166900  0.000000  1.0  0.1282
  H  H41  1  0.653300  0.797700  0.000000  1.0  0.1337
  H  H42  1  0.497400  0.833100  0.000000  1.0  0.1277
  H  H43  1  0.797700  0.653300  0.500000  1.0  0.1349
  H  H44  1  0.833100  0.497400  0.500000  1.0  0.127
  H  H45  1  0.202300  0.346700  0.500000  1.0  0.1338
  H  H46  1  0.166900  0.502600  0.500000  1.0  0.1268
  H  H47  1  0.653300  0.202300  0.500000  1.0  0.1338
  H  H48  1  0.497400  0.166900  0.500000  1.0  0.1282
  H  H49  1  0.346700  0.797700  0.500000  1.0  0.133
  H  H50  1  0.502600  0.833100  0.500000  1.0  0.1277
  C  C51  1  0.257410  0.887760  0.877700  1.0  -0.0621
  C  C52  1  0.306170  0.812870  0.879300  1.0  -0.0689
  C  C53  1  0.742590  0.112240  0.877700  1.0  -0.0617
  C  C54  1  0.693830  0.187130  0.879300  1.0  -0.0689
  C  C55  1  0.112240  0.257410  0.877700  1.0  -0.0638
  C  C56  1  0.187130  0.306170  0.879300  1.0  -0.07
  C  C57  1  0.887760  0.742590  0.877700  1.0  -0.0634
  C  C58  1  0.812870  0.693830  0.879300  1.0  -0.0694
  C  C59  1  0.742590  0.887760  0.622300  1.0  -0.0598
  C  C60  1  0.693830  0.812870  0.620700  1.0  -0.0672
  C  C61  1  0.257410  0.112240  0.622300  1.0  -0.0618
  C  C62  1  0.306170  0.187130  0.620700  1.0  -0.0676
  C  C63  1  0.887760  0.257410  0.622300  1.0  -0.0625
  C  C64  1  0.812870  0.306170  0.620700  1.0  -0.0672
  C  C65  1  0.112240  0.742590  0.622300  1.0  -0.0621
  C  C66  1  0.187130  0.693830  0.620700  1.0  -0.0682
  C  C67  1  0.742590  0.112240  0.122300  1.0  -0.0611
  C  C68  1  0.693830  0.187130  0.120700  1.0  -0.0698
  C  C69  1  0.257410  0.887760  0.122300  1.0  -0.0609
  C  C70  1  0.306170  0.812870  0.120700  1.0  -0.0697
  C  C71  1  0.887760  0.742590  0.122300  1.0  -0.0626
  C  C72  1  0.812870  0.693830  0.120700  1.0  -0.0707
  C  C73  1  0.112240  0.257410  0.122300  1.0  -0.0628
  C  C74  1  0.187130  0.306170  0.120700  1.0  -0.0698
  C  C75  1  0.257410  0.112240  0.377700  1.0  -0.0628
  C  C76  1  0.306170  0.187130  0.379300  1.0  -0.0714
  C  C77  1  0.742590  0.887760  0.377700  1.0  -0.061
  C  C78  1  0.693830  0.812870  0.379300  1.0  -0.0709
  C  C79  1  0.112240  0.742590  0.377700  1.0  -0.0634
  C  C80  1  0.187130  0.693830  0.379300  1.0  -0.0717
  C  C81  1  0.887760  0.257410  0.377700  1.0  -0.064
  C  C82  1  0.812870  0.306170  0.379300  1.0  -0.0717
  C  C83  1  0.234300  0.925000  0.000000  1.0  -0.2493
  C  C84  1  0.331600  0.773900  0.000000  1.0  0.0912
  C  C85  1  0.383200  0.690100  0.000000  1.0  -0.0437
  C  C86  1  0.335000  0.613600  0.000000  1.0  0.1742
  C  C87  1  0.241800  0.607400  0.000000  1.0  -0.1621
  C  C88  1  0.222600  0.521100  0.000000  1.0  -0.1405
  C  C89  1  0.301700  0.472700  0.000000  1.0  0.1599
  C  C90  1  0.765700  0.075000  0.000000  1.0  -0.2495
  C  C91  1  0.668400  0.226100  0.000000  1.0  0.09
  C  C92  1  0.616800  0.309900  0.000000  1.0  -0.043
  C  C93  1  0.665000  0.386400  0.000000  1.0  0.1752
  C  C94  1  0.758200  0.392600  0.000000  1.0  -0.1624
  C  C95  1  0.777400  0.478900  0.000000  1.0  -0.1415
  C  C96  1  0.698300  0.527300  0.000000  1.0  0.1606
  C  C97  1  0.075000  0.234300  0.000000  1.0  -0.2488
  C  C98  1  0.226100  0.331600  0.000000  1.0  0.0902
  C  C99  1  0.309900  0.383200  0.000000  1.0  -0.0433
  C  C100  1  0.386400  0.335000  0.000000  1.0  0.1749
  C  C101  1  0.392600  0.241800  0.000000  1.0  -0.1647
  C  C102  1  0.478900  0.222600  0.000000  1.0  -0.1429
  C  C103  1  0.527300  0.301700  0.000000  1.0  0.1607
  C  C104  1  0.925000  0.765700  0.000000  1.0  -0.2461
  C  C105  1  0.773900  0.668400  0.000000  1.0  0.0913
  C  C106  1  0.690100  0.616800  0.000000  1.0  -0.0449
  C  C107  1  0.613600  0.665000  0.000000  1.0  0.1751
  C  C108  1  0.607400  0.758200  0.000000  1.0  -0.1632
  C  C109  1  0.521100  0.777400  0.000000  1.0  -0.1426
  C  C110  1  0.472700  0.698300  0.000000  1.0  0.1593
  C  C111  1  0.765700  0.925000  0.500000  1.0  -0.2496
  C  C112  1  0.668400  0.773900  0.500000  1.0  0.0902
  C  C113  1  0.616800  0.690100  0.500000  1.0  -0.0451
  C  C114  1  0.665000  0.613600  0.500000  1.0  0.1744
  C  C115  1  0.758200  0.607400  0.500000  1.0  -0.162
  C  C116  1  0.777400  0.521100  0.500000  1.0  -0.1418
  C  C117  1  0.698300  0.472700  0.500000  1.0  0.1604
  C  C118  1  0.234300  0.075000  0.500000  1.0  -0.2489
  C  C119  1  0.331600  0.226100  0.500000  1.0  0.0911
  C  C120  1  0.383200  0.309900  0.500000  1.0  -0.0421
  C  C121  1  0.335000  0.386400  0.500000  1.0  0.1746
  C  C122  1  0.241800  0.392600  0.500000  1.0  -0.1622
  C  C123  1  0.222600  0.478900  0.500000  1.0  -0.1401
  C  C124  1  0.301700  0.527300  0.500000  1.0  0.1602
  C  C125  1  0.925000  0.234300  0.500000  1.0  -0.2473
  C  C126  1  0.773900  0.331600  0.500000  1.0  0.0912
  C  C127  1  0.690100  0.383200  0.500000  1.0  -0.0438
  C  C128  1  0.613600  0.335000  0.500000  1.0  0.1757
  C  C129  1  0.607400  0.241800  0.500000  1.0  -0.1635
  C  C130  1  0.521100  0.222600  0.500000  1.0  -0.1432
  C  C131  1  0.472700  0.301700  0.500000  1.0  0.1602
  C  C132  1  0.075000  0.765700  0.500000  1.0  -0.2487
  C  C133  1  0.226100  0.668400  0.500000  1.0  0.0905
  C  C134  1  0.309900  0.616800  0.500000  1.0  -0.0443
  C  C135  1  0.386400  0.665000  0.500000  1.0  0.1748
  C  C136  1  0.392600  0.758200  0.500000  1.0  -0.165
  C  C137  1  0.478900  0.777400  0.500000  1.0  -0.1417
  C  C138  1  0.527300  0.698300  0.500000  1.0  0.1603
  S  S139  1  0.180790  0.027780  0.000000  1.0  1.3993
  S  S140  1  0.819210  0.972220  0.000000  1.0  1.3996
  S  S141  1  0.972220  0.180790  0.000000  1.0  1.3991
  S  S142  1  0.027780  0.819210  0.000000  1.0  1.399
  S  S143  1  0.819210  0.027780  0.500000  1.0  1.3998
  S  S144  1  0.180790  0.972220  0.500000  1.0  1.3994
  S  S145  1  0.027780  0.180790  0.500000  1.0  1.3988
  S  S146  1  0.972220  0.819210  0.500000  1.0  1.3993
  N  N147  1  0.369600  0.531000  0.000000  1.0  -0.2574
  N  N148  1  0.630400  0.469000  0.000000  1.0  -0.2574
  N  N149  1  0.469000  0.369600  0.000000  1.0  -0.2503
  N  N150  1  0.531000  0.630400  0.000000  1.0  -0.2481
  N  N151  1  0.630400  0.531000  0.500000  1.0  -0.2575
  N  N152  1  0.369600  0.469000  0.500000  1.0  -0.2577
  N  N153  1  0.531000  0.369600  0.500000  1.0  -0.2499
  N  N154  1  0.469000  0.630400  0.500000  1.0  -0.248
  O  O155  1  0.128620  0.032130  0.121700  1.0  -0.7209
  O  O156  1  0.871380  0.967870  0.121700  1.0  -0.7202
  O  O157  1  0.967870  0.128620  0.121700  1.0  -0.7209
  O  O158  1  0.032130  0.871380  0.121700  1.0  -0.7214
  O  O159  1  0.871380  0.032130  0.378300  1.0  -0.7193
  O  O160  1  0.128620  0.967870  0.378300  1.0  -0.7197
  O  O161  1  0.032130  0.128620  0.378300  1.0  -0.7207
  O  O162  1  0.967870  0.871380  0.378300  1.0  -0.72
  O  O163  1  0.871380  0.967870  0.878300  1.0  -0.7194
  O  O164  1  0.128620  0.032130  0.878300  1.0  -0.7198
  O  O165  1  0.032130  0.871380  0.878300  1.0  -0.7203
  O  O166  1  0.967870  0.128620  0.878300  1.0  -0.7204
  O  O167  1  0.128620  0.967870  0.621700  1.0  -0.7209
  O  O168  1  0.871380  0.032130  0.621700  1.0  -0.7201
  O  O169  1  0.967870  0.871380  0.621700  1.0  -0.721
  O  O170  1  0.032130  0.128620  0.621700  1.0  -0.7213
  O  O171  1  0.248490  0.090520  0.000000  1.0  -0.611
  O  O172  1  0.751510  0.909480  0.000000  1.0  -0.6107
  O  O173  1  0.909480  0.248490  0.000000  1.0  -0.6164
  O  O174  1  0.090520  0.751510  0.000000  1.0  -0.6143
  O  O175  1  0.751510  0.090520  0.500000  1.0  -0.6106
  O  O176  1  0.248490  0.909480  0.500000  1.0  -0.6114
  O  O177  1  0.090520  0.248490  0.500000  1.0  -0.6172
  O  O178  1  0.909480  0.751510  0.500000  1.0  -0.6145
