# generated using pymatgen
data_GdH32C20(NO2)4
_symmetry_space_group_name_H-M   'P 1'
_cell_length_a   17.89700000
_cell_length_b   14.73100000
_cell_length_c   17.38100000
_cell_angle_alpha   90.00000000
_cell_angle_beta   116.61000000
_cell_angle_gamma   90.00000000
_symmetry_Int_Tables_number   1
_chemical_formula_structural   GdH32C20(NO2)4
_chemical_formula_sum   'Gd4 H128 C80 N16 O32'
_cell_volume   4096.95978000
_cell_formula_units_Z   4
loop_
 _symmetry_equiv_pos_site_id
 _symmetry_equiv_pos_as_xyz
  1  'x, y, z'
loop_
 _atom_site_type_symbol
 _atom_site_label
 _atom_site_symmetry_multiplicity
 _atom_site_fract_x
 _atom_site_fract_y
 _atom_site_fract_z
 _atom_site_occupancy
 _atom_site_charge
  Gd  Gd1  1  0.129370  0.993880  0.115750  1.0  2.1637
  Gd  Gd2  1  0.870630  0.493880  0.384250  1.0  2.1631
  Gd  Gd3  1  0.870630  0.006120  0.884250  1.0  2.1634
  Gd  Gd4  1  0.129370  0.506120  0.615750  1.0  2.1638
  H  H5  1  0.357700  0.141600  0.077300  1.0  0.0797
  H  H6  1  0.314200  0.206600  0.116400  1.0  0.07
  H  H7  1  0.403700  0.264300  0.269500  1.0  0.0558
  H  H8  1  0.422000  0.162300  0.297400  1.0  0.0618
  H  H9  1  0.526000  0.299400  0.370000  1.0  0.0579
  H  H10  1  0.551800  0.196800  0.379300  1.0  0.064
  H  H11  1  0.465600  0.256800  0.108600  1.0  0.0643
  H  H12  1  0.409200  0.317000  0.135900  1.0  0.0526
  H  H13  1  0.519800  0.374200  0.239300  1.0  0.0612
  H  H14  1  0.571800  0.337000  0.193700  1.0  0.0507
  H  H15  1  0.500300  0.073700  0.237800  1.0  0.0623
  H  H16  1  0.502300  0.104400  0.152400  1.0  0.0514
  H  H17  1  0.618800  0.175300  0.224600  1.0  0.0632
  H  H18  1  0.624900  0.128900  0.308400  1.0  0.0634
  H  H19  1  0.649700  0.354800  0.378700  1.0  0.0854
  H  H20  1  0.689500  0.257900  0.403800  1.0  0.0944
  H  H21  1  0.097800  0.277700  0.993200  1.0  0.0707
  H  H22  1  0.020900  0.304700  0.008600  1.0  0.0781
  H  H23  1  0.088100  0.398100  0.895500  1.0  0.0593
  H  H24  1  0.028900  0.436000  0.932500  1.0  0.0592
  H  H25  1  0.014700  0.484100  0.784400  1.0  0.0631
  H  H26  1  0.940800  0.493000  0.809100  1.0  0.0594
  H  H27  1  0.880600  0.258800  0.855600  1.0  0.062
  H  H28  1  0.891100  0.361100  0.883100  1.0  0.0674
  H  H29  1  0.821300  0.388500  0.745100  1.0  0.0572
  H  H30  1  0.838600  0.291600  0.719400  1.0  0.0637
  H  H31  1  0.070700  0.237200  0.844500  1.0  0.0643
  H  H32  1  0.979600  0.198400  0.805900  1.0  0.0678
  H  H33  1  0.038500  0.332000  0.738100  1.0  0.0698
  H  H34  1  0.962200  0.267400  0.688500  1.0  0.0579
  H  H35  1  0.853000  0.378100  0.606100  1.0  0.0798
  H  H36  1  0.853700  0.473400  0.646500  1.0  0.0699
  H  H37  1  0.642300  0.641600  0.422700  1.0  0.0805
  H  H38  1  0.685800  0.706600  0.383600  1.0  0.0713
  H  H39  1  0.596300  0.764300  0.230500  1.0  0.0581
  H  H40  1  0.578000  0.662300  0.202600  1.0  0.0614
  H  H41  1  0.474000  0.799400  0.130000  1.0  0.0581
  H  H42  1  0.448200  0.696800  0.120700  1.0  0.0627
  H  H43  1  0.534400  0.756800  0.391400  1.0  0.0653
  H  H44  1  0.590800  0.817000  0.364100  1.0  0.0524
  H  H45  1  0.480200  0.874200  0.260700  1.0  0.0609
  H  H46  1  0.428200  0.837000  0.306300  1.0  0.0502
  H  H47  1  0.499700  0.573700  0.262200  1.0  0.0611
  H  H48  1  0.497700  0.604400  0.347600  1.0  0.0529
  H  H49  1  0.381200  0.675300  0.275400  1.0  0.0641
  H  H50  1  0.375100  0.628900  0.191600  1.0  0.0625
  H  H51  1  0.350300  0.854800  0.121300  1.0  0.0865
  H  H52  1  0.310500  0.757900  0.096200  1.0  0.0932
  H  H53  1  0.902200  0.777700  0.506800  1.0  0.0757
  H  H54  1  0.979100  0.804700  0.491400  1.0  0.0784
  H  H55  1  0.911900  0.898100  0.604500  1.0  0.0583
  H  H56  1  0.971100  0.936000  0.567500  1.0  0.0612
  H  H57  1  0.985300  0.984100  0.715600  1.0  0.0634
  H  H58  1  0.059200  0.993000  0.690900  1.0  0.06
  H  H59  1  0.119400  0.758800  0.644400  1.0  0.0615
  H  H60  1  0.108900  0.861100  0.616900  1.0  0.0691
  H  H61  1  0.178700  0.888500  0.754900  1.0  0.0567
  H  H62  1  0.161400  0.791600  0.780600  1.0  0.0647
  H  H63  1  0.929300  0.737200  0.655500  1.0  0.0652
  H  H64  1  0.020400  0.698400  0.694100  1.0  0.0691
  H  H65  1  0.961500  0.832000  0.761900  1.0  0.0692
  H  H66  1  0.037800  0.767400  0.811500  1.0  0.0579
  H  H67  1  0.147000  0.878100  0.893900  1.0  0.0794
  H  H68  1  0.146300  0.973400  0.853500  1.0  0.0702
  H  H69  1  0.642300  0.858400  0.922700  1.0  0.0803
  H  H70  1  0.685800  0.793400  0.883600  1.0  0.071
  H  H71  1  0.596300  0.735700  0.730500  1.0  0.0569
  H  H72  1  0.578000  0.837700  0.702600  1.0  0.0625
  H  H73  1  0.474000  0.700600  0.630000  1.0  0.0575
  H  H74  1  0.448200  0.803200  0.620700  1.0  0.0635
  H  H75  1  0.534400  0.743200  0.891400  1.0  0.0667
  H  H76  1  0.590800  0.683000  0.864100  1.0  0.0534
  H  H77  1  0.480200  0.625800  0.760700  1.0  0.0573
  H  H78  1  0.428200  0.663000  0.806300  1.0  0.0517
  H  H79  1  0.499700  0.926300  0.762200  1.0  0.0631
  H  H80  1  0.497700  0.895600  0.847600  1.0  0.0518
  H  H81  1  0.381200  0.824700  0.775400  1.0  0.0641
  H  H82  1  0.375100  0.871100  0.691600  1.0  0.0626
  H  H83  1  0.350300  0.645200  0.621300  1.0  0.0863
  H  H84  1  0.310500  0.742100  0.596200  1.0  0.0934
  H  H85  1  0.902200  0.722300  0.006800  1.0  0.0751
  H  H86  1  0.979100  0.695300  0.991400  1.0  0.0787
  H  H87  1  0.911900  0.601900  0.104500  1.0  0.058
  H  H88  1  0.971100  0.564000  0.067500  1.0  0.0608
  H  H89  1  0.985300  0.515900  0.215600  1.0  0.0647
  H  H90  1  0.059200  0.507000  0.190900  1.0  0.0597
  H  H91  1  0.119400  0.741200  0.144400  1.0  0.0622
  H  H92  1  0.108900  0.638900  0.116900  1.0  0.0689
  H  H93  1  0.178700  0.611500  0.254900  1.0  0.0564
  H  H94  1  0.161400  0.708400  0.280600  1.0  0.0631
  H  H95  1  0.929300  0.762800  0.155500  1.0  0.0661
  H  H96  1  0.020400  0.801600  0.194100  1.0  0.0665
  H  H97  1  0.961500  0.668000  0.261900  1.0  0.0697
  H  H98  1  0.037800  0.732600  0.311500  1.0  0.0568
  H  H99  1  0.147000  0.621900  0.393900  1.0  0.0793
  H  H100  1  0.146300  0.526600  0.353500  1.0  0.0697
  H  H101  1  0.357700  0.358400  0.577300  1.0  0.0797
  H  H102  1  0.314200  0.293400  0.616400  1.0  0.0689
  H  H103  1  0.403700  0.235700  0.769500  1.0  0.0571
  H  H104  1  0.422000  0.337700  0.797400  1.0  0.061
  H  H105  1  0.526000  0.200600  0.870000  1.0  0.0594
  H  H106  1  0.551800  0.303200  0.879300  1.0  0.0636
  H  H107  1  0.465600  0.243200  0.608600  1.0  0.0643
  H  H108  1  0.409200  0.183000  0.635900  1.0  0.0521
  H  H109  1  0.519800  0.125800  0.739300  1.0  0.0575
  H  H110  1  0.571800  0.163000  0.693700  1.0  0.0505
  H  H111  1  0.500300  0.426300  0.737800  1.0  0.0624
  H  H112  1  0.502300  0.395600  0.652400  1.0  0.0524
  H  H113  1  0.618800  0.324700  0.724600  1.0  0.0641
  H  H114  1  0.624900  0.371100  0.808400  1.0  0.062
  H  H115  1  0.649700  0.145200  0.878700  1.0  0.0867
  H  H116  1  0.689500  0.242100  0.903800  1.0  0.0943
  H  H117  1  0.097800  0.222300  0.493200  1.0  0.0713
  H  H118  1  0.020900  0.195300  0.508600  1.0  0.0782
  H  H119  1  0.088100  0.101900  0.395500  1.0  0.0589
  H  H120  1  0.028900  0.064000  0.432500  1.0  0.0591
  H  H121  1  0.014700  0.015900  0.284400  1.0  0.0631
  H  H122  1  0.940800  0.007000  0.309100  1.0  0.0608
  H  H123  1  0.880600  0.241200  0.355600  1.0  0.0621
  H  H124  1  0.891100  0.138900  0.383100  1.0  0.0695
  H  H125  1  0.821300  0.111500  0.245100  1.0  0.0574
  H  H126  1  0.838600  0.208400  0.219400  1.0  0.063
  H  H127  1  0.070700  0.262800  0.344500  1.0  0.0647
  H  H128  1  0.979600  0.301600  0.305900  1.0  0.0693
  H  H129  1  0.038500  0.168000  0.238100  1.0  0.0697
  H  H130  1  0.962200  0.232600  0.188500  1.0  0.0575
  H  H131  1  0.853000  0.121900  0.106100  1.0  0.0804
  H  H132  1  0.853700  0.026600  0.146500  1.0  0.0694
  C  C133  1  0.319100  0.073100  0.154000  1.0  0.6808
  C  C134  1  0.353300  0.157700  0.128700  1.0  -0.0963
  C  C135  1  0.440300  0.213900  0.276700  1.0  -0.0547
  C  C136  1  0.527400  0.245800  0.339300  1.0  -0.0579
  C  C137  1  0.455900  0.276100  0.156100  1.0  -0.0667
  C  C138  1  0.535700  0.320600  0.219000  1.0  -0.0618
  C  C139  1  0.506300  0.124700  0.206600  1.0  -0.043
  C  C140  1  0.591400  0.167200  0.260700  1.0  -0.0442
  C  C141  1  0.662900  0.300100  0.357300  1.0  -0.1169
  C  C142  1  0.726500  0.323400  0.323800  1.0  0.702
  C  C143  1  0.022500  0.170600  0.982900  1.0  0.7332
  C  C144  1  0.038800  0.270100  0.973100  1.0  -0.0841
  C  C145  1  0.031200  0.402200  0.886300  1.0  -0.0824
  C  C146  1  0.978400  0.451300  0.801800  1.0  -0.0764
  C  C147  1  0.903100  0.316200  0.850100  1.0  -0.0689
  C  C148  1  0.863400  0.343500  0.755100  1.0  -0.0864
  C  C149  1  0.012500  0.252800  0.819400  1.0  -0.0627
  C  C150  1  0.988800  0.306600  0.737400  1.0  -0.0652
  C  C151  1  0.887800  0.424000  0.644700  1.0  -0.0872
  C  C152  1  0.946000  0.460200  0.609600  1.0  0.707
  C  C153  1  0.680900  0.573100  0.346000  1.0  0.6781
  C  C154  1  0.646700  0.657700  0.371300  1.0  -0.0958
  C  C155  1  0.559700  0.713900  0.223300  1.0  -0.0545
  C  C156  1  0.472600  0.745800  0.160700  1.0  -0.059
  C  C157  1  0.544100  0.776100  0.343900  1.0  -0.0722
  C  C158  1  0.464300  0.820600  0.281000  1.0  -0.0625
  C  C159  1  0.493700  0.624700  0.293400  1.0  -0.043
  C  C160  1  0.408600  0.667200  0.239300  1.0  -0.0432
  C  C161  1  0.337100  0.800100  0.142700  1.0  -0.1155
  C  C162  1  0.273500  0.823400  0.176200  1.0  0.7026
  C  C163  1  0.977500  0.670600  0.517100  1.0  0.7328
  C  C164  1  0.961200  0.770100  0.526900  1.0  -0.0837
  C  C165  1  0.968800  0.902200  0.613700  1.0  -0.0824
  C  C166  1  0.021600  0.951300  0.698200  1.0  -0.0761
  C  C167  1  0.096900  0.816200  0.649900  1.0  -0.0679
  C  C168  1  0.136600  0.843500  0.744900  1.0  -0.0874
  C  C169  1  0.987500  0.752800  0.680600  1.0  -0.0624
  C  C170  1  0.011200  0.806600  0.762600  1.0  -0.0684
  C  C171  1  0.112200  0.924000  0.855300  1.0  -0.0843
  C  C172  1  0.054000  0.960200  0.890400  1.0  0.7066
  C  C173  1  0.680900  0.926900  0.846000  1.0  0.6765
  C  C174  1  0.646700  0.842300  0.871300  1.0  -0.0959
  C  C175  1  0.559700  0.786100  0.723300  1.0  -0.0542
  C  C176  1  0.472600  0.754200  0.660700  1.0  -0.0591
  C  C177  1  0.544100  0.723900  0.843900  1.0  -0.0713
  C  C178  1  0.464300  0.679400  0.781000  1.0  -0.0611
  C  C179  1  0.493700  0.875300  0.793400  1.0  -0.0459
  C  C180  1  0.408600  0.832800  0.739300  1.0  -0.0444
  C  C181  1  0.337100  0.699900  0.642700  1.0  -0.1147
  C  C182  1  0.273500  0.676600  0.676200  1.0  0.7022
  C  C183  1  0.977500  0.829400  0.017100  1.0  0.7325
  C  C184  1  0.961200  0.729900  0.026900  1.0  -0.0831
  C  C185  1  0.968800  0.597800  0.113700  1.0  -0.0797
  C  C186  1  0.021600  0.548700  0.198200  1.0  -0.073
  C  C187  1  0.096900  0.683800  0.149900  1.0  -0.068
  C  C188  1  0.136600  0.656500  0.244900  1.0  -0.088
  C  C189  1  0.987500  0.747200  0.180600  1.0  -0.0636
  C  C190  1  0.011200  0.693400  0.262600  1.0  -0.0683
  C  C191  1  0.112200  0.576000  0.355300  1.0  -0.0848
  C  C192  1  0.054000  0.539800  0.390400  1.0  0.7075
  C  C193  1  0.319100  0.426900  0.654000  1.0  0.68
  C  C194  1  0.353300  0.342300  0.628700  1.0  -0.0959
  C  C195  1  0.440300  0.286100  0.776700  1.0  -0.0546
  C  C196  1  0.527400  0.254200  0.839300  1.0  -0.0569
  C  C197  1  0.455900  0.223900  0.656100  1.0  -0.069
  C  C198  1  0.535700  0.179400  0.719000  1.0  -0.0605
  C  C199  1  0.506300  0.375300  0.706600  1.0  -0.045
  C  C200  1  0.591400  0.332800  0.760700  1.0  -0.044
  C  C201  1  0.662900  0.199900  0.857300  1.0  -0.117
  C  C202  1  0.726500  0.176600  0.823800  1.0  0.7017
  C  C203  1  0.022500  0.329400  0.482900  1.0  0.733
  C  C204  1  0.038800  0.229900  0.473100  1.0  -0.0855
  C  C205  1  0.031200  0.097800  0.386300  1.0  -0.0805
  C  C206  1  0.978400  0.048700  0.301800  1.0  -0.0738
  C  C207  1  0.903100  0.183800  0.350100  1.0  -0.0691
  C  C208  1  0.863400  0.156500  0.255100  1.0  -0.0868
  C  C209  1  0.012500  0.247200  0.319400  1.0  -0.0629
  C  C210  1  0.988800  0.193400  0.237400  1.0  -0.0641
  C  C211  1  0.887800  0.076000  0.144700  1.0  -0.087
  C  C212  1  0.946000  0.039800  0.109600  1.0  0.7072
  N  N213  1  0.438300  0.190800  0.192400  1.0  -0.1395
  N  N214  1  0.581200  0.258700  0.293900  1.0  -0.1439
  N  N215  1  0.995500  0.308500  0.882900  1.0  -0.1274
  N  N216  1  0.929800  0.382700  0.733400  1.0  -0.1255
  N  N217  1  0.561700  0.690800  0.307600  1.0  -0.1429
  N  N218  1  0.418800  0.758700  0.206100  1.0  -0.1446
  N  N219  1  0.004500  0.808500  0.617100  1.0  -0.1254
  N  N220  1  0.070200  0.882700  0.766600  1.0  -0.1263
  N  N221  1  0.561700  0.809200  0.807600  1.0  -0.1434
  N  N222  1  0.418800  0.741300  0.706100  1.0  -0.1446
  N  N223  1  0.004500  0.691500  0.117100  1.0  -0.1251
  N  N224  1  0.070200  0.617300  0.266600  1.0  -0.1261
  N  N225  1  0.438300  0.309200  0.692400  1.0  -0.1396
  N  N226  1  0.581200  0.241300  0.793900  1.0  -0.1436
  N  N227  1  0.995500  0.191500  0.382900  1.0  -0.1276
  N  N228  1  0.929800  0.117300  0.233400  1.0  -0.1261
  O  O229  1  0.243200  0.061000  0.101400  1.0  -0.7383
  O  O230  1  0.362300  0.027400  0.216200  1.0  -0.5797
  O  O231  1  0.786500  0.367200  0.377700  1.0  -0.7076
  O  O232  1  0.716100  0.298200  0.251500  1.0  -0.5911
  O  O233  1  0.072400  0.137200  0.053200  1.0  -0.7332
  O  O234  1  0.961900  0.132200  0.923700  1.0  -0.6753
  O  O235  1  0.908800  0.475700  0.529900  1.0  -0.7298
  O  O236  1  0.020700  0.472900  0.657800  1.0  -0.6239
  O  O237  1  0.756800  0.561000  0.398600  1.0  -0.7391
  O  O238  1  0.637700  0.527400  0.283800  1.0  -0.5804
  O  O239  1  0.213500  0.867200  0.122300  1.0  -0.7088
  O  O240  1  0.283900  0.798200  0.248500  1.0  -0.5966
  O  O241  1  0.927600  0.637200  0.446800  1.0  -0.734
  O  O242  1  0.038100  0.632200  0.576300  1.0  -0.6753
  O  O243  1  0.091200  0.975700  0.970100  1.0  -0.7295
  O  O244  1  0.979300  0.972900  0.842200  1.0  -0.6247
  O  O245  1  0.756800  0.939000  0.898600  1.0  -0.7387
  O  O246  1  0.637700  0.972600  0.783800  1.0  -0.5805
  O  O247  1  0.213500  0.632800  0.622300  1.0  -0.712
  O  O248  1  0.283900  0.701800  0.748500  1.0  -0.5968
  O  O249  1  0.927600  0.862800  0.946800  1.0  -0.7345
  O  O250  1  0.038100  0.867800  0.076300  1.0  -0.674
  O  O251  1  0.091200  0.524300  0.470100  1.0  -0.7291
  O  O252  1  0.979300  0.527100  0.342200  1.0  -0.6255
  O  O253  1  0.243200  0.439000  0.601400  1.0  -0.7386
  O  O254  1  0.362300  0.472600  0.716200  1.0  -0.5804
  O  O255  1  0.786500  0.132800  0.877700  1.0  -0.7106
  O  O256  1  0.716100  0.201800  0.751500  1.0  -0.5912
  O  O257  1  0.072400  0.362800  0.553200  1.0  -0.7335
  O  O258  1  0.961900  0.367800  0.423700  1.0  -0.6743
  O  O259  1  0.908800  0.024300  0.029900  1.0  -0.7302
  O  O260  1  0.020700  0.027100  0.157800  1.0  -0.6251
