# generated using pymatgen
data_CdH10C16(NO)4
_symmetry_space_group_name_H-M   'P 1'
_cell_length_a   10.25150000
_cell_length_b   12.38450000
_cell_length_c   16.60380000
_cell_angle_alpha   90.00000000
_cell_angle_beta   94.92200000
_cell_angle_gamma   90.00000000
_symmetry_Int_Tables_number   1
_chemical_formula_structural   CdH10C16(NO)4
_chemical_formula_sum   'Cd4 H40 C64 N16 O16'
_cell_volume   2100.24003805
_cell_formula_units_Z   4
loop_
 _symmetry_equiv_pos_site_id
 _symmetry_equiv_pos_as_xyz
  1  'x, y, z'
loop_
 _atom_site_type_symbol
 _atom_site_label
 _atom_site_symmetry_multiplicity
 _atom_site_fract_x
 _atom_site_fract_y
 _atom_site_fract_z
 _atom_site_occupancy
 _atom_site_charge
  Cd  Cd1  1  0.484990  0.700550  0.033950  1.0  0.979
  Cd  Cd2  1  0.015010  0.200550  0.466050  1.0  0.98
  Cd  Cd3  1  0.515010  0.299450  0.966050  1.0  0.9785
  Cd  Cd4  1  0.984990  0.799450  0.533950  1.0  0.9781
  H  H5  1  0.201300  0.462400  0.154000  1.0  0.1321
  H  H6  1  0.809100  0.466300  0.163000  1.0  0.1285
  H  H7  1  0.983900  0.693400  0.034700  1.0  0.1076
  H  H8  1  0.055300  0.136600  0.128400  1.0  0.1497
  H  H9  1  0.107900  0.249300  0.099800  1.0  0.1308
  H  H10  1  0.955400  0.225800  0.093100  1.0  0.1286
  H  H11  1  0.821300  0.434900  0.396400  1.0  0.1323
  H  H12  1  0.812000  0.588600  0.474400  1.0  0.0807
  H  H13  1  0.143000  0.693300  0.403400  1.0  0.0776
  H  H14  1  0.160200  0.545600  0.320700  1.0  0.1283
  H  H15  1  0.298700  0.962400  0.346000  1.0  0.1314
  H  H16  1  0.690900  0.966300  0.337000  1.0  0.1279
  H  H17  1  0.516100  0.193400  0.465300  1.0  0.1073
  H  H18  1  0.444700  0.636600  0.371600  1.0  0.1488
  H  H19  1  0.392100  0.749300  0.400200  1.0  0.1297
  H  H20  1  0.544600  0.725800  0.406900  1.0  0.1297
  H  H21  1  0.678700  0.934900  0.103600  1.0  0.1324
  H  H22  1  0.688000  0.088600  0.025600  1.0  0.0817
  H  H23  1  0.357000  0.193300  0.096600  1.0  0.078
  H  H24  1  0.339800  0.045600  0.179300  1.0  0.1272
  H  H25  1  0.798700  0.537600  0.846000  1.0  0.1315
  H  H26  1  0.190900  0.533700  0.837000  1.0  0.1279
  H  H27  1  0.016100  0.306600  0.965300  1.0  0.1073
  H  H28  1  0.944700  0.863400  0.871600  1.0  0.1502
  H  H29  1  0.892100  0.750700  0.900200  1.0  0.1294
  H  H30  1  0.044600  0.774200  0.906900  1.0  0.1295
  H  H31  1  0.178700  0.565100  0.603600  1.0  0.1322
  H  H32  1  0.188000  0.411400  0.525600  1.0  0.0815
  H  H33  1  0.857000  0.306700  0.596600  1.0  0.0776
  H  H34  1  0.839800  0.454400  0.679300  1.0  0.1269
  H  H35  1  0.701300  0.037600  0.654000  1.0  0.1317
  H  H36  1  0.309100  0.033700  0.663000  1.0  0.1284
  H  H37  1  0.483900  0.806600  0.534700  1.0  0.1077
  H  H38  1  0.555300  0.363400  0.628400  1.0  0.1508
  H  H39  1  0.607900  0.250700  0.599800  1.0  0.1305
  H  H40  1  0.455400  0.274200  0.593100  1.0  0.1284
  H  H41  1  0.321300  0.065100  0.896400  1.0  0.1326
  H  H42  1  0.312000  0.911400  0.974400  1.0  0.0809
  H  H43  1  0.643000  0.806700  0.903400  1.0  0.0773
  H  H44  1  0.660200  0.954400  0.820700  1.0  0.1278
  C  C45  1  0.233400  0.634500  0.060500  1.0  0.7028
  C  C46  1  0.110500  0.584700  0.089200  1.0  -0.1459
  C  C47  1  0.119800  0.494800  0.139500  1.0  -0.1259
  C  C48  1  0.007200  0.454200  0.167500  1.0  0.1414
  C  C49  1  0.884900  0.497000  0.144600  1.0  -0.1355
  C  C50  1  0.876700  0.586300  0.093700  1.0  -0.1338
  C  C51  1  0.989500  0.631300  0.067400  1.0  -0.0514
  C  C52  1  0.744600  0.635500  0.068500  1.0  0.7153
  C  C53  1  0.037800  0.213500  0.125100  1.0  -0.4598
  C  C54  1  0.029700  0.257700  0.207600  1.0  0.3887
  C  C55  1  0.006800  0.370600  0.305500  1.0  0.2976
  C  C56  1  0.994000  0.471500  0.351100  1.0  -0.0071
  C  C57  1  0.888700  0.486500  0.397100  1.0  -0.1693
  C  C58  1  0.884400  0.578400  0.444100  1.0  0.1685
  C  C59  1  0.077700  0.639900  0.402200  1.0  0.1726
  C  C60  1  0.089300  0.551600  0.352700  1.0  -0.1665
  C  C61  1  0.266600  0.134500  0.439500  1.0  0.7011
  C  C62  1  0.389500  0.084700  0.410800  1.0  -0.1465
  C  C63  1  0.380200  0.994800  0.360500  1.0  -0.1256
  C  C64  1  0.492800  0.954200  0.332500  1.0  0.1406
  C  C65  1  0.615100  0.997000  0.355400  1.0  -0.1343
  C  C66  1  0.623300  0.086300  0.406300  1.0  -0.1333
  C  C67  1  0.510500  0.131300  0.432600  1.0  -0.0512
  C  C68  1  0.755400  0.135500  0.431500  1.0  0.7153
  C  C69  1  0.462200  0.713500  0.374900  1.0  -0.4604
  C  C70  1  0.470300  0.757700  0.292400  1.0  0.3878
  C  C71  1  0.493200  0.870600  0.194500  1.0  0.2984
  C  C72  1  0.506000  0.971500  0.148900  1.0  -0.0065
  C  C73  1  0.611300  0.986500  0.102900  1.0  -0.1679
  C  C74  1  0.615600  0.078400  0.055900  1.0  0.1695
  C  C75  1  0.422300  0.139900  0.097800  1.0  0.1712
  C  C76  1  0.410700  0.051600  0.147300  1.0  -0.1667
  C  C77  1  0.766600  0.365500  0.939500  1.0  0.7012
  C  C78  1  0.889500  0.415300  0.910800  1.0  -0.146
  C  C79  1  0.880200  0.505200  0.860500  1.0  -0.1255
  C  C80  1  0.992800  0.545800  0.832500  1.0  0.1407
  C  C81  1  0.115100  0.503000  0.855400  1.0  -0.1348
  C  C82  1  0.123300  0.413700  0.906300  1.0  -0.1342
  C  C83  1  0.010500  0.368700  0.932600  1.0  -0.0528
  C  C84  1  0.255400  0.364500  0.931500  1.0  0.7153
  C  C85  1  0.962200  0.786500  0.874900  1.0  -0.4597
  C  C86  1  0.970300  0.742300  0.792400  1.0  0.3891
  C  C87  1  0.993200  0.629400  0.694500  1.0  0.2975
  C  C88  1  0.006000  0.528500  0.648900  1.0  -0.0061
  C  C89  1  0.111300  0.513500  0.602900  1.0  -0.1675
  C  C90  1  0.115600  0.421600  0.555900  1.0  0.1693
  C  C91  1  0.922300  0.360100  0.597800  1.0  0.1719
  C  C92  1  0.910700  0.448400  0.647300  1.0  -0.1661
  C  C93  1  0.733400  0.865500  0.560500  1.0  0.7032
  C  C94  1  0.610500  0.915300  0.589200  1.0  -0.1451
  C  C95  1  0.619800  0.005200  0.639500  1.0  -0.1258
  C  C96  1  0.507200  0.045800  0.667500  1.0  0.1415
  C  C97  1  0.384900  0.003000  0.644600  1.0  -0.1359
  C  C98  1  0.376700  0.913700  0.593700  1.0  -0.134
  C  C99  1  0.489500  0.868700  0.567400  1.0  -0.0515
  C  C100  1  0.244600  0.864500  0.568500  1.0  0.7152
  C  C101  1  0.537800  0.286500  0.625100  1.0  -0.4592
  C  C102  1  0.529700  0.242300  0.707600  1.0  0.3886
  C  C103  1  0.506800  0.129400  0.805500  1.0  0.2967
  C  C104  1  0.494000  0.028500  0.851100  1.0  -0.0064
  C  C105  1  0.388700  0.013500  0.897100  1.0  -0.1694
  C  C106  1  0.384400  0.921600  0.944100  1.0  0.1687
  C  C107  1  0.577700  0.860100  0.902200  1.0  0.1707
  C  C108  1  0.589300  0.948400  0.852700  1.0  -0.1663
  N  N109  1  0.016300  0.365400  0.224300  1.0  -0.0943
  N  N110  1  0.028000  0.201100  0.274000  1.0  -0.3028
  N  N111  1  0.013300  0.274000  0.336400  1.0  -0.2188
  N  N112  1  0.978800  0.653700  0.448400  1.0  -0.3233
  N  N113  1  0.483700  0.865400  0.275700  1.0  -0.0937
  N  N114  1  0.472000  0.701100  0.226000  1.0  -0.3036
  N  N115  1  0.486700  0.774000  0.163600  1.0  -0.2177
  N  N116  1  0.521200  0.153700  0.051600  1.0  -0.3231
  N  N117  1  0.983700  0.634600  0.775700  1.0  -0.0937
  N  N118  1  0.972000  0.798900  0.726000  1.0  -0.305
  N  N119  1  0.986700  0.726000  0.663600  1.0  -0.2177
  N  N120  1  0.021200  0.346300  0.551600  1.0  -0.3255
  N  N121  1  0.516300  0.134600  0.724300  1.0  -0.0943
  N  N122  1  0.528000  0.298900  0.774000  1.0  -0.3043
  N  N123  1  0.513300  0.226000  0.836400  1.0  -0.2192
  N  N124  1  0.478800  0.846300  0.948400  1.0  -0.3271
  O  O125  1  0.334300  0.576400  0.066800  1.0  -0.5868
  O  O126  1  0.231600  0.726700  0.034100  1.0  -0.6226
  O  O127  1  0.737500  0.719700  0.028800  1.0  -0.6449
  O  O128  1  0.645700  0.587400  0.090300  1.0  -0.5689
  O  O129  1  0.165700  0.076400  0.433200  1.0  -0.5863
  O  O130  1  0.268400  0.226700  0.465900  1.0  -0.6224
  O  O131  1  0.762500  0.219700  0.471200  1.0  -0.6442
  O  O132  1  0.854300  0.087400  0.409700  1.0  -0.5705
  O  O133  1  0.665700  0.423600  0.933200  1.0  -0.5864
  O  O134  1  0.768400  0.273300  0.965900  1.0  -0.6231
  O  O135  1  0.262500  0.280300  0.971200  1.0  -0.6446
  O  O136  1  0.354300  0.412600  0.909700  1.0  -0.5718
  O  O137  1  0.834300  0.923600  0.566800  1.0  -0.5876
  O  O138  1  0.731600  0.773300  0.534100  1.0  -0.6225
  O  O139  1  0.237500  0.780300  0.528800  1.0  -0.6454
  O  O140  1  0.145700  0.912600  0.590300  1.0  -0.5702
