# generated using pymatgen
data_CdH20C22(N3O2)2
_symmetry_space_group_name_H-M   'P 1'
_cell_length_a   8.05420000
_cell_length_b   18.78000000
_cell_length_c   19.28900000
_cell_angle_alpha   90.00000000
_cell_angle_beta   95.64100000
_cell_angle_gamma   90.00000000
_symmetry_Int_Tables_number   1
_chemical_formula_structural   CdH20C22(N3O2)2
_chemical_formula_sum   'Cd4 H80 C88 N24 O16'
_cell_volume   2903.48409248
_cell_formula_units_Z   4
loop_
 _symmetry_equiv_pos_site_id
 _symmetry_equiv_pos_as_xyz
  1  'x, y, z'
loop_
 _atom_site_type_symbol
 _atom_site_label
 _atom_site_symmetry_multiplicity
 _atom_site_fract_x
 _atom_site_fract_y
 _atom_site_fract_z
 _atom_site_occupancy
 _atom_site_charge
  Cd  Cd1  1  0.490370  0.361270  0.474490  1.0  0.9512
  Cd  Cd2  1  0.483260  0.338530  0.015280  1.0  0.9913
  Cd  Cd3  1  0.509630  0.861270  0.525510  1.0  0.9512
  Cd  Cd4  1  0.516740  0.838530  0.984720  1.0  0.9916
  H  H5  1  0.016600  0.335300  0.593600  1.0  0.0813
  H  H6  1  0.238700  0.339700  0.680600  1.0  0.1229
  H  H7  1  0.936200  0.425900  0.810600  1.0  0.1085
  H  H8  1  0.716200  0.421000  0.724000  1.0  0.0876
  H  H9  1  0.186800  0.246900  0.861200  1.0  0.1133
  H  H10  1  0.038600  0.301900  0.864500  1.0  0.1139
  H  H11  1  0.157900  0.284400  0.932600  1.0  0.1117
  H  H12  1  0.493300  0.517300  0.767500  1.0  0.1353
  H  H13  1  0.300000  0.513400  0.742900  1.0  0.1225
  H  H14  1  0.425200  0.460100  0.711400  1.0  0.1165
  H  H15  1  0.743900  0.641700  0.440200  1.0  0.099
  H  H16  1  0.954700  0.566500  0.420400  1.0  0.0966
  H  H17  1  0.289800  0.694300  0.522000  1.0  0.1192
  H  H18  1  0.076300  0.772900  0.542600  1.0  0.0789
  H  H19  1  0.089700  0.458400  0.516400  1.0  0.1187
  H  H20  1  0.164900  0.516600  0.570100  1.0  0.1266
  H  H21  1  0.255100  0.442000  0.565300  1.0  0.1256
  H  H22  1  0.484700  0.634700  0.332800  1.0  0.1292
  H  H23  1  0.449800  0.683200  0.397000  1.0  0.1325
  H  H24  1  0.299500  0.657100  0.343900  1.0  0.1333
  H  H25  1  0.289300  0.292500  0.245500  1.0  0.0911
  H  H26  1  0.082800  0.283800  0.322900  1.0  0.1139
  H  H27  1  0.734800  0.329800  0.163700  1.0  0.1071
  H  H28  1  0.939800  0.336500  0.089300  1.0  0.089
  H  H29  1  0.781100  0.436700  0.402300  1.0  0.1502
  H  H30  1  0.840600  0.439100  0.326500  1.0  0.1266
  H  H31  1  0.943300  0.394700  0.386000  1.0  0.1132
  H  H32  1  0.517200  0.166400  0.247900  1.0  0.1308
  H  H33  1  0.713100  0.155600  0.258900  1.0  0.1278
  H  H34  1  0.633900  0.207000  0.199400  1.0  0.1151
  H  H35  1  0.634100  0.074300  0.947200  1.0  0.0895
  H  H36  1  0.843600  0.996200  0.922900  1.0  0.1169
  H  H37  1  0.188400  0.143900  0.987400  1.0  0.1256
  H  H38  1  0.976600  0.222000  0.005400  1.0  0.0803
  H  H39  1  0.190600  0.884100  0.049700  1.0  0.1402
  H  H40  1  0.024500  0.925600  0.024100  1.0  0.1184
  H  H41  1  0.163300  0.963000  0.075500  1.0  0.125
  H  H42  1  0.305600  0.126500  0.858400  1.0  0.1285
  H  H43  1  0.147700  0.088500  0.819200  1.0  0.1375
  H  H44  1  0.328500  0.071100  0.798100  1.0  0.1379
  H  H45  1  0.983400  0.835300  0.406400  1.0  0.082
  H  H46  1  0.761300  0.839700  0.319400  1.0  0.1226
  H  H47  1  0.063800  0.925900  0.189400  1.0  0.1087
  H  H48  1  0.283800  0.921000  0.276000  1.0  0.0874
  H  H49  1  0.813200  0.746900  0.138800  1.0  0.1133
  H  H50  1  0.961400  0.801900  0.135500  1.0  0.1127
  H  H51  1  0.842100  0.784400  0.067400  1.0  0.1123
  H  H52  1  0.506700  0.017300  0.232500  1.0  0.1356
  H  H53  1  0.700000  0.013400  0.257100  1.0  0.1221
  H  H54  1  0.574800  0.960100  0.288600  1.0  0.1155
  H  H55  1  0.256100  0.141700  0.559800  1.0  0.099
  H  H56  1  0.045300  0.066500  0.579600  1.0  0.097
  H  H57  1  0.710200  0.194300  0.478000  1.0  0.1188
  H  H58  1  0.923700  0.272900  0.457400  1.0  0.079
  H  H59  1  0.910300  0.958400  0.483600  1.0  0.1214
  H  H60  1  0.835100  0.016600  0.429900  1.0  0.1268
  H  H61  1  0.744900  0.942000  0.434700  1.0  0.125
  H  H62  1  0.515300  0.134700  0.667200  1.0  0.1306
  H  H63  1  0.550200  0.183200  0.603000  1.0  0.1331
  H  H64  1  0.700500  0.157100  0.656100  1.0  0.1323
  H  H65  1  0.710700  0.792500  0.754500  1.0  0.0907
  H  H66  1  0.917200  0.783800  0.677100  1.0  0.1145
  H  H67  1  0.265200  0.829800  0.836300  1.0  0.1074
  H  H68  1  0.060200  0.836500  0.910700  1.0  0.0894
  H  H69  1  0.218900  0.936700  0.597700  1.0  0.1487
  H  H70  1  0.159400  0.939100  0.673500  1.0  0.1268
  H  H71  1  0.056700  0.894700  0.614000  1.0  0.112
  H  H72  1  0.482800  0.666400  0.752100  1.0  0.127
  H  H73  1  0.286900  0.655600  0.741100  1.0  0.1269
  H  H74  1  0.366100  0.707000  0.800600  1.0  0.1159
  H  H75  1  0.365900  0.574300  0.052800  1.0  0.0897
  H  H76  1  0.156400  0.496200  0.077100  1.0  0.1174
  H  H77  1  0.811600  0.643900  0.012600  1.0  0.1253
  H  H78  1  0.023400  0.722000  0.994600  1.0  0.0799
  H  H79  1  0.809400  0.384100  0.950300  1.0  0.1421
  H  H80  1  0.975500  0.425600  0.975900  1.0  0.1199
  H  H81  1  0.836700  0.463000  0.924500  1.0  0.1239
  H  H82  1  0.694400  0.626500  0.141600  1.0  0.1282
  H  H83  1  0.852300  0.588500  0.180800  1.0  0.1341
  H  H84  1  0.671500  0.571100  0.201900  1.0  0.139
  C  C85  1  0.707000  0.377300  0.592500  1.0  0.7032
  C  C86  1  0.845600  0.378100  0.649100  1.0  -0.1583
  C  C87  1  0.999600  0.354100  0.637500  1.0  -0.031
  C  C88  1  0.132800  0.356500  0.689300  1.0  -0.2299
  C  C89  1  0.107300  0.383400  0.752200  1.0  0.1743
  C  C90  1  0.952300  0.407700  0.766400  1.0  -0.1618
  C  C91  1  0.822300  0.404800  0.714900  1.0  -0.052
  C  C92  1  0.152200  0.290600  0.882500  1.0  -0.4258
  C  C93  1  0.263900  0.349200  0.866000  1.0  0.3899
  C  C94  1  0.377700  0.433200  0.810400  1.0  0.3674
  C  C95  1  0.401200  0.485700  0.752900  1.0  -0.4342
  C  C96  1  0.750500  0.764500  0.508800  1.0  0.6578
  C  C97  1  0.887500  0.715600  0.494400  1.0  -0.1836
  C  C98  1  0.854100  0.653000  0.457300  1.0  -0.1012
  C  C99  1  0.978800  0.608700  0.445600  1.0  -0.1257
  C  C100  1  0.138800  0.623400  0.469500  1.0  0.1728
  C  C101  1  0.178600  0.684100  0.505700  1.0  -0.0823
  C  C102  1  0.051000  0.730600  0.517900  1.0  -0.0555
  C  C103  1  0.191900  0.478700  0.538900  1.0  -0.4155
  C  C104  1  0.292700  0.507900  0.485400  1.0  0.3273
  C  C105  1  0.390600  0.580700  0.409600  1.0  0.3352
  C  C106  1  0.407500  0.644300  0.367300  1.0  -0.4565
  C  C107  1  0.265900  0.320800  0.110800  1.0  0.6654
  C  C108  1  0.132900  0.314700  0.160600  1.0  -0.125
  C  C109  1  0.176600  0.299600  0.229400  1.0  -0.0438
  C  C110  1  0.053800  0.294700  0.275700  1.0  -0.1187
  C  C111  1  0.889400  0.306100  0.250800  1.0  0.133
  C  C112  1  0.846800  0.322000  0.180500  1.0  -0.1543
  C  C113  1  0.968300  0.325900  0.136600  1.0  -0.0494
  C  C114  1  0.832500  0.409700  0.367300  1.0  -0.4389
  C  C115  1  0.730900  0.347000  0.348000  1.0  0.3548
  C  C116  1  0.638500  0.249900  0.295600  1.0  0.3861
  C  C117  1  0.624500  0.189600  0.246200  1.0  -0.4608
  C  C118  1  0.649200  0.209700  0.989600  1.0  0.7126
  C  C119  1  0.784900  0.156600  0.976200  1.0  -0.1507
  C  C120  1  0.746200  0.088800  0.953500  1.0  -0.0319
  C  C121  1  0.870500  0.042100  0.940000  1.0  -0.1373
  C  C122  1  0.033000  0.063000  0.951500  1.0  0.1787
  C  C123  1  0.076200  0.130400  0.977700  1.0  -0.1605
  C  C124  1  0.950200  0.176000  0.988800  1.0  -0.0343
  C  C125  1  0.143600  0.930300  0.036600  1.0  -0.4209
  C  C126  1  0.224700  0.958700  0.975500  1.0  0.3558
  C  C127  1  0.280200  0.023700  0.888800  1.0  0.3642
  C  C128  1  0.264100  0.082600  0.836600  1.0  -0.4371
  C  C129  1  0.293000  0.877300  0.407500  1.0  0.7022
  C  C130  1  0.154400  0.878100  0.350900  1.0  -0.1576
  C  C131  1  0.000400  0.854100  0.362500  1.0  -0.0314
  C  C132  1  0.867200  0.856500  0.310700  1.0  -0.2299
  C  C133  1  0.892700  0.883400  0.247800  1.0  0.1746
  C  C134  1  0.047700  0.907700  0.233600  1.0  -0.1616
  C  C135  1  0.177700  0.904800  0.285100  1.0  -0.0521
  C  C136  1  0.847800  0.790600  0.117500  1.0  -0.4261
  C  C137  1  0.736100  0.849200  0.134000  1.0  0.3888
  C  C138  1  0.622300  0.933200  0.189600  1.0  0.3673
  C  C139  1  0.598800  0.985700  0.247100  1.0  -0.4356
  C  C140  1  0.249500  0.264500  0.491200  1.0  0.659
  C  C141  1  0.112500  0.215600  0.505600  1.0  -0.1836
  C  C142  1  0.145900  0.153000  0.542700  1.0  -0.1018
  C  C143  1  0.021200  0.108700  0.554400  1.0  -0.1253
  C  C144  1  0.861200  0.123400  0.530500  1.0  0.1729
  C  C145  1  0.821400  0.184100  0.494300  1.0  -0.0825
  C  C146  1  0.949000  0.230600  0.482100  1.0  -0.0549
  C  C147  1  0.808100  0.978700  0.461100  1.0  -0.4156
  C  C148  1  0.707300  0.007900  0.514600  1.0  0.3267
  C  C149  1  0.609400  0.080700  0.590400  1.0  0.337
  C  C150  1  0.592500  0.144300  0.632700  1.0  -0.4563
  C  C151  1  0.734100  0.820800  0.889200  1.0  0.6647
  C  C152  1  0.867100  0.814700  0.839400  1.0  -0.1257
  C  C153  1  0.823400  0.799600  0.770600  1.0  -0.0449
  C  C154  1  0.946200  0.794700  0.724300  1.0  -0.1201
  C  C155  1  0.110600  0.806100  0.749200  1.0  0.1331
  C  C156  1  0.153200  0.822000  0.819500  1.0  -0.1549
  C  C157  1  0.031700  0.825900  0.863400  1.0  -0.0504
  C  C158  1  0.167500  0.909700  0.632700  1.0  -0.4391
  C  C159  1  0.269100  0.847000  0.652000  1.0  0.3552
  C  C160  1  0.361500  0.749900  0.704400  1.0  0.3851
  C  C161  1  0.375500  0.689600  0.753800  1.0  -0.4615
  C  C162  1  0.350800  0.709700  0.010400  1.0  0.7118
  C  C163  1  0.215100  0.656600  0.023800  1.0  -0.1501
  C  C164  1  0.253800  0.588800  0.046500  1.0  -0.031
  C  C165  1  0.129500  0.542100  0.060000  1.0  -0.139
  C  C166  1  0.967000  0.563000  0.048500  1.0  0.1789
  C  C167  1  0.923800  0.630400  0.022300  1.0  -0.1627
  C  C168  1  0.049800  0.676000  0.011200  1.0  -0.0336
  C  C169  1  0.856400  0.430300  0.963400  1.0  -0.4204
  C  C170  1  0.775300  0.458700  0.024500  1.0  0.3567
  C  C171  1  0.719800  0.523700  0.111200  1.0  0.3677
  C  C172  1  0.735900  0.582600  0.163400  1.0  -0.437
  N  N173  1  0.396900  0.371000  0.903900  1.0  -0.2634
  N  N174  1  0.469200  0.425000  0.867400  1.0  -0.2824
  N  N175  1  0.245700  0.387800  0.806600  1.0  -0.0436
  N  N176  1  0.415800  0.476900  0.458500  1.0  -0.2098
  N  N177  1  0.478400  0.522900  0.410500  1.0  -0.2963
  N  N178  1  0.270800  0.573700  0.455900  1.0  -0.1408
  N  N179  1  0.598200  0.324600  0.376400  1.0  -0.2118
  N  N180  1  0.539300  0.263200  0.343500  1.0  -0.3085
  N  N181  1  0.758700  0.300600  0.297100  1.0  -0.0212
  N  N182  1  0.357500  0.933600  0.951100  1.0  -0.1725
  N  N183  1  0.392600  0.974600  0.895600  1.0  -0.3084
  N  N184  1  0.167300  0.015400  0.937200  1.0  -0.0863
  N  N185  1  0.603100  0.871000  0.096100  1.0  -0.2619
  N  N186  1  0.530800  0.925000  0.132600  1.0  -0.2817
  N  N187  1  0.754300  0.887800  0.193400  1.0  -0.0437
  N  N188  1  0.584200  0.976900  0.541500  1.0  -0.2075
  N  N189  1  0.521600  0.022900  0.589500  1.0  -0.2953
  N  N190  1  0.729200  0.073700  0.544100  1.0  -0.1415
  N  N191  1  0.401800  0.824600  0.623600  1.0  -0.2131
  N  N192  1  0.460700  0.763200  0.656500  1.0  -0.3086
  N  N193  1  0.241300  0.800600  0.702900  1.0  -0.0198
  N  N194  1  0.642500  0.433600  0.048900  1.0  -0.1731
  N  N195  1  0.607400  0.474600  0.104400  1.0  -0.3037
  N  N196  1  0.832700  0.515400  0.062800  1.0  -0.0866
  O  O197  1  0.744600  0.364600  0.532200  1.0  -0.5865
  O  O198  1  0.560800  0.390300  0.604600  1.0  -0.6647
  O  O199  1  0.787800  0.824400  0.537200  1.0  -0.6084
  O  O200  1  0.604200  0.747400  0.491700  1.0  -0.5975
  O  O201  1  0.699400  0.272500  0.000200  1.0  -0.615
  O  O202  1  0.501600  0.191500  0.987700  1.0  -0.569
  O  O203  1  0.221600  0.336600  0.048500  1.0  -0.6005
  O  O204  1  0.416400  0.311500  0.131500  1.0  -0.5951
  O  O205  1  0.255400  0.864600  0.467800  1.0  -0.5857
  O  O206  1  0.439200  0.890300  0.395400  1.0  -0.6649
  O  O207  1  0.212200  0.324400  0.462800  1.0  -0.6072
  O  O208  1  0.395800  0.247400  0.508300  1.0  -0.5978
  O  O209  1  0.300600  0.772500  0.999800  1.0  -0.6144
  O  O210  1  0.498400  0.691500  0.012300  1.0  -0.5701
  O  O211  1  0.778400  0.836600  0.951500  1.0  -0.6024
  O  O212  1  0.583600  0.811500  0.868500  1.0  -0.5949
