# generated using pymatgen
data_Mn2CoH24C42(SO6)3
_symmetry_space_group_name_H-M   'P 1'
_cell_length_a   16.70940000
_cell_length_b   20.28570000
_cell_length_c   17.19360000
_cell_angle_alpha   90.00000000
_cell_angle_beta   99.17800000
_cell_angle_gamma   90.00000000
_symmetry_Int_Tables_number   1
_chemical_formula_structural   Mn2CoH24C42(SO6)3
_chemical_formula_sum   'Mn8 Co4 H96 C168 S12 O72'
_cell_volume   5753.36273474
_cell_formula_units_Z   4
loop_
 _symmetry_equiv_pos_site_id
 _symmetry_equiv_pos_as_xyz
  1  'x, y, z'
loop_
 _atom_site_type_symbol
 _atom_site_label
 _atom_site_symmetry_multiplicity
 _atom_site_fract_x
 _atom_site_fract_y
 _atom_site_fract_z
 _atom_site_occupancy
 _atom_site_charge
  Mn  Mn1  1  0.463000  0.832330  0.245790  1.0  1.1203
  Mn  Mn2  1  0.355910  0.874520  0.053710  1.0  1.1234
  Mn  Mn3  1  0.037000  0.332330  0.254210  1.0  1.1201
  Mn  Mn4  1  0.144090  0.374520  0.446290  1.0  1.1234
  Mn  Mn5  1  0.537000  0.167670  0.754210  1.0  1.1201
  Mn  Mn6  1  0.644090  0.125480  0.946290  1.0  1.123
  Mn  Mn7  1  0.963000  0.667670  0.745790  1.0  1.1206
  Mn  Mn8  1  0.855910  0.625480  0.553710  1.0  1.1238
  Co  Co9  1  0.586450  0.851630  0.441400  1.0  1.0121
  Co  Co10  1  0.913550  0.351630  0.058600  1.0  1.0128
  Co  Co11  1  0.413550  0.148370  0.558600  1.0  1.0138
  Co  Co12  1  0.086450  0.648370  0.941400  1.0  1.0126
  H  H13  1  0.616100  0.628800  0.475900  1.0  0.1027
  H  H14  1  0.615900  0.515900  0.458300  1.0  0.1199
  H  H15  1  0.487700  0.538100  0.242500  1.0  0.1161
  H  H16  1  0.486500  0.651500  0.261600  1.0  0.1011
  H  H17  1  0.704400  0.383000  0.396800  1.0  0.1152
  H  H18  1  0.822000  0.366800  0.345600  1.0  0.1221
  H  H19  1  0.706000  0.421900  0.134900  1.0  0.0961
  H  H20  1  0.590800  0.442100  0.186500  1.0  0.1126
  H  H21  1  0.559000  0.660400  0.156800  1.0  0.0969
  H  H22  1  0.609600  0.566200  0.107900  1.0  0.1119
  H  H23  1  0.522900  0.627500  0.889500  1.0  0.0995
  H  H24  1  0.470600  0.721500  0.939700  1.0  0.1126
  H  H25  1  0.760500  0.505000  0.050100  1.0  0.121
  H  H26  1  0.888400  0.538800  0.031600  1.0  0.1068
  H  H27  1  0.797300  0.598300  0.814800  1.0  0.094
  H  H28  1  0.668700  0.567700  0.833800  1.0  0.1144
  H  H29  1  0.145700  0.779900  0.081000  1.0  0.0976
  H  H30  1  0.018500  0.748700  0.100700  1.0  0.1159
  H  H31  1  0.095100  0.752100  0.332500  1.0  0.1042
  H  H32  1  0.224200  0.779100  0.312600  1.0  0.1169
  H  H33  1  0.959500  0.669000  0.384000  1.0  0.118
  H  H34  1  0.991000  0.565500  0.434900  1.0  0.0986
  H  H35  1  0.007200  0.495400  0.222800  1.0  0.1017
  H  H36  1  0.968200  0.597900  0.169200  1.0  0.1047
  H  H37  1  0.883900  0.128800  0.024100  1.0  0.1027
  H  H38  1  0.884100  0.015900  0.041700  1.0  0.1195
  H  H39  1  0.012300  0.038100  0.257500  1.0  0.1158
  H  H40  1  0.013500  0.151500  0.238400  1.0  0.1014
  H  H41  1  0.795600  0.883000  0.103200  1.0  0.1158
  H  H42  1  0.678000  0.866800  0.154400  1.0  0.1212
  H  H43  1  0.794000  0.921900  0.365100  1.0  0.0967
  H  H44  1  0.909200  0.942100  0.313500  1.0  0.1126
  H  H45  1  0.941000  0.160400  0.343200  1.0  0.0967
  H  H46  1  0.890400  0.066200  0.392100  1.0  0.1115
  H  H47  1  0.977100  0.127500  0.610500  1.0  0.099
  H  H48  1  0.029400  0.221500  0.560300  1.0  0.1126
  H  H49  1  0.739500  0.005000  0.449900  1.0  0.1215
  H  H50  1  0.611600  0.038800  0.468400  1.0  0.107
  H  H51  1  0.702700  0.098300  0.685200  1.0  0.0948
  H  H52  1  0.831300  0.067700  0.666200  1.0  0.1149
  H  H53  1  0.354300  0.279900  0.419000  1.0  0.0981
  H  H54  1  0.481500  0.248700  0.399300  1.0  0.1166
  H  H55  1  0.404900  0.252100  0.167500  1.0  0.1046
  H  H56  1  0.275800  0.279100  0.187400  1.0  0.1162
  H  H57  1  0.540500  0.169000  0.116000  1.0  0.1176
  H  H58  1  0.509000  0.065500  0.065100  1.0  0.0986
  H  H59  1  0.492800  0.995400  0.277200  1.0  0.1015
  H  H60  1  0.531800  0.097900  0.330800  1.0  0.1047
  H  H61  1  0.383900  0.371200  0.524100  1.0  0.1029
  H  H62  1  0.384100  0.484100  0.541700  1.0  0.1197
  H  H63  1  0.512300  0.461900  0.757500  1.0  0.1156
  H  H64  1  0.513500  0.348500  0.738400  1.0  0.1015
  H  H65  1  0.295600  0.617000  0.603200  1.0  0.1159
  H  H66  1  0.178000  0.633200  0.654400  1.0  0.1213
  H  H67  1  0.294000  0.578100  0.865100  1.0  0.0966
  H  H68  1  0.409200  0.557900  0.813500  1.0  0.1126
  H  H69  1  0.441000  0.339600  0.843200  1.0  0.0968
  H  H70  1  0.390400  0.433800  0.892100  1.0  0.1114
  H  H71  1  0.477100  0.372500  0.110500  1.0  0.0992
  H  H72  1  0.529400  0.278500  0.060300  1.0  0.1132
  H  H73  1  0.239500  0.495000  0.949900  1.0  0.1214
  H  H74  1  0.111600  0.461200  0.968400  1.0  0.107
  H  H75  1  0.202700  0.401700  0.185200  1.0  0.0946
  H  H76  1  0.331300  0.432300  0.166200  1.0  0.1147
  H  H77  1  0.854300  0.220100  0.919000  1.0  0.0977
  H  H78  1  0.981500  0.251300  0.899300  1.0  0.1163
  H  H79  1  0.904900  0.247900  0.667500  1.0  0.1041
  H  H80  1  0.775800  0.220900  0.687400  1.0  0.1164
  H  H81  1  0.040500  0.331000  0.616000  1.0  0.1176
  H  H82  1  0.009000  0.434500  0.565100  1.0  0.0986
  H  H83  1  0.992800  0.504600  0.777200  1.0  0.101
  H  H84  1  0.031800  0.402100  0.830800  1.0  0.1046
  H  H85  1  0.116100  0.871200  0.975900  1.0  0.1026
  H  H86  1  0.115900  0.984100  0.958300  1.0  0.1198
  H  H87  1  0.987700  0.961900  0.742500  1.0  0.1158
  H  H88  1  0.986500  0.848500  0.761600  1.0  0.1009
  H  H89  1  0.204400  0.117000  0.896800  1.0  0.115
  H  H90  1  0.322000  0.133200  0.845600  1.0  0.1219
  H  H91  1  0.206000  0.078100  0.634900  1.0  0.096
  H  H92  1  0.090800  0.057900  0.686500  1.0  0.1122
  H  H93  1  0.059000  0.839600  0.656800  1.0  0.097
  H  H94  1  0.109600  0.933800  0.607900  1.0  0.1118
  H  H95  1  0.022900  0.872500  0.389500  1.0  0.0993
  H  H96  1  0.970600  0.778500  0.439700  1.0  0.1123
  H  H97  1  0.260500  0.995000  0.550100  1.0  0.1207
  H  H98  1  0.388400  0.961200  0.531600  1.0  0.1067
  H  H99  1  0.297300  0.901700  0.314800  1.0  0.0941
  H  H100  1  0.168700  0.932300  0.333800  1.0  0.1144
  H  H101  1  0.645700  0.720100  0.581000  1.0  0.0973
  H  H102  1  0.518500  0.751300  0.600700  1.0  0.116
  H  H103  1  0.595100  0.747900  0.832500  1.0  0.1044
  H  H104  1  0.724200  0.720900  0.812600  1.0  0.1171
  H  H105  1  0.459500  0.831000  0.884000  1.0  0.1183
  H  H106  1  0.491000  0.934500  0.934900  1.0  0.0986
  H  H107  1  0.507200  0.004600  0.722800  1.0  0.1011
  H  H108  1  0.468200  0.902100  0.669200  1.0  0.1047
  C  C109  1  0.544500  0.725500  0.381900  1.0  0.717
  C  C110  1  0.548200  0.651700  0.372000  1.0  -0.1298
  C  C111  1  0.588700  0.610700  0.429500  1.0  -0.0616
  C  C112  1  0.589100  0.543100  0.419000  1.0  -0.0483
  C  C113  1  0.549500  0.516400  0.349700  1.0  -0.1829
  C  C114  1  0.512200  0.556300  0.290000  1.0  -0.0382
  C  C115  1  0.511800  0.624300  0.301700  1.0  -0.0168
  C  C116  1  0.637200  0.415000  0.296300  1.0  -0.1086
  C  C117  1  0.705700  0.391800  0.343900  1.0  -0.0496
  C  C118  1  0.775400  0.381800  0.313500  1.0  -0.0042
  C  C119  1  0.775900  0.394100  0.236100  1.0  -0.131
  C  C120  1  0.705700  0.415400  0.188400  1.0  -0.0488
  C  C121  1  0.637100  0.426700  0.218400  1.0  -0.0846
  C  C122  1  0.851700  0.380700  0.204000  1.0  0.7466
  C  C123  1  0.474700  0.759900  0.085400  1.0  0.7453
  C  C124  1  0.509500  0.700300  0.052600  1.0  -0.1345
  C  C125  1  0.551500  0.653400  0.102700  1.0  -0.0178
  C  C126  1  0.581800  0.597200  0.073900  1.0  -0.0283
  C  C127  1  0.570500  0.587800  0.994600  1.0  -0.1383
  C  C128  1  0.529600  0.634200  0.943600  1.0  -0.045
  C  C129  1  0.498700  0.690600  0.973600  1.0  -0.0901
  C  C130  1  0.704100  0.534400  0.943600  1.0  -0.1221
  C  C131  1  0.768300  0.524600  0.003000  1.0  -0.05
  C  C132  1  0.844300  0.544400  0.991600  1.0  0.027
  C  C133  1  0.855200  0.572000  0.922300  1.0  -0.0878
  C  C134  1  0.789400  0.580100  0.862700  1.0  -0.0289
  C  C135  1  0.713000  0.561700  0.873400  1.0  -0.0503
  C  C136  1  0.936500  0.594900  0.910900  1.0  0.6964
  C  C137  1  0.279900  0.802800  0.180100  1.0  0.751
  C  C138  1  0.197700  0.782600  0.194200  1.0  -0.1376
  C  C139  1  0.135500  0.773500  0.132100  1.0  -0.023
  C  C140  1  0.059500  0.755500  0.143400  1.0  -0.0786
  C  C141  1  0.045200  0.747700  0.218700  1.0  -0.1171
  C  C142  1  0.106000  0.757100  0.281500  1.0  -0.0467
  C  C143  1  0.182800  0.773800  0.269900  1.0  -0.0026
  C  C144  1  0.963000  0.644000  0.272300  1.0  -0.1511
  C  C145  1  0.969000  0.634500  0.351000  1.0  -0.0941
  C  C146  1  0.989400  0.572700  0.381200  1.0  -0.0625
  C  C147  1  0.007400  0.521000  0.334500  1.0  -0.0956
  C  C148  1  0.998200  0.530200  0.255600  1.0  -0.0676
  C  C149  1  0.975300  0.591800  0.223400  1.0  -0.0503
  C  C150  1  0.044200  0.459700  0.372100  1.0  0.6907
  C  C151  1  0.955500  0.225500  0.118100  1.0  0.7165
  C  C152  1  0.951800  0.151700  0.128000  1.0  -0.1296
  C  C153  1  0.911300  0.110700  0.070500  1.0  -0.0599
  C  C154  1  0.910900  0.043100  0.081000  1.0  -0.0483
  C  C155  1  0.950500  0.016400  0.150300  1.0  -0.1828
  C  C156  1  0.987800  0.056300  0.210000  1.0  -0.039
  C  C157  1  0.988200  0.124300  0.198300  1.0  -0.0172
  C  C158  1  0.862800  0.915000  0.203700  1.0  -0.1049
  C  C159  1  0.794300  0.891800  0.156100  1.0  -0.0477
  C  C160  1  0.724600  0.881800  0.186500  1.0  -0.0054
  C  C161  1  0.724100  0.894100  0.263900  1.0  -0.1316
  C  C162  1  0.794300  0.915400  0.311600  1.0  -0.053
  C  C163  1  0.862900  0.926700  0.281600  1.0  -0.0859
  C  C164  1  0.648300  0.880700  0.296000  1.0  0.748
  C  C165  1  0.025300  0.259900  0.414600  1.0  0.7441
  C  C166  1  0.990500  0.200300  0.447400  1.0  -0.1353
  C  C167  1  0.948500  0.153400  0.397300  1.0  -0.0171
  C  C168  1  0.918200  0.097200  0.426100  1.0  -0.0269
  C  C169  1  0.929500  0.087800  0.505400  1.0  -0.1382
  C  C170  1  0.970400  0.134200  0.556400  1.0  -0.0441
  C  C171  1  0.001300  0.190600  0.526400  1.0  -0.0897
  C  C172  1  0.795900  0.034400  0.556400  1.0  -0.1218
  C  C173  1  0.731700  0.024600  0.497000  1.0  -0.0501
  C  C174  1  0.655700  0.044400  0.508400  1.0  0.027
  C  C175  1  0.644800  0.072000  0.577700  1.0  -0.0874
  C  C176  1  0.710600  0.080100  0.637300  1.0  -0.0316
  C  C177  1  0.787000  0.061700  0.626600  1.0  -0.0495
  C  C178  1  0.563500  0.094900  0.589100  1.0  0.6962
  C  C179  1  0.220100  0.302800  0.319900  1.0  0.7502
  C  C180  1  0.302300  0.282600  0.305800  1.0  -0.14
  C  C181  1  0.364500  0.273500  0.367900  1.0  -0.0238
  C  C182  1  0.440500  0.255500  0.356600  1.0  -0.0773
  C  C183  1  0.454800  0.247700  0.281300  1.0  -0.117
  C  C184  1  0.394000  0.257100  0.218500  1.0  -0.0457
  C  C185  1  0.317200  0.273800  0.230100  1.0  0.0006
  C  C186  1  0.537000  0.144000  0.227700  1.0  -0.152
  C  C187  1  0.531000  0.134500  0.149000  1.0  -0.0946
  C  C188  1  0.510600  0.072700  0.118800  1.0  -0.0601
  C  C189  1  0.492600  0.021000  0.165500  1.0  -0.0959
  C  C190  1  0.501800  0.030200  0.244400  1.0  -0.0688
  C  C191  1  0.524700  0.091800  0.276600  1.0  -0.0509
  C  C192  1  0.455800  0.959700  0.127900  1.0  0.6907
  C  C193  1  0.455500  0.274500  0.618100  1.0  0.7165
  C  C194  1  0.451800  0.348300  0.628000  1.0  -0.1307
  C  C195  1  0.411300  0.389300  0.570500  1.0  -0.06
  C  C196  1  0.410900  0.456900  0.581000  1.0  -0.0475
  C  C197  1  0.450500  0.483600  0.650300  1.0  -0.1832
  C  C198  1  0.487800  0.443700  0.710000  1.0  -0.0397
  C  C199  1  0.488200  0.375700  0.698300  1.0  -0.0174
  C  C200  1  0.362800  0.585000  0.703700  1.0  -0.1053
  C  C201  1  0.294300  0.608200  0.656100  1.0  -0.0488
  C  C202  1  0.224600  0.618200  0.686500  1.0  -0.0065
  C  C203  1  0.224100  0.605900  0.763900  1.0  -0.1319
  C  C204  1  0.294300  0.584600  0.811600  1.0  -0.0532
  C  C205  1  0.362900  0.573300  0.781600  1.0  -0.0858
  C  C206  1  0.148300  0.619300  0.796000  1.0  0.7472
  C  C207  1  0.525300  0.240100  0.914600  1.0  0.744
  C  C208  1  0.490500  0.299700  0.947400  1.0  -0.1359
  C  C209  1  0.448500  0.346600  0.897300  1.0  -0.0171
  C  C210  1  0.418200  0.402800  0.926100  1.0  -0.0266
  C  C211  1  0.429500  0.412200  0.005400  1.0  -0.1388
  C  C212  1  0.470400  0.365800  0.056400  1.0  -0.0444
  C  C213  1  0.501300  0.309400  0.026400  1.0  -0.0897
  C  C214  1  0.295900  0.465600  0.056400  1.0  -0.1222
  C  C215  1  0.231700  0.475400  0.997000  1.0  -0.0501
  C  C216  1  0.155700  0.455600  0.008400  1.0  0.0273
  C  C217  1  0.144800  0.428000  0.077700  1.0  -0.0875
  C  C218  1  0.210600  0.419900  0.137300  1.0  -0.0319
  C  C219  1  0.287000  0.438300  0.126600  1.0  -0.0496
  C  C220  1  0.063500  0.405100  0.089100  1.0  0.6964
  C  C221  1  0.720100  0.197200  0.819900  1.0  0.7499
  C  C222  1  0.802300  0.217400  0.805800  1.0  -0.1386
  C  C223  1  0.864500  0.226500  0.867900  1.0  -0.0237
  C  C224  1  0.940500  0.244500  0.856600  1.0  -0.0775
  C  C225  1  0.954800  0.252300  0.781300  1.0  -0.1166
  C  C226  1  0.894000  0.242900  0.718500  1.0  -0.0462
  C  C227  1  0.817200  0.226200  0.730100  1.0  0.0006
  C  C228  1  0.037000  0.356000  0.727700  1.0  -0.1522
  C  C229  1  0.031000  0.365500  0.649000  1.0  -0.094
  C  C230  1  0.010600  0.427300  0.618800  1.0  -0.0595
  C  C231  1  0.992600  0.479000  0.665500  1.0  -0.0962
  C  C232  1  0.001800  0.469800  0.744400  1.0  -0.0688
  C  C233  1  0.024700  0.408200  0.776600  1.0  -0.0513
  C  C234  1  0.955800  0.540300  0.627900  1.0  0.6906
  C  C235  1  0.044500  0.774500  0.881900  1.0  0.7171
  C  C236  1  0.048200  0.848300  0.872000  1.0  -0.1305
  C  C237  1  0.088700  0.889300  0.929500  1.0  -0.0621
  C  C238  1  0.089100  0.956900  0.919000  1.0  -0.0476
  C  C239  1  0.049500  0.983600  0.849700  1.0  -0.1831
  C  C240  1  0.012200  0.943700  0.790000  1.0  -0.0383
  C  C241  1  0.011800  0.875700  0.801700  1.0  -0.0173
  C  C242  1  0.137200  0.085000  0.796300  1.0  -0.1086
  C  C243  1  0.205700  0.108200  0.843900  1.0  -0.0495
  C  C244  1  0.275400  0.118200  0.813500  1.0  -0.0045
  C  C245  1  0.275900  0.105900  0.736100  1.0  -0.1314
  C  C246  1  0.205700  0.084600  0.688400  1.0  -0.0494
  C  C247  1  0.137100  0.073300  0.718400  1.0  -0.0845
  C  C248  1  0.351700  0.119300  0.704000  1.0  0.7458
  C  C249  1  0.974700  0.740100  0.585400  1.0  0.7457
  C  C250  1  0.009500  0.799700  0.552600  1.0  -0.1351
  C  C251  1  0.051500  0.846600  0.602700  1.0  -0.0178
  C  C252  1  0.081800  0.902800  0.573900  1.0  -0.0277
  C  C253  1  0.070500  0.912200  0.494600  1.0  -0.1381
  C  C254  1  0.029600  0.865800  0.443600  1.0  -0.0441
  C  C255  1  0.998700  0.809400  0.473600  1.0  -0.0902
  C  C256  1  0.204100  0.965600  0.443600  1.0  -0.1218
  C  C257  1  0.268300  0.975400  0.503000  1.0  -0.0506
  C  C258  1  0.344300  0.955600  0.491600  1.0  0.027
  C  C259  1  0.355200  0.928000  0.422300  1.0  -0.0878
  C  C260  1  0.289400  0.919900  0.362700  1.0  -0.0294
  C  C261  1  0.213000  0.938300  0.373400  1.0  -0.051
  C  C262  1  0.436500  0.905100  0.410900  1.0  0.6963
  C  C263  1  0.779900  0.697200  0.680100  1.0  0.7509
  C  C264  1  0.697700  0.717400  0.694200  1.0  -0.1372
  C  C265  1  0.635500  0.726500  0.632100  1.0  -0.0236
  C  C266  1  0.559500  0.744500  0.643400  1.0  -0.0788
  C  C267  1  0.545200  0.752300  0.718700  1.0  -0.1166
  C  C268  1  0.606000  0.742900  0.781500  1.0  -0.0462
  C  C269  1  0.682800  0.726200  0.769900  1.0  -0.0017
  C  C270  1  0.463000  0.856000  0.772300  1.0  -0.1516
  C  C271  1  0.469000  0.865500  0.851000  1.0  -0.0944
  C  C272  1  0.489400  0.927300  0.881200  1.0  -0.0619
  C  C273  1  0.507400  0.979000  0.834500  1.0  -0.0965
  C  C274  1  0.498200  0.969800  0.755600  1.0  -0.0678
  C  C275  1  0.475300  0.908200  0.723400  1.0  -0.0511
  C  C276  1  0.544200  0.040300  0.872100  1.0  0.6906
  S  S277  1  0.548780  0.429260  0.334890  1.0  1.088
  S  S278  1  0.605620  0.514110  0.958830  1.0  1.1282
  S  S279  1  0.947670  0.724670  0.233910  1.0  1.0943
  S  S280  1  0.951220  0.929260  0.165110  1.0  1.0863
  S  S281  1  0.894380  0.014110  0.541170  1.0  1.1276
  S  S282  1  0.552330  0.224670  0.266090  1.0  1.0926
  S  S283  1  0.451220  0.570740  0.665110  1.0  1.0858
  S  S284  1  0.394380  0.485890  0.041170  1.0  1.1275
  S  S285  1  0.052330  0.275330  0.766090  1.0  1.0922
  S  S286  1  0.048780  0.070740  0.834890  1.0  1.0877
  S  S287  1  0.105620  0.985890  0.458830  1.0  1.1285
  S  S288  1  0.447670  0.775330  0.733910  1.0  1.0946
  O  O289  1  0.846100  0.388700  0.131300  1.0  -0.5925
  O  O290  1  0.988200  0.605700  0.971000  1.0  -0.6095
  O  O291  1  0.587200  0.751200  0.440900  1.0  -0.6055
  O  O292  1  0.480400  0.763100  0.157600  1.0  -0.6056
  O  O293  1  0.499800  0.757800  0.331900  1.0  -0.6782
  O  O294  1  0.912600  0.362300  0.248600  1.0  -0.6121
  O  O295  1  0.069900  0.415500  0.330700  1.0  -0.6669
  O  O296  1  0.336400  0.806230  0.237800  1.0  -0.6092
  O  O297  1  0.949900  0.603500  0.844100  1.0  -0.6866
  O  O298  1  0.285500  0.815100  0.111300  1.0  -0.6085
  O  O299  1  0.439500  0.801400  0.037100  1.0  -0.6121
  O  O300  1  0.057700  0.455600  0.444700  1.0  -0.6184
  O  O301  1  0.557700  0.398100  0.409500  1.0  -0.5573
  O  O302  1  0.480700  0.413800  0.275900  1.0  -0.5656
  O  O303  1  0.613400  0.465540  0.019100  1.0  -0.552
  O  O304  1  0.557300  0.499800  0.885000  1.0  -0.6183
  O  O305  1  0.895900  0.720600  0.160100  1.0  -0.5652
  O  O306  1  0.926200  0.766380  0.293500  1.0  -0.5459
  O  O307  1  0.653900  0.888700  0.368700  1.0  -0.5926
  O  O308  1  0.511800  0.105700  0.529000  1.0  -0.6096
  O  O309  1  0.912800  0.251200  0.059100  1.0  -0.6062
  O  O310  1  0.019600  0.263100  0.342400  1.0  -0.6047
  O  O311  1  0.000200  0.257800  0.168100  1.0  -0.6777
  O  O312  1  0.587400  0.862300  0.251400  1.0  -0.613
  O  O313  1  0.430100  0.915500  0.169300  1.0  -0.6684
  O  O314  1  0.163600  0.306230  0.262200  1.0  -0.6082
  O  O315  1  0.550100  0.103500  0.655900  1.0  -0.6851
  O  O316  1  0.214500  0.315100  0.388700  1.0  -0.6114
  O  O317  1  0.060500  0.301400  0.462900  1.0  -0.6136
  O  O318  1  0.442300  0.955600  0.055300  1.0  -0.6182
  O  O319  1  0.942300  0.898100  0.090500  1.0  -0.5563
  O  O320  1  0.019300  0.913800  0.224100  1.0  -0.5657
  O  O321  1  0.886600  0.965540  0.480900  1.0  -0.5516
  O  O322  1  0.942700  0.999800  0.615000  1.0  -0.6177
  O  O323  1  0.604100  0.220600  0.339900  1.0  -0.5674
  O  O324  1  0.573800  0.266380  0.206500  1.0  -0.5481
  O  O325  1  0.153900  0.611300  0.868700  1.0  -0.5926
  O  O326  1  0.011800  0.394300  0.029000  1.0  -0.6098
  O  O327  1  0.412800  0.248800  0.559100  1.0  -0.6063
  O  O328  1  0.519600  0.236900  0.842400  1.0  -0.605
  O  O329  1  0.500200  0.242200  0.668100  1.0  -0.6781
  O  O330  1  0.087400  0.637700  0.751400  1.0  -0.6131
  O  O331  1  0.930100  0.584500  0.669300  1.0  -0.668
  O  O332  1  0.663600  0.193770  0.762200  1.0  -0.6082
  O  O333  1  0.050100  0.396500  0.155900  1.0  -0.6849
  O  O334  1  0.714500  0.184900  0.888700  1.0  -0.6112
  O  O335  1  0.560500  0.198600  0.962900  1.0  -0.6131
  O  O336  1  0.942300  0.544400  0.555300  1.0  -0.6181
  O  O337  1  0.442300  0.601900  0.590500  1.0  -0.5566
  O  O338  1  0.519300  0.586200  0.724100  1.0  -0.5658
  O  O339  1  0.386600  0.534460  0.980900  1.0  -0.5513
  O  O340  1  0.442700  0.500200  0.115000  1.0  -0.6185
  O  O341  1  0.104100  0.279400  0.839900  1.0  -0.5673
  O  O342  1  0.073800  0.233620  0.706500  1.0  -0.5475
  O  O343  1  0.346100  0.111300  0.631300  1.0  -0.5922
  O  O344  1  0.488200  0.894300  0.471000  1.0  -0.6093
  O  O345  1  0.087200  0.748800  0.940900  1.0  -0.6052
  O  O346  1  0.980400  0.736900  0.657600  1.0  -0.606
  O  O347  1  0.999800  0.742200  0.831900  1.0  -0.6782
  O  O348  1  0.412600  0.137700  0.748600  1.0  -0.6127
  O  O349  1  0.569900  0.084500  0.830700  1.0  -0.6665
  O  O350  1  0.836400  0.693770  0.737800  1.0  -0.6097
  O  O351  1  0.449900  0.896500  0.344100  1.0  -0.6865
  O  O352  1  0.785500  0.684900  0.611300  1.0  -0.6086
  O  O353  1  0.939500  0.698600  0.537100  1.0  -0.6129
  O  O354  1  0.557700  0.044400  0.944700  1.0  -0.6183
  O  O355  1  0.057700  0.101900  0.909500  1.0  -0.5572
  O  O356  1  0.980700  0.086200  0.775900  1.0  -0.5657
  O  O357  1  0.113400  0.034460  0.519100  1.0  -0.5508
  O  O358  1  0.057300  0.000200  0.385000  1.0  -0.6181
  O  O359  1  0.395900  0.779400  0.660100  1.0  -0.5652
  O  O360  1  0.426200  0.733620  0.793500  1.0  -0.546
