# generated using pymatgen
data_MnH8C14SO6
_symmetry_space_group_name_H-M   'P 1'
_cell_length_a   16.70940000
_cell_length_b   20.28570000
_cell_length_c   17.19360000
_cell_angle_alpha   90.00000000
_cell_angle_beta   99.17800000
_cell_angle_gamma   90.00000000
_symmetry_Int_Tables_number   1
_chemical_formula_structural   MnH8C14SO6
_chemical_formula_sum   'Mn12 H96 C168 S12 O72'
_cell_volume   5753.36273474
_cell_formula_units_Z   12
loop_
 _symmetry_equiv_pos_site_id
 _symmetry_equiv_pos_as_xyz
  1  'x, y, z'
loop_
 _atom_site_type_symbol
 _atom_site_label
 _atom_site_symmetry_multiplicity
 _atom_site_fract_x
 _atom_site_fract_y
 _atom_site_fract_z
 _atom_site_occupancy
 _atom_site_charge
  Mn  Mn1  1  0.969120  0.833540  0.247520  1.0  1.1822
  Mn  Mn2  1  0.864160  0.875030  0.052890  1.0  1.1304
  Mn  Mn3  1  0.087660  0.852210  0.443030  1.0  1.1308
  Mn  Mn4  1  0.530880  0.333540  0.252480  1.0  1.1824
  Mn  Mn5  1  0.635840  0.375030  0.447110  1.0  1.1306
  Mn  Mn6  1  0.412340  0.352210  0.056970  1.0  1.1306
  Mn  Mn7  1  0.030880  0.166460  0.752480  1.0  1.1817
  Mn  Mn8  1  0.135840  0.124970  0.947110  1.0  1.1287
  Mn  Mn9  1  0.912340  0.147790  0.556970  1.0  1.1296
  Mn  Mn10  1  0.469120  0.666460  0.747520  1.0  1.1817
  Mn  Mn11  1  0.364160  0.624970  0.552890  1.0  1.1303
  Mn  Mn12  1  0.587660  0.647790  0.943030  1.0  1.1293
  H  H13  1  0.725100  0.783300  0.315900  1.0  0.1056
  H  H14  1  0.594600  0.755700  0.332500  1.0  0.1133
  H  H15  1  0.529500  0.750000  0.097500  1.0  0.1102
  H  H16  1  0.658200  0.781100  0.081700  1.0  0.1093
  H  H17  1  0.459100  0.669000  0.379600  1.0  0.1264
  H  H18  1  0.491000  0.565300  0.430600  1.0  0.1112
  H  H19  1  0.510800  0.498300  0.215300  1.0  0.0997
  H  H20  1  0.475800  0.601000  0.162300  1.0  0.1229
  H  H21  1  0.977000  0.721600  0.934000  1.0  0.1072
  H  H22  1  0.026100  0.625300  0.885500  1.0  0.1155
  H  H23  1  0.109200  0.568900  0.107100  1.0  0.1131
  H  H24  1  0.061300  0.665100  0.154300  1.0  0.1139
  H  H25  1  0.178900  0.567500  0.834900  1.0  0.1104
  H  H26  1  0.309300  0.598300  0.821300  1.0  0.1189
  H  H27  1  0.388100  0.532700  0.039800  1.0  0.1022
  H  H28  1  0.258400  0.501000  0.052400  1.0  0.1163
  H  H29  1  0.997800  0.651100  0.260700  1.0  0.1024
  H  H30  1  0.997000  0.538700  0.245000  1.0  0.1217
  H  H31  1  0.090100  0.517200  0.471600  1.0  0.1191
  H  H32  1  0.094500  0.630500  0.486300  1.0  0.105
  H  H33  1  0.083900  0.439300  0.192000  1.0  0.1153
  H  H34  1  0.201100  0.418700  0.139600  1.0  0.1073
  H  H35  1  0.316900  0.371400  0.354000  1.0  0.1121
  H  H36  1  0.199300  0.389300  0.406300  1.0  0.1226
  H  H37  1  0.774900  0.283300  0.184100  1.0  0.1049
  H  H38  1  0.905400  0.255700  0.167500  1.0  0.1138
  H  H39  1  0.970500  0.250000  0.402500  1.0  0.1109
  H  H40  1  0.841800  0.281100  0.418300  1.0  0.11
  H  H41  1  0.040900  0.169000  0.120400  1.0  0.1264
  H  H42  1  0.009000  0.065300  0.069400  1.0  0.1107
  H  H43  1  0.989200  0.998300  0.284700  1.0  0.0997
  H  H44  1  0.024200  0.101000  0.337700  1.0  0.1221
  H  H45  1  0.523000  0.221600  0.566000  1.0  0.1066
  H  H46  1  0.473900  0.125300  0.614500  1.0  0.1153
  H  H47  1  0.390800  0.068900  0.392900  1.0  0.1126
  H  H48  1  0.438700  0.165100  0.345700  1.0  0.112
  H  H49  1  0.321100  0.067500  0.665100  1.0  0.1111
  H  H50  1  0.190700  0.098300  0.678700  1.0  0.12
  H  H51  1  0.111900  0.032700  0.460200  1.0  0.1018
  H  H52  1  0.241600  0.001000  0.447600  1.0  0.1155
  H  H53  1  0.502200  0.151100  0.239300  1.0  0.1035
  H  H54  1  0.503000  0.038700  0.255000  1.0  0.1215
  H  H55  1  0.409900  0.017200  0.028400  1.0  0.119
  H  H56  1  0.405500  0.130500  0.013700  1.0  0.1058
  H  H57  1  0.416100  0.939300  0.308000  1.0  0.1149
  H  H58  1  0.298900  0.918700  0.360400  1.0  0.1078
  H  H59  1  0.183100  0.871400  0.146000  1.0  0.1115
  H  H60  1  0.300700  0.889300  0.093700  1.0  0.1229
  H  H61  1  0.274900  0.216700  0.684100  1.0  0.1044
  H  H62  1  0.405400  0.244300  0.667500  1.0  0.1134
  H  H63  1  0.470500  0.250000  0.902500  1.0  0.1108
  H  H64  1  0.341800  0.218900  0.918300  1.0  0.11
  H  H65  1  0.540900  0.331000  0.620400  1.0  0.1274
  H  H66  1  0.509000  0.434700  0.569400  1.0  0.1108
  H  H67  1  0.489200  0.501700  0.784700  1.0  0.0994
  H  H68  1  0.524200  0.399000  0.837700  1.0  0.1221
  H  H69  1  0.023000  0.278400  0.066000  1.0  0.1068
  H  H70  1  0.973900  0.374700  0.114500  1.0  0.1156
  H  H71  1  0.890800  0.431100  0.892900  1.0  0.1124
  H  H72  1  0.938700  0.334900  0.845700  1.0  0.1121
  H  H73  1  0.821100  0.432500  0.165100  1.0  0.1108
  H  H74  1  0.690700  0.401700  0.178700  1.0  0.12
  H  H75  1  0.611900  0.467300  0.960200  1.0  0.1019
  H  H76  1  0.741600  0.499000  0.947600  1.0  0.1155
  H  H77  1  0.002200  0.348900  0.739300  1.0  0.1053
  H  H78  1  0.003000  0.461300  0.755000  1.0  0.1221
  H  H79  1  0.909900  0.482800  0.528400  1.0  0.119
  H  H80  1  0.905500  0.369500  0.513700  1.0  0.1059
  H  H81  1  0.916100  0.560700  0.808000  1.0  0.115
  H  H82  1  0.798900  0.581300  0.860400  1.0  0.1076
  H  H83  1  0.683100  0.628600  0.646000  1.0  0.1117
  H  H84  1  0.800700  0.610700  0.593700  1.0  0.1233
  H  H85  1  0.225100  0.716700  0.815900  1.0  0.1059
  H  H86  1  0.094600  0.744300  0.832500  1.0  0.1133
  H  H87  1  0.029500  0.750000  0.597500  1.0  0.1103
  H  H88  1  0.158200  0.718900  0.581700  1.0  0.1095
  H  H89  1  0.959100  0.831000  0.879600  1.0  0.127
  H  H90  1  0.991000  0.934700  0.930600  1.0  0.111
  H  H91  1  0.010800  0.001700  0.715300  1.0  0.0996
  H  H92  1  0.975800  0.899000  0.662300  1.0  0.123
  H  H93  1  0.477000  0.778400  0.434000  1.0  0.1066
  H  H94  1  0.526100  0.874700  0.385500  1.0  0.1152
  H  H95  1  0.609200  0.931100  0.607100  1.0  0.1127
  H  H96  1  0.561300  0.834900  0.654300  1.0  0.114
  H  H97  1  0.678900  0.932500  0.334900  1.0  0.1105
  H  H98  1  0.809300  0.901700  0.321300  1.0  0.1193
  H  H99  1  0.888100  0.967300  0.539800  1.0  0.102
  H  H100  1  0.758400  0.999000  0.552400  1.0  0.116
  H  H101  1  0.497800  0.848900  0.760700  1.0  0.1029
  H  H102  1  0.497000  0.961300  0.745000  1.0  0.1209
  H  H103  1  0.590100  0.982800  0.971600  1.0  0.119
  H  H104  1  0.594500  0.869500  0.986300  1.0  0.1049
  H  H105  1  0.583900  0.060700  0.692000  1.0  0.1148
  H  H106  1  0.701100  0.081300  0.639600  1.0  0.1072
  H  H107  1  0.816900  0.128600  0.854000  1.0  0.1119
  H  H108  1  0.699300  0.110700  0.906300  1.0  0.1228
  C  C109  1  0.788800  0.803300  0.184200  1.0  0.7408
  C  C110  1  0.705500  0.784100  0.196900  1.0  -0.1563
  C  C111  1  0.685500  0.776800  0.272000  1.0  -0.0272
  C  C112  1  0.608000  0.759900  0.282200  1.0  -0.0789
  C  C113  1  0.550600  0.749400  0.216400  1.0  -0.2129
  C  C114  1  0.569000  0.757000  0.141300  1.0  -0.0366
  C  C115  1  0.645900  0.774900  0.132100  1.0  -0.0049
  C  C116  1  0.467200  0.644800  0.266500  1.0  -0.2074
  C  C117  1  0.470200  0.634700  0.347000  1.0  -0.0616
  C  C118  1  0.489800  0.573200  0.377100  1.0  -0.0756
  C  C119  1  0.507800  0.522900  0.328600  1.0  -0.1201
  C  C120  1  0.501300  0.532900  0.247900  1.0  -0.0566
  C  C121  1  0.480600  0.594000  0.216300  1.0  -0.0651
  C  C122  1  0.542100  0.461100  0.365500  1.0  0.6598
  C  C123  1  0.980700  0.763700  0.079900  1.0  0.7102
  C  C124  1  0.014600  0.702100  0.048400  1.0  -0.1228
  C  C125  1  0.003900  0.690700  0.968600  1.0  -0.0437
  C  C126  1  0.032900  0.633300  0.939400  1.0  -0.0636
  C  C127  1  0.072200  0.588300  0.992500  1.0  -0.1562
  C  C128  1  0.082600  0.599900  0.072200  1.0  -0.0516
  C  C129  1  0.054000  0.657000  0.100400  1.0  -0.0343
  C  C130  1  0.206900  0.532700  0.945200  1.0  -0.1436
  C  C131  1  0.221400  0.560900  0.876100  1.0  -0.0293
  C  C132  1  0.299000  0.579600  0.868100  1.0  -0.0282
  C  C133  1  0.360700  0.570100  0.929900  1.0  -0.1169
  C  C134  1  0.345600  0.540100  0.998700  1.0  -0.0286
  C  C135  1  0.268700  0.521200  0.006500  1.0  -0.0599
  C  C136  1  0.443700  0.594900  0.924500  1.0  0.6559
  C  C137  1  0.047100  0.725200  0.382500  1.0  0.7324
  C  C138  1  0.046900  0.652200  0.375400  1.0  -0.1555
  C  C139  1  0.017300  0.624200  0.303200  1.0  -0.0302
  C  C140  1  0.016500  0.557400  0.293800  1.0  -0.0774
  C  C141  1  0.044700  0.518200  0.357300  1.0  -0.1592
  C  C142  1  0.072500  0.544500  0.428800  1.0  -0.0499
  C  C143  1  0.074400  0.612100  0.437600  1.0  -0.0268
  C  C144  1  0.131300  0.416400  0.304000  1.0  -0.1832
  C  C145  1  0.130800  0.425500  0.224400  1.0  -0.0421
  C  C146  1  0.201000  0.413700  0.193400  1.0  -0.0296
  C  C147  1  0.270800  0.394800  0.242000  1.0  -0.1174
  C  C148  1  0.270000  0.385200  0.321500  1.0  -0.0422
  C  C149  1  0.199900  0.395900  0.352900  1.0  -0.0628
  C  C150  1  0.347200  0.382300  0.207600  1.0  0.7354
  C  C151  1  0.711200  0.303300  0.315800  1.0  0.7425
  C  C152  1  0.794500  0.284100  0.303100  1.0  -0.1584
  C  C153  1  0.814500  0.276800  0.228000  1.0  -0.0281
  C  C154  1  0.892000  0.259900  0.217800  1.0  -0.0757
  C  C155  1  0.949400  0.249400  0.283600  1.0  -0.2149
  C  C156  1  0.931000  0.257000  0.358700  1.0  -0.0327
  C  C157  1  0.854100  0.274900  0.367900  1.0  -0.0055
  C  C158  1  0.032800  0.144800  0.233500  1.0  -0.2072
  C  C159  1  0.029800  0.134700  0.153000  1.0  -0.0644
  C  C160  1  0.010200  0.073200  0.122900  1.0  -0.0754
  C  C161  1  0.992200  0.022900  0.171400  1.0  -0.1206
  C  C162  1  0.998700  0.032900  0.252100  1.0  -0.0663
  C  C163  1  0.019400  0.094000  0.283700  1.0  -0.0659
  C  C164  1  0.957900  0.961100  0.134500  1.0  0.6638
  C  C165  1  0.519300  0.263700  0.420100  1.0  0.71
  C  C166  1  0.485400  0.202100  0.451600  1.0  -0.1229
  C  C167  1  0.496100  0.190700  0.531400  1.0  -0.0438
  C  C168  1  0.467100  0.133300  0.560600  1.0  -0.064
  C  C169  1  0.427800  0.088300  0.507500  1.0  -0.1566
  C  C170  1  0.417400  0.099900  0.427800  1.0  -0.0523
  C  C171  1  0.446000  0.157000  0.399600  1.0  -0.0352
  C  C172  1  0.293100  0.032700  0.554800  1.0  -0.1439
  C  C173  1  0.278600  0.060900  0.623900  1.0  -0.027
  C  C174  1  0.201000  0.079600  0.631900  1.0  -0.0288
  C  C175  1  0.139300  0.070100  0.570100  1.0  -0.1169
  C  C176  1  0.154400  0.040100  0.501300  1.0  -0.029
  C  C177  1  0.231300  0.021200  0.493500  1.0  -0.0574
  C  C178  1  0.056300  0.094900  0.575500  1.0  0.6542
  C  C179  1  0.452900  0.225200  0.117500  1.0  0.7342
  C  C180  1  0.453100  0.152200  0.124600  1.0  -0.1554
  C  C181  1  0.482700  0.124200  0.196800  1.0  -0.0307
  C  C182  1  0.483500  0.057400  0.206200  1.0  -0.0778
  C  C183  1  0.455300  0.018200  0.142700  1.0  -0.1595
  C  C184  1  0.427500  0.044500  0.071200  1.0  -0.0498
  C  C185  1  0.425600  0.112100  0.062400  1.0  -0.0261
  C  C186  1  0.368700  0.916400  0.196000  1.0  -0.1849
  C  C187  1  0.369200  0.925500  0.275600  1.0  -0.0351
  C  C188  1  0.299000  0.913700  0.306600  1.0  -0.0312
  C  C189  1  0.229200  0.894800  0.258000  1.0  -0.1177
  C  C190  1  0.230000  0.885200  0.178500  1.0  -0.0428
  C  C191  1  0.300100  0.895900  0.147100  1.0  -0.0608
  C  C192  1  0.152800  0.882300  0.292400  1.0  0.735
  C  C193  1  0.211200  0.196700  0.815800  1.0  0.7424
  C  C194  1  0.294500  0.215900  0.803100  1.0  -0.1573
  C  C195  1  0.314500  0.223200  0.728000  1.0  -0.0281
  C  C196  1  0.392000  0.240100  0.717800  1.0  -0.0758
  C  C197  1  0.449400  0.250600  0.783600  1.0  -0.2145
  C  C198  1  0.431000  0.243000  0.858700  1.0  -0.033
  C  C199  1  0.354100  0.225100  0.867900  1.0  -0.0056
  C  C200  1  0.532800  0.355200  0.733500  1.0  -0.2075
  C  C201  1  0.529800  0.365300  0.653000  1.0  -0.0644
  C  C202  1  0.510200  0.426800  0.622900  1.0  -0.0749
  C  C203  1  0.492200  0.477100  0.671400  1.0  -0.1205
  C  C204  1  0.498700  0.467100  0.752100  1.0  -0.0669
  C  C205  1  0.519400  0.406000  0.783700  1.0  -0.0664
  C  C206  1  0.457900  0.538900  0.634500  1.0  0.6632
  C  C207  1  0.019300  0.236300  0.920100  1.0  0.7101
  C  C208  1  0.985400  0.297900  0.951600  1.0  -0.1226
  C  C209  1  0.996100  0.309300  0.031400  1.0  -0.0446
  C  C210  1  0.967100  0.366700  0.060600  1.0  -0.0646
  C  C211  1  0.927800  0.411700  0.007500  1.0  -0.1566
  C  C212  1  0.917400  0.400100  0.927800  1.0  -0.0508
  C  C213  1  0.946000  0.343000  0.899600  1.0  -0.0349
  C  C214  1  0.793100  0.467300  0.054800  1.0  -0.1435
  C  C215  1  0.778600  0.439100  0.123900  1.0  -0.031
  C  C216  1  0.701000  0.420400  0.131900  1.0  -0.024
  C  C217  1  0.639300  0.429900  0.070100  1.0  -0.117
  C  C218  1  0.654400  0.459900  0.001300  1.0  -0.0289
  C  C219  1  0.731300  0.478800  0.993500  1.0  -0.0556
  C  C220  1  0.556300  0.405100  0.075500  1.0  0.6544
  C  C221  1  0.952900  0.274800  0.617500  1.0  0.733
  C  C222  1  0.953100  0.347800  0.624600  1.0  -0.1557
  C  C223  1  0.982700  0.375800  0.696800  1.0  -0.0308
  C  C224  1  0.983500  0.442600  0.706200  1.0  -0.0781
  C  C225  1  0.955300  0.481800  0.642700  1.0  -0.1603
  C  C226  1  0.927500  0.455500  0.571200  1.0  -0.0518
  C  C227  1  0.925600  0.387900  0.562400  1.0  -0.0293
  C  C228  1  0.868700  0.583600  0.696000  1.0  -0.1851
  C  C229  1  0.869200  0.574500  0.775600  1.0  -0.0352
  C  C230  1  0.799000  0.586300  0.806600  1.0  -0.0314
  C  C231  1  0.729200  0.605200  0.758000  1.0  -0.1182
  C  C232  1  0.730000  0.614800  0.678500  1.0  -0.0438
  C  C233  1  0.800100  0.604100  0.647100  1.0  -0.061
  C  C234  1  0.652800  0.617700  0.792400  1.0  0.7336
  C  C235  1  0.288800  0.696700  0.684200  1.0  0.7409
  C  C236  1  0.205500  0.715900  0.696900  1.0  -0.1561
  C  C237  1  0.185500  0.723200  0.772000  1.0  -0.0268
  C  C238  1  0.108000  0.740100  0.782200  1.0  -0.0807
  C  C239  1  0.050600  0.750600  0.716400  1.0  -0.2129
  C  C240  1  0.069000  0.743000  0.641300  1.0  -0.0366
  C  C241  1  0.145900  0.725100  0.632100  1.0  -0.0052
  C  C242  1  0.967200  0.855200  0.766500  1.0  -0.2079
  C  C243  1  0.970200  0.865300  0.847000  1.0  -0.063
  C  C244  1  0.989800  0.926800  0.877100  1.0  -0.0751
  C  C245  1  0.007800  0.977100  0.828600  1.0  -0.1204
  C  C246  1  0.001300  0.967100  0.747900  1.0  -0.0568
  C  C247  1  0.980600  0.906000  0.716300  1.0  -0.0656
  C  C248  1  0.042100  0.038900  0.865500  1.0  0.6598
  C  C249  1  0.480700  0.736300  0.579900  1.0  0.7107
  C  C250  1  0.514600  0.797900  0.548400  1.0  -0.1222
  C  C251  1  0.503900  0.809300  0.468600  1.0  -0.0449
  C  C252  1  0.532900  0.866700  0.439400  1.0  -0.066
  C  C253  1  0.572200  0.911700  0.492500  1.0  -0.1567
  C  C254  1  0.582600  0.900100  0.572200  1.0  -0.049
  C  C255  1  0.554000  0.843000  0.600400  1.0  -0.0338
  C  C256  1  0.706900  0.967300  0.445200  1.0  -0.143
  C  C257  1  0.721400  0.939100  0.376100  1.0  -0.0313
  C  C258  1  0.799000  0.920400  0.368100  1.0  -0.0267
  C  C259  1  0.860700  0.929900  0.429900  1.0  -0.1169
  C  C260  1  0.845600  0.959900  0.498700  1.0  -0.0287
  C  C261  1  0.768700  0.978800  0.506500  1.0  -0.058
  C  C262  1  0.943700  0.905100  0.424500  1.0  0.6553
  C  C263  1  0.547100  0.774800  0.882500  1.0  0.7322
  C  C264  1  0.546900  0.847800  0.875400  1.0  -0.1557
  C  C265  1  0.517300  0.875800  0.803200  1.0  -0.0304
  C  C266  1  0.516500  0.942600  0.793800  1.0  -0.0769
  C  C267  1  0.544700  0.981800  0.857300  1.0  -0.1599
  C  C268  1  0.572500  0.955500  0.928800  1.0  -0.0497
  C  C269  1  0.574400  0.887900  0.937600  1.0  -0.0252
  C  C270  1  0.631300  0.083600  0.804000  1.0  -0.1833
  C  C271  1  0.630800  0.074500  0.724400  1.0  -0.0422
  C  C272  1  0.701000  0.086300  0.693400  1.0  -0.03
  C  C273  1  0.770800  0.105200  0.742000  1.0  -0.1174
  C  C274  1  0.770000  0.114800  0.821500  1.0  -0.0427
  C  C275  1  0.699900  0.104100  0.852900  1.0  -0.065
  C  C276  1  0.847200  0.117700  0.707600  1.0  0.7351
  S  S277  1  0.452050  0.725100  0.229020  1.0  1.1277
  S  S278  1  0.106930  0.514090  0.957790  1.0  1.1272
  S  S279  1  0.042700  0.431950  0.344330  1.0  1.0761
  S  S280  1  0.047950  0.225100  0.270980  1.0  1.1263
  S  S281  1  0.393070  0.014090  0.542210  1.0  1.1279
  S  S282  1  0.457300  0.931950  0.155670  1.0  1.0737
  S  S283  1  0.547950  0.274900  0.770980  1.0  1.1266
  S  S284  1  0.893070  0.485910  0.042210  1.0  1.1271
  S  S285  1  0.957300  0.568050  0.655670  1.0  1.0738
  S  S286  1  0.952050  0.774900  0.729020  1.0  1.1282
  S  S287  1  0.606930  0.985910  0.457790  1.0  1.1276
  S  S288  1  0.542700  0.068050  0.844330  1.0  1.0757
  O  O289  1  0.014900  0.756800  0.325300  1.0  -0.6871
  O  O290  1  0.568400  0.417700  0.324000  1.0  -0.6297
  O  O291  1  0.986800  0.768610  0.153400  1.0  -0.624
  O  O292  1  0.409500  0.368500  0.254300  1.0  -0.597
  O  O293  1  0.842900  0.807120  0.243410  1.0  -0.5901
  O  O294  1  0.462600  0.610770  0.859700  1.0  -0.6857
  O  O295  1  0.798900  0.812900  0.114500  1.0  -0.6478
  O  O296  1  0.947600  0.804230  0.030200  1.0  -0.5856
  O  O297  1  0.551100  0.456000  0.439200  1.0  -0.6148
  O  O298  1  0.341400  0.386200  0.134100  1.0  -0.613
  O  O299  1  0.081200  0.751100  0.445700  1.0  -0.5847
  O  O300  1  0.492900  0.600000  0.987300  1.0  -0.5765
  O  O301  1  0.426400  0.765000  0.289500  1.0  -0.5408
  O  O302  1  0.403300  0.721840  0.153200  1.0  -0.5487
  O  O303  1  0.061900  0.500310  0.882300  1.0  -0.5678
  O  O304  1  0.110100  0.467040  0.019800  1.0  -0.5558
  O  O305  1  0.050300  0.401660  0.419800  1.0  -0.5408
  O  O306  1  0.975900  0.415980  0.284800  1.0  -0.5548
  O  O307  1  0.485100  0.256800  0.174700  1.0  -0.6868
  O  O308  1  0.931600  0.917700  0.176000  1.0  -0.6295
  O  O309  1  0.513200  0.268610  0.346600  1.0  -0.6238
  O  O310  1  0.090500  0.868500  0.245700  1.0  -0.5972
  O  O311  1  0.657100  0.307120  0.256590  1.0  -0.5906
  O  O312  1  0.037400  0.110770  0.640300  1.0  -0.685
  O  O313  1  0.701100  0.312900  0.385500  1.0  -0.6465
  O  O314  1  0.552400  0.304230  0.469800  1.0  -0.585
  O  O315  1  0.948900  0.956000  0.060800  1.0  -0.6149
  O  O316  1  0.158600  0.886200  0.365900  1.0  -0.6134
  O  O317  1  0.418800  0.251100  0.054300  1.0  -0.5827
  O  O318  1  0.007100  0.100000  0.512700  1.0  -0.5798
  O  O319  1  0.073600  0.265000  0.210500  1.0  -0.5409
  O  O320  1  0.096700  0.221840  0.346800  1.0  -0.5492
  O  O321  1  0.438100  0.000310  0.617700  1.0  -0.5685
  O  O322  1  0.389900  0.967040  0.480200  1.0  -0.5563
  O  O323  1  0.449700  0.901660  0.080200  1.0  -0.5434
  O  O324  1  0.524100  0.915980  0.215200  1.0  -0.556
  O  O325  1  0.985100  0.243200  0.674700  1.0  -0.6867
  O  O326  1  0.431600  0.582300  0.676000  1.0  -0.6299
  O  O327  1  0.013200  0.231390  0.846600  1.0  -0.6229
  O  O328  1  0.590500  0.631500  0.745700  1.0  -0.5972
  O  O329  1  0.157100  0.192880  0.756590  1.0  -0.5907
  O  O330  1  0.537400  0.389230  0.140300  1.0  -0.6849
  O  O331  1  0.201100  0.187100  0.885500  1.0  -0.6463
  O  O332  1  0.052400  0.195770  0.969800  1.0  -0.585
  O  O333  1  0.448900  0.544000  0.560800  1.0  -0.6142
  O  O334  1  0.658600  0.613800  0.865900  1.0  -0.6142
  O  O335  1  0.918800  0.248900  0.554300  1.0  -0.5821
  O  O336  1  0.507100  0.400000  0.012700  1.0  -0.5794
  O  O337  1  0.573600  0.235000  0.710500  1.0  -0.5397
  O  O338  1  0.596700  0.278160  0.846800  1.0  -0.549
  O  O339  1  0.938100  0.499690  0.117700  1.0  -0.5687
  O  O340  1  0.889900  0.532960  0.980200  1.0  -0.5557
  O  O341  1  0.949700  0.598340  0.580200  1.0  -0.5411
  O  O342  1  0.024100  0.584020  0.715200  1.0  -0.5566
  O  O343  1  0.514900  0.743200  0.825300  1.0  -0.6868
  O  O344  1  0.068400  0.082300  0.824000  1.0  -0.6298
  O  O345  1  0.486800  0.731390  0.653400  1.0  -0.6224
  O  O346  1  0.909500  0.131500  0.754300  1.0  -0.5975
  O  O347  1  0.342900  0.692880  0.743410  1.0  -0.5907
  O  O348  1  0.962600  0.889230  0.359700  1.0  -0.686
  O  O349  1  0.298900  0.687100  0.614500  1.0  -0.6481
  O  O350  1  0.447600  0.695770  0.530200  1.0  -0.5859
  O  O351  1  0.051100  0.044000  0.939200  1.0  -0.6149
  O  O352  1  0.841400  0.113800  0.634100  1.0  -0.6141
  O  O353  1  0.581200  0.748900  0.945700  1.0  -0.5832
  O  O354  1  0.992900  0.900000  0.487300  1.0  -0.5757
  O  O355  1  0.926400  0.735000  0.789500  1.0  -0.5407
  O  O356  1  0.903300  0.778160  0.653200  1.0  -0.5473
  O  O357  1  0.561900  0.999690  0.382300  1.0  -0.5674
  O  O358  1  0.610100  0.032960  0.519800  1.0  -0.5552
  O  O359  1  0.550300  0.098340  0.919800  1.0  -0.541
  O  O360  1  0.475900  0.084020  0.784800  1.0  -0.5552
