# generated using pymatgen
data_MnH8C14SO6
_symmetry_space_group_name_H-M   'P 1'
_cell_length_a   11.63840000
_cell_length_b   21.05200000
_cell_length_c   24.24700000
_cell_angle_alpha   114.95900000
_cell_angle_beta   102.95000000
_cell_angle_gamma   92.40600000
_symmetry_Int_Tables_number   1
_chemical_formula_structural   MnH8C14SO6
_chemical_formula_sum   'Mn8 H64 C112 S8 O48'
_cell_volume   5185.93932370
_cell_formula_units_Z   8
loop_
 _symmetry_equiv_pos_site_id
 _symmetry_equiv_pos_as_xyz
  1  'x, y, z'
loop_
 _atom_site_type_symbol
 _atom_site_label
 _atom_site_symmetry_multiplicity
 _atom_site_fract_x
 _atom_site_fract_y
 _atom_site_fract_z
 _atom_site_occupancy
 _atom_site_charge
  Mn  Mn1  1  0.420360  0.170380  0.340790  1.0  1.0921
  Mn  Mn2  1  0.664440  0.235690  0.292970  1.0  1.1198
  Mn  Mn3  1  0.128520  0.057230  0.292990  1.0  1.1606
  Mn  Mn4  1  0.872640  0.122700  0.245410  1.0  1.0701
  Mn  Mn5  1  0.579640  0.829620  0.659210  1.0  1.0921
  Mn  Mn6  1  0.335560  0.764310  0.707030  1.0  1.1191
  Mn  Mn7  1  0.871480  0.942770  0.707010  1.0  1.1584
  Mn  Mn8  1  0.127360  0.877300  0.754590  1.0  1.0698
  H  H9  1  0.845600  0.368100  0.488000  1.0  0.1272
  H  H10  1  0.912100  0.446300  0.593700  1.0  0.1071
  H  H11  1  0.676800  0.341300  0.633300  1.0  0.1138
  H  H12  1  0.608500  0.262400  0.527900  1.0  0.1063
  H  H13  1  0.880500  0.586300  0.677600  1.0  0.1321
  H  H14  1  0.763300  0.666300  0.666400  1.0  0.1053
  H  H15  1  0.511200  0.589500  0.715500  1.0  0.1135
  H  H16  1  0.620500  0.501000  0.720900  1.0  0.1137
  H  H17  1  0.355400  0.036400  0.199200  1.0  0.1075
  H  H18  1  0.264500  0.919400  0.141400  1.0  0.1126
  H  H19  1  0.586500  0.858800  0.136700  1.0  0.1223
  H  H20  1  0.674600  0.974200  0.195400  1.0  0.1213
  H  H21  1  0.175600  0.839300  0.012800  1.0  0.1193
  H  H22  1  0.149700  0.846100  0.919600  1.0  0.1094
  H  H23  1  0.431000  0.747300  0.886500  1.0  0.1095
  H  H24  1  0.458400  0.740200  0.980900  1.0  0.1123
  H  H25  1  0.296200  0.875400  0.288200  1.0  0.1136
  H  H26  1  0.398900  0.780300  0.277600  1.0  0.1078
  H  H27  1  0.702300  0.907900  0.321400  1.0  0.1336
  H  H28  1  0.597400  0.998800  0.332900  1.0  0.0963
  H  H29  1  0.544600  0.707300  0.366800  1.0  0.1166
  H  H30  1  0.579400  0.733500  0.470800  1.0  0.1017
  H  H31  1  0.857200  0.880500  0.511700  1.0  0.1275
  H  H32  1  0.820300  0.851900  0.406800  1.0  0.1165
  H  H33  1  0.020700  0.220700  0.194900  1.0  0.1222
  H  H34  1  0.052000  0.278700  0.136900  1.0  0.1182
  H  H35  1  0.375400  0.221600  0.141400  1.0  0.1156
  H  H36  1  0.344400  0.163700  0.199500  1.0  0.1177
  H  H37  1  0.020800  0.240100  0.980900  1.0  0.1216
  H  H38  1  0.955100  0.138300  0.886400  1.0  0.1058
  H  H39  1  0.270100  0.073200  0.919200  1.0  0.1141
  H  H40  1  0.337900  0.173300  0.011200  1.0  0.1118
  H  H41  1  0.154400  0.631900  0.512000  1.0  0.1275
  H  H42  1  0.087900  0.553700  0.406300  1.0  0.1067
  H  H43  1  0.323200  0.658700  0.366700  1.0  0.1138
  H  H44  1  0.391500  0.737600  0.472100  1.0  0.1072
  H  H45  1  0.119500  0.413700  0.322400  1.0  0.1328
  H  H46  1  0.236700  0.333700  0.333600  1.0  0.1052
  H  H47  1  0.488800  0.410500  0.284500  1.0  0.1127
  H  H48  1  0.379500  0.499000  0.279100  1.0  0.1123
  H  H49  1  0.644600  0.963600  0.800800  1.0  0.1075
  H  H50  1  0.735500  0.080600  0.858600  1.0  0.1139
  H  H51  1  0.413500  0.141200  0.863300  1.0  0.123
  H  H52  1  0.325400  0.025800  0.804600  1.0  0.1222
  H  H53  1  0.824400  0.160700  0.987200  1.0  0.119
  H  H54  1  0.850300  0.153900  0.080400  1.0  0.1092
  H  H55  1  0.569000  0.252700  0.113500  1.0  0.1095
  H  H56  1  0.541600  0.259800  0.019100  1.0  0.1124
  H  H57  1  0.703800  0.124600  0.711800  1.0  0.1129
  H  H58  1  0.601100  0.219700  0.722400  1.0  0.108
  H  H59  1  0.297700  0.092100  0.678600  1.0  0.1328
  H  H60  1  0.402600  0.001200  0.667100  1.0  0.0958
  H  H61  1  0.455400  0.292700  0.633200  1.0  0.1165
  H  H62  1  0.420600  0.266500  0.529200  1.0  0.1019
  H  H63  1  0.142800  0.119500  0.488300  1.0  0.1274
  H  H64  1  0.179700  0.148100  0.593200  1.0  0.1162
  H  H65  1  0.979300  0.779300  0.805100  1.0  0.1219
  H  H66  1  0.948000  0.721300  0.863100  1.0  0.1181
  H  H67  1  0.624600  0.778400  0.858600  1.0  0.1156
  H  H68  1  0.655600  0.836300  0.800500  1.0  0.1173
  H  H69  1  0.979200  0.759900  0.019100  1.0  0.1212
  H  H70  1  0.044900  0.861700  0.113600  1.0  0.1069
  H  H71  1  0.729900  0.926800  0.080800  1.0  0.114
  H  H72  1  0.662100  0.826700  0.988800  1.0  0.1123
  C  C73  1  0.667400  0.260500  0.427500  1.0  0.7249
  C  C74  1  0.718000  0.307100  0.496700  1.0  -0.1511
  C  C75  1  0.810600  0.362500  0.516900  1.0  -0.0627
  C  C76  1  0.850200  0.409400  0.580500  1.0  -0.0548
  C  C77  1  0.801200  0.402900  0.623900  1.0  -0.1392
  C  C78  1  0.710400  0.347000  0.604000  1.0  -0.045
  C  C79  1  0.669500  0.299700  0.540800  1.0  -0.0198
  C  C80  1  0.756400  0.533600  0.700900  1.0  -0.0625
  C  C81  1  0.804800  0.585900  0.684200  1.0  -0.1014
  C  C82  1  0.735400  0.633600  0.678600  1.0  -0.0053
  C  C83  1  0.626000  0.635900  0.690200  1.0  -0.1473
  C  C84  1  0.585100  0.587800  0.706600  1.0  -0.0403
  C  C85  1  0.651700  0.534900  0.710900  1.0  -0.0783
  C  C86  1  0.553900  0.690900  0.684700  1.0  0.716
  C  C87  1  0.582300  0.092500  0.243000  1.0  0.673
  C  C88  1  0.522300  0.016800  0.205400  1.0  -0.1392
  C  C89  1  0.401700  0.000500  0.187500  1.0  -0.0469
  C  C90  1  0.347100  0.930500  0.151900  1.0  -0.0167
  C  C91  1  0.414800  0.877400  0.131900  1.0  -0.2028
  C  C92  1  0.539900  0.894500  0.149400  1.0  -0.035
  C  C93  1  0.592100  0.962800  0.184700  1.0  -0.0416
  C  C94  1  0.321500  0.787900  0.005400  1.0  -0.153
  C  C95  1  0.226900  0.821000  0.987400  1.0  -0.0735
  C  C96  1  0.212800  0.825400  0.932400  1.0  0.0041
  C  C97  1  0.289800  0.800000  0.894100  1.0  -0.1054
  C  C98  1  0.380700  0.766500  0.912200  1.0  -0.0398
  C  C99  1  0.396200  0.761600  0.968300  1.0  -0.023
  C  C100  1  0.272800  0.807500  0.833600  1.0  0.7452
  C  C101  1  0.368300  0.006300  0.315000  1.0  0.7066
  C  C102  1  0.435400  0.945600  0.309200  1.0  -0.1116
  C  C103  1  0.378500  0.882000  0.294700  1.0  -0.0434
  C  C104  1  0.440600  0.824500  0.288900  1.0  -0.0676
  C  C105  1  0.555700  0.833000  0.299300  1.0  -0.0622
  C  C106  1  0.620000  0.901000  0.315200  1.0  -0.1
  C  C107  1  0.556700  0.954000  0.320700  1.0  -0.0317
  C  C108  1  0.676800  0.779400  0.377100  1.0  -0.0929
  C  C109  1  0.606700  0.742700  0.396400  1.0  -0.0382
  C  C110  1  0.627800  0.758100  0.458300  1.0  -0.0267
  C  C111  1  0.721200  0.810200  0.503100  1.0  -0.142
  C  C112  1  0.793700  0.845700  0.482700  1.0  -0.0465
  C  C113  1  0.770800  0.829000  0.420300  1.0  -0.0432
  C  C114  1  0.740400  0.833500  0.572900  1.0  0.7183
  C  C115  1  0.161400  0.151500  0.243700  1.0  0.6713
  C  C116  1  0.183600  0.188300  0.204700  1.0  -0.0941
  C  C117  1  0.092700  0.221700  0.184400  1.0  -0.0428
  C  C118  1  0.110700  0.255300  0.149500  1.0  -0.0199
  C  C119  1  0.216900  0.254800  0.132400  1.0  -0.1622
  C  C120  1  0.303500  0.221300  0.152100  1.0  -0.0396
  C  C121  1  0.285700  0.187400  0.187400  1.0  -0.0841
  C  C122  1  0.184300  0.217400  0.005600  1.0  -0.2234
  C  C123  1  0.070900  0.206500  0.968500  1.0  -0.0248
  C  C124  1  0.031300  0.145300  0.912300  1.0  -0.0289
  C  C125  1  0.105000  0.094400  0.894700  1.0  -0.1131
  C  C126  1  0.219900  0.106600  0.932000  1.0  -0.0085
  C  C127  1  0.260500  0.166000  0.986300  1.0  -0.0545
  C  C128  1  0.061400  0.025600  0.833800  1.0  0.7424
  C  C129  1  0.332600  0.739500  0.572500  1.0  0.7245
  C  C130  1  0.282000  0.692900  0.503300  1.0  -0.1505
  C  C131  1  0.189400  0.637500  0.483100  1.0  -0.0643
  C  C132  1  0.149800  0.590600  0.419500  1.0  -0.0551
  C  C133  1  0.198800  0.597100  0.376100  1.0  -0.1376
  C  C134  1  0.289600  0.653000  0.396000  1.0  -0.047
  C  C135  1  0.330500  0.700300  0.459200  1.0  -0.0203
  C  C136  1  0.243600  0.466400  0.299100  1.0  -0.0625
  C  C137  1  0.195200  0.414100  0.315800  1.0  -0.1008
  C  C138  1  0.264600  0.366400  0.321400  1.0  -0.0065
  C  C139  1  0.374000  0.364100  0.309800  1.0  -0.1452
  C  C140  1  0.414900  0.412200  0.293400  1.0  -0.0371
  C  C141  1  0.348300  0.465100  0.289100  1.0  -0.0784
  C  C142  1  0.446100  0.309100  0.315300  1.0  0.7143
  C  C143  1  0.417700  0.907500  0.757000  1.0  0.6741
  C  C144  1  0.477700  0.983200  0.794600  1.0  -0.1401
  C  C145  1  0.598300  0.999500  0.812500  1.0  -0.0462
  C  C146  1  0.652900  0.069500  0.848100  1.0  -0.0166
  C  C147  1  0.585200  0.122600  0.868100  1.0  -0.2021
  C  C148  1  0.460100  0.105500  0.850600  1.0  -0.0343
  C  C149  1  0.407900  0.037200  0.815300  1.0  -0.0405
  C  C150  1  0.678500  0.212100  0.994600  1.0  -0.1524
  C  C151  1  0.773100  0.179000  0.012600  1.0  -0.0746
  C  C152  1  0.787200  0.174600  0.067600  1.0  0.0055
  C  C153  1  0.710200  0.200000  0.105900  1.0  -0.1066
  C  C154  1  0.619300  0.233500  0.087800  1.0  -0.0402
  C  C155  1  0.603800  0.238400  0.031700  1.0  -0.0224
  C  C156  1  0.727200  0.192500  0.166400  1.0  0.7461
  C  C157  1  0.631700  0.993700  0.685000  1.0  0.7072
  C  C158  1  0.564600  0.054400  0.690800  1.0  -0.1156
  C  C159  1  0.621500  0.118000  0.705300  1.0  -0.0418
  C  C160  1  0.559400  0.175500  0.711100  1.0  -0.0694
  C  C161  1  0.444300  0.167000  0.700700  1.0  -0.0587
  C  C162  1  0.380000  0.099000  0.684800  1.0  -0.1001
  C  C163  1  0.443300  0.046000  0.679300  1.0  -0.0291
  C  C164  1  0.323200  0.220600  0.622900  1.0  -0.0917
  C  C165  1  0.393300  0.257300  0.603600  1.0  -0.0369
  C  C166  1  0.372200  0.241900  0.541700  1.0  -0.027
  C  C167  1  0.278800  0.189800  0.496900  1.0  -0.1406
  C  C168  1  0.206300  0.154300  0.517300  1.0  -0.0461
  C  C169  1  0.229200  0.171000  0.579700  1.0  -0.0446
  C  C170  1  0.259600  0.166500  0.427100  1.0  0.7174
  C  C171  1  0.838600  0.848500  0.756300  1.0  0.6709
  C  C172  1  0.816400  0.811700  0.795300  1.0  -0.0928
  C  C173  1  0.907300  0.778300  0.815600  1.0  -0.0434
  C  C174  1  0.889300  0.744700  0.850500  1.0  -0.0198
  C  C175  1  0.783100  0.745200  0.867600  1.0  -0.1627
  C  C176  1  0.696500  0.778700  0.847900  1.0  -0.0375
  C  C177  1  0.714300  0.812600  0.812600  1.0  -0.0822
  C  C178  1  0.815700  0.782600  0.994400  1.0  -0.2241
  C  C179  1  0.929100  0.793500  0.031500  1.0  -0.0242
  C  C180  1  0.968700  0.854700  0.087700  1.0  -0.0294
  C  C181  1  0.895000  0.905600  0.105300  1.0  -0.1129
  C  C182  1  0.780100  0.893400  0.068000  1.0  -0.009
  C  C183  1  0.739500  0.834000  0.013700  1.0  -0.0548
  C  C184  1  0.938600  0.974400  0.166200  1.0  0.7415
  S  S185  1  0.843100  0.467660  0.702450  1.0  1.0591
  S  S186  1  0.345190  0.789460  0.080940  1.0  1.0937
  S  S187  1  0.640700  0.765060  0.297480  1.0  1.084
  S  S188  1  0.235790  0.291470  0.081000  1.0  1.0812
  S  S189  1  0.156900  0.532340  0.297550  1.0  1.059
  S  S190  1  0.654810  0.210540  0.919060  1.0  1.097
  S  S191  1  0.359300  0.234940  0.702520  1.0  1.0839
  S  S192  1  0.764210  0.708530  0.919000  1.0  1.0737
  O  O193  1  0.582200  0.211200  0.412900  1.0  -0.638
  O  O194  1  0.669100  0.798500  0.586900  1.0  -0.641
  O  O195  1  0.428000  0.066200  0.335730  1.0  -0.6266
  O  O196  1  0.592000  0.730500  0.664020  1.0  -0.6323
  O  O197  1  0.244000  0.122510  0.263550  1.0  -0.6637
  O  O198  1  0.518700  0.140770  0.263790  1.0  -0.692
  O  O199  1  0.713100  0.271100  0.390040  1.0  -0.6366
  O  O200  1  0.460100  0.695300  0.703730  1.0  -0.6303
  O  O201  1  0.342200  0.783900  0.801140  1.0  -0.5945
  O  O202  1  0.693800  0.109200  0.255920  1.0  -0.7356
  O  O203  1  0.822900  0.881700  0.610140  1.0  -0.6327
  O  O204  1  0.256000  0.990800  0.296120  1.0  -0.6176
  O  O205  1  0.958200  0.017600  0.801300  1.0  -0.594
  O  O206  1  0.062300  0.146800  0.255850  1.0  -0.7341
  O  O207  1  0.190000  0.840400  0.822490  1.0  -0.6157
  O  O208  1  0.132000  0.981400  0.822380  1.0  -0.5989
  O  O209  1  0.969600  0.495800  0.716100  1.0  -0.5652
  O  O210  1  0.805000  0.438700  0.740000  1.0  -0.4856
  O  O211  1  0.430500  0.742800  0.085150  1.0  -0.5642
  O  O212  1  0.230400  0.779100  0.091800  1.0  -0.5865
  O  O213  1  0.752400  0.778700  0.283700  1.0  -0.5647
  O  O214  1  0.565800  0.698100  0.259200  1.0  -0.4889
  O  O215  1  0.360900  0.312400  0.091770  1.0  -0.5488
  O  O216  1  0.154500  0.342300  0.085120  1.0  -0.5649
  O  O217  1  0.417800  0.788800  0.587100  1.0  -0.64
  O  O218  1  0.330900  0.201500  0.413100  1.0  -0.6392
  O  O219  1  0.572000  0.933800  0.664270  1.0  -0.6249
  O  O220  1  0.408000  0.269500  0.335980  1.0  -0.6327
  O  O221  1  0.756000  0.877490  0.736450  1.0  -0.6638
  O  O222  1  0.481300  0.859230  0.736210  1.0  -0.6919
  O  O223  1  0.286900  0.728900  0.609960  1.0  -0.636
  O  O224  1  0.539900  0.304700  0.296270  1.0  -0.631
  O  O225  1  0.657800  0.216100  0.198860  1.0  -0.5941
  O  O226  1  0.306200  0.890800  0.744080  1.0  -0.7357
  O  O227  1  0.177100  0.118300  0.389860  1.0  -0.6328
  O  O228  1  0.744000  0.009200  0.703880  1.0  -0.6186
  O  O229  1  0.041800  0.982400  0.198700  1.0  -0.5955
  O  O230  1  0.937700  0.853200  0.744150  1.0  -0.7347
  O  O231  1  0.810000  0.159600  0.177510  1.0  -0.616
  O  O232  1  0.868000  0.018600  0.177620  1.0  -0.5993
  O  O233  1  0.030400  0.504200  0.283900  1.0  -0.5601
  O  O234  1  0.195000  0.561300  0.260000  1.0  -0.4864
  O  O235  1  0.569500  0.257200  0.914850  1.0  -0.5636
  O  O236  1  0.769600  0.220900  0.908200  1.0  -0.588
  O  O237  1  0.247600  0.221300  0.716300  1.0  -0.559
  O  O238  1  0.434200  0.301900  0.740800  1.0  -0.4933
  O  O239  1  0.639100  0.687600  0.908230  1.0  -0.5476
  O  O240  1  0.845500  0.657700  0.914880  1.0  -0.5653
