# generated using pymatgen
data_Mn3H27C44S3NO18
_symmetry_space_group_name_H-M   'P 1'
_cell_length_a   16.70940000
_cell_length_b   20.28570000
_cell_length_c   17.19360000
_cell_angle_alpha   90.00000000
_cell_angle_beta   99.17800000
_cell_angle_gamma   90.00000000
_symmetry_Int_Tables_number   1
_chemical_formula_structural   Mn3H27C44S3NO18
_chemical_formula_sum   'Mn12 H108 C176 S12 N4 O72'
_cell_volume   5753.36273474
_cell_formula_units_Z   4
loop_
 _symmetry_equiv_pos_site_id
 _symmetry_equiv_pos_as_xyz
  1  'x, y, z'
loop_
 _atom_site_type_symbol
 _atom_site_label
 _atom_site_symmetry_multiplicity
 _atom_site_fract_x
 _atom_site_fract_y
 _atom_site_fract_z
 _atom_site_occupancy
 _atom_site_charge
  Mn  Mn1  1  0.249570  0.334210  0.036140  1.0  1.1428
  Mn  Mn2  1  0.445460  0.374090  0.139340  1.0  1.1077
  Mn  Mn3  1  0.052200  0.355040  0.916950  1.0  1.0911
  Mn  Mn4  1  0.250430  0.834210  0.463860  1.0  1.1431
  Mn  Mn5  1  0.054540  0.874090  0.360660  1.0  1.1085
  Mn  Mn6  1  0.447800  0.855040  0.583050  1.0  1.0901
  Mn  Mn7  1  0.750430  0.665790  0.963860  1.0  1.1419
  Mn  Mn8  1  0.554540  0.625910  0.860660  1.0  1.1085
  Mn  Mn9  1  0.947800  0.644960  0.083050  1.0  1.0913
  Mn  Mn10  1  0.749570  0.165790  0.536140  1.0  1.1416
  Mn  Mn11  1  0.945460  0.125910  0.639340  1.0  1.1069
  Mn  Mn12  1  0.552200  0.144960  0.416950  1.0  1.0903
  H  H13  1  0.214000  0.500800  0.018400  1.0  0.1049
  H  H14  1  0.160200  0.603800  0.980100  1.0  0.1009
  H  H15  1  0.380600  0.670300  0.959900  1.0  0.123
  H  H16  1  0.433000  0.566800  0.994800  1.0  0.1028
  H  H17  1  0.095400  0.750800  0.032400  1.0  0.1112
  H  H18  1  0.080400  0.780100  0.159300  1.0  0.0975
  H  H19  1  0.319700  0.787300  0.221700  1.0  0.1047
  H  H20  1  0.334900  0.761100  0.093600  1.0  0.0965
  H  H21  1  0.353200  0.368600  0.823300  1.0  0.1133
  H  H22  1  0.405800  0.384300  0.709000  1.0  0.1162
  H  H23  1  0.189200  0.438300  0.596300  1.0  0.1171
  H  H24  1  0.135800  0.419800  0.710600  1.0  0.0986
  H  H25  1  0.246000  0.538000  0.493400  1.0  0.1105
  H  H26  1  0.264400  0.650100  0.489500  1.0  0.0995
  H  H27  1  0.480900  0.631200  0.620900  1.0  0.0979
  H  H28  1  0.464400  0.518300  0.621000  1.0  0.1013
  H  H29  1  0.950400  0.456400  0.119600  1.0  0.1005
  H  H30  1  0.940000  0.490300  0.246000  1.0  0.1027
  H  H31  1  0.168600  0.437500  0.319400  1.0  0.1139
  H  H32  1  0.181000  0.408300  0.191700  1.0  0.0965
  H  H33  1  0.115600  0.374400  0.476700  1.0  0.1083
  H  H34  1  0.065700  0.280400  0.527600  1.0  0.1068
  H  H35  1  0.841500  0.336100  0.440300  1.0  0.0913
  H  H36  1  0.889000  0.431600  0.392800  1.0  0.1133
  H  H37  1  0.305100  0.483400  0.344800  1.0  0.1285
  H  H38  1  0.369200  0.540400  0.355900  1.0  0.1437
  H  H39  1  0.389500  0.472400  0.397700  1.0  0.1202
  H  H40  1  0.286000  0.000800  0.481600  1.0  0.105
  H  H41  1  0.339800  0.103800  0.519900  1.0  0.1008
  H  H42  1  0.119400  0.170300  0.540100  1.0  0.1224
  H  H43  1  0.067000  0.066800  0.505200  1.0  0.1034
  H  H44  1  0.404600  0.250800  0.467600  1.0  0.1118
  H  H45  1  0.419600  0.280100  0.340700  1.0  0.0972
  H  H46  1  0.180300  0.287300  0.278300  1.0  0.1043
  H  H47  1  0.165100  0.261100  0.406400  1.0  0.0962
  H  H48  1  0.146800  0.868600  0.676700  1.0  0.1129
  H  H49  1  0.094200  0.884300  0.791000  1.0  0.1153
  H  H50  1  0.310800  0.938300  0.903700  1.0  0.1165
  H  H51  1  0.364200  0.919800  0.789400  1.0  0.0982
  H  H52  1  0.254000  0.038000  0.006600  1.0  0.1109
  H  H53  1  0.235600  0.150100  0.010500  1.0  0.0994
  H  H54  1  0.019100  0.131200  0.879100  1.0  0.0981
  H  H55  1  0.035600  0.018300  0.879000  1.0  0.1008
  H  H56  1  0.549600  0.956400  0.380400  1.0  0.1002
  H  H57  1  0.560000  0.990300  0.254000  1.0  0.1027
  H  H58  1  0.331400  0.937500  0.180600  1.0  0.1137
  H  H59  1  0.319000  0.908300  0.308300  1.0  0.0958
  H  H60  1  0.384400  0.874400  0.023300  1.0  0.1089
  H  H61  1  0.434300  0.780400  0.972400  1.0  0.1062
  H  H62  1  0.658500  0.836100  0.059700  1.0  0.0904
  H  H63  1  0.611000  0.931600  0.107200  1.0  0.1132
  H  H64  1  0.194900  0.983400  0.155200  1.0  0.1274
  H  H65  1  0.130800  0.040400  0.144100  1.0  0.1435
  H  H66  1  0.110500  0.972400  0.102300  1.0  0.12
  H  H67  1  0.786000  0.499200  0.981600  1.0  0.105
  H  H68  1  0.839800  0.396200  0.019900  1.0  0.1009
  H  H69  1  0.619400  0.329700  0.040100  1.0  0.1222
  H  H70  1  0.567000  0.433200  0.005200  1.0  0.1033
  H  H71  1  0.904600  0.249200  0.967600  1.0  0.1115
  H  H72  1  0.919600  0.219900  0.840700  1.0  0.0972
  H  H73  1  0.680300  0.212700  0.778300  1.0  0.104
  H  H74  1  0.665100  0.238900  0.906400  1.0  0.0962
  H  H75  1  0.646800  0.631400  0.176700  1.0  0.1133
  H  H76  1  0.594200  0.615700  0.291000  1.0  0.1148
  H  H77  1  0.810800  0.561700  0.403700  1.0  0.1165
  H  H78  1  0.864200  0.580200  0.289400  1.0  0.0981
  H  H79  1  0.754000  0.462000  0.506600  1.0  0.111
  H  H80  1  0.735600  0.349900  0.510500  1.0  0.0997
  H  H81  1  0.519100  0.368800  0.379100  1.0  0.0977
  H  H82  1  0.535600  0.481700  0.379000  1.0  0.1012
  H  H83  1  0.049600  0.543600  0.880400  1.0  0.1004
  H  H84  1  0.060000  0.509700  0.754000  1.0  0.1029
  H  H85  1  0.831400  0.562500  0.680600  1.0  0.1134
  H  H86  1  0.819000  0.591700  0.808300  1.0  0.0957
  H  H87  1  0.884400  0.625600  0.523300  1.0  0.1089
  H  H88  1  0.934300  0.719600  0.472400  1.0  0.1062
  H  H89  1  0.158500  0.663900  0.559700  1.0  0.0897
  H  H90  1  0.111000  0.568400  0.607200  1.0  0.1137
  H  H91  1  0.694900  0.516600  0.655200  1.0  0.1276
  H  H92  1  0.630800  0.459600  0.644100  1.0  0.141
  H  H93  1  0.610500  0.527600  0.602300  1.0  0.1202
  H  H94  1  0.714000  0.999200  0.518400  1.0  0.1048
  H  H95  1  0.660200  0.896200  0.480100  1.0  0.1009
  H  H96  1  0.880600  0.829700  0.459900  1.0  0.1233
  H  H97  1  0.933000  0.933200  0.494800  1.0  0.1028
  H  H98  1  0.595400  0.749200  0.532400  1.0  0.1114
  H  H99  1  0.580400  0.719900  0.659300  1.0  0.0978
  H  H100  1  0.819700  0.712700  0.721700  1.0  0.105
  H  H101  1  0.834900  0.738900  0.593600  1.0  0.0966
  H  H102  1  0.853200  0.131400  0.323300  1.0  0.1134
  H  H103  1  0.905800  0.115700  0.209000  1.0  0.1164
  H  H104  1  0.689200  0.061700  0.096300  1.0  0.117
  H  H105  1  0.635800  0.080200  0.210600  1.0  0.0987
  H  H106  1  0.746000  0.962000  0.993400  1.0  0.1105
  H  H107  1  0.764400  0.849900  0.989500  1.0  0.0995
  H  H108  1  0.980900  0.868800  0.120900  1.0  0.0982
  H  H109  1  0.964400  0.981700  0.121000  1.0  0.101
  H  H110  1  0.450400  0.043600  0.619600  1.0  0.1006
  H  H111  1  0.440000  0.009700  0.746000  1.0  0.1029
  H  H112  1  0.668600  0.062500  0.819400  1.0  0.1142
  H  H113  1  0.681000  0.091700  0.691700  1.0  0.0963
  H  H114  1  0.615600  0.125600  0.976700  1.0  0.1083
  H  H115  1  0.565700  0.219600  0.027600  1.0  0.1062
  H  H116  1  0.341500  0.163900  0.940300  1.0  0.0915
  H  H117  1  0.389000  0.068400  0.892800  1.0  0.1134
  H  H118  1  0.805100  0.016600  0.844800  1.0  0.128
  H  H119  1  0.869200  0.959600  0.855900  1.0  0.1412
  H  H120  1  0.889500  0.027600  0.897700  1.0  0.1207
  C  C121  1  0.366200  0.462600  0.048400  1.0  0.6723
  C  C122  1  0.328800  0.524700  0.013000  1.0  -0.1258
  C  C123  1  0.247800  0.534800  0.007300  1.0  -0.0291
  C  C124  1  0.215700  0.596600  0.984800  1.0  -0.0418
  C  C125  1  0.266200  0.646900  0.969600  1.0  -0.1363
  C  C126  1  0.347000  0.636600  0.972200  1.0  -0.0557
  C  C127  1  0.378000  0.574700  0.993600  1.0  -0.0293
  C  C128  1  0.216500  0.752960  0.051100  1.0  -0.1219
  C  C129  1  0.140800  0.758400  0.070100  1.0  -0.0683
  C  C130  1  0.132300  0.775500  0.146700  1.0  0.001
  C  C131  1  0.197800  0.785800  0.204100  1.0  -0.1006
  C  C132  1  0.274200  0.780300  0.183900  1.0  -0.0443
  C  C133  1  0.283300  0.764200  0.107000  1.0  -0.0374
  C  C134  1  0.186600  0.802900  0.287800  1.0  0.7497
  C  C135  1  0.205400  0.382500  0.854800  1.0  0.744
  C  C136  1  0.239500  0.394000  0.779800  1.0  -0.1398
  C  C137  1  0.319600  0.382900  0.778000  1.0  -0.0525
  C  C138  1  0.351200  0.392500  0.709900  1.0  -0.0454
  C  C139  1  0.302100  0.414300  0.642900  1.0  -0.1041
  C  C140  1  0.222400  0.424400  0.642000  1.0  -0.0875
  C  C141  1  0.191000  0.413700  0.710800  1.0  -0.0286
  C  C142  1  0.354300  0.517600  0.556700  1.0  -0.1052
  C  C143  1  0.294200  0.556700  0.518300  1.0  -0.0882
  C  C144  1  0.305200  0.623700  0.516500  1.0  -0.054
  C  C145  1  0.374900  0.652600  0.553700  1.0  -0.1475
  C  C146  1  0.433700  0.612600  0.593900  1.0  -0.0165
  C  C147  1  0.423600  0.545000  0.594600  1.0  -0.0722
  C  C148  1  0.384100  0.726500  0.548200  1.0  0.7319
  C  C149  1  0.072000  0.404400  0.061100  1.0  0.712
  C  C150  1  0.067100  0.428200  0.142900  1.0  -0.1523
  C  C151  1  0.994800  0.452900  0.159400  1.0  -0.0459
  C  C152  1  0.988400  0.472400  0.235500  1.0  -0.0437
  C  C153  1  0.052000  0.465600  0.294700  1.0  -0.1419
  C  C154  1  0.124500  0.441700  0.279100  1.0  -0.0506
  C  C155  1  0.131500  0.423700  0.202600  1.0  -0.0147
  C  C156  1  0.006300  0.412000  0.429900  1.0  -0.1693
  C  C157  1  0.060000  0.366800  0.470100  1.0  -0.0644
  C  C158  1  0.030100  0.310600  0.500000  1.0  -0.0073
  C  C159  1  0.948500  0.298700  0.489300  1.0  -0.1527
  C  C160  1  0.897000  0.344300  0.448400  1.0  -0.0242
  C  C161  1  0.924900  0.401000  0.419300  1.0  -0.0837
  C  C162  1  0.916600  0.237400  0.523700  1.0  0.7273
  C  C163  1  0.394200  0.470500  0.284100  1.0  0.3715
  C  C164  1  0.361900  0.493600  0.351100  1.0  -0.3611
  C  C165  1  0.133800  0.962600  0.451600  1.0  0.6717
  C  C166  1  0.171200  0.024700  0.487000  1.0  -0.1251
  C  C167  1  0.252200  0.034800  0.492700  1.0  -0.029
  C  C168  1  0.284300  0.096600  0.515200  1.0  -0.0429
  C  C169  1  0.233800  0.146900  0.530400  1.0  -0.1375
  C  C170  1  0.153000  0.136600  0.527800  1.0  -0.055
  C  C171  1  0.122000  0.074700  0.506400  1.0  -0.0303
  C  C172  1  0.283500  0.252960  0.448900  1.0  -0.1228
  C  C173  1  0.359200  0.258400  0.429900  1.0  -0.0669
  C  C174  1  0.367700  0.275500  0.353300  1.0  -0.0
  C  C175  1  0.302200  0.285800  0.295900  1.0  -0.0996
  C  C176  1  0.225800  0.280300  0.316100  1.0  -0.0433
  C  C177  1  0.216700  0.264200  0.393000  1.0  -0.0364
  C  C178  1  0.313400  0.302900  0.212200  1.0  0.7493
  C  C179  1  0.294600  0.882500  0.645200  1.0  0.743
  C  C180  1  0.260500  0.894000  0.720200  1.0  -0.1377
  C  C181  1  0.180400  0.882900  0.722000  1.0  -0.0526
  C  C182  1  0.148800  0.892500  0.790100  1.0  -0.0448
  C  C183  1  0.197900  0.914300  0.857100  1.0  -0.1033
  C  C184  1  0.277600  0.924400  0.858000  1.0  -0.0875
  C  C185  1  0.309000  0.913700  0.789200  1.0  -0.0293
  C  C186  1  0.145700  0.017600  0.943300  1.0  -0.1056
  C  C187  1  0.205800  0.056700  0.981700  1.0  -0.0889
  C  C188  1  0.194800  0.123700  0.983500  1.0  -0.0547
  C  C189  1  0.125100  0.152600  0.946300  1.0  -0.1474
  C  C190  1  0.066300  0.112600  0.906100  1.0  -0.0151
  C  C191  1  0.076400  0.045000  0.905400  1.0  -0.0716
  C  C192  1  0.115900  0.226500  0.951800  1.0  0.7314
  C  C193  1  0.428000  0.904400  0.438900  1.0  0.7117
  C  C194  1  0.432900  0.928200  0.357100  1.0  -0.1529
  C  C195  1  0.505200  0.952900  0.340600  1.0  -0.0474
  C  C196  1  0.511600  0.972400  0.264500  1.0  -0.0444
  C  C197  1  0.448000  0.965600  0.205300  1.0  -0.1432
  C  C198  1  0.375500  0.941700  0.220900  1.0  -0.0503
  C  C199  1  0.368500  0.923700  0.297400  1.0  -0.0152
  C  C200  1  0.493700  0.912000  0.070100  1.0  -0.1689
  C  C201  1  0.440000  0.866800  0.029900  1.0  -0.0625
  C  C202  1  0.469900  0.810600  0.000000  1.0  -0.006
  C  C203  1  0.551500  0.798700  0.010700  1.0  -0.1526
  C  C204  1  0.603000  0.844300  0.051600  1.0  -0.0232
  C  C205  1  0.575100  0.901000  0.080700  1.0  -0.0839
  C  C206  1  0.583400  0.737400  0.976300  1.0  0.7274
  C  C207  1  0.105800  0.970500  0.215900  1.0  0.3701
  C  C208  1  0.138100  0.993600  0.148900  1.0  -0.3627
  C  C209  1  0.633800  0.537400  0.951600  1.0  0.6718
  C  C210  1  0.671200  0.475300  0.987000  1.0  -0.1252
  C  C211  1  0.752200  0.465200  0.992700  1.0  -0.0291
  C  C212  1  0.784300  0.403400  0.015200  1.0  -0.0431
  C  C213  1  0.733800  0.353100  0.030400  1.0  -0.1372
  C  C214  1  0.653000  0.363400  0.027800  1.0  -0.0545
  C  C215  1  0.622000  0.425300  0.006400  1.0  -0.0305
  C  C216  1  0.783500  0.247040  0.948900  1.0  -0.1229
  C  C217  1  0.859200  0.241600  0.929900  1.0  -0.0674
  C  C218  1  0.867700  0.224500  0.853300  1.0  0.0014
  C  C219  1  0.802200  0.214200  0.795900  1.0  -0.1003
  C  C220  1  0.725800  0.219700  0.816100  1.0  -0.0436
  C  C221  1  0.716700  0.235800  0.893000  1.0  -0.0366
  C  C222  1  0.813400  0.197100  0.712200  1.0  0.7502
  C  C223  1  0.794600  0.617500  0.145200  1.0  0.743
  C  C224  1  0.760500  0.606000  0.220200  1.0  -0.1379
  C  C225  1  0.680400  0.617100  0.222000  1.0  -0.0526
  C  C226  1  0.648800  0.607500  0.290100  1.0  -0.0457
  C  C227  1  0.697900  0.585700  0.357100  1.0  -0.103
  C  C228  1  0.777600  0.575600  0.358000  1.0  -0.0875
  C  C229  1  0.809000  0.586300  0.289200  1.0  -0.0299
  C  C230  1  0.645700  0.482400  0.443300  1.0  -0.1045
  C  C231  1  0.705800  0.443300  0.481700  1.0  -0.0889
  C  C232  1  0.694800  0.376300  0.483500  1.0  -0.0548
  C  C233  1  0.625100  0.347400  0.446300  1.0  -0.1471
  C  C234  1  0.566300  0.387400  0.406100  1.0  -0.0144
  C  C235  1  0.576400  0.455000  0.405400  1.0  -0.0716
  C  C236  1  0.615900  0.273500  0.451800  1.0  0.7319
  C  C237  1  0.928000  0.595600  0.938900  1.0  0.7119
  C  C238  1  0.932900  0.571800  0.857100  1.0  -0.1529
  C  C239  1  0.005200  0.547100  0.840600  1.0  -0.0473
  C  C240  1  0.011600  0.527600  0.764500  1.0  -0.0449
  C  C241  1  0.948000  0.534400  0.705300  1.0  -0.1436
  C  C242  1  0.875500  0.558300  0.720900  1.0  -0.051
  C  C243  1  0.868500  0.576300  0.797400  1.0  -0.0149
  C  C244  1  0.993700  0.588000  0.570100  1.0  -0.1685
  C  C245  1  0.940000  0.633200  0.529900  1.0  -0.062
  C  C246  1  0.969900  0.689400  0.500000  1.0  -0.0053
  C  C247  1  0.051500  0.701300  0.510700  1.0  -0.152
  C  C248  1  0.103000  0.655700  0.551600  1.0  -0.0233
  C  C249  1  0.075100  0.599000  0.580700  1.0  -0.0847
  C  C250  1  0.083400  0.762600  0.476300  1.0  0.728
  C  C251  1  0.605800  0.529500  0.715900  1.0  0.3689
  C  C252  1  0.638100  0.506400  0.648900  1.0  -0.3625
  C  C253  1  0.866200  0.037400  0.548400  1.0  0.6724
  C  C254  1  0.828800  0.975300  0.513000  1.0  -0.1263
  C  C255  1  0.747800  0.965200  0.507300  1.0  -0.0295
  C  C256  1  0.715700  0.903400  0.484800  1.0  -0.0414
  C  C257  1  0.766200  0.853100  0.469600  1.0  -0.1371
  C  C258  1  0.847000  0.863400  0.472200  1.0  -0.0558
  C  C259  1  0.878000  0.925300  0.493600  1.0  -0.0294
  C  C260  1  0.716500  0.747040  0.551100  1.0  -0.1217
  C  C261  1  0.640800  0.741600  0.570100  1.0  -0.0685
  C  C262  1  0.632300  0.724500  0.646700  1.0  0.001
  C  C263  1  0.697800  0.714200  0.704100  1.0  -0.1
  C  C264  1  0.774200  0.719700  0.683900  1.0  -0.0443
  C  C265  1  0.783300  0.735800  0.607000  1.0  -0.0375
  C  C266  1  0.686600  0.697100  0.787800  1.0  0.7496
  C  C267  1  0.705400  0.117500  0.354800  1.0  0.7431
  C  C268  1  0.739500  0.106000  0.279800  1.0  -0.1403
  C  C269  1  0.819600  0.117100  0.278000  1.0  -0.0533
  C  C270  1  0.851200  0.107500  0.209900  1.0  -0.0467
  C  C271  1  0.802100  0.085700  0.142900  1.0  -0.1044
  C  C272  1  0.722400  0.075600  0.142000  1.0  -0.0874
  C  C273  1  0.691000  0.086300  0.210800  1.0  -0.0287
  C  C274  1  0.854300  0.982400  0.056700  1.0  -0.1045
  C  C275  1  0.794200  0.943300  0.018300  1.0  -0.0879
  C  C276  1  0.805200  0.876300  0.016500  1.0  -0.0543
  C  C277  1  0.874900  0.847400  0.053700  1.0  -0.1471
  C  C278  1  0.933700  0.887400  0.093900  1.0  -0.016
  C  C279  1  0.923600  0.955000  0.094600  1.0  -0.0717
  C  C280  1  0.884100  0.773500  0.048200  1.0  0.7321
  C  C281  1  0.572000  0.095600  0.561100  1.0  0.7123
  C  C282  1  0.567100  0.071800  0.642900  1.0  -0.1522
  C  C283  1  0.494800  0.047100  0.659400  1.0  -0.0458
  C  C284  1  0.488400  0.027600  0.735500  1.0  -0.0443
  C  C285  1  0.552000  0.034400  0.794700  1.0  -0.1417
  C  C286  1  0.624500  0.058300  0.779100  1.0  -0.0511
  C  C287  1  0.631500  0.076300  0.702600  1.0  -0.0148
  C  C288  1  0.506300  0.088000  0.929900  1.0  -0.1684
  C  C289  1  0.560000  0.133200  0.970100  1.0  -0.0641
  C  C290  1  0.530100  0.189400  0.000000  1.0  -0.0066
  C  C291  1  0.448500  0.201300  0.989300  1.0  -0.1517
  C  C292  1  0.397000  0.155700  0.948400  1.0  -0.0244
  C  C293  1  0.424900  0.099000  0.919300  1.0  -0.0847
  C  C294  1  0.416600  0.262600  0.023700  1.0  0.728
  C  C295  1  0.894200  0.029500  0.784100  1.0  0.3713
  C  C296  1  0.861900  0.006400  0.851100  1.0  -0.3614
  S  S297  1  0.228330  0.728220  0.954220  1.0  1.1313
  S  S298  1  0.342950  0.430470  0.555680  1.0  1.1099
  S  S299  1  0.041150  0.485810  0.392860  1.0  1.1295
  S  S300  1  0.271670  0.228220  0.545780  1.0  1.1321
  S  S301  1  0.157050  0.930470  0.944320  1.0  1.1098
  S  S302  1  0.458850  0.985810  0.107140  1.0  1.1294
  S  S303  1  0.771670  0.271780  0.045780  1.0  1.1315
  S  S304  1  0.657050  0.569530  0.444320  1.0  1.1098
  S  S305  1  0.958850  0.514190  0.607140  1.0  1.1287
  S  S306  1  0.728330  0.771780  0.454220  1.0  1.1313
  S  S307  1  0.842950  0.069530  0.055680  1.0  1.1103
  S  S308  1  0.541150  0.014190  0.892860  1.0  1.1291
  N  N309  1  0.421600  0.447800  0.233100  1.0  -0.4816
  N  N310  1  0.078400  0.947800  0.266900  1.0  -0.4827
  N  N311  1  0.578400  0.552200  0.766900  1.0  -0.4825
  N  N312  1  0.921600  0.052200  0.733100  1.0  -0.4821
  O  O313  1  0.331700  0.757310  0.505900  1.0  -0.6677
  O  O314  1  0.842870  0.233830  0.519270  1.0  -0.601
  O  O315  1  0.322830  0.418450  0.072140  1.0  -0.6589
  O  O316  1  0.251160  0.366200  0.915210  1.0  -0.6139
  O  O317  1  0.246560  0.809520  0.339530  1.0  -0.6034
  O  O318  1  0.138570  0.393390  0.041280  1.0  -0.6934
  O  O319  1  0.115980  0.808240  0.299130  1.0  -0.6048
  O  O320  1  0.966460  0.195890  0.554100  1.0  -0.5882
  O  O321  1  0.440380  0.458000  0.060000  1.0  -0.5624
  O  O322  1  0.130720  0.389920  0.848860  1.0  -0.5999
  O  O323  1  0.445160  0.752580  0.587500  1.0  -0.5998
  O  O324  1  0.008920  0.396090  0.013870  1.0  -0.5784
  O  O325  1  0.151620  0.724760  0.906730  1.0  -0.5523
  O  O326  1  0.289170  0.768190  0.928930  1.0  -0.551
  O  O327  1  0.420900  0.401590  0.564100  1.0  -0.5646
  O  O328  1  0.284500  0.413940  0.488920  1.0  -0.5703
  O  O329  1  0.978950  0.533900  0.389130  1.0  -0.5571
  O  O330  1  0.118310  0.500040  0.435970  1.0  -0.6449
  O  O331  1  0.168300  0.257310  0.994100  1.0  -0.6675
  O  O332  1  0.657130  0.733830  0.980730  1.0  -0.6007
  O  O333  1  0.177170  0.918450  0.427860  1.0  -0.6601
  O  O334  1  0.248840  0.866200  0.584790  1.0  -0.6136
  O  O335  1  0.253440  0.309520  0.160470  1.0  -0.6041
  O  O336  1  0.361430  0.893390  0.458720  1.0  -0.6931
  O  O337  1  0.384020  0.308240  0.200870  1.0  -0.6061
  O  O338  1  0.533540  0.695890  0.945900  1.0  -0.5878
  O  O339  1  0.059620  0.958000  0.440000  1.0  -0.5624
  O  O340  1  0.369280  0.889920  0.651140  1.0  -0.6001
  O  O341  1  0.054840  0.252580  0.912500  1.0  -0.5991
  O  O342  1  0.491080  0.896090  0.486130  1.0  -0.5789
  O  O343  1  0.348380  0.224760  0.593270  1.0  -0.5541
  O  O344  1  0.210830  0.268190  0.571070  1.0  -0.551
  O  O345  1  0.079100  0.901590  0.935900  1.0  -0.563
  O  O346  1  0.215500  0.913940  0.011080  1.0  -0.5712
  O  O347  1  0.521050  0.033900  0.110870  1.0  -0.5587
  O  O348  1  0.381690  0.000040  0.064030  1.0  -0.6441
  O  O349  1  0.668300  0.242690  0.494100  1.0  -0.6669
  O  O350  1  0.157130  0.766170  0.480730  1.0  -0.6003
  O  O351  1  0.677170  0.581550  0.927860  1.0  -0.6595
  O  O352  1  0.748840  0.633800  0.084790  1.0  -0.6137
  O  O353  1  0.753440  0.190480  0.660470  1.0  -0.602
  O  O354  1  0.861430  0.606610  0.958720  1.0  -0.693
  O  O355  1  0.884020  0.191760  0.700870  1.0  -0.6067
  O  O356  1  0.033540  0.804110  0.445900  1.0  -0.5882
  O  O357  1  0.559620  0.542000  0.940000  1.0  -0.5622
  O  O358  1  0.869280  0.610080  0.151140  1.0  -0.6006
  O  O359  1  0.554840  0.247420  0.412500  1.0  -0.5989
  O  O360  1  0.991080  0.603910  0.986130  1.0  -0.5793
  O  O361  1  0.848380  0.275240  0.093270  1.0  -0.554
  O  O362  1  0.710830  0.231810  0.071070  1.0  -0.5513
  O  O363  1  0.579100  0.598410  0.435900  1.0  -0.5631
  O  O364  1  0.715500  0.586060  0.511080  1.0  -0.571
  O  O365  1  0.021050  0.466100  0.610870  1.0  -0.5593
  O  O366  1  0.881690  0.499960  0.564030  1.0  -0.6423
  O  O367  1  0.831700  0.742690  0.005900  1.0  -0.668
  O  O368  1  0.342870  0.266170  0.019270  1.0  -0.6009
  O  O369  1  0.822830  0.081550  0.572140  1.0  -0.6589
  O  O370  1  0.751160  0.133800  0.415210  1.0  -0.6142
  O  O371  1  0.746560  0.690480  0.839530  1.0  -0.6016
  O  O372  1  0.638570  0.106610  0.541280  1.0  -0.6932
  O  O373  1  0.615980  0.691760  0.799130  1.0  -0.6051
  O  O374  1  0.466460  0.304110  0.054100  1.0  -0.5886
  O  O375  1  0.940380  0.042000  0.560000  1.0  -0.5622
  O  O376  1  0.630720  0.110080  0.348860  1.0  -0.6001
  O  O377  1  0.945160  0.747420  0.087500  1.0  -0.5989
  O  O378  1  0.508920  0.103910  0.513870  1.0  -0.5781
  O  O379  1  0.651620  0.775240  0.406730  1.0  -0.5526
  O  O380  1  0.789170  0.731810  0.428930  1.0  -0.5509
  O  O381  1  0.920900  0.098410  0.064100  1.0  -0.564
  O  O382  1  0.784500  0.086060  0.988920  1.0  -0.5694
  O  O383  1  0.478950  0.966100  0.889130  1.0  -0.5582
  O  O384  1  0.618310  0.999960  0.935970  1.0  -0.6433
