# generated using pymatgen
data_MnH8C14SO6
_symmetry_space_group_name_H-M   'P 1'
_cell_length_a   16.70940000
_cell_length_b   20.28570000
_cell_length_c   17.19360000
_cell_angle_alpha   90.00000000
_cell_angle_beta   99.17800000
_cell_angle_gamma   90.00000000
_symmetry_Int_Tables_number   1
_chemical_formula_structural   MnH8C14SO6
_chemical_formula_sum   'Mn12 H96 C168 S12 O72'
_cell_volume   5753.36273474
_cell_formula_units_Z   12
loop_
 _symmetry_equiv_pos_site_id
 _symmetry_equiv_pos_as_xyz
  1  'x, y, z'
loop_
 _atom_site_type_symbol
 _atom_site_label
 _atom_site_symmetry_multiplicity
 _atom_site_fract_x
 _atom_site_fract_y
 _atom_site_fract_z
 _atom_site_occupancy
 _atom_site_charge
  Mn  Mn1  1  0.036280  0.837930  0.249450  1.0  1.1127
  Mn  Mn2  1  0.150010  0.884190  0.444880  1.0  1.1197
  Mn  Mn3  1  0.911300  0.857010  0.051240  1.0  1.116
  Mn  Mn4  1  0.463720  0.337930  0.250550  1.0  1.1126
  Mn  Mn5  1  0.349990  0.384190  0.055120  1.0  1.1211
  Mn  Mn6  1  0.588700  0.357010  0.448760  1.0  1.1167
  Mn  Mn7  1  0.963720  0.162070  0.750550  1.0  1.1123
  Mn  Mn8  1  0.849990  0.115810  0.555120  1.0  1.1213
  Mn  Mn9  1  0.088700  0.142990  0.948760  1.0  1.1158
  Mn  Mn10  1  0.536280  0.662070  0.749450  1.0  1.1122
  Mn  Mn11  1  0.650010  0.615810  0.944880  1.0  1.12
  Mn  Mn12  1  0.411300  0.642990  0.551240  1.0  1.116
  H  H13  1  0.942300  0.673000  0.346200  1.0  0.1088
  H  H14  1  0.895400  0.575200  0.392600  1.0  0.1226
  H  H15  1  0.980500  0.632200  0.615000  1.0  0.1199
  H  H16  1  0.029800  0.728200  0.567400  1.0  0.1153
  H  H17  1  0.749900  0.508100  0.442900  1.0  0.1294
  H  H18  1  0.617900  0.536300  0.454400  1.0  0.1142
  H  H19  1  0.691400  0.593100  0.678900  1.0  0.1148
  H  H20  1  0.824500  0.565900  0.667300  1.0  0.1249
  H  H21  1  0.348200  0.776300  0.419100  1.0  0.1081
  H  H22  1  0.478900  0.746700  0.405600  1.0  0.1234
  H  H23  1  0.416600  0.756100  0.169200  1.0  0.1172
  H  H24  1  0.285400  0.782400  0.183300  1.0  0.1136
  H  H25  1  0.536200  0.601500  0.342400  1.0  0.1183
  H  H26  1  0.494600  0.499800  0.288800  1.0  0.1095
  H  H27  1  0.522500  0.564600  0.073600  1.0  0.1168
  H  H28  1  0.562300  0.667200  0.126300  1.0  0.1304
  H  H29  1  0.903800  0.632700  0.010600  1.0  0.1091
  H  H30  1  0.903900  0.519200  0.025400  1.0  0.1237
  H  H31  1  0.007900  0.539100  0.252200  1.0  0.1307
  H  H32  1  0.008300  0.652000  0.236400  1.0  0.1086
  H  H33  1  0.793700  0.396700  0.093600  1.0  0.1284
  H  H34  1  0.677500  0.381500  0.148500  1.0  0.117
  H  H35  1  0.802000  0.420000  0.363200  1.0  0.114
  H  H36  1  0.917700  0.438600  0.307900  1.0  0.1159
  H  H37  1  0.557700  0.173000  0.153800  1.0  0.108
  H  H38  1  0.604600  0.075200  0.107400  1.0  0.1231
  H  H39  1  0.519500  0.132200  0.885000  1.0  0.1202
  H  H40  1  0.470200  0.228200  0.932600  1.0  0.1156
  H  H41  1  0.750100  0.008100  0.057100  1.0  0.1288
  H  H42  1  0.882100  0.036300  0.045600  1.0  0.1145
  H  H43  1  0.808600  0.093100  0.821100  1.0  0.1152
  H  H44  1  0.675500  0.065900  0.832700  1.0  0.1242
  H  H45  1  0.151800  0.276300  0.080900  1.0  0.108
  H  H46  1  0.021100  0.246700  0.094400  1.0  0.1228
  H  H47  1  0.083400  0.256100  0.330800  1.0  0.1169
  H  H48  1  0.214600  0.282400  0.316700  1.0  0.1148
  H  H49  1  0.963800  0.101500  0.157600  1.0  0.1178
  H  H50  1  0.005400  0.999800  0.211200  1.0  0.1095
  H  H51  1  0.977500  0.064600  0.426400  1.0  0.1171
  H  H52  1  0.937700  0.167200  0.373700  1.0  0.1309
  H  H53  1  0.596200  0.132700  0.489400  1.0  0.1088
  H  H54  1  0.596100  0.019200  0.474600  1.0  0.1237
  H  H55  1  0.492100  0.039100  0.247800  1.0  0.1313
  H  H56  1  0.491700  0.152000  0.263600  1.0  0.1087
  H  H57  1  0.706300  0.896700  0.406400  1.0  0.128
  H  H58  1  0.822500  0.881500  0.351500  1.0  0.117
  H  H59  1  0.698000  0.920000  0.136800  1.0  0.1138
  H  H60  1  0.582300  0.938600  0.192100  1.0  0.1161
  H  H61  1  0.057700  0.327000  0.653800  1.0  0.1082
  H  H62  1  0.104600  0.424800  0.607400  1.0  0.1227
  H  H63  1  0.019500  0.367800  0.385000  1.0  0.12
  H  H64  1  0.970200  0.271800  0.432600  1.0  0.1153
  H  H65  1  0.250100  0.491900  0.557100  1.0  0.1286
  H  H66  1  0.382100  0.463700  0.545600  1.0  0.1144
  H  H67  1  0.308600  0.406900  0.321100  1.0  0.1152
  H  H68  1  0.175500  0.434100  0.332700  1.0  0.1243
  H  H69  1  0.651800  0.223700  0.580900  1.0  0.1078
  H  H70  1  0.521100  0.253300  0.594400  1.0  0.1229
  H  H71  1  0.583400  0.243900  0.830800  1.0  0.117
  H  H72  1  0.714600  0.217600  0.816700  1.0  0.115
  H  H73  1  0.463800  0.398500  0.657600  1.0  0.1178
  H  H74  1  0.505400  0.500200  0.711200  1.0  0.1097
  H  H75  1  0.477500  0.435400  0.926400  1.0  0.1172
  H  H76  1  0.437700  0.332800  0.873700  1.0  0.1306
  H  H77  1  0.096200  0.367300  0.989400  1.0  0.1093
  H  H78  1  0.096100  0.480800  0.974600  1.0  0.1237
  H  H79  1  0.992100  0.460900  0.747800  1.0  0.1311
  H  H80  1  0.991700  0.348000  0.763600  1.0  0.1085
  H  H81  1  0.206300  0.603300  0.906400  1.0  0.1278
  H  H82  1  0.322500  0.618500  0.851500  1.0  0.1168
  H  H83  1  0.198000  0.580000  0.636800  1.0  0.1139
  H  H84  1  0.082300  0.561400  0.692100  1.0  0.1159
  H  H85  1  0.442300  0.827000  0.846200  1.0  0.1087
  H  H86  1  0.395400  0.924800  0.892600  1.0  0.1224
  H  H87  1  0.480500  0.867800  0.115000  1.0  0.12
  H  H88  1  0.529800  0.771800  0.067400  1.0  0.1158
  H  H89  1  0.249900  0.991900  0.942900  1.0  0.1293
  H  H90  1  0.117900  0.963700  0.954400  1.0  0.1144
  H  H91  1  0.191400  0.906900  0.178900  1.0  0.1146
  H  H92  1  0.324500  0.934100  0.167300  1.0  0.1251
  H  H93  1  0.848200  0.723700  0.919100  1.0  0.1081
  H  H94  1  0.978900  0.753300  0.905600  1.0  0.1232
  H  H95  1  0.916600  0.743900  0.669200  1.0  0.1169
  H  H96  1  0.785400  0.717600  0.683300  1.0  0.1138
  H  H97  1  0.036200  0.898500  0.842400  1.0  0.1184
  H  H98  1  0.994600  0.000200  0.788800  1.0  0.1098
  H  H99  1  0.022500  0.935400  0.573600  1.0  0.1169
  H  H100  1  0.062300  0.832800  0.626300  1.0  0.13
  H  H101  1  0.403800  0.867300  0.510600  1.0  0.11
  H  H102  1  0.403900  0.980800  0.525400  1.0  0.1239
  H  H103  1  0.507900  0.960900  0.752200  1.0  0.1308
  H  H104  1  0.508300  0.848000  0.736400  1.0  0.109
  H  H105  1  0.293700  0.103300  0.593600  1.0  0.1285
  H  H106  1  0.177500  0.118500  0.648500  1.0  0.117
  H  H107  1  0.302000  0.080000  0.863200  1.0  0.1138
  H  H108  1  0.417700  0.061400  0.807900  1.0  0.1162
  C  C109  1  0.027200  0.771260  0.419200  1.0  0.7286
  C  C110  1  0.992360  0.709960  0.451600  1.0  -0.1215
  C  C111  1  0.950900  0.664330  0.400000  1.0  -0.0233
  C  C112  1  0.922100  0.606110  0.427450  1.0  -0.0491
  C  C113  1  0.933780  0.594810  0.508160  1.0  -0.2037
  C  C114  1  0.973600  0.640260  0.561100  1.0  -0.036
  C  C115  1  0.002800  0.697580  0.532460  1.0  -0.0325
  C  C116  1  0.799030  0.535640  0.553690  1.0  -0.1979
  C  C117  1  0.738000  0.525840  0.489610  1.0  -0.0353
  C  C118  1  0.659500  0.542870  0.496500  1.0  -0.0298
  C  C119  1  0.642300  0.569930  0.566880  1.0  -0.1209
  C  C120  1  0.703600  0.577130  0.631400  1.0  -0.0262
  C  C121  1  0.783000  0.560520  0.624870  1.0  -0.0274
  C  C122  1  0.557700  0.592440  0.571200  1.0  0.66
  C  C123  1  0.219000  0.804150  0.314270  1.0  0.7424
  C  C124  1  0.302950  0.782870  0.302720  1.0  -0.114
  C  C125  1  0.361990  0.771830  0.369080  1.0  -0.0275
  C  C126  1  0.440300  0.754490  0.361300  1.0  -0.0285
  C  C127  1  0.460490  0.748900  0.285880  1.0  -0.185
  C  C128  1  0.402500  0.759760  0.219220  1.0  -0.0154
  C  C129  1  0.324300  0.775990  0.227740  1.0  -0.0233
  C  C130  1  0.547920  0.644970  0.238350  1.0  -0.2313
  C  C131  1  0.530900  0.594510  0.288400  1.0  -0.0518
  C  C132  1  0.506000  0.534010  0.256300  1.0  -0.0751
  C  C133  1  0.498100  0.524170  0.175020  1.0  -0.106
  C  C134  1  0.522500  0.573000  0.126800  1.0  -0.0726
  C  C135  1  0.546900  0.634020  0.158200  1.0  -0.0563
  C  C136  1  0.452900  0.465600  0.136800  1.0  0.6712
  C  C137  1  0.957800  0.728020  0.115750  1.0  0.7442
  C  C138  1  0.956020  0.654200  0.121900  1.0  -0.1298
  C  C139  1  0.924800  0.613950  0.058900  1.0  -0.0343
  C  C140  1  0.924800  0.545980  0.067600  1.0  -0.0126
  C  C141  1  0.956200  0.518310  0.139600  1.0  -0.1992
  C  C142  1  0.987400  0.557920  0.203800  1.0  -0.0365
  C  C143  1  0.987200  0.625260  0.194110  1.0  -0.0134
  C  C144  1  0.866800  0.418820  0.195600  1.0  -0.1705
  C  C145  1  0.795100  0.401800  0.147600  1.0  -0.0311
  C  C146  1  0.725900  0.392400  0.180600  1.0  -0.0455
  C  C147  1  0.727700  0.399120  0.261860  1.0  -0.1184
  C  C148  1  0.800000  0.415840  0.309050  1.0  -0.0326
  C  C149  1  0.869600  0.426460  0.276200  1.0  -0.0344
  C  C150  1  0.652000  0.386190  0.297000  1.0  0.7304
  C  C151  1  0.472800  0.271260  0.080800  1.0  0.7287
  C  C152  1  0.507640  0.209960  0.048400  1.0  -0.1216
  C  C153  1  0.549100  0.164330  0.100000  1.0  -0.0223
  C  C154  1  0.577900  0.106110  0.072550  1.0  -0.0506
  C  C155  1  0.566220  0.094810  0.991840  1.0  -0.2036
  C  C156  1  0.526400  0.140260  0.938900  1.0  -0.0358
  C  C157  1  0.497200  0.197580  0.967540  1.0  -0.0318
  C  C158  1  0.700970  0.035640  0.946310  1.0  -0.1994
  C  C159  1  0.762000  0.025840  0.010390  1.0  -0.0371
  C  C160  1  0.840500  0.042870  0.003500  1.0  -0.0316
  C  C161  1  0.857700  0.069930  0.933120  1.0  -0.1212
  C  C162  1  0.796400  0.077130  0.868600  1.0  -0.026
  C  C163  1  0.717000  0.060520  0.875130  1.0  -0.0263
  C  C164  1  0.942300  0.092440  0.928800  1.0  0.6595
  C  C165  1  0.281000  0.304150  0.185730  1.0  0.7434
  C  C166  1  0.197050  0.282870  0.197280  1.0  -0.1126
  C  C167  1  0.138010  0.271830  0.130920  1.0  -0.0274
  C  C168  1  0.059700  0.254490  0.138700  1.0  -0.0284
  C  C169  1  0.039510  0.248900  0.214120  1.0  -0.1839
  C  C170  1  0.097500  0.259760  0.280780  1.0  -0.0199
  C  C171  1  0.175700  0.275990  0.272260  1.0  -0.0259
  C  C172  1  0.952080  0.144970  0.261650  1.0  -0.231
  C  C173  1  0.969100  0.094510  0.211600  1.0  -0.0536
  C  C174  1  0.994000  0.034010  0.243700  1.0  -0.075
  C  C175  1  0.001900  0.024170  0.324980  1.0  -0.1059
  C  C176  1  0.977500  0.073000  0.373200  1.0  -0.0702
  C  C177  1  0.953100  0.134020  0.341800  1.0  -0.0567
  C  C178  1  0.047100  0.965600  0.363200  1.0  0.6718
  C  C179  1  0.542200  0.228020  0.384250  1.0  0.7429
  C  C180  1  0.543980  0.154200  0.378100  1.0  -0.1299
  C  C181  1  0.575200  0.113950  0.441100  1.0  -0.0356
  C  C182  1  0.575200  0.045980  0.432400  1.0  -0.0127
  C  C183  1  0.543800  0.018310  0.360400  1.0  -0.1981
  C  C184  1  0.512600  0.057920  0.296200  1.0  -0.0358
  C  C185  1  0.512800  0.125260  0.305890  1.0  -0.0128
  C  C186  1  0.633200  0.918820  0.304400  1.0  -0.1707
  C  C187  1  0.704900  0.901800  0.352400  1.0  -0.0335
  C  C188  1  0.774100  0.892400  0.319400  1.0  -0.0445
  C  C189  1  0.772300  0.899120  0.238140  1.0  -0.1185
  C  C190  1  0.700000  0.915840  0.190950  1.0  -0.0311
  C  C191  1  0.630400  0.926460  0.223800  1.0  -0.0335
  C  C192  1  0.848000  0.886190  0.203000  1.0  0.7293
  C  C193  1  0.972800  0.228740  0.580800  1.0  0.7289
  C  C194  1  0.007640  0.290040  0.548400  1.0  -0.1221
  C  C195  1  0.049100  0.335670  0.600000  1.0  -0.0222
  C  C196  1  0.077900  0.393890  0.572550  1.0  -0.0498
  C  C197  1  0.066220  0.405190  0.491840  1.0  -0.2042
  C  C198  1  0.026400  0.359740  0.438900  1.0  -0.0352
  C  C199  1  0.997200  0.302420  0.467540  1.0  -0.0323
  C  C200  1  0.200970  0.464360  0.446310  1.0  -0.1988
  C  C201  1  0.262000  0.474160  0.510390  1.0  -0.0375
  C  C202  1  0.340500  0.457130  0.503500  1.0  -0.0318
  C  C203  1  0.357700  0.430070  0.433120  1.0  -0.1211
  C  C204  1  0.296400  0.422870  0.368600  1.0  -0.0261
  C  C205  1  0.217000  0.439480  0.375130  1.0  -0.0264
  C  C206  1  0.442300  0.407560  0.428800  1.0  0.6593
  C  C207  1  0.781000  0.195850  0.685730  1.0  0.7425
  C  C208  1  0.697050  0.217130  0.697280  1.0  -0.1123
  C  C209  1  0.638010  0.228170  0.630920  1.0  -0.0282
  C  C210  1  0.559700  0.245510  0.638700  1.0  -0.0282
  C  C211  1  0.539510  0.251100  0.714120  1.0  -0.184
  C  C212  1  0.597500  0.240240  0.780780  1.0  -0.0196
  C  C213  1  0.675700  0.224010  0.772260  1.0  -0.0259
  C  C214  1  0.452080  0.355030  0.761650  1.0  -0.2309
  C  C215  1  0.469100  0.405490  0.711600  1.0  -0.054
  C  C216  1  0.494000  0.465990  0.743700  1.0  -0.075
  C  C217  1  0.501900  0.475830  0.824980  1.0  -0.1062
  C  C218  1  0.477500  0.427000  0.873200  1.0  -0.0698
  C  C219  1  0.453100  0.365980  0.841800  1.0  -0.0572
  C  C220  1  0.547100  0.534400  0.863200  1.0  0.6716
  C  C221  1  0.042200  0.271980  0.884250  1.0  0.7418
  C  C222  1  0.043980  0.345800  0.878100  1.0  -0.1307
  C  C223  1  0.075200  0.386050  0.941100  1.0  -0.0355
  C  C224  1  0.075200  0.454020  0.932400  1.0  -0.0124
  C  C225  1  0.043800  0.481690  0.860400  1.0  -0.1978
  C  C226  1  0.012600  0.442080  0.796200  1.0  -0.0358
  C  C227  1  0.012800  0.374740  0.805890  1.0  -0.013
  C  C228  1  0.133200  0.581180  0.804400  1.0  -0.1706
  C  C229  1  0.204900  0.598200  0.852400  1.0  -0.0325
  C  C230  1  0.274100  0.607600  0.819400  1.0  -0.0451
  C  C231  1  0.272300  0.600880  0.738140  1.0  -0.1188
  C  C232  1  0.200000  0.584160  0.690950  1.0  -0.0317
  C  C233  1  0.130400  0.573540  0.723800  1.0  -0.0335
  C  C234  1  0.348000  0.613810  0.703000  1.0  0.7293
  C  C235  1  0.527200  0.728740  0.919200  1.0  0.7284
  C  C236  1  0.492360  0.790040  0.951600  1.0  -0.1223
  C  C237  1  0.450900  0.835670  0.900000  1.0  -0.0225
  C  C238  1  0.422100  0.893890  0.927450  1.0  -0.0491
  C  C239  1  0.433780  0.905190  0.008160  1.0  -0.2038
  C  C240  1  0.473600  0.859740  0.061100  1.0  -0.0363
  C  C241  1  0.502800  0.802420  0.032460  1.0  -0.0328
  C  C242  1  0.299030  0.964360  0.053690  1.0  -0.1979
  C  C243  1  0.238000  0.974160  0.989610  1.0  -0.0354
  C  C244  1  0.159500  0.957130  0.996500  1.0  -0.0298
  C  C245  1  0.142300  0.930070  0.066880  1.0  -0.1211
  C  C246  1  0.203600  0.922870  0.131400  1.0  -0.0264
  C  C247  1  0.283000  0.939480  0.124870  1.0  -0.0274
  C  C248  1  0.057700  0.907560  0.071200  1.0  0.6601
  C  C249  1  0.719000  0.695850  0.814270  1.0  0.7414
  C  C250  1  0.802950  0.717130  0.802720  1.0  -0.1127
  C  C251  1  0.861990  0.728170  0.869080  1.0  -0.0271
  C  C252  1  0.940300  0.745510  0.861300  1.0  -0.029
  C  C253  1  0.960490  0.751100  0.785880  1.0  -0.1847
  C  C254  1  0.902500  0.740240  0.719220  1.0  -0.0151
  C  C255  1  0.824300  0.724010  0.727740  1.0  -0.0235
  C  C256  1  0.047920  0.855030  0.738350  1.0  -0.2308
  C  C257  1  0.030900  0.905490  0.788400  1.0  -0.0521
  C  C258  1  0.006000  0.965990  0.756300  1.0  -0.0748
  C  C259  1  0.998100  0.975830  0.675020  1.0  -0.1061
  C  C260  1  0.022500  0.927000  0.626800  1.0  -0.0731
  C  C261  1  0.046900  0.865980  0.658200  1.0  -0.0564
  C  C262  1  0.952900  0.034400  0.636800  1.0  0.6708
  C  C263  1  0.457800  0.771980  0.615750  1.0  0.7432
  C  C264  1  0.456020  0.845800  0.621900  1.0  -0.1309
  C  C265  1  0.424800  0.886050  0.558900  1.0  -0.0342
  C  C266  1  0.424800  0.954020  0.567600  1.0  -0.0123
  C  C267  1  0.456200  0.981690  0.639600  1.0  -0.1988
  C  C268  1  0.487400  0.942080  0.703800  1.0  -0.0369
  C  C269  1  0.487200  0.874740  0.694110  1.0  -0.0136
  C  C270  1  0.366800  0.081180  0.695600  1.0  -0.1707
  C  C271  1  0.295100  0.098200  0.647600  1.0  -0.0311
  C  C272  1  0.225900  0.107600  0.680600  1.0  -0.0464
  C  C273  1  0.227700  0.100880  0.761860  1.0  -0.1185
  C  C274  1  0.300000  0.084160  0.809050  1.0  -0.0326
  C  C275  1  0.369600  0.073540  0.776200  1.0  -0.0343
  C  C276  1  0.152000  0.113810  0.797000  1.0  0.7302
  S  S277  1  0.900310  0.518860  0.542240  1.0  1.1272
  S  S278  1  0.560930  0.726510  0.275330  1.0  1.0729
  S  S279  1  0.955700  0.431670  0.153420  1.0  1.0702
  S  S280  1  0.599690  0.018860  0.957760  1.0  1.1278
  S  S281  1  0.939070  0.226510  0.224670  1.0  1.0758
  S  S282  1  0.544300  0.931670  0.346580  1.0  1.0723
  S  S283  1  0.099690  0.481140  0.457760  1.0  1.1265
  S  S284  1  0.439070  0.273490  0.724670  1.0  1.0757
  S  S285  1  0.044300  0.568330  0.846580  1.0  1.0723
  S  S286  1  0.400310  0.981140  0.042240  1.0  1.1257
  S  S287  1  0.060930  0.773490  0.775330  1.0  1.0724
  S  S288  1  0.455700  0.068330  0.653420  1.0  1.0706
  O  O289  1  0.994100  0.758640  0.173170  1.0  -0.6652
  O  O290  1  0.019530  0.775190  0.345820  1.0  -0.6136
  O  O291  1  0.425330  0.422440  0.178970  1.0  -0.6482
  O  O292  1  0.588430  0.372130  0.251760  1.0  -0.6429
  O  O293  1  0.164330  0.808110  0.255090  1.0  -0.612
  O  O294  1  0.537700  0.606450  0.636590  1.0  -0.6903
  O  O295  1  0.210940  0.816660  0.384890  1.0  -0.646
  O  O296  1  0.062610  0.812110  0.468540  1.0  -0.5872
  O  O297  1  0.436160  0.464470  0.062590  1.0  -0.5585
  O  O298  1  0.660150  0.390160  0.371300  1.0  -0.6218
  O  O299  1  0.922810  0.755000  0.053200  1.0  -0.58
  O  O300  1  0.508280  0.597180  0.507670  1.0  -0.5766
  O  O301  1  0.898380  0.471310  0.479790  1.0  -0.5902
  O  O302  1  0.945590  0.505060  0.619100  1.0  -0.6609
  O  O303  1  0.609420  0.724740  0.352350  1.0  -0.5799
  O  O304  1  0.585940  0.767040  0.214550  1.0  -0.5725
  O  O305  1  0.945000  0.400650  0.077380  1.0  -0.5473
  O  O306  1  0.024770  0.415090  0.211970  1.0  -0.5815
  O  O307  1  0.505900  0.258640  0.326830  1.0  -0.6639
  O  O308  1  0.480470  0.275190  0.154180  1.0  -0.6167
  O  O309  1  0.074670  0.922440  0.321030  1.0  -0.6492
  O  O310  1  0.911570  0.872130  0.248240  1.0  -0.6422
  O  O311  1  0.335670  0.308110  0.244910  1.0  -0.6141
  O  O312  1  0.962300  0.106450  0.863410  1.0  -0.6916
  O  O313  1  0.289060  0.316660  0.115110  1.0  -0.6474
  O  O314  1  0.437390  0.312110  0.031460  1.0  -0.5874
  O  O315  1  0.063840  0.964470  0.437410  1.0  -0.5587
  O  O316  1  0.839850  0.890160  0.128700  1.0  -0.6215
  O  O317  1  0.577190  0.255000  0.446800  1.0  -0.5806
  O  O318  1  0.991720  0.097180  0.992330  1.0  -0.5778
  O  O319  1  0.601620  0.971310  0.020210  1.0  -0.5902
  O  O320  1  0.554410  0.005060  0.880900  1.0  -0.6628
  O  O321  1  0.890580  0.224740  0.147650  1.0  -0.5775
  O  O322  1  0.914060  0.267040  0.285450  1.0  -0.5727
  O  O323  1  0.555000  0.900650  0.422620  1.0  -0.5467
  O  O324  1  0.475230  0.915090  0.288030  1.0  -0.58
  O  O325  1  0.005900  0.241360  0.826830  1.0  -0.664
  O  O326  1  0.980470  0.224810  0.654180  1.0  -0.6143
  O  O327  1  0.574670  0.577560  0.821030  1.0  -0.6492
  O  O328  1  0.411570  0.627870  0.748240  1.0  -0.643
  O  O329  1  0.835670  0.191890  0.744910  1.0  -0.6136
  O  O330  1  0.462300  0.393550  0.363410  1.0  -0.6919
  O  O331  1  0.789060  0.183340  0.615110  1.0  -0.6473
  O  O332  1  0.937390  0.187890  0.531460  1.0  -0.5874
  O  O333  1  0.563840  0.535530  0.937410  1.0  -0.5588
  O  O334  1  0.339850  0.609840  0.628700  1.0  -0.6222
  O  O335  1  0.077190  0.245000  0.946800  1.0  -0.5804
  O  O336  1  0.491720  0.402820  0.492330  1.0  -0.5775
  O  O337  1  0.101620  0.528690  0.520210  1.0  -0.5908
  O  O338  1  0.054410  0.494940  0.380900  1.0  -0.6629
  O  O339  1  0.390580  0.275260  0.647650  1.0  -0.5775
  O  O340  1  0.414060  0.232960  0.785450  1.0  -0.572
  O  O341  1  0.055000  0.599350  0.922620  1.0  -0.5462
  O  O342  1  0.975230  0.584910  0.788030  1.0  -0.5801
  O  O343  1  0.494100  0.741360  0.673170  1.0  -0.6657
  O  O344  1  0.519530  0.724810  0.845820  1.0  -0.6159
  O  O345  1  0.925330  0.077560  0.678970  1.0  -0.6488
  O  O346  1  0.088430  0.127870  0.751760  1.0  -0.6425
  O  O347  1  0.664330  0.691890  0.755090  1.0  -0.613
  O  O348  1  0.037700  0.893550  0.136590  1.0  -0.6905
  O  O349  1  0.710940  0.683340  0.884890  1.0  -0.6461
  O  O350  1  0.562610  0.687890  0.968540  1.0  -0.5872
  O  O351  1  0.936160  0.035530  0.562590  1.0  -0.5588
  O  O352  1  0.160150  0.109840  0.871300  1.0  -0.6221
  O  O353  1  0.422810  0.745000  0.553200  1.0  -0.5798
  O  O354  1  0.008280  0.902820  0.007670  1.0  -0.577
  O  O355  1  0.398380  0.028690  0.979790  1.0  -0.5907
  O  O356  1  0.445590  0.994940  0.119100  1.0  -0.6625
  O  O357  1  0.109420  0.775260  0.852350  1.0  -0.5798
  O  O358  1  0.085940  0.732960  0.714550  1.0  -0.5724
  O  O359  1  0.445000  0.099350  0.577380  1.0  -0.5467
  O  O360  1  0.524770  0.084910  0.711970  1.0  -0.5816
