# generated using pymatgen
data_MnH8C14SO6
_symmetry_space_group_name_H-M   'P 1'
_cell_length_a   16.70940000
_cell_length_b   20.28570000
_cell_length_c   17.19360000
_cell_angle_alpha   90.00000000
_cell_angle_beta   99.17800000
_cell_angle_gamma   90.00000000
_symmetry_Int_Tables_number   1
_chemical_formula_structural   MnH8C14SO6
_chemical_formula_sum   'Mn12 H96 C168 S12 O72'
_cell_volume   5753.36273474
_cell_formula_units_Z   12
loop_
 _symmetry_equiv_pos_site_id
 _symmetry_equiv_pos_as_xyz
  1  'x, y, z'
loop_
 _atom_site_type_symbol
 _atom_site_label
 _atom_site_symmetry_multiplicity
 _atom_site_fract_x
 _atom_site_fract_y
 _atom_site_fract_z
 _atom_site_occupancy
 _atom_site_charge
  Mn  Mn1  1  0.463160  0.833890  0.747310  1.0  1.1893
  Mn  Mn2  1  0.356610  0.878500  0.553270  1.0  1.1151
  Mn  Mn3  1  0.584570  0.852130  0.943790  1.0  1.0997
  Mn  Mn4  1  0.036840  0.333890  0.752690  1.0  1.1897
  Mn  Mn5  1  0.143390  0.378500  0.946730  1.0  1.1168
  Mn  Mn6  1  0.915430  0.352130  0.556210  1.0  1.0985
  Mn  Mn7  1  0.536840  0.166110  0.252690  1.0  1.1888
  Mn  Mn8  1  0.643390  0.121500  0.446730  1.0  1.1171
  Mn  Mn9  1  0.415430  0.147870  0.056210  1.0  1.0989
  Mn  Mn10  1  0.963160  0.666110  0.247310  1.0  1.1887
  Mn  Mn11  1  0.856610  0.621500  0.053270  1.0  1.1164
  Mn  Mn12  1  0.084570  0.647870  0.443790  1.0  1.0991
  H  H13  1  0.491900  0.998600  0.783900  1.0  0.1026
  H  H14  1  0.530500  0.100700  0.836700  1.0  0.1082
  H  H15  1  0.547300  0.168700  0.622100  1.0  0.1224
  H  H16  1  0.514100  0.065300  0.570900  1.0  0.1025
  H  H17  1  0.479000  0.251500  0.902500  1.0  0.1148
  H  H18  1  0.350300  0.281900  0.919900  1.0  0.1035
  H  H19  1  0.278500  0.279900  0.687100  1.0  0.1108
  H  H20  1  0.408200  0.253800  0.669700  1.0  0.1053
  H  H21  1  0.490500  0.650900  0.759700  1.0  0.1008
  H  H22  1  0.494600  0.538200  0.740600  1.0  0.109
  H  H23  1  0.602300  0.514800  0.962800  1.0  0.1156
  H  H24  1  0.601700  0.628400  0.980700  1.0  0.1032
  H  H25  1  0.704500  0.389400  0.899400  1.0  0.1208
  H  H26  1  0.822500  0.373600  0.848800  1.0  0.1147
  H  H27  1  0.706800  0.420500  0.635300  1.0  0.1027
  H  H28  1  0.589900  0.439100  0.686400  1.0  0.1154
  H  H29  1  0.385900  0.964400  0.037800  1.0  0.1008
  H  H30  1  0.256600  0.995500  0.053200  1.0  0.1213
  H  H31  1  0.173100  0.931500  0.835000  1.0  0.1178
  H  H32  1  0.302500  0.902400  0.819500  1.0  0.0979
  H  H33  1  0.109100  0.929100  0.107900  1.0  0.113
  H  H34  1  0.060900  0.834100  0.155000  1.0  0.0951
  H  H35  1  0.971500  0.777900  0.935600  1.0  0.1096
  H  H36  1  0.021400  0.872700  0.887500  1.0  0.1087
  H  H37  1  0.008100  0.498600  0.716100  1.0  0.1025
  H  H38  1  0.969500  0.600700  0.663300  1.0  0.108
  H  H39  1  0.952700  0.668700  0.877900  1.0  0.1221
  H  H40  1  0.985900  0.565300  0.929100  1.0  0.1029
  H  H41  1  0.021000  0.751500  0.597500  1.0  0.1146
  H  H42  1  0.149700  0.781900  0.580100  1.0  0.1035
  H  H43  1  0.221500  0.779900  0.812900  1.0  0.1112
  H  H44  1  0.091800  0.753800  0.830300  1.0  0.1048
  H  H45  1  0.009500  0.150900  0.740300  1.0  0.1012
  H  H46  1  0.005400  0.038200  0.759400  1.0  0.1091
  H  H47  1  0.897700  0.014800  0.537200  1.0  0.1156
  H  H48  1  0.898300  0.128400  0.519300  1.0  0.1033
  H  H49  1  0.795500  0.889400  0.600600  1.0  0.1208
  H  H50  1  0.677500  0.873600  0.651200  1.0  0.1145
  H  H51  1  0.793200  0.920500  0.864700  1.0  0.103
  H  H52  1  0.910100  0.939100  0.813600  1.0  0.1153
  H  H53  1  0.114100  0.464400  0.462200  1.0  0.1006
  H  H54  1  0.243400  0.495500  0.446800  1.0  0.122
  H  H55  1  0.326900  0.431500  0.665000  1.0  0.1183
  H  H56  1  0.197500  0.402400  0.680500  1.0  0.0983
  H  H57  1  0.390900  0.429100  0.392100  1.0  0.1127
  H  H58  1  0.439100  0.334100  0.345000  1.0  0.0955
  H  H59  1  0.528500  0.277900  0.564400  1.0  0.11
  H  H60  1  0.478600  0.372700  0.612500  1.0  0.1091
  H  H61  1  0.508100  0.001400  0.216100  1.0  0.1018
  H  H62  1  0.469500  0.899300  0.163300  1.0  0.1082
  H  H63  1  0.452700  0.831300  0.377900  1.0  0.1225
  H  H64  1  0.485900  0.934700  0.429100  1.0  0.1028
  H  H65  1  0.521000  0.748500  0.097500  1.0  0.1146
  H  H66  1  0.649700  0.718100  0.080100  1.0  0.1036
  H  H67  1  0.721500  0.720100  0.312900  1.0  0.1113
  H  H68  1  0.591800  0.746200  0.330300  1.0  0.1049
  H  H69  1  0.509500  0.349100  0.240300  1.0  0.1016
  H  H70  1  0.505400  0.461800  0.259400  1.0  0.1098
  H  H71  1  0.397700  0.485200  0.037200  1.0  0.1155
  H  H72  1  0.398300  0.371600  0.019300  1.0  0.1034
  H  H73  1  0.295500  0.610600  0.100600  1.0  0.1214
  H  H74  1  0.177500  0.626400  0.151200  1.0  0.1146
  H  H75  1  0.293200  0.579500  0.364700  1.0  0.1029
  H  H76  1  0.410100  0.560900  0.313600  1.0  0.1155
  H  H77  1  0.614100  0.035600  0.962200  1.0  0.1005
  H  H78  1  0.743400  0.004500  0.946800  1.0  0.122
  H  H79  1  0.826900  0.068500  0.165000  1.0  0.1186
  H  H80  1  0.697500  0.097600  0.180500  1.0  0.0981
  H  H81  1  0.890900  0.070900  0.892100  1.0  0.1128
  H  H82  1  0.939100  0.165900  0.845000  1.0  0.0956
  H  H83  1  0.028500  0.222100  0.064400  1.0  0.1098
  H  H84  1  0.978600  0.127300  0.112500  1.0  0.1088
  H  H85  1  0.991900  0.501400  0.283900  1.0  0.1024
  H  H86  1  0.030500  0.399300  0.336700  1.0  0.1081
  H  H87  1  0.047300  0.331300  0.122100  1.0  0.1224
  H  H88  1  0.014100  0.434700  0.070900  1.0  0.1024
  H  H89  1  0.979000  0.248500  0.402500  1.0  0.1145
  H  H90  1  0.850300  0.218100  0.419900  1.0  0.1036
  H  H91  1  0.778500  0.220100  0.187100  1.0  0.1107
  H  H92  1  0.908200  0.246200  0.169700  1.0  0.1049
  H  H93  1  0.990500  0.849100  0.259700  1.0  0.1009
  H  H94  1  0.994600  0.961800  0.240600  1.0  0.1088
  H  H95  1  0.102300  0.985200  0.462800  1.0  0.1154
  H  H96  1  0.101700  0.871600  0.480700  1.0  0.1031
  H  H97  1  0.204500  0.110600  0.399400  1.0  0.1205
  H  H98  1  0.322500  0.126400  0.348800  1.0  0.1144
  H  H99  1  0.206800  0.079500  0.135300  1.0  0.1027
  H  H100  1  0.089900  0.060900  0.186400  1.0  0.1152
  H  H101  1  0.885900  0.535600  0.537800  1.0  0.101
  H  H102  1  0.756600  0.504500  0.553200  1.0  0.1216
  H  H103  1  0.673100  0.568500  0.335000  1.0  0.1178
  H  H104  1  0.802500  0.597600  0.319500  1.0  0.0975
  H  H105  1  0.609100  0.570900  0.607900  1.0  0.1132
  H  H106  1  0.560900  0.665900  0.655000  1.0  0.0951
  H  H107  1  0.471500  0.722100  0.435600  1.0  0.11
  H  H108  1  0.521400  0.627300  0.387500  1.0  0.1089
  C  C109  1  0.456700  0.961500  0.633800  1.0  0.6792
  C  C110  1  0.494400  0.022700  0.671400  1.0  -0.1288
  C  C111  1  0.502000  0.033000  0.751000  1.0  -0.0338
  C  C112  1  0.524600  0.094000  0.782600  1.0  -0.0586
  C  C113  1  0.538500  0.145100  0.733400  1.0  -0.1644
  C  C114  1  0.535500  0.134700  0.654800  1.0  -0.0598
  C  C115  1  0.514600  0.073000  0.624300  1.0  -0.0745
  C  C116  1  0.455300  0.249400  0.784300  1.0  -0.1067
  C  C117  1  0.438700  0.257800  0.859100  1.0  -0.037
  C  C118  1  0.361800  0.275600  0.869200  1.0  -0.047
  C  C119  1  0.301200  0.284100  0.805400  1.0  -0.1456
  C  C120  1  0.318900  0.275000  0.730600  1.0  -0.0379
  C  C121  1  0.396000  0.258600  0.720300  1.0  -0.0489
  C  C122  1  0.218400  0.304100  0.818400  1.0  0.7627
  C  C123  1  0.542000  0.724900  0.881600  1.0  0.7397
  C  C124  1  0.544700  0.650900  0.872400  1.0  -0.1404
  C  C125  1  0.513200  0.623700  0.800900  1.0  -0.0172
  C  C126  1  0.514800  0.556200  0.789600  1.0  -0.0576
  C  C127  1  0.546300  0.516200  0.850500  1.0  -0.1374
  C  C128  1  0.579500  0.542300  0.921900  1.0  -0.042
  C  C129  1  0.578900  0.610300  0.932500  1.0  -0.0515
  C  C130  1  0.637500  0.416600  0.797500  1.0  -0.1486
  C  C131  1  0.705600  0.396500  0.846100  1.0  -0.0677
  C  C132  1  0.775500  0.386700  0.815900  1.0  -0.0085
  C  C133  1  0.776800  0.396200  0.737300  1.0  -0.1416
  C  C134  1  0.706600  0.415000  0.689000  1.0  -0.0444
  C  C135  1  0.636900  0.425800  0.719000  1.0  -0.122
  C  C136  1  0.852500  0.383000  0.704500  1.0  0.7469
  C  C137  1  0.439300  0.904800  0.921900  1.0  0.67
  C  C138  1  0.356500  0.928500  0.928300  1.0  -0.13
  C  C139  1  0.342800  0.957400  0.997200  1.0  -0.0026
  C  C140  1  0.266100  0.976200  0.006400  1.0  -0.0509
  C  C141  1  0.203800  0.965900  0.945700  1.0  -0.1321
  C  C142  1  0.216200  0.938000  0.875600  1.0  -0.0549
  C  C143  1  0.292800  0.920200  0.866900  1.0  -0.0445
  C  C144  1  0.069900  0.910300  0.993700  1.0  -0.179
  C  C145  1  0.081500  0.898600  0.073200  1.0  -0.077
  C  C146  1  0.052300  0.842100  0.101000  1.0  -0.0243
  C  C147  1  0.010000  0.796300  0.050500  1.0  -0.1546
  C  C148  1  0.999100  0.808400  0.970300  1.0  -0.0207
  C  C149  1  0.028800  0.864900  0.941500  1.0  -0.0542
  C  C150  1  0.974900  0.736000  0.082300  1.0  0.7287
  C  C151  1  0.043300  0.461500  0.866200  1.0  0.6795
  C  C152  1  0.005600  0.522700  0.828600  1.0  -0.128
  C  C153  1  0.998000  0.533000  0.749000  1.0  -0.0322
  C  C154  1  0.975400  0.594000  0.717400  1.0  -0.0596
  C  C155  1  0.961500  0.645100  0.766600  1.0  -0.1637
  C  C156  1  0.964500  0.634700  0.845200  1.0  -0.0601
  C  C157  1  0.985400  0.573000  0.875700  1.0  -0.0726
  C  C158  1  0.044700  0.749400  0.715700  1.0  -0.1051
  C  C159  1  0.061300  0.757800  0.640900  1.0  -0.0375
  C  C160  1  0.138200  0.775600  0.630800  1.0  -0.046
  C  C161  1  0.198800  0.784100  0.694600  1.0  -0.1442
  C  C162  1  0.181100  0.775000  0.769400  1.0  -0.0404
  C  C163  1  0.104000  0.758600  0.779700  1.0  -0.0506
  C  C164  1  0.281600  0.804100  0.681600  1.0  0.762
  C  C165  1  0.958000  0.224900  0.618400  1.0  0.7398
  C  C166  1  0.955300  0.150900  0.627600  1.0  -0.1404
  C  C167  1  0.986800  0.123700  0.699100  1.0  -0.0176
  C  C168  1  0.985200  0.056200  0.710400  1.0  -0.0574
  C  C169  1  0.953700  0.016200  0.649500  1.0  -0.1376
  C  C170  1  0.920500  0.042300  0.578100  1.0  -0.042
  C  C171  1  0.921100  0.110300  0.567500  1.0  -0.0505
  C  C172  1  0.862500  0.916600  0.702500  1.0  -0.1488
  C  C173  1  0.794400  0.896500  0.653900  1.0  -0.0656
  C  C174  1  0.724500  0.886700  0.684100  1.0  -0.0092
  C  C175  1  0.723200  0.896200  0.762700  1.0  -0.141
  C  C176  1  0.793400  0.915000  0.811000  1.0  -0.0474
  C  C177  1  0.863100  0.925800  0.781000  1.0  -0.1221
  C  C178  1  0.647500  0.883000  0.795500  1.0  0.7483
  C  C179  1  0.060700  0.404800  0.578100  1.0  0.6692
  C  C180  1  0.143500  0.428500  0.571700  1.0  -0.1297
  C  C181  1  0.157200  0.457400  0.502800  1.0  -0.0022
  C  C182  1  0.233900  0.476200  0.493600  1.0  -0.0489
  C  C183  1  0.296200  0.465900  0.554300  1.0  -0.1343
  C  C184  1  0.283800  0.438000  0.624400  1.0  -0.0539
  C  C185  1  0.207200  0.420200  0.633100  1.0  -0.046
  C  C186  1  0.430100  0.410300  0.506300  1.0  -0.1798
  C  C187  1  0.418500  0.398600  0.426800  1.0  -0.0762
  C  C188  1  0.447700  0.342100  0.399000  1.0  -0.0251
  C  C189  1  0.490000  0.296300  0.449500  1.0  -0.1551
  C  C190  1  0.500900  0.308400  0.529700  1.0  -0.0203
  C  C191  1  0.471200  0.364900  0.558500  1.0  -0.0566
  C  C192  1  0.525100  0.236000  0.417700  1.0  0.7281
  C  C193  1  0.543300  0.038500  0.366200  1.0  0.6788
  C  C194  1  0.505600  0.977300  0.328600  1.0  -0.1284
  C  C195  1  0.498000  0.967000  0.249000  1.0  -0.0326
  C  C196  1  0.475400  0.906000  0.217400  1.0  -0.0603
  C  C197  1  0.461500  0.854900  0.266600  1.0  -0.1636
  C  C198  1  0.464500  0.865300  0.345200  1.0  -0.0603
  C  C199  1  0.485400  0.927000  0.375700  1.0  -0.0722
  C  C200  1  0.544700  0.750600  0.215700  1.0  -0.1049
  C  C201  1  0.561300  0.742200  0.140900  1.0  -0.0374
  C  C202  1  0.638200  0.724400  0.130800  1.0  -0.0465
  C  C203  1  0.698800  0.715900  0.194600  1.0  -0.1442
  C  C204  1  0.681100  0.725000  0.269400  1.0  -0.0401
  C  C205  1  0.604000  0.741400  0.279700  1.0  -0.0503
  C  C206  1  0.781600  0.695900  0.181600  1.0  0.7616
  C  C207  1  0.458000  0.275100  0.118400  1.0  0.7399
  C  C208  1  0.455300  0.349100  0.127600  1.0  -0.1414
  C  C209  1  0.486800  0.376300  0.199100  1.0  -0.0177
  C  C210  1  0.485200  0.443800  0.210400  1.0  -0.0571
  C  C211  1  0.453700  0.483800  0.149500  1.0  -0.1371
  C  C212  1  0.420500  0.457700  0.078100  1.0  -0.0417
  C  C213  1  0.421100  0.389700  0.067500  1.0  -0.0511
  C  C214  1  0.362500  0.583400  0.202500  1.0  -0.149
  C  C215  1  0.294400  0.603500  0.153900  1.0  -0.0663
  C  C216  1  0.224500  0.613300  0.184100  1.0  -0.0098
  C  C217  1  0.223200  0.603800  0.262700  1.0  -0.1412
  C  C218  1  0.293400  0.585000  0.311000  1.0  -0.0475
  C  C219  1  0.363100  0.574200  0.281000  1.0  -0.1221
  C  C220  1  0.147500  0.617000  0.295500  1.0  0.7483
  C  C221  1  0.560700  0.095200  0.078100  1.0  0.6695
  C  C222  1  0.643500  0.071500  0.071700  1.0  -0.1297
  C  C223  1  0.657200  0.042600  0.002800  1.0  -0.0024
  C  C224  1  0.733900  0.023800  0.993600  1.0  -0.0488
  C  C225  1  0.796200  0.034100  0.054300  1.0  -0.1345
  C  C226  1  0.783800  0.062000  0.124400  1.0  -0.0539
  C  C227  1  0.707200  0.079800  0.133100  1.0  -0.0457
  C  C228  1  0.930100  0.089700  0.006300  1.0  -0.1792
  C  C229  1  0.918500  0.101400  0.926800  1.0  -0.0773
  C  C230  1  0.947700  0.157900  0.899000  1.0  -0.0246
  C  C231  1  0.990000  0.203700  0.949500  1.0  -0.1542
  C  C232  1  0.000900  0.191600  0.029700  1.0  -0.0203
  C  C233  1  0.971200  0.135100  0.058500  1.0  -0.0559
  C  C234  1  0.025100  0.264000  0.917700  1.0  0.7285
  C  C235  1  0.956700  0.538500  0.133800  1.0  0.6792
  C  C236  1  0.994400  0.477300  0.171400  1.0  -0.1285
  C  C237  1  0.002000  0.467000  0.251000  1.0  -0.0341
  C  C238  1  0.024600  0.406000  0.282600  1.0  -0.0592
  C  C239  1  0.038500  0.354900  0.233400  1.0  -0.1636
  C  C240  1  0.035500  0.365300  0.154800  1.0  -0.0603
  C  C241  1  0.014600  0.427000  0.124300  1.0  -0.075
  C  C242  1  0.955300  0.250600  0.284300  1.0  -0.1063
  C  C243  1  0.938700  0.242200  0.359100  1.0  -0.0375
  C  C244  1  0.861800  0.224400  0.369200  1.0  -0.0471
  C  C245  1  0.801200  0.215900  0.305400  1.0  -0.1444
  C  C246  1  0.818900  0.225000  0.230600  1.0  -0.0382
  C  C247  1  0.896000  0.241400  0.220300  1.0  -0.0494
  C  C248  1  0.718400  0.195900  0.318400  1.0  0.762
  C  C249  1  0.042000  0.775100  0.381600  1.0  0.7397
  C  C250  1  0.044700  0.849100  0.372400  1.0  -0.141
  C  C251  1  0.013200  0.876300  0.300900  1.0  -0.0175
  C  C252  1  0.014800  0.943800  0.289600  1.0  -0.0566
  C  C253  1  0.046300  0.983800  0.350500  1.0  -0.1367
  C  C254  1  0.079500  0.957700  0.421900  1.0  -0.0424
  C  C255  1  0.078900  0.889700  0.432500  1.0  -0.0522
  C  C256  1  0.137500  0.083400  0.297500  1.0  -0.1484
  C  C257  1  0.205600  0.103500  0.346100  1.0  -0.0676
  C  C258  1  0.275500  0.113300  0.315900  1.0  -0.0088
  C  C259  1  0.276800  0.103800  0.237300  1.0  -0.1421
  C  C260  1  0.206600  0.085000  0.189000  1.0  -0.0448
  C  C261  1  0.136900  0.074200  0.219000  1.0  -0.1221
  C  C262  1  0.352500  0.117000  0.204500  1.0  0.7467
  C  C263  1  0.939300  0.595200  0.421900  1.0  0.6703
  C  C264  1  0.856500  0.571500  0.428300  1.0  -0.1301
  C  C265  1  0.842800  0.542600  0.497200  1.0  -0.0026
  C  C266  1  0.766100  0.523800  0.506400  1.0  -0.0508
  C  C267  1  0.703800  0.534100  0.445700  1.0  -0.1323
  C  C268  1  0.716200  0.562000  0.375600  1.0  -0.0545
  C  C269  1  0.792800  0.579800  0.366900  1.0  -0.0444
  C  C270  1  0.569900  0.589700  0.493700  1.0  -0.1786
  C  C271  1  0.581500  0.601400  0.573200  1.0  -0.0775
  C  C272  1  0.552300  0.657900  0.601000  1.0  -0.0246
  C  C273  1  0.510000  0.703700  0.550500  1.0  -0.154
  C  C274  1  0.499100  0.691600  0.470300  1.0  -0.0204
  C  C275  1  0.528800  0.635100  0.441500  1.0  -0.0546
  C  C276  1  0.474900  0.764000  0.582300  1.0  0.7288
  S  S277  1  0.553210  0.226140  0.771030  1.0  1.0839
  S  S278  1  0.547740  0.429400  0.835590  1.0  1.0736
  S  S279  1  0.104760  0.984670  0.959240  1.0  1.1371
  S  S280  1  0.946790  0.726140  0.728970  1.0  1.0861
  S  S281  1  0.952260  0.929400  0.664410  1.0  1.0712
  S  S282  1  0.395240  0.484670  0.540760  1.0  1.1361
  S  S283  1  0.446790  0.773860  0.228970  1.0  1.0865
  S  S284  1  0.452260  0.570600  0.164410  1.0  1.0709
  S  S285  1  0.895240  0.015330  0.040760  1.0  1.136
  S  S286  1  0.053210  0.273860  0.271030  1.0  1.084
  S  S287  1  0.047740  0.070600  0.335590  1.0  1.0735
  S  S288  1  0.604760  0.515330  0.459240  1.0  1.1368
  O  O289  1  0.502500  0.756750  0.828200  1.0  -0.6748
  O  O290  1  0.981000  0.732230  0.154800  1.0  -0.6041
  O  O291  1  0.428600  0.918490  0.674900  1.0  -0.6343
  O  O292  1  0.913700  0.366600  0.750200  1.0  -0.6173
  O  O293  1  0.163390  0.306960  0.759820  1.0  -0.6046
  O  O294  1  0.455800  0.892330  0.855700  1.0  -0.6719
  O  O295  1  0.211500  0.316800  0.887490  1.0  -0.6108
  O  O296  1  0.940100  0.695180  0.033500  1.0  -0.6057
  O  O297  1  0.445800  0.957360  0.560500  1.0  -0.5803
  O  O298  1  0.846700  0.388840  0.631760  1.0  -0.6055
  O  O299  1  0.579300  0.750380  0.942900  1.0  -0.5803
  O  O300  1  0.489100  0.898100  0.983500  1.0  -0.5888
  O  O301  1  0.576400  0.267060  0.710600  1.0  -0.5474
  O  O302  1  0.603300  0.223350  0.845900  1.0  -0.5633
  O  O303  1  0.481000  0.413150  0.774900  1.0  -0.5902
  O  O304  1  0.555800  0.398170  0.910600  1.0  -0.5505
  O  O305  1  0.109600  0.032320  0.020700  1.0  -0.5488
  O  O306  1  0.058400  0.999030  0.884400  1.0  -0.6204
  O  O307  1  0.997500  0.256750  0.671800  1.0  -0.6748
  O  O308  1  0.519000  0.232230  0.345200  1.0  -0.6026
  O  O309  1  0.071400  0.418490  0.825100  1.0  -0.6354
  O  O310  1  0.586300  0.866600  0.749800  1.0  -0.6191
  O  O311  1  0.336610  0.806960  0.740180  1.0  -0.604
  O  O312  1  0.044200  0.392330  0.644300  1.0  -0.6699
  O  O313  1  0.288500  0.816800  0.612510  1.0  -0.6096
  O  O314  1  0.559900  0.195180  0.466500  1.0  -0.6055
  O  O315  1  0.054200  0.457360  0.939500  1.0  -0.5799
  O  O316  1  0.653300  0.888840  0.868240  1.0  -0.6041
  O  O317  1  0.920700  0.250380  0.557100  1.0  -0.5783
  O  O318  1  0.010900  0.398100  0.516500  1.0  -0.5886
  O  O319  1  0.923600  0.767060  0.789400  1.0  -0.5478
  O  O320  1  0.896700  0.723350  0.654100  1.0  -0.5623
  O  O321  1  0.019000  0.913150  0.725100  1.0  -0.5912
  O  O322  1  0.944200  0.898170  0.589400  1.0  -0.5506
  O  O323  1  0.390400  0.532320  0.479300  1.0  -0.5496
  O  O324  1  0.441600  0.499030  0.615600  1.0  -0.6206
  O  O325  1  0.497500  0.243250  0.171800  1.0  -0.6747
  O  O326  1  0.019000  0.267770  0.845200  1.0  -0.6027
  O  O327  1  0.571400  0.081510  0.325100  1.0  -0.6353
  O  O328  1  0.086300  0.633400  0.249800  1.0  -0.6188
  O  O329  1  0.836610  0.693040  0.240180  1.0  -0.6046
  O  O330  1  0.544200  0.107670  0.144300  1.0  -0.6701
  O  O331  1  0.788500  0.683200  0.112510  1.0  -0.6099
  O  O332  1  0.059900  0.304820  0.966500  1.0  -0.6061
  O  O333  1  0.554200  0.042640  0.439500  1.0  -0.5797
  O  O334  1  0.153300  0.611160  0.368240  1.0  -0.6034
  O  O335  1  0.420700  0.249620  0.057100  1.0  -0.5764
  O  O336  1  0.510900  0.101900  0.016500  1.0  -0.5884
  O  O337  1  0.423600  0.732940  0.289400  1.0  -0.5475
  O  O338  1  0.396700  0.776650  0.154100  1.0  -0.5625
  O  O339  1  0.519000  0.586850  0.225100  1.0  -0.5912
  O  O340  1  0.444200  0.601830  0.089400  1.0  -0.5504
  O  O341  1  0.890400  0.967680  0.979300  1.0  -0.5502
  O  O342  1  0.941600  0.000970  0.115600  1.0  -0.6187
  O  O343  1  0.002500  0.743250  0.328200  1.0  -0.6743
  O  O344  1  0.481000  0.767770  0.654800  1.0  -0.604
  O  O345  1  0.928600  0.581510  0.174900  1.0  -0.6344
  O  O346  1  0.413700  0.133400  0.250200  1.0  -0.6179
  O  O347  1  0.663390  0.193040  0.259820  1.0  -0.6047
  O  O348  1  0.955800  0.607670  0.355700  1.0  -0.6717
  O  O349  1  0.711500  0.183200  0.387490  1.0  -0.6117
  O  O350  1  0.440100  0.804820  0.533500  1.0  -0.6053
  O  O351  1  0.945800  0.542640  0.060500  1.0  -0.5802
  O  O352  1  0.346700  0.111160  0.131760  1.0  -0.6053
  O  O353  1  0.079300  0.749620  0.442900  1.0  -0.5784
  O  O354  1  0.989100  0.601900  0.483500  1.0  -0.5886
  O  O355  1  0.076400  0.232940  0.210600  1.0  -0.5469
  O  O356  1  0.103300  0.276650  0.345900  1.0  -0.5634
  O  O357  1  0.981000  0.086850  0.274900  1.0  -0.5899
  O  O358  1  0.055800  0.101830  0.410600  1.0  -0.55
  O  O359  1  0.609600  0.467680  0.520700  1.0  -0.5498
  O  O360  1  0.558400  0.500970  0.384400  1.0  -0.6198
