# generated using pymatgen
data_MnH8C14SO6
_symmetry_space_group_name_H-M   'P 1'
_cell_length_a   16.70940000
_cell_length_b   20.28570000
_cell_length_c   17.19360000
_cell_angle_alpha   90.00000000
_cell_angle_beta   99.17800000
_cell_angle_gamma   90.00000000
_symmetry_Int_Tables_number   1
_chemical_formula_structural   MnH8C14SO6
_chemical_formula_sum   'Mn12 H96 C168 S12 O72'
_cell_volume   5753.36273474
_cell_formula_units_Z   12
loop_
 _symmetry_equiv_pos_site_id
 _symmetry_equiv_pos_as_xyz
  1  'x, y, z'
loop_
 _atom_site_type_symbol
 _atom_site_label
 _atom_site_symmetry_multiplicity
 _atom_site_fract_x
 _atom_site_fract_y
 _atom_site_fract_z
 _atom_site_occupancy
 _atom_site_charge
  Mn  Mn1  1  0.034790  0.164860  0.248940  1.0  1.1343
  Mn  Mn2  1  0.140820  0.121220  0.445210  1.0  1.1084
  Mn  Mn3  1  0.913670  0.143590  0.050640  1.0  1.0889
  Mn  Mn4  1  0.465210  0.664860  0.251060  1.0  1.1343
  Mn  Mn5  1  0.359180  0.621220  0.054790  1.0  1.1098
  Mn  Mn6  1  0.586330  0.643590  0.449360  1.0  1.0908
  Mn  Mn7  1  0.965210  0.835140  0.751060  1.0  1.1349
  Mn  Mn8  1  0.859180  0.878780  0.554790  1.0  1.1085
  Mn  Mn9  1  0.086330  0.856410  0.949360  1.0  1.0911
  Mn  Mn10  1  0.534790  0.335140  0.748940  1.0  1.135
  Mn  Mn11  1  0.640820  0.378780  0.945210  1.0  1.11
  Mn  Mn12  1  0.413670  0.356410  0.550640  1.0  1.0895
  H  H13  1  0.941300  0.334000  0.344300  1.0  0.1084
  H  H14  1  0.893500  0.429800  0.392400  1.0  0.1133
  H  H15  1  0.976900  0.372600  0.613900  1.0  0.1189
  H  H16  1  0.028500  0.277100  0.565100  1.0  0.1089
  H  H17  1  0.747800  0.490600  0.442000  1.0  0.1251
  H  H18  1  0.617300  0.458800  0.453600  1.0  0.1054
  H  H19  1  0.689600  0.410600  0.680500  1.0  0.113
  H  H20  1  0.821500  0.439100  0.667900  1.0  0.12
  H  H21  1  0.342000  0.220900  0.418800  1.0  0.1166
  H  H22  1  0.470800  0.250800  0.404500  1.0  0.1141
  H  H23  1  0.409700  0.241200  0.168100  1.0  0.1245
  H  H24  1  0.279500  0.212400  0.183200  1.0  0.1084
  H  H25  1  0.526400  0.396200  0.341500  1.0  0.1272
  H  H26  1  0.489900  0.499400  0.287600  1.0  0.1064
  H  H27  1  0.512000  0.434000  0.071900  1.0  0.1158
  H  H28  1  0.548900  0.330400  0.123900  1.0  0.1226
  H  H29  1  0.894200  0.367600  0.011700  1.0  0.108
  H  H30  1  0.895400  0.481300  0.026500  1.0  0.1208
  H  H31  1  0.002700  0.461000  0.252100  1.0  0.1311
  H  H32  1  0.005300  0.348000  0.235400  1.0  0.1083
  H  H33  1  0.791100  0.609100  0.095600  1.0  0.1213
  H  H34  1  0.676700  0.625800  0.149700  1.0  0.1116
  H  H35  1  0.796900  0.580200  0.363200  1.0  0.1165
  H  H36  1  0.911100  0.560800  0.307900  1.0  0.1073
  H  H37  1  0.558700  0.834000  0.155700  1.0  0.1085
  H  H38  1  0.606500  0.929800  0.107600  1.0  0.1134
  H  H39  1  0.523100  0.872600  0.886100  1.0  0.1192
  H  H40  1  0.471500  0.777100  0.934900  1.0  0.1083
  H  H41  1  0.752200  0.990600  0.058000  1.0  0.1255
  H  H42  1  0.882700  0.958800  0.046400  1.0  0.1058
  H  H43  1  0.810400  0.910600  0.819500  1.0  0.1134
  H  H44  1  0.678500  0.939100  0.832100  1.0  0.1197
  H  H45  1  0.158000  0.720900  0.081200  1.0  0.1164
  H  H46  1  0.029200  0.750800  0.095500  1.0  0.1139
  H  H47  1  0.090300  0.741200  0.331900  1.0  0.1246
  H  H48  1  0.220500  0.712400  0.316800  1.0  0.1093
  H  H49  1  0.973600  0.896200  0.158500  1.0  0.1272
  H  H50  1  0.010100  0.999400  0.212400  1.0  0.1061
  H  H51  1  0.988000  0.934000  0.428100  1.0  0.1163
  H  H52  1  0.951100  0.830400  0.376100  1.0  0.1229
  H  H53  1  0.605800  0.867600  0.488300  1.0  0.1075
  H  H54  1  0.604600  0.981300  0.473500  1.0  0.1204
  H  H55  1  0.497300  0.961000  0.247900  1.0  0.1306
  H  H56  1  0.494700  0.848000  0.264600  1.0  0.1076
  H  H57  1  0.708900  0.109100  0.404400  1.0  0.1197
  H  H58  1  0.823300  0.125800  0.350300  1.0  0.112
  H  H59  1  0.703100  0.080200  0.136800  1.0  0.1165
  H  H60  1  0.588900  0.060800  0.192100  1.0  0.1073
  H  H61  1  0.058700  0.666000  0.655700  1.0  0.1083
  H  H62  1  0.106500  0.570200  0.607600  1.0  0.1136
  H  H63  1  0.023100  0.627400  0.386100  1.0  0.1194
  H  H64  1  0.971500  0.722900  0.434900  1.0  0.1089
  H  H65  1  0.252200  0.509400  0.558000  1.0  0.1257
  H  H66  1  0.382700  0.541200  0.546400  1.0  0.106
  H  H67  1  0.310400  0.589400  0.319500  1.0  0.1134
  H  H68  1  0.178500  0.560900  0.332100  1.0  0.1196
  H  H69  1  0.658000  0.779100  0.581200  1.0  0.1165
  H  H70  1  0.529200  0.749200  0.595500  1.0  0.1139
  H  H71  1  0.590300  0.758800  0.831900  1.0  0.1246
  H  H72  1  0.720500  0.787600  0.816800  1.0  0.1095
  H  H73  1  0.473600  0.603800  0.658500  1.0  0.127
  H  H74  1  0.510100  0.500600  0.712400  1.0  0.1067
  H  H75  1  0.488000  0.566000  0.928100  1.0  0.1163
  H  H76  1  0.451100  0.669600  0.876100  1.0  0.123
  H  H77  1  0.105800  0.632400  0.988300  1.0  0.1077
  H  H78  1  0.104600  0.518700  0.973500  1.0  0.1206
  H  H79  1  0.997300  0.539000  0.747900  1.0  0.131
  H  H80  1  0.994700  0.652000  0.764600  1.0  0.1077
  H  H81  1  0.208900  0.390900  0.904400  1.0  0.1196
  H  H82  1  0.323300  0.374200  0.850300  1.0  0.1122
  H  H83  1  0.203100  0.419800  0.636800  1.0  0.1165
  H  H84  1  0.088900  0.439200  0.692100  1.0  0.1076
  H  H85  1  0.441300  0.166000  0.844300  1.0  0.1083
  H  H86  1  0.393500  0.070200  0.892400  1.0  0.1133
  H  H87  1  0.476900  0.127400  0.113900  1.0  0.1187
  H  H88  1  0.528500  0.222900  0.065100  1.0  0.1088
  H  H89  1  0.247800  0.009400  0.942000  1.0  0.1253
  H  H90  1  0.117300  0.041200  0.953600  1.0  0.1053
  H  H91  1  0.189600  0.089400  0.180500  1.0  0.1132
  H  H92  1  0.321500  0.060900  0.167900  1.0  0.1202
  H  H93  1  0.842000  0.279100  0.918800  1.0  0.1165
  H  H94  1  0.970800  0.249200  0.904500  1.0  0.1144
  H  H95  1  0.909700  0.258800  0.668100  1.0  0.1249
  H  H96  1  0.779500  0.287600  0.683200  1.0  0.1087
  H  H97  1  0.026400  0.103800  0.841500  1.0  0.1272
  H  H98  1  0.989900  0.000600  0.787600  1.0  0.1072
  H  H99  1  0.012000  0.066000  0.571900  1.0  0.1158
  H  H100  1  0.048900  0.169600  0.623900  1.0  0.1229
  H  H101  1  0.394200  0.132400  0.511700  1.0  0.108
  H  H102  1  0.395400  0.018700  0.526500  1.0  0.1208
  H  H103  1  0.502700  0.039000  0.752100  1.0  0.131
  H  H104  1  0.505300  0.152000  0.735400  1.0  0.1078
  H  H105  1  0.291100  0.890900  0.595600  1.0  0.1208
  H  H106  1  0.176700  0.874200  0.649700  1.0  0.1115
  H  H107  1  0.296900  0.919800  0.863200  1.0  0.1167
  H  H108  1  0.411100  0.939200  0.807900  1.0  0.1071
  C  C109  1  0.023900  0.234600  0.416300  1.0  0.717
  C  C110  1  0.990200  0.295900  0.449100  1.0  -0.1391
  C  C111  1  0.949300  0.341700  0.398300  1.0  -0.0252
  C  C112  1  0.920300  0.398700  0.427000  1.0  -0.0347
  C  C113  1  0.931000  0.409800  0.507500  1.0  -0.201
  C  C114  1  0.970600  0.365000  0.559900  1.0  -0.0397
  C  C115  1  0.000900  0.307700  0.530500  1.0  -0.0286
  C  C116  1  0.795900  0.465700  0.554200  1.0  -0.1886
  C  C117  1  0.735900  0.473400  0.489000  1.0  -0.0621
  C  C118  1  0.658800  0.454700  0.496300  1.0  -0.0319
  C  C119  1  0.642000  0.429600  0.567900  1.0  -0.1325
  C  C120  1  0.701700  0.425200  0.632400  1.0  -0.0583
  C  C121  1  0.780000  0.442800  0.625200  1.0  -0.0381
  C  C122  1  0.559500  0.406600  0.571800  1.0  0.6568
  C  C123  1  0.214500  0.194800  0.313500  1.0  0.7281
  C  C124  1  0.297600  0.214300  0.302200  1.0  -0.1385
  C  C125  1  0.355800  0.225400  0.368800  1.0  -0.0598
  C  C126  1  0.432200  0.242700  0.360300  1.0  -0.0262
  C  C127  1  0.452900  0.248200  0.285100  1.0  -0.1676
  C  C128  1  0.395700  0.237100  0.218100  1.0  -0.0449
  C  C129  1  0.318400  0.220100  0.227300  1.0  -0.0062
  C  C130  1  0.537100  0.353000  0.235500  1.0  -0.213
  C  C131  1  0.522000  0.403600  0.287600  1.0  -0.103
  C  C132  1  0.500300  0.464900  0.255200  1.0  -0.0655
  C  C133  1  0.494100  0.475000  0.173900  1.0  -0.1117
  C  C134  1  0.513500  0.425900  0.125400  1.0  -0.0488
  C  C135  1  0.535500  0.363900  0.156300  1.0  -0.0416
  C  C136  1  0.456100  0.536800  0.136900  1.0  0.6697
  C  C137  1  0.954200  0.272800  0.114200  1.0  0.7337
  C  C138  1  0.950200  0.346100  0.122400  1.0  -0.1381
  C  C139  1  0.916600  0.386400  0.059600  1.0  -0.0368
  C  C140  1  0.916600  0.454300  0.068500  1.0  -0.0228
  C  C141  1  0.948200  0.481400  0.140200  1.0  -0.2133
  C  C142  1  0.981600  0.442100  0.203900  1.0  -0.0439
  C  C143  1  0.982600  0.374700  0.193700  1.0  -0.0104
  C  C144  1  0.861600  0.582800  0.195400  1.0  -0.1599
  C  C145  1  0.792100  0.602600  0.149300  1.0  -0.0288
  C  C146  1  0.724300  0.612900  0.181700  1.0  -0.0321
  C  C147  1  0.724900  0.604300  0.262400  1.0  -0.125
  C  C148  1  0.795400  0.585400  0.309300  1.0  0.0029
  C  C149  1  0.863500  0.574200  0.276400  1.0  -0.0395
  C  C150  1  0.650000  0.616700  0.297700  1.0  0.7417
  C  C151  1  0.476100  0.734600  0.083700  1.0  0.7181
  C  C152  1  0.509800  0.795900  0.050900  1.0  -0.139
  C  C153  1  0.550700  0.841700  0.101700  1.0  -0.0242
  C  C154  1  0.579700  0.898700  0.073000  1.0  -0.036
  C  C155  1  0.569000  0.909800  0.992500  1.0  -0.2017
  C  C156  1  0.529400  0.865000  0.940100  1.0  -0.0375
  C  C157  1  0.499100  0.807700  0.969500  1.0  -0.0289
  C  C158  1  0.704100  0.965700  0.945800  1.0  -0.1884
  C  C159  1  0.764100  0.973400  0.011000  1.0  -0.0653
  C  C160  1  0.841200  0.954700  0.003700  1.0  -0.0316
  C  C161  1  0.858000  0.929600  0.932100  1.0  -0.1324
  C  C162  1  0.798300  0.925200  0.867600  1.0  -0.0566
  C  C163  1  0.720000  0.942800  0.874800  1.0  -0.0372
  C  C164  1  0.940500  0.906600  0.928200  1.0  0.656
  C  C165  1  0.285500  0.694800  0.186500  1.0  0.7283
  C  C166  1  0.202400  0.714300  0.197800  1.0  -0.1391
  C  C167  1  0.144200  0.725400  0.131200  1.0  -0.0601
  C  C168  1  0.067800  0.742700  0.139700  1.0  -0.0265
  C  C169  1  0.047100  0.748200  0.214900  1.0  -0.167
  C  C170  1  0.104300  0.737100  0.281900  1.0  -0.0483
  C  C171  1  0.181600  0.720100  0.272700  1.0  -0.0071
  C  C172  1  0.962900  0.853000  0.264500  1.0  -0.2137
  C  C173  1  0.978000  0.903600  0.212400  1.0  -0.1036
  C  C174  1  0.999700  0.964900  0.244800  1.0  -0.0641
  C  C175  1  0.005900  0.975000  0.326100  1.0  -0.112
  C  C176  1  0.986500  0.925900  0.374600  1.0  -0.0476
  C  C177  1  0.964500  0.863900  0.343700  1.0  -0.0417
  C  C178  1  0.043900  0.036800  0.363100  1.0  0.67
  C  C179  1  0.545800  0.772800  0.385800  1.0  0.7333
  C  C180  1  0.549800  0.846100  0.377600  1.0  -0.1377
  C  C181  1  0.583400  0.886400  0.440400  1.0  -0.0382
  C  C182  1  0.583400  0.954300  0.431500  1.0  -0.0227
  C  C183  1  0.551800  0.981400  0.359800  1.0  -0.2129
  C  C184  1  0.518400  0.942100  0.296100  1.0  -0.0425
  C  C185  1  0.517400  0.874700  0.306300  1.0  -0.0101
  C  C186  1  0.638400  0.082800  0.304600  1.0  -0.1595
  C  C187  1  0.707900  0.102600  0.350700  1.0  -0.0315
  C  C188  1  0.775700  0.112900  0.318300  1.0  -0.0311
  C  C189  1  0.775100  0.104300  0.237600  1.0  -0.1246
  C  C190  1  0.704600  0.085400  0.190700  1.0  0.0058
  C  C191  1  0.636500  0.074200  0.223600  1.0  -0.038
  C  C192  1  0.850000  0.116700  0.202300  1.0  0.7416
  C  C193  1  0.976100  0.765400  0.583700  1.0  0.7184
  C  C194  1  0.009800  0.704100  0.550900  1.0  -0.1375
  C  C195  1  0.050700  0.658300  0.601700  1.0  -0.0242
  C  C196  1  0.079700  0.601300  0.573000  1.0  -0.0364
  C  C197  1  0.069000  0.590200  0.492500  1.0  -0.2009
  C  C198  1  0.029400  0.635000  0.440100  1.0  -0.038
  C  C199  1  0.999100  0.692300  0.469500  1.0  -0.0288
  C  C200  1  0.204100  0.534300  0.445800  1.0  -0.1886
  C  C201  1  0.264100  0.526600  0.511000  1.0  -0.0657
  C  C202  1  0.341200  0.545300  0.503700  1.0  -0.0316
  C  C203  1  0.358000  0.570400  0.432100  1.0  -0.1323
  C  C204  1  0.298300  0.574800  0.367600  1.0  -0.0566
  C  C205  1  0.220000  0.557200  0.374800  1.0  -0.037
  C  C206  1  0.440500  0.593400  0.428200  1.0  0.6564
  C  C207  1  0.785500  0.805200  0.686500  1.0  0.7285
  C  C208  1  0.702400  0.785700  0.697800  1.0  -0.1392
  C  C209  1  0.644200  0.774600  0.631200  1.0  -0.0595
  C  C210  1  0.567800  0.757300  0.639700  1.0  -0.0265
  C  C211  1  0.547100  0.751800  0.714900  1.0  -0.1667
  C  C212  1  0.604300  0.762900  0.781900  1.0  -0.048
  C  C213  1  0.681600  0.779900  0.772700  1.0  -0.0077
  C  C214  1  0.462900  0.647000  0.764500  1.0  -0.2136
  C  C215  1  0.478000  0.596400  0.712400  1.0  -0.1033
  C  C216  1  0.499700  0.535100  0.744800  1.0  -0.0633
  C  C217  1  0.505900  0.525000  0.826100  1.0  -0.1116
  C  C218  1  0.486500  0.574100  0.874600  1.0  -0.0476
  C  C219  1  0.464500  0.636100  0.843700  1.0  -0.0409
  C  C220  1  0.543900  0.463200  0.863100  1.0  0.6702
  C  C221  1  0.045800  0.727200  0.885800  1.0  0.734
  C  C222  1  0.049800  0.653900  0.877600  1.0  -0.1374
  C  C223  1  0.083400  0.613600  0.940400  1.0  -0.0377
  C  C224  1  0.083400  0.545700  0.931500  1.0  -0.0229
  C  C225  1  0.051800  0.518600  0.859800  1.0  -0.213
  C  C226  1  0.018400  0.557900  0.796100  1.0  -0.0429
  C  C227  1  0.017400  0.625300  0.806300  1.0  -0.0099
  C  C228  1  0.138400  0.417200  0.804600  1.0  -0.1597
  C  C229  1  0.207900  0.397400  0.850700  1.0  -0.0313
  C  C230  1  0.275700  0.387100  0.818300  1.0  -0.0308
  C  C231  1  0.275100  0.395700  0.737600  1.0  -0.1243
  C  C232  1  0.204600  0.414600  0.690700  1.0  0.0064
  C  C233  1  0.136500  0.425800  0.723600  1.0  -0.0381
  C  C234  1  0.350000  0.383300  0.702300  1.0  0.7418
  C  C235  1  0.523900  0.265400  0.916300  1.0  0.7179
  C  C236  1  0.490200  0.204100  0.949100  1.0  -0.1371
  C  C237  1  0.449300  0.158300  0.898300  1.0  -0.0257
  C  C238  1  0.420300  0.101300  0.927000  1.0  -0.0349
  C  C239  1  0.431000  0.090200  0.007500  1.0  -0.2007
  C  C240  1  0.470600  0.135000  0.059900  1.0  -0.0394
  C  C241  1  0.500900  0.192300  0.030500  1.0  -0.0286
  C  C242  1  0.295900  0.034300  0.054200  1.0  -0.1893
  C  C243  1  0.235900  0.026600  0.989000  1.0  -0.0628
  C  C244  1  0.158800  0.045300  0.996300  1.0  -0.0321
  C  C245  1  0.142000  0.070400  0.067900  1.0  -0.1324
  C  C246  1  0.201700  0.074800  0.132400  1.0  -0.0582
  C  C247  1  0.280000  0.057200  0.125200  1.0  -0.0375
  C  C248  1  0.059500  0.093400  0.071800  1.0  0.6569
  C  C249  1  0.714500  0.305200  0.813500  1.0  0.7285
  C  C250  1  0.797600  0.285700  0.802200  1.0  -0.1392
  C  C251  1  0.855800  0.274600  0.868800  1.0  -0.0596
  C  C252  1  0.932200  0.257300  0.860300  1.0  -0.0255
  C  C253  1  0.952900  0.251800  0.785100  1.0  -0.1681
  C  C254  1  0.895700  0.262900  0.718100  1.0  -0.0444
  C  C255  1  0.818400  0.279900  0.727300  1.0  -0.0063
  C  C256  1  0.037100  0.147000  0.735500  1.0  -0.2136
  C  C257  1  0.022000  0.096400  0.787600  1.0  -0.103
  C  C258  1  0.000300  0.035100  0.755200  1.0  -0.0656
  C  C259  1  0.994100  0.025000  0.673900  1.0  -0.1116
  C  C260  1  0.013500  0.074100  0.625400  1.0  -0.0489
  C  C261  1  0.035500  0.136100  0.656300  1.0  -0.0414
  C  C262  1  0.956100  0.963200  0.636900  1.0  0.6694
  C  C263  1  0.454200  0.227200  0.614200  1.0  0.7341
  C  C264  1  0.450200  0.153900  0.622400  1.0  -0.1374
  C  C265  1  0.416600  0.113600  0.559600  1.0  -0.0364
  C  C266  1  0.416600  0.045700  0.568500  1.0  -0.0227
  C  C267  1  0.448200  0.018600  0.640200  1.0  -0.2136
  C  C268  1  0.481600  0.057900  0.703900  1.0  -0.0438
  C  C269  1  0.482600  0.125300  0.693700  1.0  -0.0103
  C  C270  1  0.361600  0.917200  0.695400  1.0  -0.1598
  C  C271  1  0.292100  0.897400  0.649300  1.0  -0.0282
  C  C272  1  0.224300  0.887100  0.681700  1.0  -0.0315
  C  C273  1  0.224900  0.895700  0.762400  1.0  -0.125
  C  C274  1  0.295400  0.914600  0.809300  1.0  0.0035
  C  C275  1  0.363500  0.925800  0.776400  1.0  -0.0392
  C  C276  1  0.150000  0.883300  0.797700  1.0  0.7421
  S  S277  1  0.895710  0.484050  0.542910  1.0  1.1256
  S  S278  1  0.550850  0.272000  0.273720  1.0  1.1067
  S  S279  1  0.948060  0.568150  0.153310  1.0  1.0859
  S  S280  1  0.604290  0.984050  0.957090  1.0  1.1258
  S  S281  1  0.949150  0.772000  0.226280  1.0  1.108
  S  S282  1  0.551940  0.068150  0.346690  1.0  1.0885
  S  S283  1  0.104290  0.515950  0.457090  1.0  1.1256
  S  S284  1  0.449150  0.728000  0.726280  1.0  1.1081
  S  S285  1  0.051940  0.431850  0.846690  1.0  1.0884
  S  S286  1  0.395710  0.015950  0.042910  1.0  1.1259
  S  S287  1  0.050850  0.228000  0.773720  1.0  1.1074
  S  S288  1  0.448060  0.931850  0.653310  1.0  1.0859
  O  O289  1  0.995100  0.242630  0.168600  1.0  -0.6644
  O  O290  1  0.430200  0.580190  0.179000  1.0  -0.6469
  O  O291  1  0.588400  0.632600  0.252900  1.0  -0.6007
  O  O292  1  0.017700  0.231130  0.343100  1.0  -0.6036
  O  O293  1  0.161400  0.190970  0.254400  1.0  -0.5875
  O  O294  1  0.538800  0.393840  0.637600  1.0  -0.6942
  O  O295  1  0.204900  0.184200  0.384700  1.0  -0.6428
  O  O296  1  0.057000  0.193990  0.466800  1.0  -0.5695
  O  O297  1  0.444200  0.540930  0.062500  1.0  -0.6099
  O  O298  1  0.656800  0.610310  0.371900  1.0  -0.6158
  O  O299  1  0.916700  0.245880  0.053100  1.0  -0.5794
  O  O300  1  0.511200  0.399900  0.507800  1.0  -0.5945
  O  O301  1  0.892900  0.532250  0.480800  1.0  -0.5748
  O  O302  1  0.940100  0.497760  0.619900  1.0  -0.5921
  O  O303  1  0.599000  0.274210  0.350700  1.0  -0.5623
  O  O304  1  0.576100  0.232170  0.212900  1.0  -0.559
  O  O305  1  0.937500  0.598500  0.077000  1.0  -0.5451
  O  O306  1  0.017000  0.584500  0.212200  1.0  -0.5844
  O  O307  1  0.504900  0.742630  0.331400  1.0  -0.6643
  O  O308  1  0.069800  0.080190  0.321000  1.0  -0.6473
  O  O309  1  0.911600  0.132600  0.247100  1.0  -0.6006
  O  O310  1  0.482300  0.731130  0.156900  1.0  -0.6039
  O  O311  1  0.338600  0.690970  0.245600  1.0  -0.5893
  O  O312  1  0.961200  0.893840  0.862400  1.0  -0.6941
  O  O313  1  0.295100  0.684200  0.115300  1.0  -0.6431
  O  O314  1  0.443000  0.693990  0.033200  1.0  -0.5701
  O  O315  1  0.055800  0.040930  0.437500  1.0  -0.6104
  O  O316  1  0.843200  0.110310  0.128100  1.0  -0.6162
  O  O317  1  0.583300  0.745880  0.446900  1.0  -0.5801
  O  O318  1  0.988800  0.899900  0.992200  1.0  -0.5937
  O  O319  1  0.607100  0.032250  0.019200  1.0  -0.5743
  O  O320  1  0.559900  0.997760  0.880100  1.0  -0.5913
  O  O321  1  0.901000  0.774210  0.149300  1.0  -0.5579
  O  O322  1  0.923900  0.732170  0.287100  1.0  -0.558
  O  O323  1  0.562500  0.098500  0.423000  1.0  -0.545
  O  O324  1  0.483000  0.084500  0.287800  1.0  -0.5829
  O  O325  1  0.004900  0.757370  0.831400  1.0  -0.6644
  O  O326  1  0.569800  0.419810  0.821000  1.0  -0.6481
  O  O327  1  0.411600  0.367400  0.747100  1.0  -0.6003
  O  O328  1  0.982300  0.768870  0.656900  1.0  -0.6043
  O  O329  1  0.838600  0.809030  0.745600  1.0  -0.5886
  O  O330  1  0.461200  0.606160  0.362400  1.0  -0.6938
  O  O331  1  0.795100  0.815800  0.615300  1.0  -0.6427
  O  O332  1  0.943000  0.806010  0.533200  1.0  -0.5697
  O  O333  1  0.555800  0.459070  0.937500  1.0  -0.6101
  O  O334  1  0.343200  0.389690  0.628100  1.0  -0.6167
  O  O335  1  0.083300  0.754120  0.946900  1.0  -0.5812
  O  O336  1  0.488800  0.600100  0.492200  1.0  -0.5943
  O  O337  1  0.107100  0.467750  0.519200  1.0  -0.5745
  O  O338  1  0.059900  0.502240  0.380100  1.0  -0.5915
  O  O339  1  0.401000  0.725790  0.649300  1.0  -0.5577
  O  O340  1  0.423900  0.767830  0.787100  1.0  -0.559
  O  O341  1  0.062500  0.401500  0.923000  1.0  -0.5445
  O  O342  1  0.983000  0.415500  0.787800  1.0  -0.5831
  O  O343  1  0.495100  0.257370  0.668600  1.0  -0.6639
  O  O344  1  0.930200  0.919810  0.679000  1.0  -0.647
  O  O345  1  0.088400  0.867400  0.752900  1.0  -0.6011
  O  O346  1  0.517700  0.268870  0.843100  1.0  -0.6039
  O  O347  1  0.661400  0.309030  0.754400  1.0  -0.5883
  O  O348  1  0.038800  0.106160  0.137600  1.0  -0.6941
  O  O349  1  0.704900  0.315800  0.884700  1.0  -0.6431
  O  O350  1  0.557000  0.306010  0.966800  1.0  -0.5693
  O  O351  1  0.944200  0.959070  0.562500  1.0  -0.6097
  O  O352  1  0.156800  0.889690  0.871900  1.0  -0.6166
  O  O353  1  0.416700  0.254120  0.553100  1.0  -0.5799
  O  O354  1  0.011200  0.100100  0.007800  1.0  -0.5944
  O  O355  1  0.392900  0.967750  0.980800  1.0  -0.5746
  O  O356  1  0.440100  0.002240  0.119900  1.0  -0.5915
  O  O357  1  0.099000  0.225790  0.850700  1.0  -0.5624
  O  O358  1  0.076100  0.267830  0.712900  1.0  -0.5596
  O  O359  1  0.437500  0.901500  0.577000  1.0  -0.5438
  O  O360  1  0.517000  0.915500  0.712200  1.0  -0.5845
