# generated using pymatgen
data_EuH7C14NO7
_symmetry_space_group_name_H-M   'P 1'
_cell_length_a   32.63200000
_cell_length_b   17.22640000
_cell_length_c   10.15320000
_cell_angle_alpha   90.00000000
_cell_angle_beta   93.44800000
_cell_angle_gamma   90.00000000
_symmetry_Int_Tables_number   1
_chemical_formula_structural   EuH7C14NO7
_chemical_formula_sum   'Eu8 H56 C112 N8 O56'
_cell_volume   5697.10581087
_cell_formula_units_Z   8
loop_
 _symmetry_equiv_pos_site_id
 _symmetry_equiv_pos_as_xyz
  1  'x, y, z'
loop_
 _atom_site_type_symbol
 _atom_site_label
 _atom_site_symmetry_multiplicity
 _atom_site_fract_x
 _atom_site_fract_y
 _atom_site_fract_z
 _atom_site_occupancy
 _atom_site_charge
  Eu  Eu1  1  0.308260  0.209560  0.001710  1.0  2.1243
  Eu  Eu2  1  0.808260  0.709560  0.001710  1.0  2.1243
  Eu  Eu3  1  0.691740  0.209560  0.498290  1.0  2.1234
  Eu  Eu4  1  0.191740  0.709560  0.498290  1.0  2.1234
  Eu  Eu5  1  0.691740  0.790440  0.998290  1.0  2.1236
  Eu  Eu6  1  0.191740  0.290440  0.998290  1.0  2.1236
  Eu  Eu7  1  0.308260  0.790440  0.501710  1.0  2.1255
  Eu  Eu8  1  0.808260  0.290440  0.501710  1.0  2.1255
  H  H9  1  0.261100  0.992900  0.257800  1.0  0.1163
  H  H10  1  0.150800  0.893900  0.234200  1.0  0.0983
  H  H11  1  0.166900  0.104800  0.080100  1.0  0.1112
  H  H12  1  0.087900  0.918400  0.217600  1.0  0.1098
  H  H13  1  0.019800  0.921500  0.146800  1.0  0.0891
  H  H14  1  0.039600  0.100400  0.956200  1.0  0.0861
  H  H15  1  0.105600  0.095400  0.013000  1.0  0.0984
  H  H16  1  0.761100  0.492900  0.257800  1.0  0.1163
  H  H17  1  0.650800  0.393900  0.234200  1.0  0.0983
  H  H18  1  0.666900  0.604800  0.080100  1.0  0.1112
  H  H19  1  0.587900  0.418400  0.217600  1.0  0.1098
  H  H20  1  0.519800  0.421500  0.146800  1.0  0.0891
  H  H21  1  0.539600  0.600400  0.956200  1.0  0.0861
  H  H22  1  0.605600  0.595400  0.013000  1.0  0.0984
  H  H23  1  0.738900  0.992900  0.242200  1.0  0.1172
  H  H24  1  0.849200  0.893900  0.265800  1.0  0.0984
  H  H25  1  0.833100  0.104800  0.419900  1.0  0.112
  H  H26  1  0.912100  0.918400  0.282400  1.0  0.1102
  H  H27  1  0.980200  0.921500  0.353200  1.0  0.089
  H  H28  1  0.960400  0.100400  0.543800  1.0  0.086
  H  H29  1  0.894400  0.095400  0.487000  1.0  0.0978
  H  H30  1  0.238900  0.492900  0.242200  1.0  0.1172
  H  H31  1  0.349200  0.393900  0.265800  1.0  0.0984
  H  H32  1  0.333100  0.604800  0.419900  1.0  0.112
  H  H33  1  0.412100  0.418400  0.282400  1.0  0.1102
  H  H34  1  0.480200  0.421500  0.353200  1.0  0.089
  H  H35  1  0.460400  0.600400  0.543800  1.0  0.086
  H  H36  1  0.394400  0.595400  0.487000  1.0  0.0978
  H  H37  1  0.738900  0.007100  0.742200  1.0  0.1172
  H  H38  1  0.849200  0.106100  0.765800  1.0  0.0981
  H  H39  1  0.833100  0.895200  0.919900  1.0  0.1121
  H  H40  1  0.912100  0.081600  0.782400  1.0  0.1104
  H  H41  1  0.980200  0.078500  0.853200  1.0  0.0904
  H  H42  1  0.960400  0.899600  0.043800  1.0  0.0852
  H  H43  1  0.894400  0.904600  0.987000  1.0  0.097
  H  H44  1  0.238900  0.507100  0.742200  1.0  0.1172
  H  H45  1  0.349200  0.606100  0.765800  1.0  0.0981
  H  H46  1  0.333100  0.395200  0.919900  1.0  0.1121
  H  H47  1  0.412100  0.581600  0.782400  1.0  0.1104
  H  H48  1  0.480200  0.578500  0.853200  1.0  0.0904
  H  H49  1  0.460400  0.399600  0.043800  1.0  0.0852
  H  H50  1  0.394400  0.404600  0.987000  1.0  0.097
  H  H51  1  0.261100  0.007100  0.757800  1.0  0.1163
  H  H52  1  0.150800  0.106100  0.734200  1.0  0.0989
  H  H53  1  0.166900  0.895200  0.580100  1.0  0.1116
  H  H54  1  0.087900  0.081600  0.717600  1.0  0.1095
  H  H55  1  0.019800  0.078500  0.646800  1.0  0.0908
  H  H56  1  0.039600  0.899600  0.456200  1.0  0.0849
  H  H57  1  0.105600  0.904600  0.513000  1.0  0.0983
  H  H58  1  0.761100  0.507100  0.757800  1.0  0.1163
  H  H59  1  0.650800  0.606100  0.734200  1.0  0.0989
  H  H60  1  0.666900  0.395200  0.580100  1.0  0.1116
  H  H61  1  0.587900  0.581600  0.717600  1.0  0.1095
  H  H62  1  0.519800  0.578500  0.646800  1.0  0.0908
  H  H63  1  0.539600  0.399600  0.456200  1.0  0.0849
  H  H64  1  0.605600  0.404600  0.513000  1.0  0.0983
  C  C65  1  0.245500  0.125300  0.136900  1.0  0.6727
  C  C66  1  0.217600  0.060600  0.168500  1.0  -0.1642
  C  C67  1  0.233300  0.995400  0.231700  1.0  0.0133
  C  C68  1  0.208000  0.933900  0.256400  1.0  -0.1544
  C  C69  1  0.225900  0.862400  0.323400  1.0  0.7398
  C  C70  1  0.167300  0.936300  0.217400  1.0  -0.0849
  C  C71  1  0.149900  0.999700  0.153900  1.0  0.065
  C  C72  1  0.177100  0.062000  0.127200  1.0  -0.0776
  C  C73  1  0.105900  0.004800  0.110700  1.0  0.215
  C  C74  1  0.079100  0.955200  0.155000  1.0  -0.2101
  C  C75  1  0.037500  0.956800  0.110000  1.0  -0.1067
  C  C76  1  0.022400  0.002800  0.023200  1.0  0.2175
  C  C77  1  0.049200  0.056700  0.002000  1.0  -0.139
  C  C78  1  0.089300  0.055200  0.041100  1.0  -0.1297
  C  C79  1  0.745500  0.625300  0.136900  1.0  0.6727
  C  C80  1  0.717600  0.560600  0.168500  1.0  -0.1642
  C  C81  1  0.733300  0.495400  0.231700  1.0  0.0133
  C  C82  1  0.708000  0.433900  0.256400  1.0  -0.1544
  C  C83  1  0.725900  0.362400  0.323400  1.0  0.7398
  C  C84  1  0.667300  0.436300  0.217400  1.0  -0.0849
  C  C85  1  0.649900  0.499700  0.153900  1.0  0.065
  C  C86  1  0.677100  0.562000  0.127200  1.0  -0.0776
  C  C87  1  0.605900  0.504800  0.110700  1.0  0.215
  C  C88  1  0.579100  0.455200  0.155000  1.0  -0.2101
  C  C89  1  0.537500  0.456800  0.110000  1.0  -0.1067
  C  C90  1  0.522400  0.502800  0.023200  1.0  0.2175
  C  C91  1  0.549200  0.556700  0.002000  1.0  -0.139
  C  C92  1  0.589300  0.555200  0.041100  1.0  -0.1297
  C  C93  1  0.754500  0.125300  0.363100  1.0  0.6741
  C  C94  1  0.782400  0.060600  0.331500  1.0  -0.1617
  C  C95  1  0.766700  0.995400  0.268300  1.0  0.0107
  C  C96  1  0.792000  0.933900  0.243600  1.0  -0.1551
  C  C97  1  0.774100  0.862400  0.176600  1.0  0.7395
  C  C98  1  0.832700  0.936300  0.282600  1.0  -0.0845
  C  C99  1  0.850100  0.999700  0.346100  1.0  0.0649
  C  C100  1  0.822900  0.062000  0.372800  1.0  -0.0772
  C  C101  1  0.894100  0.004800  0.389300  1.0  0.2139
  C  C102  1  0.920900  0.955200  0.345000  1.0  -0.2126
  C  C103  1  0.962500  0.956800  0.390000  1.0  -0.1049
  C  C104  1  0.977600  0.002800  0.476800  1.0  0.2229
  C  C105  1  0.950800  0.056700  0.498000  1.0  -0.1368
  C  C106  1  0.910700  0.055200  0.458900  1.0  -0.1306
  C  C107  1  0.254500  0.625300  0.363100  1.0  0.6741
  C  C108  1  0.282400  0.560600  0.331500  1.0  -0.1617
  C  C109  1  0.266700  0.495400  0.268300  1.0  0.0107
  C  C110  1  0.292000  0.433900  0.243600  1.0  -0.1551
  C  C111  1  0.274100  0.362400  0.176600  1.0  0.7395
  C  C112  1  0.332700  0.436300  0.282600  1.0  -0.0845
  C  C113  1  0.350100  0.499700  0.346100  1.0  0.0649
  C  C114  1  0.322900  0.562000  0.372800  1.0  -0.0772
  C  C115  1  0.394100  0.504800  0.389300  1.0  0.2139
  C  C116  1  0.420900  0.455200  0.345000  1.0  -0.2126
  C  C117  1  0.462500  0.456800  0.390000  1.0  -0.1049
  C  C118  1  0.477600  0.502800  0.476800  1.0  0.2229
  C  C119  1  0.450800  0.556700  0.498000  1.0  -0.1368
  C  C120  1  0.410700  0.555200  0.458900  1.0  -0.1306
  C  C121  1  0.754500  0.874700  0.863100  1.0  0.6748
  C  C122  1  0.782400  0.939400  0.831500  1.0  -0.1624
  C  C123  1  0.766700  0.004600  0.768300  1.0  0.0109
  C  C124  1  0.792000  0.066100  0.743600  1.0  -0.1547
  C  C125  1  0.774100  0.137600  0.676600  1.0  0.7211
  C  C126  1  0.832700  0.063700  0.782600  1.0  -0.0854
  C  C127  1  0.850100  0.000300  0.846100  1.0  0.065
  C  C128  1  0.822900  0.938000  0.872800  1.0  -0.0775
  C  C129  1  0.894100  0.995200  0.889300  1.0  0.2143
  C  C130  1  0.920900  0.044800  0.845000  1.0  -0.2138
  C  C131  1  0.962500  0.043200  0.890000  1.0  -0.1014
  C  C132  1  0.977600  0.997200  0.976800  1.0  0.2208
  C  C133  1  0.950800  0.943300  0.998000  1.0  -0.136
  C  C134  1  0.910700  0.944800  0.958900  1.0  -0.1308
  C  C135  1  0.254500  0.374700  0.863100  1.0  0.6748
  C  C136  1  0.282400  0.439400  0.831500  1.0  -0.1624
  C  C137  1  0.266700  0.504600  0.768300  1.0  0.0109
  C  C138  1  0.292000  0.566100  0.743600  1.0  -0.1547
  C  C139  1  0.274100  0.637600  0.676600  1.0  0.7211
  C  C140  1  0.332700  0.563700  0.782600  1.0  -0.0854
  C  C141  1  0.350100  0.500300  0.846100  1.0  0.065
  C  C142  1  0.322900  0.438000  0.872800  1.0  -0.0775
  C  C143  1  0.394100  0.495200  0.889300  1.0  0.2143
  C  C144  1  0.420900  0.544800  0.845000  1.0  -0.2138
  C  C145  1  0.462500  0.543200  0.890000  1.0  -0.1014
  C  C146  1  0.477600  0.497200  0.976800  1.0  0.2208
  C  C147  1  0.450800  0.443300  0.998000  1.0  -0.136
  C  C148  1  0.410700  0.444800  0.958900  1.0  -0.1308
  C  C149  1  0.245500  0.874700  0.636900  1.0  0.6725
  C  C150  1  0.217600  0.939400  0.668500  1.0  -0.1626
  C  C151  1  0.233300  0.004600  0.731700  1.0  0.0134
  C  C152  1  0.208000  0.066100  0.756400  1.0  -0.1549
  C  C153  1  0.225900  0.137600  0.823400  1.0  0.7219
  C  C154  1  0.167300  0.063700  0.717400  1.0  -0.086
  C  C155  1  0.149900  0.000300  0.653900  1.0  0.0652
  C  C156  1  0.177100  0.938000  0.627200  1.0  -0.0778
  C  C157  1  0.105900  0.995200  0.610700  1.0  0.2154
  C  C158  1  0.079100  0.044800  0.655000  1.0  -0.2118
  C  C159  1  0.037500  0.043200  0.610000  1.0  -0.1042
  C  C160  1  0.022400  0.997200  0.523200  1.0  0.2156
  C  C161  1  0.049200  0.943300  0.502000  1.0  -0.1384
  C  C162  1  0.089300  0.944800  0.541100  1.0  -0.1293
  C  C163  1  0.745500  0.374700  0.636900  1.0  0.6725
  C  C164  1  0.717600  0.439400  0.668500  1.0  -0.1626
  C  C165  1  0.733300  0.504600  0.731700  1.0  0.0134
  C  C166  1  0.708000  0.566100  0.756400  1.0  -0.1549
  C  C167  1  0.725900  0.637600  0.823400  1.0  0.7219
  C  C168  1  0.667300  0.563700  0.717400  1.0  -0.086
  C  C169  1  0.649900  0.500300  0.653900  1.0  0.0652
  C  C170  1  0.677100  0.438000  0.627200  1.0  -0.0778
  C  C171  1  0.605900  0.495200  0.610700  1.0  0.2154
  C  C172  1  0.579100  0.544800  0.655000  1.0  -0.2118
  C  C173  1  0.537500  0.543200  0.610000  1.0  -0.1042
  C  C174  1  0.522400  0.497200  0.523200  1.0  0.2156
  C  C175  1  0.549200  0.443300  0.502000  1.0  -0.1384
  C  C176  1  0.589300  0.444800  0.541100  1.0  -0.1293
  N  N177  1  0.386700  0.246100  0.145900  1.0  0.8397
  N  N178  1  0.886700  0.746100  0.145900  1.0  0.8403
  N  N179  1  0.613300  0.246100  0.354100  1.0  0.8384
  N  N180  1  0.113300  0.746100  0.354100  1.0  0.8384
  N  N181  1  0.613300  0.753900  0.854100  1.0  0.8387
  N  N182  1  0.113300  0.253900  0.854100  1.0  0.8391
  N  N183  1  0.386700  0.753900  0.645900  1.0  0.8385
  N  N184  1  0.886700  0.253900  0.645900  1.0  0.8385
  O  O185  1  0.283920  0.113900  0.151300  1.0  -0.6302
  O  O186  1  0.232080  0.190000  0.093800  1.0  -0.8102
  O  O187  1  0.263360  0.860800  0.355000  1.0  -0.7735
  O  O188  1  0.201300  0.806600  0.336800  1.0  -0.6784
  O  O189  1  0.376010  0.273800  0.033300  1.0  -0.5918
  O  O190  1  0.363720  0.194800  0.189500  1.0  -0.6545
  O  O191  1  0.416600  0.270300  0.211500  1.0  -0.3819
  O  O192  1  0.783920  0.613900  0.151300  1.0  -0.6302
  O  O193  1  0.732080  0.690000  0.093800  1.0  -0.8102
  O  O194  1  0.763360  0.360800  0.355000  1.0  -0.7735
  O  O195  1  0.701300  0.306600  0.336800  1.0  -0.6784
  O  O196  1  0.876010  0.773800  0.033300  1.0  -0.5908
  O  O197  1  0.863720  0.694800  0.189500  1.0  -0.6545
  O  O198  1  0.916600  0.770300  0.211500  1.0  -0.3829
  O  O199  1  0.716080  0.113900  0.348700  1.0  -0.631
  O  O200  1  0.767920  0.190000  0.406200  1.0  -0.8091
  O  O201  1  0.736640  0.860800  0.145000  1.0  -0.7764
  O  O202  1  0.798700  0.806600  0.163200  1.0  -0.6774
  O  O203  1  0.623990  0.273800  0.466700  1.0  -0.5973
  O  O204  1  0.636280  0.194800  0.310500  1.0  -0.651
  O  O205  1  0.583400  0.270300  0.288500  1.0  -0.3812
  O  O206  1  0.216080  0.613900  0.348700  1.0  -0.631
  O  O207  1  0.267920  0.690000  0.406200  1.0  -0.8091
  O  O208  1  0.236640  0.360800  0.145000  1.0  -0.7764
  O  O209  1  0.298700  0.306600  0.163200  1.0  -0.6774
  O  O210  1  0.123990  0.773800  0.466700  1.0  -0.5973
  O  O211  1  0.136280  0.694800  0.310500  1.0  -0.651
  O  O212  1  0.083400  0.770300  0.288500  1.0  -0.3812
  O  O213  1  0.716080  0.886100  0.848700  1.0  -0.6303
  O  O214  1  0.767920  0.810000  0.906200  1.0  -0.8114
  O  O215  1  0.736640  0.139200  0.645000  1.0  -0.7765
  O  O216  1  0.798700  0.193400  0.663200  1.0  -0.679
  O  O217  1  0.623990  0.726200  0.966700  1.0  -0.5965
  O  O218  1  0.636280  0.805200  0.810500  1.0  -0.6538
  O  O219  1  0.583400  0.729700  0.788500  1.0  -0.3832
  O  O220  1  0.216080  0.386100  0.848700  1.0  -0.6303
  O  O221  1  0.267920  0.310000  0.906200  1.0  -0.8114
  O  O222  1  0.236640  0.639200  0.645000  1.0  -0.7765
  O  O223  1  0.298700  0.693400  0.663200  1.0  -0.679
  O  O224  1  0.123990  0.226200  0.966700  1.0  -0.5957
  O  O225  1  0.136280  0.305200  0.810500  1.0  -0.6538
  O  O226  1  0.083400  0.229700  0.788500  1.0  -0.3838
  O  O227  1  0.283920  0.886100  0.651300  1.0  -0.6298
  O  O228  1  0.232080  0.810000  0.593800  1.0  -0.8127
  O  O229  1  0.263360  0.139200  0.855000  1.0  -0.7735
  O  O230  1  0.201300  0.193400  0.836800  1.0  -0.6793
  O  O231  1  0.376010  0.726200  0.533300  1.0  -0.593
  O  O232  1  0.363720  0.805200  0.689500  1.0  -0.653
  O  O233  1  0.416600  0.729700  0.711500  1.0  -0.3805
  O  O234  1  0.783920  0.386100  0.651300  1.0  -0.6298
  O  O235  1  0.732080  0.310000  0.593800  1.0  -0.8127
  O  O236  1  0.763360  0.639200  0.855000  1.0  -0.7735
  O  O237  1  0.701300  0.693400  0.836800  1.0  -0.6793
  O  O238  1  0.876010  0.226200  0.533300  1.0  -0.593
  O  O239  1  0.863720  0.305200  0.689500  1.0  -0.653
  O  O240  1  0.916600  0.229700  0.711500  1.0  -0.3805
