# generated using pymatgen
data_Zn4H17(C12O5)3
_symmetry_space_group_name_H-M   'P 1'
_cell_length_a   10.36400000
_cell_length_b   26.74600000
_cell_length_c   27.80400000
_cell_angle_alpha   90.00000000
_cell_angle_beta   93.91000000
_cell_angle_gamma   90.00000000
_symmetry_Int_Tables_number   1
_chemical_formula_structural   Zn4H17(C12O5)3
_chemical_formula_sum   'Zn16 H68 C144 O60'
_cell_volume   7689.20569888
_cell_formula_units_Z   4
loop_
 _symmetry_equiv_pos_site_id
 _symmetry_equiv_pos_as_xyz
  1  'x, y, z'
loop_
 _atom_site_type_symbol
 _atom_site_label
 _atom_site_symmetry_multiplicity
 _atom_site_fract_x
 _atom_site_fract_y
 _atom_site_fract_z
 _atom_site_occupancy
 _atom_site_charge
  Zn  Zn1  1  0.122190  0.238060  0.182850  1.0  1.0547
  Zn  Zn2  1  0.827820  0.233430  0.177720  1.0  1.0503
  Zn  Zn3  1  0.955430  0.264080  0.081850  1.0  1.0996
  Zn  Zn4  1  0.973110  0.336570  0.174950  1.0  1.0517
  Zn  Zn5  1  0.377810  0.738060  0.317150  1.0  1.0552
  Zn  Zn6  1  0.672180  0.733430  0.322280  1.0  1.0481
  Zn  Zn7  1  0.544570  0.764080  0.418150  1.0  1.0985
  Zn  Zn8  1  0.526890  0.836570  0.325050  1.0  1.0522
  Zn  Zn9  1  0.877810  0.761940  0.817150  1.0  1.055
  Zn  Zn10  1  0.172180  0.766570  0.822280  1.0  1.0479
  Zn  Zn11  1  0.044570  0.735920  0.918150  1.0  1.0978
  Zn  Zn12  1  0.026890  0.663430  0.825050  1.0  1.0519
  Zn  Zn13  1  0.622190  0.261940  0.682850  1.0  1.0557
  Zn  Zn14  1  0.327820  0.266570  0.677720  1.0  1.05
  Zn  Zn15  1  0.455430  0.235920  0.581850  1.0  1.0993
  Zn  Zn16  1  0.473110  0.163430  0.674950  1.0  1.0519
  H  H17  1  0.937300  0.375800  0.976000  1.0  0.1205
  H  H18  1  0.996700  0.466900  0.089500  1.0  0.1215
  H  H19  1  0.039900  0.557700  0.078300  1.0  0.1452
  H  H20  1  0.486900  0.306700  0.196800  1.0  0.1188
  H  H21  1  0.678200  0.432800  0.231900  1.0  0.1171
  H  H22  1  0.290800  0.428300  0.236600  1.0  0.1178
  H  H23  1  0.664600  0.493100  0.287400  1.0  0.1197
  H  H24  1  0.665900  0.573900  0.313600  1.0  0.1204
  H  H25  1  0.306300  0.593400  0.251100  1.0  0.1182
  H  H26  1  0.304500  0.510000  0.226900  1.0  0.1218
  H  H27  1  0.456800  0.216300  0.112300  1.0  0.1276
  H  H28  1  0.243600  0.226900  0.985300  1.0  0.1208
  H  H29  1  0.635400  0.227500  0.987800  1.0  0.121
  H  H30  1  0.265800  0.269200  0.915600  1.0  0.1232
  H  H31  1  0.259900  0.276000  0.833100  1.0  0.1219
  H  H32  1  0.593600  0.204300  0.833200  1.0  0.1068
  H  H33  1  0.597900  0.192300  0.915700  1.0  0.1412
  H  H34  1  0.562700  0.875800  0.524000  1.0  0.1203
  H  H35  1  0.503300  0.966900  0.410500  1.0  0.1225
  H  H36  1  0.460100  0.057700  0.421700  1.0  0.1447
  H  H37  1  0.013100  0.806700  0.303200  1.0  0.119
  H  H38  1  0.821800  0.932800  0.268100  1.0  0.1172
  H  H39  1  0.209200  0.928300  0.263400  1.0  0.1179
  H  H40  1  0.835400  0.993100  0.212600  1.0  0.1196
  H  H41  1  0.834100  0.073900  0.186400  1.0  0.1174
  H  H42  1  0.193700  0.093400  0.248900  1.0  0.1187
  H  H43  1  0.195500  0.010000  0.273100  1.0  0.1219
  H  H44  1  0.043200  0.716300  0.387700  1.0  0.1278
  H  H45  1  0.256400  0.726900  0.514700  1.0  0.1211
  H  H46  1  0.864600  0.727500  0.512200  1.0  0.1215
  H  H47  1  0.234200  0.769200  0.584400  1.0  0.1233
  H  H48  1  0.240100  0.776000  0.666900  1.0  0.122
  H  H49  1  0.906400  0.704300  0.666800  1.0  0.107
  H  H50  1  0.902100  0.692300  0.584300  1.0  0.1422
  H  H51  1  0.062700  0.624200  0.024000  1.0  0.1203
  H  H52  1  0.003300  0.533100  0.910500  1.0  0.1224
  H  H53  1  0.960100  0.442300  0.921700  1.0  0.1455
  H  H54  1  0.513100  0.693300  0.803200  1.0  0.1183
  H  H55  1  0.321800  0.567200  0.768100  1.0  0.1173
  H  H56  1  0.709200  0.571700  0.763400  1.0  0.1176
  H  H57  1  0.335400  0.506900  0.712600  1.0  0.1199
  H  H58  1  0.334100  0.426100  0.686400  1.0  0.1203
  H  H59  1  0.693700  0.406600  0.748900  1.0  0.1187
  H  H60  1  0.695500  0.490000  0.773100  1.0  0.1222
  H  H61  1  0.543200  0.783700  0.887700  1.0  0.1278
  H  H62  1  0.756400  0.773100  0.014700  1.0  0.1209
  H  H63  1  0.364600  0.772500  0.012200  1.0  0.1215
  H  H64  1  0.734200  0.730800  0.084400  1.0  0.1235
  H  H65  1  0.740100  0.724000  0.166900  1.0  0.1216
  H  H66  1  0.406400  0.795700  0.166800  1.0  0.1066
  H  H67  1  0.402100  0.807700  0.084300  1.0  0.1427
  H  H68  1  0.437300  0.124200  0.476000  1.0  0.1206
  H  H69  1  0.496700  0.033100  0.589500  1.0  0.1216
  H  H70  1  0.539900  0.942300  0.578300  1.0  0.1446
  H  H71  1  0.986900  0.193300  0.696800  1.0  0.118
  H  H72  1  0.178200  0.067200  0.731900  1.0  0.1169
  H  H73  1  0.790800  0.071700  0.736600  1.0  0.1179
  H  H74  1  0.164600  0.006900  0.787400  1.0  0.1201
  H  H75  1  0.165900  0.926100  0.813600  1.0  0.1179
  H  H76  1  0.806300  0.906600  0.751100  1.0  0.1179
  H  H77  1  0.804500  0.990000  0.726900  1.0  0.1219
  H  H78  1  0.956800  0.283700  0.612300  1.0  0.1274
  H  H79  1  0.743600  0.273100  0.485300  1.0  0.1211
  H  H80  1  0.135400  0.272500  0.487800  1.0  0.121
  H  H81  1  0.765800  0.230800  0.415600  1.0  0.1237
  H  H82  1  0.759900  0.224000  0.333100  1.0  0.1214
  H  H83  1  0.093600  0.295700  0.333200  1.0  0.1073
  H  H84  1  0.097900  0.307700  0.415700  1.0  0.1416
  C  C85  1  0.963600  0.371000  0.071500  1.0  0.7217
  C  C86  1  0.970300  0.416900  0.037900  1.0  -0.1545
  C  C87  1  0.955600  0.408300  0.987600  1.0  -0.0421
  C  C88  1  0.991600  0.462000  0.056000  1.0  -0.0218
  C  C89  1  0.007100  0.504000  0.023800  1.0  0.0271
  C  C90  1  0.032200  0.552700  0.044800  1.0  -0.1069
  C  C91  1  0.245100  0.335800  0.206400  1.0  0.7294
  C  C92  1  0.367300  0.363300  0.215200  1.0  -0.1772
  C  C93  1  0.485600  0.340300  0.206600  1.0  0.0203
  C  C94  1  0.598500  0.366500  0.212500  1.0  -0.1322
  C  C95  1  0.599400  0.415300  0.228000  1.0  -0.0592
  C  C96  1  0.484600  0.439200  0.238000  1.0  0.0567
  C  C97  1  0.369200  0.412500  0.230700  1.0  -0.0549
  C  C98  1  0.721500  0.341200  0.197900  1.0  0.7046
  C  C99  1  0.486800  0.491800  0.255200  1.0  0.0465
  C  C100  1  0.590800  0.512900  0.280400  1.0  -0.1073
  C  C101  1  0.592300  0.561300  0.296000  1.0  -0.0669
  C  C102  1  0.484500  0.592700  0.285800  1.0  -0.1201
  C  C103  1  0.378400  0.573000  0.259200  1.0  -0.0576
  C  C104  1  0.377900  0.523100  0.244300  1.0  -0.1178
  C  C105  1  0.487400  0.645600  0.300800  1.0  0.7213
  C  C106  1  0.691800  0.222300  0.081900  1.0  0.7301
  C  C107  1  0.564800  0.219300  0.053700  1.0  -0.1484
  C  C108  1  0.452300  0.218600  0.078500  1.0  -0.008
  C  C109  1  0.332200  0.221500  0.052100  1.0  -0.1457
  C  C110  1  0.324900  0.224800  0.002300  1.0  -0.0481
  C  C111  1  0.436500  0.224800  0.977000  1.0  0.0587
  C  C112  1  0.558900  0.224400  0.003800  1.0  -0.0574
  C  C113  1  0.212600  0.225000  0.078800  1.0  0.7436
  C  C114  1  0.430900  0.229400  0.924300  1.0  0.06
  C  C115  1  0.332600  0.255000  0.898900  1.0  -0.1315
  C  C116  1  0.330600  0.260100  0.849700  1.0  -0.0451
  C  C117  1  0.429300  0.242400  0.824500  1.0  -0.1508
  C  C118  1  0.525700  0.217400  0.850100  1.0  -0.0248
  C  C119  1  0.529600  0.210000  0.899600  1.0  -0.238
  C  C120  1  0.429100  0.249700  0.770600  1.0  0.7171
  C  C121  1  0.536400  0.871000  0.428500  1.0  0.7214
  C  C122  1  0.529700  0.916900  0.462100  1.0  -0.1559
  C  C123  1  0.544400  0.908300  0.512400  1.0  -0.0404
  C  C124  1  0.508400  0.962000  0.444000  1.0  -0.0223
  C  C125  1  0.492900  0.004000  0.476200  1.0  0.0267
  C  C126  1  0.467800  0.052700  0.455200  1.0  -0.1032
  C  C127  1  0.254900  0.835800  0.293600  1.0  0.7282
  C  C128  1  0.132700  0.863300  0.284800  1.0  -0.1762
  C  C129  1  0.014400  0.840300  0.293400  1.0  0.0207
  C  C130  1  0.901500  0.866500  0.287500  1.0  -0.1336
  C  C131  1  0.900600  0.915300  0.272000  1.0  -0.0605
  C  C132  1  0.015400  0.939200  0.262000  1.0  0.0572
  C  C133  1  0.130800  0.912500  0.269300  1.0  -0.0544
  C  C134  1  0.778500  0.841200  0.302100  1.0  0.7059
  C  C135  1  0.013200  0.991800  0.244800  1.0  0.0467
  C  C136  1  0.909200  0.012900  0.219600  1.0  -0.1109
  C  C137  1  0.907700  0.061300  0.204000  1.0  -0.0748
  C  C138  1  0.015500  0.092700  0.214200  1.0  -0.12
  C  C139  1  0.121600  0.073000  0.240800  1.0  -0.0556
  C  C140  1  0.122100  0.023100  0.255700  1.0  -0.1179
  C  C141  1  0.012600  0.145600  0.199200  1.0  0.7217
  C  C142  1  0.808200  0.722300  0.418100  1.0  0.7313
  C  C143  1  0.935200  0.719300  0.446300  1.0  -0.1482
  C  C144  1  0.047700  0.718600  0.421500  1.0  -0.0073
  C  C145  1  0.167800  0.721500  0.447900  1.0  -0.1459
  C  C146  1  0.175100  0.724800  0.497700  1.0  -0.0459
  C  C147  1  0.063500  0.724800  0.523000  1.0  0.0586
  C  C148  1  0.941100  0.724400  0.496200  1.0  -0.0587
  C  C149  1  0.287400  0.725000  0.421200  1.0  0.7434
  C  C150  1  0.069100  0.729400  0.575700  1.0  0.0606
  C  C151  1  0.167400  0.755000  0.601100  1.0  -0.1301
  C  C152  1  0.169400  0.760100  0.650300  1.0  -0.0447
  C  C153  1  0.070700  0.742400  0.675500  1.0  -0.1512
  C  C154  1  0.974300  0.717400  0.649900  1.0  -0.0229
  C  C155  1  0.970400  0.710000  0.600400  1.0  -0.2385
  C  C156  1  0.070900  0.749700  0.729400  1.0  0.7186
  C  C157  1  0.036400  0.629000  0.928500  1.0  0.7213
  C  C158  1  0.029700  0.583100  0.962100  1.0  -0.155
  C  C159  1  0.044400  0.591700  0.012400  1.0  -0.0396
  C  C160  1  0.008400  0.538000  0.944000  1.0  -0.0201
  C  C161  1  0.992900  0.496000  0.976200  1.0  0.0267
  C  C162  1  0.967800  0.447300  0.955200  1.0  -0.1044
  C  C163  1  0.754900  0.664200  0.793600  1.0  0.7289
  C  C164  1  0.632700  0.636700  0.784800  1.0  -0.1762
  C  C165  1  0.514400  0.659700  0.793400  1.0  0.0198
  C  C166  1  0.401500  0.633500  0.787500  1.0  -0.1335
  C  C167  1  0.400600  0.584700  0.772000  1.0  -0.0605
  C  C168  1  0.515400  0.560800  0.762000  1.0  0.0573
  C  C169  1  0.630800  0.587500  0.769300  1.0  -0.0544
  C  C170  1  0.278500  0.658800  0.802100  1.0  0.7059
  C  C171  1  0.513200  0.508200  0.744800  1.0  0.0464
  C  C172  1  0.409200  0.487100  0.719600  1.0  -0.1079
  C  C173  1  0.407700  0.438700  0.704000  1.0  -0.0683
  C  C174  1  0.515500  0.407300  0.714200  1.0  -0.1207
  C  C175  1  0.621600  0.427000  0.740800  1.0  -0.0557
  C  C176  1  0.622100  0.476900  0.755700  1.0  -0.1179
  C  C177  1  0.512600  0.354400  0.699200  1.0  0.7214
  C  C178  1  0.308200  0.777700  0.918100  1.0  0.7313
  C  C179  1  0.435200  0.780700  0.946300  1.0  -0.1481
  C  C180  1  0.547700  0.781400  0.921500  1.0  -0.0074
  C  C181  1  0.667800  0.778500  0.947900  1.0  -0.146
  C  C182  1  0.675100  0.775200  0.997700  1.0  -0.0461
  C  C183  1  0.563500  0.775200  0.023000  1.0  0.0587
  C  C184  1  0.441100  0.775600  0.996200  1.0  -0.0588
  C  C185  1  0.787400  0.775000  0.921200  1.0  0.7433
  C  C186  1  0.569100  0.770600  0.075700  1.0  0.0605
  C  C187  1  0.667400  0.745000  0.101100  1.0  -0.1297
  C  C188  1  0.669400  0.739900  0.150300  1.0  -0.0445
  C  C189  1  0.570700  0.757600  0.175500  1.0  -0.1509
  C  C190  1  0.474300  0.782600  0.149900  1.0  -0.0237
  C  C191  1  0.470400  0.790000  0.100400  1.0  -0.2393
  C  C192  1  0.570900  0.750300  0.229400  1.0  0.7185
  C  C193  1  0.463600  0.129000  0.571500  1.0  0.7215
  C  C194  1  0.470300  0.083100  0.537900  1.0  -0.1553
  C  C195  1  0.455600  0.091700  0.487600  1.0  -0.0437
  C  C196  1  0.491600  0.038000  0.556000  1.0  -0.0173
  C  C197  1  0.507100  0.996000  0.523800  1.0  0.027
  C  C198  1  0.532200  0.947300  0.544800  1.0  -0.1052
  C  C199  1  0.745100  0.164200  0.706400  1.0  0.7299
  C  C200  1  0.867300  0.136700  0.715200  1.0  -0.1769
  C  C201  1  0.985600  0.159700  0.706600  1.0  0.0196
  C  C202  1  0.098500  0.133500  0.712500  1.0  -0.1323
  C  C203  1  0.099400  0.084700  0.728000  1.0  -0.0593
  C  C204  1  0.984600  0.060800  0.738000  1.0  0.0569
  C  C205  1  0.869200  0.087500  0.730700  1.0  -0.0553
  C  C206  1  0.221500  0.158800  0.697900  1.0  0.7048
  C  C207  1  0.986800  0.008200  0.755200  1.0  0.0463
  C  C208  1  0.090800  0.987100  0.780400  1.0  -0.1093
  C  C209  1  0.092300  0.938700  0.796000  1.0  -0.0739
  C  C210  1  0.984500  0.907300  0.785800  1.0  -0.1205
  C  C211  1  0.878400  0.927000  0.759200  1.0  -0.0571
  C  C212  1  0.877900  0.976900  0.744300  1.0  -0.1183
  C  C213  1  0.987400  0.854400  0.800800  1.0  0.7211
  C  C214  1  0.191800  0.277700  0.581900  1.0  0.7301
  C  C215  1  0.064800  0.280700  0.553700  1.0  -0.1484
  C  C216  1  0.952300  0.281400  0.578500  1.0  -0.0082
  C  C217  1  0.832200  0.278500  0.552100  1.0  -0.1461
  C  C218  1  0.824900  0.275200  0.502300  1.0  -0.0483
  C  C219  1  0.936500  0.275200  0.477000  1.0  0.0589
  C  C220  1  0.058900  0.275600  0.503800  1.0  -0.0573
  C  C221  1  0.712600  0.275000  0.578800  1.0  0.7434
  C  C222  1  0.930900  0.270600  0.424300  1.0  0.0598
  C  C223  1  0.832600  0.245000  0.398900  1.0  -0.1309
  C  C224  1  0.830600  0.239900  0.349700  1.0  -0.0451
  C  C225  1  0.929300  0.257600  0.324500  1.0  -0.1508
  C  C226  1  0.025700  0.282600  0.350100  1.0  -0.0253
  C  C227  1  0.029600  0.290000  0.399600  1.0  -0.2384
  C  C228  1  0.929100  0.250300  0.270600  1.0  0.717
  O  O229  1  0.970500  0.269710  0.150530  1.0  -1.1769
  O  O230  1  0.947600  0.329700  0.050930  1.0  -0.5854
  O  O231  1  0.969000  0.380100  0.115100  1.0  -0.5889
  O  O232  1  0.256200  0.288140  0.201180  1.0  -0.5932
  O  O233  1  0.141900  0.360160  0.203330  1.0  -0.5691
  O  O234  1  0.711400  0.299800  0.178350  1.0  -0.585
  O  O235  1  0.827700  0.364910  0.206250  1.0  -0.5814
  O  O236  1  0.587400  0.661400  0.323350  1.0  -0.5827
  O  O237  1  0.385200  0.671060  0.291980  1.0  -0.5758
  O  O238  1  0.695500  0.212200  0.125880  1.0  -0.5928
  O  O239  1  0.790600  0.233810  0.059190  1.0  -0.6121
  O  O240  1  0.221700  0.217360  0.123370  1.0  -0.6129
  O  O241  1  0.106800  0.234080  0.053970  1.0  -0.5921
  O  O242  1  0.330000  0.267400  0.748230  1.0  -0.5677
  O  O243  1  0.523000  0.232700  0.751100  1.0  -0.6425
  O  O244  1  0.529500  0.769710  0.349470  1.0  -1.1778
  O  O245  1  0.552400  0.829700  0.449070  1.0  -0.5862
  O  O246  1  0.531000  0.880100  0.384900  1.0  -0.5881
  O  O247  1  0.243800  0.788140  0.298820  1.0  -0.5931
  O  O248  1  0.358100  0.860160  0.296670  1.0  -0.5691
  O  O249  1  0.788600  0.799800  0.321650  1.0  -0.5852
  O  O250  1  0.672300  0.864910  0.293750  1.0  -0.5821
  O  O251  1  0.912600  0.161400  0.176650  1.0  -0.5842
  O  O252  1  0.114800  0.171060  0.208020  1.0  -0.5766
  O  O253  1  0.804500  0.712200  0.374120  1.0  -0.5906
  O  O254  1  0.709400  0.733810  0.440810  1.0  -0.6137
  O  O255  1  0.278300  0.717360  0.376630  1.0  -0.6136
  O  O256  1  0.393200  0.734080  0.446030  1.0  -0.5923
  O  O257  1  0.170000  0.767400  0.751770  1.0  -0.5671
  O  O258  1  0.977000  0.732700  0.748900  1.0  -0.6425
  O  O259  1  0.029500  0.730290  0.849470  1.0  -1.1777
  O  O260  1  0.052400  0.670300  0.949070  1.0  -0.5854
  O  O261  1  0.031000  0.619900  0.884900  1.0  -0.5884
  O  O262  1  0.743800  0.711860  0.798820  1.0  -0.5937
  O  O263  1  0.858100  0.639840  0.796670  1.0  -0.5688
  O  O264  1  0.288600  0.700200  0.821650  1.0  -0.5846
  O  O265  1  0.172300  0.635090  0.793750  1.0  -0.5802
  O  O266  1  0.412600  0.338600  0.676650  1.0  -0.5861
  O  O267  1  0.614800  0.328940  0.708020  1.0  -0.5766
  O  O268  1  0.304500  0.787800  0.874120  1.0  -0.5939
  O  O269  1  0.209400  0.766190  0.940810  1.0  -0.6146
  O  O270  1  0.778300  0.782640  0.876630  1.0  -0.613
  O  O271  1  0.893200  0.765920  0.946030  1.0  -0.593
  O  O272  1  0.670000  0.732600  0.251770  1.0  -0.5669
  O  O273  1  0.477000  0.767300  0.248900  1.0  -0.6414
  O  O274  1  0.470500  0.230290  0.650530  1.0  -1.1768
  O  O275  1  0.447600  0.170300  0.550930  1.0  -0.5858
  O  O276  1  0.469000  0.119900  0.615100  1.0  -0.5893
  O  O277  1  0.756200  0.211860  0.701180  1.0  -0.5935
  O  O278  1  0.641900  0.139840  0.703330  1.0  -0.5686
  O  O279  1  0.211400  0.200200  0.678350  1.0  -0.5843
  O  O280  1  0.327700  0.135090  0.706250  1.0  -0.5806
  O  O281  1  0.087400  0.838600  0.823350  1.0  -0.5835
  O  O282  1  0.885200  0.828940  0.791980  1.0  -0.576
  O  O283  1  0.195500  0.287800  0.625880  1.0  -0.5938
  O  O284  1  0.290600  0.266190  0.559190  1.0  -0.6127
  O  O285  1  0.721700  0.282640  0.623370  1.0  -0.6122
  O  O286  1  0.606800  0.265920  0.553970  1.0  -0.5924
  O  O287  1  0.830000  0.232600  0.248230  1.0  -0.5668
  O  O288  1  0.023000  0.267300  0.251100  1.0  -0.642
