# generated using pymatgen
data_Zn4H18C38O15
_symmetry_space_group_name_H-M   'P 1'
_cell_length_a   10.32700000
_cell_length_b   26.23700000
_cell_length_c   27.75600000
_cell_angle_alpha   90.00000000
_cell_angle_beta   93.83000000
_cell_angle_gamma   90.00000000
_symmetry_Int_Tables_number   1
_chemical_formula_structural   Zn4H18C38O15
_chemical_formula_sum   'Zn16 H72 C152 O60'
_cell_volume   7503.67829696
_cell_formula_units_Z   4
loop_
 _symmetry_equiv_pos_site_id
 _symmetry_equiv_pos_as_xyz
  1  'x, y, z'
loop_
 _atom_site_type_symbol
 _atom_site_label
 _atom_site_symmetry_multiplicity
 _atom_site_fract_x
 _atom_site_fract_y
 _atom_site_fract_z
 _atom_site_occupancy
 _atom_site_charge
  Zn  Zn1  1  0.181800  0.767530  0.336720  1.0  1.054
  Zn  Zn2  1  0.887190  0.773260  0.332620  1.0  1.0972
  Zn  Zn3  1  0.054570  0.799830  0.432610  1.0  1.051
  Zn  Zn4  1  0.041110  0.872640  0.336560  1.0  1.0214
  Zn  Zn5  1  0.318200  0.267530  0.163280  1.0  1.0543
  Zn  Zn6  1  0.612810  0.273260  0.167380  1.0  1.0974
  Zn  Zn7  1  0.445430  0.299830  0.067390  1.0  1.0529
  Zn  Zn8  1  0.458890  0.372640  0.163440  1.0  1.0214
  Zn  Zn9  1  0.818200  0.232470  0.663280  1.0  1.0554
  Zn  Zn10  1  0.112810  0.226740  0.667380  1.0  1.0982
  Zn  Zn11  1  0.945430  0.200170  0.567390  1.0  1.0524
  Zn  Zn12  1  0.958890  0.127360  0.663440  1.0  1.0215
  Zn  Zn13  1  0.681800  0.732470  0.836720  1.0  1.055
  Zn  Zn14  1  0.387190  0.726740  0.832620  1.0  1.0981
  Zn  Zn15  1  0.554570  0.700170  0.932610  1.0  1.0503
  Zn  Zn16  1  0.541110  0.627360  0.836560  1.0  1.0214
  H  H17  1  0.532800  0.844300  0.318700  1.0  0.1277
  H  H18  1  0.333400  0.970300  0.270800  1.0  0.1347
  H  H19  1  0.376600  0.737400  0.526400  1.0  0.124
  H  H20  1  0.552100  0.752100  0.401200  1.0  0.1263
  H  H21  1  0.720000  0.964100  0.266400  1.0  0.115
  H  H22  1  0.765300  0.744500  0.528400  1.0  0.1331
  H  H23  1  0.227000  0.892800  0.523800  1.0  0.1315
  H  H24  1  0.832400  0.960200  0.386900  1.0  0.113
  H  H25  1  0.698000  0.050300  0.272300  1.0  0.1216
  H  H26  1  0.350900  0.021600  0.204800  1.0  0.1258
  H  H27  1  0.425200  0.684100  0.591800  1.0  0.1381
  H  H28  1  0.725700  0.782600  0.603200  1.0  0.1312
  H  H29  1  0.365600  0.905700  0.588700  1.0  0.145
  H  H30  1  0.685200  0.010800  0.362500  1.0  0.0805
  H  H31  1  0.695300  0.131500  0.240300  1.0  0.1356
  H  H32  1  0.343200  0.103600  0.175700  1.0  0.1177
  H  H33  1  0.447100  0.672900  0.676300  1.0  0.1181
  H  H34  1  0.740500  0.771900  0.686600  1.0  0.1187
  H  H35  1  0.967200  0.344300  0.181300  1.0  0.1278
  H  H36  1  0.166600  0.470300  0.229200  1.0  0.1355
  H  H37  1  0.123400  0.237400  0.973600  1.0  0.1246
  H  H38  1  0.947900  0.252100  0.098800  1.0  0.1264
  H  H39  1  0.780000  0.464100  0.233600  1.0  0.1148
  H  H40  1  0.734700  0.244500  0.971600  1.0  0.1338
  H  H41  1  0.273000  0.392800  0.976200  1.0  0.1327
  H  H42  1  0.667600  0.460200  0.113100  1.0  0.1139
  H  H43  1  0.802000  0.550300  0.227700  1.0  0.1218
  H  H44  1  0.149100  0.521600  0.295200  1.0  0.1257
  H  H45  1  0.074800  0.184100  0.908200  1.0  0.1372
  H  H46  1  0.774300  0.282600  0.896800  1.0  0.1314
  H  H47  1  0.134400  0.405700  0.911300  1.0  0.1438
  H  H48  1  0.814800  0.510800  0.137500  1.0  0.0813
  H  H49  1  0.804700  0.631500  0.259700  1.0  0.1363
  H  H50  1  0.156800  0.603600  0.324300  1.0  0.1177
  H  H51  1  0.052900  0.172900  0.823700  1.0  0.118
  H  H52  1  0.759500  0.271900  0.813400  1.0  0.1187
  H  H53  1  0.467200  0.155700  0.681300  1.0  0.1279
  H  H54  1  0.666667  0.029700  0.729200  1.0  0.1357
  H  H55  1  0.623400  0.262600  0.473600  1.0  0.1248
  H  H56  1  0.447900  0.247900  0.598800  1.0  0.1264
  H  H57  1  0.280000  0.035900  0.733600  1.0  0.1151
  H  H58  1  0.234700  0.255500  0.471600  1.0  0.133
  H  H59  1  0.773000  0.107200  0.476200  1.0  0.1345
  H  H60  1  0.167600  0.039800  0.613100  1.0  0.1136
  H  H61  1  0.302000  0.949700  0.727700  1.0  0.1215
  H  H62  1  0.649100  0.978400  0.795200  1.0  0.1255
  H  H63  1  0.574800  0.315900  0.408200  1.0  0.138
  H  H64  1  0.274300  0.217400  0.396800  1.0  0.1314
  H  H65  1  0.634400  0.094300  0.411300  1.0  0.1455
  H  H66  1  0.314800  0.989200  0.637500  1.0  0.0817
  H  H67  1  0.304700  0.868500  0.759700  1.0  0.1358
  H  H68  1  0.656800  0.896400  0.824300  1.0  0.1175
  H  H69  1  0.552900  0.327100  0.323700  1.0  0.1186
  H  H70  1  0.259500  0.228100  0.313400  1.0  0.1186
  H  H71  1  0.032800  0.655700  0.818700  1.0  0.128
  H  H72  1  0.833400  0.529700  0.770800  1.0  0.135
  H  H73  1  0.876600  0.762600  0.026400  1.0  0.1239
  H  H74  1  0.052100  0.747900  0.901200  1.0  0.1263
  H  H75  1  0.220000  0.535900  0.766400  1.0  0.1153
  H  H76  1  0.265300  0.755500  0.028400  1.0  0.1335
  H  H77  1  0.727000  0.607200  0.023800  1.0  0.1331
  H  H78  1  0.332400  0.539800  0.886900  1.0  0.1128
  H  H79  1  0.198000  0.449700  0.772300  1.0  0.1218
  H  H80  1  0.850900  0.478400  0.704800  1.0  0.126
  H  H81  1  0.925200  0.815900  0.091800  1.0  0.1383
  H  H82  1  0.225700  0.717400  0.103200  1.0  0.1313
  H  H83  1  0.865600  0.594300  0.088700  1.0  0.1457
  H  H84  1  0.185200  0.489200  0.862500  1.0  0.0805
  H  H85  1  0.195300  0.368500  0.740300  1.0  0.1353
  H  H86  1  0.843200  0.396400  0.675700  1.0  0.1176
  H  H87  1  0.947100  0.827100  0.176300  1.0  0.1184
  H  H88  1  0.240500  0.728100  0.186600  1.0  0.1183
  C  C89  1  0.292600  0.878240  0.312890  1.0  0.7028
  C  C90  1  0.314300  0.753690  0.431050  1.0  0.7275
  C  C91  1  0.414000  0.903240  0.296910  1.0  -0.1409
  C  C92  1  0.444000  0.746650  0.459400  1.0  -0.1402
  C  C93  1  0.041600  0.908700  0.441960  1.0  0.7139
  C  C94  1  0.531100  0.877120  0.305120  1.0  -0.0544
  C  C95  1  0.412300  0.952730  0.276470  1.0  -0.1016
  C  C96  1  0.452700  0.740300  0.509820  1.0  -0.0776
  C  C97  1  0.556400  0.749980  0.435100  1.0  0.0037
  C  C98  1  0.019400  0.956900  0.471800  1.0  -0.1818
  C  C99  1  0.645000  0.900360  0.293020  1.0  -0.1393
  C  C100  1  0.526200  0.974820  0.265100  1.0  0.0372
  C  C101  1  0.570100  0.738380  0.534710  1.0  0.039
  C  C102  1  0.677500  0.750180  0.461770  1.0  -0.1584
  C  C103  1  0.096700  0.963000  0.516500  1.0  -0.1071
  C  C104  1  0.924600  0.993400  0.455300  1.0  -0.0838
  C  C105  1  0.641800  0.948560  0.273810  1.0  -0.1215
  C  C106  1  0.769500  0.871650  0.304360  1.0  0.7116
  C  C107  1  0.524900  0.026230  0.243910  1.0  0.0639
  C  C108  1  0.684300  0.744400  0.510820  1.0  -0.0453
  C  C109  1  0.578000  0.733000  0.589140  1.0  0.0672
  C  C110  1  0.796900  0.757150  0.434350  1.0  0.7512
  C  C111  1  0.216700  0.924000  0.539700  1.0  0.0288
  C  C112  1  0.824100  0.989400  0.406000  1.0  -0.0344
  C  C113  1  0.625100  0.060700  0.252650  1.0  -0.1121
  C  C114  1  0.420000  0.043900  0.213270  1.0  -0.1122
  C  C115  1  0.490400  0.701400  0.610610  1.0  -0.1055
  C  C116  1  0.668800  0.760200  0.617600  1.0  -0.1244
  C  C117  1  0.306700  0.934300  0.583500  1.0  -0.0226
  C  C118  1  0.729800  0.023300  0.392000  1.0  -0.0485
  C  C119  1  0.623900  0.109700  0.233990  1.0  -0.0839
  C  C120  1  0.415800  0.092900  0.195360  1.0  -0.0565
  C  C121  1  0.501500  0.695800  0.661300  1.0  -0.0517
  C  C122  1  0.676100  0.754400  0.667690  1.0  -0.0257
  C  C123  1  0.515300  0.126240  0.205700  1.0  -0.1175
  C  C124  1  0.592200  0.724000  0.689240  1.0  -0.1429
  C  C125  1  0.509600  0.179770  0.186540  1.0  0.6919
  C  C126  1  0.596200  0.716200  0.743220  1.0  0.7113
  C  C127  1  0.207400  0.378240  0.187110  1.0  0.7025
  C  C128  1  0.185700  0.253690  0.068950  1.0  0.728
  C  C129  1  0.086000  0.403240  0.203090  1.0  -0.1407
  C  C130  1  0.056000  0.246650  0.040600  1.0  -0.1408
  C  C131  1  0.458400  0.408700  0.058040  1.0  0.7142
  C  C132  1  0.968900  0.377120  0.194880  1.0  -0.056
  C  C133  1  0.087700  0.452730  0.223530  1.0  -0.1004
  C  C134  1  0.047300  0.240300  0.990180  1.0  -0.0759
  C  C135  1  0.943600  0.249980  0.064900  1.0  0.0025
  C  C136  1  0.480600  0.456900  0.028200  1.0  -0.1817
  C  C137  1  0.855000  0.400360  0.206980  1.0  -0.1391
  C  C138  1  0.973800  0.474820  0.234900  1.0  0.0362
  C  C139  1  0.929900  0.238380  0.965290  1.0  0.0384
  C  C140  1  0.822500  0.250180  0.038230  1.0  -0.1594
  C  C141  1  0.403300  0.463000  0.983500  1.0  -0.1068
  C  C142  1  0.575400  0.493400  0.044700  1.0  -0.0834
  C  C143  1  0.858200  0.448560  0.226190  1.0  -0.121
  C  C144  1  0.730500  0.371650  0.195640  1.0  0.7113
  C  C145  1  0.975100  0.526230  0.256090  1.0  0.0637
  C  C146  1  0.815700  0.244400  0.989180  1.0  -0.0489
  C  C147  1  0.922000  0.233000  0.910860  1.0  0.0666
  C  C148  1  0.703100  0.257150  0.065650  1.0  0.7517
  C  C149  1  0.283300  0.424000  0.960300  1.0  0.0272
  C  C150  1  0.675900  0.489400  0.094000  1.0  -0.0352
  C  C151  1  0.874900  0.560700  0.247350  1.0  -0.112
  C  C152  1  0.080000  0.543900  0.286730  1.0  -0.1109
  C  C153  1  0.009600  0.201400  0.889390  1.0  -0.1064
  C  C154  1  0.831200  0.260200  0.882400  1.0  -0.1248
  C  C155  1  0.193300  0.434300  0.916500  1.0  -0.0222
  C  C156  1  0.770200  0.523300  0.108000  1.0  -0.0482
  C  C157  1  0.876100  0.609700  0.266010  1.0  -0.086
  C  C158  1  0.084200  0.592900  0.304640  1.0  -0.0594
  C  C159  1  0.998500  0.195800  0.838700  1.0  -0.0518
  C  C160  1  0.823900  0.254400  0.832310  1.0  -0.0272
  C  C161  1  0.984700  0.626240  0.294300  1.0  -0.1178
  C  C162  1  0.907800  0.224000  0.810760  1.0  -0.1423
  C  C163  1  0.990400  0.679770  0.313460  1.0  0.6916
  C  C164  1  0.903800  0.216200  0.756780  1.0  0.7117
  C  C165  1  0.707400  0.121760  0.687110  1.0  0.7026
  C  C166  1  0.685700  0.246310  0.568950  1.0  0.7277
  C  C167  1  0.586000  0.096760  0.703090  1.0  -0.1408
  C  C168  1  0.556000  0.253350  0.540600  1.0  -0.1408
  C  C169  1  0.958400  0.091300  0.558040  1.0  0.7142
  C  C170  1  0.468900  0.122880  0.694880  1.0  -0.0572
  C  C171  1  0.587700  0.047270  0.723530  1.0  -0.1078
  C  C172  1  0.547300  0.259700  0.490180  1.0  -0.0761
  C  C173  1  0.443600  0.250020  0.564900  1.0  0.0027
  C  C174  1  0.980600  0.043100  0.528200  1.0  -0.1816
  C  C175  1  0.355000  0.099640  0.706980  1.0  -0.1389
  C  C176  1  0.473800  0.025180  0.734900  1.0  0.0359
  C  C177  1  0.429900  0.261620  0.465290  1.0  0.0382
  C  C178  1  0.322500  0.249820  0.538230  1.0  -0.1593
  C  C179  1  0.903300  0.037000  0.483500  1.0  -0.1063
  C  C180  1  0.075400  0.006600  0.544700  1.0  -0.0833
  C  C181  1  0.358200  0.051440  0.726190  1.0  -0.1213
  C  C182  1  0.230500  0.128350  0.695640  1.0  0.711
  C  C183  1  0.475100  0.973770  0.756090  1.0  0.0635
  C  C184  1  0.315700  0.255600  0.489180  1.0  -0.0465
  C  C185  1  0.422000  0.267000  0.410860  1.0  0.0665
  C  C186  1  0.203100  0.242850  0.565650  1.0  0.7512
  C  C187  1  0.783300  0.076000  0.460300  1.0  0.0266
  C  C188  1  0.175900  0.010600  0.594000  1.0  -0.0353
  C  C189  1  0.374900  0.939300  0.747350  1.0  -0.1123
  C  C190  1  0.580000  0.956100  0.786730  1.0  -0.1101
  C  C191  1  0.509600  0.298600  0.389390  1.0  -0.1056
  C  C192  1  0.331200  0.239800  0.382400  1.0  -0.124
  C  C193  1  0.693300  0.065700  0.416500  1.0  -0.0231
  C  C194  1  0.270200  0.976700  0.608000  1.0  -0.0486
  C  C195  1  0.376100  0.890300  0.766010  1.0  -0.0853
  C  C196  1  0.584200  0.907100  0.804640  1.0  -0.0574
  C  C197  1  0.498500  0.304200  0.338700  1.0  -0.0518
  C  C198  1  0.323900  0.245600  0.332310  1.0  -0.0276
  C  C199  1  0.484700  0.873760  0.794300  1.0  -0.1163
  C  C200  1  0.407800  0.276000  0.310760  1.0  -0.1421
  C  C201  1  0.490400  0.820230  0.813460  1.0  0.691
  C  C202  1  0.403800  0.283800  0.256780  1.0  0.7118
  C  C203  1  0.792600  0.621760  0.812890  1.0  0.7029
  C  C204  1  0.814300  0.746310  0.931050  1.0  0.7269
  C  C205  1  0.914000  0.596760  0.796910  1.0  -0.1406
  C  C206  1  0.944000  0.753350  0.959400  1.0  -0.1402
  C  C207  1  0.541600  0.591300  0.941960  1.0  0.7143
  C  C208  1  0.031100  0.622880  0.805120  1.0  -0.0564
  C  C209  1  0.912300  0.547270  0.776470  1.0  -0.1013
  C  C210  1  0.952700  0.759700  0.009820  1.0  -0.078
  C  C211  1  0.056400  0.750020  0.935100  1.0  0.0041
  C  C212  1  0.519400  0.543100  0.971800  1.0  -0.1817
  C  C213  1  0.145000  0.599640  0.793020  1.0  -0.1394
  C  C214  1  0.026200  0.525180  0.765100  1.0  0.0375
  C  C215  1  0.070100  0.761620  0.034710  1.0  0.0388
  C  C216  1  0.177500  0.749820  0.961770  1.0  -0.1586
  C  C217  1  0.596700  0.537000  0.016500  1.0  -0.1066
  C  C218  1  0.424600  0.506600  0.955300  1.0  -0.0838
  C  C219  1  0.141800  0.551440  0.773810  1.0  -0.1214
  C  C220  1  0.269500  0.628350  0.804360  1.0  0.7114
  C  C221  1  0.024900  0.473770  0.743910  1.0  0.0639
  C  C222  1  0.184300  0.755600  0.010820  1.0  -0.0476
  C  C223  1  0.078000  0.767000  0.089140  1.0  0.0672
  C  C224  1  0.296900  0.742850  0.934350  1.0  0.7507
  C  C225  1  0.716700  0.576000  0.039700  1.0  0.0278
  C  C226  1  0.324100  0.510600  0.906000  1.0  -0.0346
  C  C227  1  0.125100  0.439300  0.752650  1.0  -0.1124
  C  C228  1  0.920000  0.456100  0.713270  1.0  -0.112
  C  C229  1  0.990400  0.798600  0.110610  1.0  -0.1066
  C  C230  1  0.168800  0.739800  0.117600  1.0  -0.1244
  C  C231  1  0.806700  0.565700  0.083500  1.0  -0.0245
  C  C232  1  0.229800  0.476700  0.892000  1.0  -0.0482
  C  C233  1  0.123900  0.390300  0.733990  1.0  -0.0842
  C  C234  1  0.915800  0.407100  0.695360  1.0  -0.0578
  C  C235  1  0.001500  0.804200  0.161300  1.0  -0.0524
  C  C236  1  0.176100  0.745600  0.167690  1.0  -0.0262
  C  C237  1  0.015300  0.373760  0.705700  1.0  -0.1172
  C  C238  1  0.092200  0.776000  0.189240  1.0  -0.1429
  C  C239  1  0.009600  0.320230  0.686540  1.0  0.6913
  C  C240  1  0.096200  0.783800  0.243220  1.0  0.7115
  O  O241  1  0.040500  0.804570  0.363870  1.0  -1.1836
  O  O242  1  0.302200  0.835480  0.332880  1.0  -0.594
  O  O243  1  0.310800  0.745100  0.387130  1.0  -0.5815
  O  O244  1  0.088000  0.694120  0.337860  1.0  -0.5913
  O  O245  1  0.187700  0.758940  0.266490  1.0  -0.5958
  O  O246  1  0.759200  0.823700  0.309620  1.0  -0.5811
  O  O247  1  0.890700  0.707710  0.301990  1.0  -0.5866
  O  O248  1  0.784900  0.753180  0.390380  1.0  -0.5902
  O  O249  1  0.219500  0.767080  0.455080  1.0  -0.5949
  O  O250  1  0.055900  0.868750  0.462520  1.0  -0.5397
  O  O251  1  0.901700  0.768160  0.459280  1.0  -0.5814
  O  O252  1  0.186000  0.904040  0.306470  1.0  -0.5743
  O  O253  1  0.041600  0.917550  0.397720  1.0  -0.5986
  O  O254  1  0.872400  0.897840  0.308290  1.0  -0.5688
  O  O255  1  0.513300  0.692100  0.761420  1.0  -0.554
  O  O256  1  0.459500  0.304570  0.136130  1.0  -1.1835
  O  O257  1  0.197800  0.335480  0.167120  1.0  -0.5944
  O  O258  1  0.189200  0.245100  0.112870  1.0  -0.5809
  O  O259  1  0.412000  0.194120  0.162140  1.0  -0.5908
  O  O260  1  0.312300  0.258940  0.233510  1.0  -0.5927
  O  O261  1  0.740800  0.323700  0.190380  1.0  -0.5812
  O  O262  1  0.609300  0.207710  0.198010  1.0  -0.5869
  O  O263  1  0.715100  0.253180  0.109620  1.0  -0.5917
  O  O264  1  0.280500  0.267080  0.044920  1.0  -0.5942
  O  O265  1  0.444100  0.368750  0.037480  1.0  -0.5389
  O  O266  1  0.598300  0.268160  0.040720  1.0  -0.5819
  O  O267  1  0.314000  0.404040  0.193530  1.0  -0.574
  O  O268  1  0.458400  0.417550  0.102280  1.0  -0.5997
  O  O269  1  0.627600  0.397840  0.191710  1.0  -0.5695
  O  O270  1  0.986700  0.192100  0.738580  1.0  -0.5541
  O  O271  1  0.959500  0.195430  0.636130  1.0  -1.1833
  O  O272  1  0.697800  0.164520  0.667120  1.0  -0.5937
  O  O273  1  0.689200  0.254900  0.612870  1.0  -0.5804
  O  O274  1  0.912000  0.305880  0.662140  1.0  -0.5913
  O  O275  1  0.812300  0.241060  0.733510  1.0  -0.5932
  O  O276  1  0.240800  0.176300  0.690380  1.0  -0.5815
  O  O277  1  0.109300  0.292290  0.698010  1.0  -0.5865
  O  O278  1  0.215100  0.246820  0.609620  1.0  -0.5915
  O  O279  1  0.780500  0.232920  0.544920  1.0  -0.5944
  O  O280  1  0.944100  0.131250  0.537480  1.0  -0.5393
  O  O281  1  0.098300  0.231840  0.540720  1.0  -0.5824
  O  O282  1  0.814000  0.095960  0.693530  1.0  -0.5739
  O  O283  1  0.958400  0.082450  0.602280  1.0  -0.6006
  O  O284  1  0.127600  0.102160  0.691710  1.0  -0.5696
  O  O285  1  0.486700  0.307900  0.238580  1.0  -0.5552
  O  O286  1  0.540500  0.695430  0.863870  1.0  -1.1834
  O  O287  1  0.802200  0.664520  0.832880  1.0  -0.5931
  O  O288  1  0.810800  0.754900  0.887130  1.0  -0.5805
  O  O289  1  0.588000  0.805880  0.837860  1.0  -0.592
  O  O290  1  0.687700  0.741060  0.766490  1.0  -0.5961
  O  O291  1  0.259200  0.676300  0.809620  1.0  -0.5825
  O  O292  1  0.390700  0.792290  0.801990  1.0  -0.5877
  O  O293  1  0.284900  0.746820  0.890380  1.0  -0.5903
  O  O294  1  0.719500  0.732920  0.955080  1.0  -0.5957
  O  O295  1  0.555900  0.631250  0.962520  1.0  -0.5394
  O  O296  1  0.401700  0.731840  0.959280  1.0  -0.5821
  O  O297  1  0.686000  0.595960  0.806470  1.0  -0.5733
  O  O298  1  0.541600  0.582450  0.897720  1.0  -0.6
  O  O299  1  0.372400  0.602160  0.808290  1.0  -0.5695
  O  O300  1  0.013300  0.807900  0.261420  1.0  -0.5543
