# generated using pymatgen
data_Zn4H17C32O15
_symmetry_space_group_name_H-M   'P 1'
_cell_length_a   10.31600000
_cell_length_b   26.09600000
_cell_length_c   27.88900000
_cell_angle_alpha   90.00000000
_cell_angle_beta   93.78000000
_cell_angle_gamma   90.00000000
_symmetry_Int_Tables_number   1
_chemical_formula_structural   Zn4H17C32O15
_chemical_formula_sum   'Zn16 H68 C128 O60'
_cell_volume   7491.56238929
_cell_formula_units_Z   4
loop_
 _symmetry_equiv_pos_site_id
 _symmetry_equiv_pos_as_xyz
  1  'x, y, z'
loop_
 _atom_site_type_symbol
 _atom_site_label
 _atom_site_symmetry_multiplicity
 _atom_site_fract_x
 _atom_site_fract_y
 _atom_site_fract_z
 _atom_site_occupancy
 _atom_site_charge
  Zn  Zn1  1  0.118180  0.258190  0.665610  1.0  1.0607
  Zn  Zn2  1  0.823890  0.253040  0.661050  1.0  1.0713
  Zn  Zn3  1  0.967880  0.359230  0.659130  1.0  1.0265
  Zn  Zn4  1  0.952200  0.285010  0.565650  1.0  1.09
  Zn  Zn5  1  0.381820  0.758190  0.834390  1.0  1.06
  Zn  Zn6  1  0.676110  0.753040  0.838950  1.0  1.07
  Zn  Zn7  1  0.532120  0.859230  0.840870  1.0  1.0266
  Zn  Zn8  1  0.547800  0.785010  0.934350  1.0  1.0868
  Zn  Zn9  1  0.881820  0.741810  0.334390  1.0  1.0594
  Zn  Zn10  1  0.176110  0.746960  0.338950  1.0  1.0706
  Zn  Zn11  1  0.032120  0.640770  0.340870  1.0  1.0273
  Zn  Zn12  1  0.047800  0.714990  0.434350  1.0  1.0865
  Zn  Zn13  1  0.618180  0.241810  0.165610  1.0  1.0612
  Zn  Zn14  1  0.323890  0.246960  0.161050  1.0  1.0724
  Zn  Zn15  1  0.467880  0.140770  0.159130  1.0  1.0275
  Zn  Zn16  1  0.452200  0.214990  0.065650  1.0  1.0901
  H  H17  1  0.453200  0.234300  0.595400  1.0  0.1265
  H  H18  1  0.242300  0.237900  0.470200  1.0  0.1228
  H  H19  1  0.633100  0.232700  0.473000  1.0  0.1239
  H  H20  1  0.265800  0.273000  0.396500  1.0  0.1287
  H  H21  1  0.256300  0.271000  0.314100  1.0  0.1188
  H  H22  1  0.593300  0.195000  0.319400  1.0  0.121
  H  H23  1  0.590700  0.191000  0.402100  1.0  0.1242
  H  H24  1  0.847300  0.455600  0.521500  1.0  0.1636
  H  H25  1  0.961600  0.433600  0.492300  1.0  0.144
  H  H26  1  0.993400  0.469500  0.537400  1.0  0.142
  H  H27  1  0.480000  0.328500  0.679300  1.0  0.1298
  H  H28  1  0.675200  0.454800  0.725900  1.0  0.1185
  H  H29  1  0.286600  0.449900  0.728500  1.0  0.1228
  H  H30  1  0.663900  0.509200  0.787600  1.0  0.1321
  H  H31  1  0.658700  0.590000  0.821900  1.0  0.1194
  H  H32  1  0.307700  0.615200  0.759100  1.0  0.1276
  H  H33  1  0.309300  0.536400  0.724300  1.0  0.125
  H  H34  1  0.046800  0.734300  0.904600  1.0  0.1265
  H  H35  1  0.257700  0.737900  0.029800  1.0  0.1229
  H  H36  1  0.866900  0.732700  0.027000  1.0  0.1243
  H  H37  1  0.234200  0.773000  0.103500  1.0  0.1283
  H  H38  1  0.243700  0.771000  0.185900  1.0  0.1187
  H  H39  1  0.906700  0.695000  0.180600  1.0  0.1209
  H  H40  1  0.909300  0.691000  0.097900  1.0  0.1242
  H  H41  1  0.652700  0.955600  0.978500  1.0  0.1626
  H  H42  1  0.538400  0.933600  0.007700  1.0  0.1456
  H  H43  1  0.506600  0.969500  0.962600  1.0  0.1407
  H  H44  1  0.020000  0.828500  0.820700  1.0  0.1297
  H  H45  1  0.824800  0.954800  0.774100  1.0  0.1188
  H  H46  1  0.213400  0.949900  0.771500  1.0  0.1226
  H  H47  1  0.836100  0.009200  0.712400  1.0  0.132
  H  H48  1  0.841300  0.090000  0.678100  1.0  0.1188
  H  H49  1  0.192300  0.115200  0.740900  1.0  0.1269
  H  H50  1  0.190700  0.036400  0.775700  1.0  0.1246
  H  H51  1  0.546800  0.765700  0.404600  1.0  0.1264
  H  H52  1  0.757700  0.762100  0.529800  1.0  0.1225
  H  H53  1  0.366900  0.767300  0.527000  1.0  0.1241
  H  H54  1  0.734200  0.727000  0.603500  1.0  0.1278
  H  H55  1  0.743700  0.729000  0.685900  1.0  0.1187
  H  H56  1  0.406700  0.805000  0.680600  1.0  0.1206
  H  H57  1  0.409300  0.809000  0.597900  1.0  0.1248
  H  H58  1  0.152700  0.544400  0.478500  1.0  0.1624
  H  H59  1  0.038400  0.566400  0.507700  1.0  0.1449
  H  H60  1  0.006600  0.530500  0.462600  1.0  0.1417
  H  H61  1  0.520000  0.671500  0.320700  1.0  0.1293
  H  H62  1  0.324800  0.545200  0.274100  1.0  0.1188
  H  H63  1  0.713400  0.550100  0.271500  1.0  0.1224
  H  H64  1  0.336100  0.490800  0.212400  1.0  0.1321
  H  H65  1  0.341300  0.410000  0.178100  1.0  0.119
  H  H66  1  0.692300  0.384800  0.240900  1.0  0.1269
  H  H67  1  0.690700  0.463600  0.275700  1.0  0.1247
  H  H68  1  0.953200  0.265700  0.095400  1.0  0.1261
  H  H69  1  0.742300  0.262100  0.970200  1.0  0.1229
  H  H70  1  0.133100  0.267300  0.973000  1.0  0.124
  H  H71  1  0.765800  0.227000  0.896500  1.0  0.1283
  H  H72  1  0.756300  0.229000  0.814100  1.0  0.1186
  H  H73  1  0.093300  0.305000  0.819400  1.0  0.1212
  H  H74  1  0.090700  0.309000  0.902100  1.0  0.1242
  H  H75  1  0.347300  0.044400  0.021500  1.0  0.1641
  H  H76  1  0.461600  0.066400  0.992300  1.0  0.1433
  H  H77  1  0.493400  0.030500  0.037400  1.0  0.1419
  H  H78  1  0.980000  0.171500  0.179300  1.0  0.1297
  H  H79  1  0.175200  0.045200  0.225900  1.0  0.1185
  H  H80  1  0.786600  0.050100  0.228500  1.0  0.1229
  H  H81  1  0.163900  0.990800  0.287600  1.0  0.1321
  H  H82  1  0.158700  0.910000  0.321900  1.0  0.1191
  H  H83  1  0.807700  0.884800  0.259100  1.0  0.1273
  H  H84  1  0.809300  0.963600  0.224300  1.0  0.1251
  C  C85  1  0.691600  0.238370  0.566860  1.0  0.7254
  C  C86  1  0.561500  0.235120  0.538050  1.0  -0.1511
  C  C87  1  0.449000  0.235820  0.561690  1.0  0.0341
  C  C88  1  0.330200  0.238660  0.536380  1.0  -0.1456
  C  C89  1  0.323800  0.237000  0.487360  1.0  -0.0554
  C  C90  1  0.438200  0.233900  0.461780  1.0  0.0519
  C  C91  1  0.555500  0.233800  0.488820  1.0  -0.0655
  C  C92  1  0.207600  0.243170  0.563280  1.0  0.738
  C  C93  1  0.432600  0.233500  0.408520  1.0  0.045
  C  C94  1  0.332100  0.256300  0.381000  1.0  -0.129
  C  C95  1  0.326300  0.255200  0.331700  1.0  -0.0606
  C  C96  1  0.422100  0.231100  0.307370  1.0  -0.0917
  C  C97  1  0.523600  0.209500  0.334700  1.0  -0.0644
  C  C98  1  0.524400  0.208900  0.384500  1.0  -0.1323
  C  C99  1  0.418800  0.230200  0.253700  1.0  0.6912
  C  C100  1  0.944400  0.396500  0.556400  1.0  0.6793
  C  C101  1  0.935900  0.442900  0.524000  1.0  -0.3742
  C  C102  1  0.241600  0.357670  0.690990  1.0  0.7168
  C  C103  1  0.364800  0.385040  0.703010  1.0  -0.1454
  C  C104  1  0.480000  0.362010  0.691770  1.0  0.0103
  C  C105  1  0.596600  0.389320  0.699220  1.0  -0.1273
  C  C106  1  0.596100  0.437320  0.720150  1.0  -0.0554
  C  C107  1  0.482500  0.460520  0.732900  1.0  0.0172
  C  C108  1  0.365700  0.434150  0.722380  1.0  -0.0814
  C  C109  1  0.717200  0.363820  0.683350  1.0  0.6943
  C  C110  1  0.484000  0.512030  0.753170  1.0  0.0986
  C  C111  1  0.590300  0.530000  0.781800  1.0  -0.1521
  C  C112  1  0.587400  0.578800  0.801900  1.0  -0.0345
  C  C113  1  0.483800  0.610730  0.793360  1.0  -0.1373
  C  C114  1  0.380400  0.593800  0.764900  1.0  -0.0519
  C  C115  1  0.381000  0.546400  0.744700  1.0  -0.1181
  C  C116  1  0.486200  0.664250  0.814420  1.0  0.7167
  C  C117  1  0.808400  0.738370  0.933140  1.0  0.7262
  C  C118  1  0.938500  0.735120  0.961950  1.0  -0.1512
  C  C119  1  0.051000  0.735820  0.938310  1.0  0.0361
  C  C120  1  0.169800  0.738660  0.963620  1.0  -0.145
  C  C121  1  0.176200  0.737000  0.012640  1.0  -0.0543
  C  C122  1  0.061800  0.733900  0.038220  1.0  0.0517
  C  C123  1  0.944500  0.733800  0.011180  1.0  -0.0666
  C  C124  1  0.292400  0.743170  0.936720  1.0  0.7376
  C  C125  1  0.067400  0.733500  0.091480  1.0  0.0444
  C  C126  1  0.167900  0.756300  0.119000  1.0  -0.1283
  C  C127  1  0.173700  0.755200  0.168300  1.0  -0.0591
  C  C128  1  0.077900  0.731100  0.192630  1.0  -0.0919
  C  C129  1  0.976400  0.709500  0.165300  1.0  -0.0643
  C  C130  1  0.975600  0.708900  0.115500  1.0  -0.1321
  C  C131  1  0.081200  0.730200  0.246300  1.0  0.6911
  C  C132  1  0.555600  0.896500  0.943600  1.0  0.6778
  C  C133  1  0.564100  0.942900  0.976000  1.0  -0.374
  C  C134  1  0.258400  0.857670  0.809010  1.0  0.7161
  C  C135  1  0.135200  0.885040  0.796990  1.0  -0.1451
  C  C136  1  0.020000  0.862010  0.808230  1.0  0.0102
  C  C137  1  0.903400  0.889320  0.800780  1.0  -0.1286
  C  C138  1  0.903900  0.937320  0.779850  1.0  -0.0579
  C  C139  1  0.017500  0.960520  0.767100  1.0  0.0182
  C  C140  1  0.134300  0.934150  0.777620  1.0  -0.0793
  C  C141  1  0.782800  0.863820  0.816650  1.0  0.695
  C  C142  1  0.016000  0.012030  0.746830  1.0  0.0986
  C  C143  1  0.909700  0.030000  0.718200  1.0  -0.1535
  C  C144  1  0.912600  0.078800  0.698100  1.0  -0.0354
  C  C145  1  0.016200  0.110730  0.706640  1.0  -0.1375
  C  C146  1  0.119600  0.093800  0.735100  1.0  -0.0517
  C  C147  1  0.119000  0.046400  0.755300  1.0  -0.1179
  C  C148  1  0.013800  0.164250  0.685580  1.0  0.7168
  C  C149  1  0.308400  0.761630  0.433140  1.0  0.7257
  C  C150  1  0.438500  0.764880  0.461950  1.0  -0.1504
  C  C151  1  0.551000  0.764180  0.438310  1.0  0.0357
  C  C152  1  0.669800  0.761340  0.463620  1.0  -0.1447
  C  C153  1  0.676200  0.763000  0.512640  1.0  -0.054
  C  C154  1  0.561800  0.766100  0.538220  1.0  0.0516
  C  C155  1  0.444500  0.766200  0.511180  1.0  -0.0665
  C  C156  1  0.792400  0.756830  0.436720  1.0  0.7372
  C  C157  1  0.567400  0.766500  0.591480  1.0  0.0442
  C  C158  1  0.667900  0.743700  0.619000  1.0  -0.1272
  C  C159  1  0.673700  0.744800  0.668300  1.0  -0.0592
  C  C160  1  0.577900  0.768900  0.692630  1.0  -0.0919
  C  C161  1  0.476400  0.790500  0.665300  1.0  -0.0649
  C  C162  1  0.475600  0.791100  0.615500  1.0  -0.1335
  C  C163  1  0.581200  0.769800  0.746300  1.0  0.6913
  C  C164  1  0.055600  0.603500  0.443600  1.0  0.6782
  C  C165  1  0.064100  0.557100  0.476000  1.0  -0.3732
  C  C166  1  0.758400  0.642330  0.309010  1.0  0.7168
  C  C167  1  0.635200  0.614960  0.296990  1.0  -0.1452
  C  C168  1  0.520000  0.637990  0.308230  1.0  0.0097
  C  C169  1  0.403400  0.610680  0.300780  1.0  -0.1284
  C  C170  1  0.403900  0.562680  0.279850  1.0  -0.0578
  C  C171  1  0.517500  0.539480  0.267100  1.0  0.0181
  C  C172  1  0.634300  0.565850  0.277620  1.0  -0.0791
  C  C173  1  0.282800  0.636180  0.316650  1.0  0.6951
  C  C174  1  0.516000  0.487970  0.246830  1.0  0.099
  C  C175  1  0.409700  0.470000  0.218200  1.0  -0.1534
  C  C176  1  0.412600  0.421200  0.198100  1.0  -0.0359
  C  C177  1  0.516200  0.389270  0.206640  1.0  -0.138
  C  C178  1  0.619600  0.406200  0.235100  1.0  -0.0527
  C  C179  1  0.619000  0.453600  0.255300  1.0  -0.1176
  C  C180  1  0.513800  0.335750  0.185580  1.0  0.7167
  C  C181  1  0.191600  0.261630  0.066860  1.0  0.7251
  C  C182  1  0.061500  0.264880  0.038050  1.0  -0.1508
  C  C183  1  0.949000  0.264180  0.061690  1.0  0.0344
  C  C184  1  0.830200  0.261340  0.036380  1.0  -0.145
  C  C185  1  0.823800  0.263000  0.987360  1.0  -0.0557
  C  C186  1  0.938200  0.266100  0.961780  1.0  0.0517
  C  C187  1  0.055500  0.266200  0.988820  1.0  -0.0655
  C  C188  1  0.707600  0.256830  0.063280  1.0  0.7378
  C  C189  1  0.932600  0.266500  0.908520  1.0  0.0448
  C  C190  1  0.832100  0.243700  0.881000  1.0  -0.1276
  C  C191  1  0.826300  0.244800  0.831700  1.0  -0.0611
  C  C192  1  0.922100  0.268900  0.807370  1.0  -0.0916
  C  C193  1  0.023600  0.290500  0.834700  1.0  -0.0647
  C  C194  1  0.024400  0.291100  0.884500  1.0  -0.1342
  C  C195  1  0.918800  0.269800  0.753700  1.0  0.6912
  C  C196  1  0.444400  0.103500  0.056400  1.0  0.6796
  C  C197  1  0.435900  0.057100  0.024000  1.0  -0.3731
  C  C198  1  0.741600  0.142330  0.190990  1.0  0.7175
  C  C199  1  0.864800  0.114960  0.203010  1.0  -0.1454
  C  C200  1  0.980000  0.137990  0.191770  1.0  0.0094
  C  C201  1  0.096600  0.110680  0.199220  1.0  -0.1269
  C  C202  1  0.096100  0.062680  0.220150  1.0  -0.0556
  C  C203  1  0.982500  0.039480  0.232900  1.0  0.0173
  C  C204  1  0.865700  0.065850  0.222380  1.0  -0.0814
  C  C205  1  0.217200  0.136180  0.183350  1.0  0.6943
  C  C206  1  0.984000  0.987970  0.253170  1.0  0.099
  C  C207  1  0.090300  0.970000  0.281800  1.0  -0.1519
  C  C208  1  0.087400  0.921200  0.301900  1.0  -0.0348
  C  C209  1  0.983800  0.889270  0.293360  1.0  -0.137
  C  C210  1  0.880400  0.906200  0.264900  1.0  -0.0526
  C  C211  1  0.881000  0.953600  0.244700  1.0  -0.1177
  C  C212  1  0.986200  0.835750  0.314420  1.0  0.7164
  O  O213  1  0.966300  0.290170  0.633490  1.0  -1.1667
  O  O214  1  0.787600  0.251980  0.543210  1.0  -0.6074
  O  O215  1  0.692300  0.230410  0.610690  1.0  -0.5852
  O  O216  1  0.218900  0.236640  0.607160  1.0  -0.6008
  O  O217  1  0.104000  0.254420  0.538310  1.0  -0.5683
  O  O218  1  0.324000  0.251640  0.231290  1.0  -0.5691
  O  O219  1  0.511600  0.210600  0.235390  1.0  -0.6543
  O  O220  1  0.136400  0.382780  0.687290  1.0  -0.5809
  O  O221  1  0.250100  0.309010  0.685510  1.0  -0.6013
  O  O222  1  0.707500  0.321530  0.663880  1.0  -0.5927
  O  O223  1  0.824100  0.388510  0.691550  1.0  -0.5836
  O  O224  1  0.584600  0.679140  0.838840  1.0  -0.5943
  O  O225  1  0.384300  0.691810  0.805220  1.0  -0.5742
  O  O226  1  0.958800  0.403810  0.599690  1.0  -0.609
  O  O227  1  0.940400  0.353560  0.536150  1.0  -0.591
  O  O228  1  0.533700  0.790170  0.866510  1.0  -1.1676
  O  O229  1  0.712400  0.751980  0.956790  1.0  -0.6089
  O  O230  1  0.807700  0.730410  0.889310  1.0  -0.5842
  O  O231  1  0.281100  0.736640  0.892840  1.0  -0.6014
  O  O232  1  0.396000  0.754420  0.961690  1.0  -0.5689
  O  O233  1  0.176000  0.751640  0.268710  1.0  -0.5689
  O  O234  1  0.988400  0.710600  0.264610  1.0  -0.6539
  O  O235  1  0.363600  0.882780  0.812710  1.0  -0.5803
  O  O236  1  0.249900  0.809010  0.814490  1.0  -0.6008
  O  O237  1  0.792500  0.821530  0.836120  1.0  -0.5922
  O  O238  1  0.675900  0.888510  0.808450  1.0  -0.5845
  O  O239  1  0.915400  0.179140  0.661160  1.0  -0.5938
  O  O240  1  0.115700  0.191810  0.694780  1.0  -0.5749
  O  O241  1  0.541200  0.903810  0.900310  1.0  -0.6088
  O  O242  1  0.559600  0.853560  0.963850  1.0  -0.5933
  O  O243  1  0.033700  0.709830  0.366510  1.0  -1.1677
  O  O244  1  0.212400  0.748020  0.456790  1.0  -0.6098
  O  O245  1  0.307700  0.769590  0.389310  1.0  -0.5851
  O  O246  1  0.781100  0.763360  0.392840  1.0  -0.6029
  O  O247  1  0.896000  0.745580  0.461690  1.0  -0.5691
  O  O248  1  0.676000  0.748360  0.768710  1.0  -0.5693
  O  O249  1  0.488400  0.789400  0.764610  1.0  -0.6535
  O  O250  1  0.863600  0.617220  0.312710  1.0  -0.5796
  O  O251  1  0.749900  0.690990  0.314490  1.0  -0.6018
  O  O252  1  0.292500  0.678470  0.336120  1.0  -0.5919
  O  O253  1  0.175900  0.611490  0.308450  1.0  -0.5824
  O  O254  1  0.415400  0.320860  0.161160  1.0  -0.5944
  O  O255  1  0.615700  0.308190  0.194780  1.0  -0.5744
  O  O256  1  0.041200  0.596190  0.400310  1.0  -0.6088
  O  O257  1  0.059600  0.646440  0.463850  1.0  -0.5925
  O  O258  1  0.466300  0.209830  0.133490  1.0  -1.1668
  O  O259  1  0.287600  0.248020  0.043210  1.0  -0.6078
  O  O260  1  0.192300  0.269590  0.110690  1.0  -0.5859
  O  O261  1  0.718900  0.263360  0.107160  1.0  -0.6018
  O  O262  1  0.604000  0.245580  0.038310  1.0  -0.5684
  O  O263  1  0.824000  0.248360  0.731290  1.0  -0.5683
  O  O264  1  0.011600  0.289400  0.735390  1.0  -0.6538
  O  O265  1  0.636400  0.117220  0.187290  1.0  -0.5805
  O  O266  1  0.750100  0.190990  0.185510  1.0  -0.6015
  O  O267  1  0.207500  0.178470  0.163880  1.0  -0.5921
  O  O268  1  0.324100  0.111490  0.191550  1.0  -0.5836
  O  O269  1  0.084600  0.820860  0.338840  1.0  -0.5946
  O  O270  1  0.884300  0.808190  0.305220  1.0  -0.5747
  O  O271  1  0.458800  0.096190  0.099690  1.0  -0.6087
  O  O272  1  0.440400  0.146440  0.036150  1.0  -0.5925
