# generated using pymatgen
data_LaH15C24(NO)6
_symmetry_space_group_name_H-M   'P 1'
_cell_length_a   24.43400000
_cell_length_b   18.36400000
_cell_length_c   8.25900000
_cell_angle_alpha   90.00000000
_cell_angle_beta   101.72000000
_cell_angle_gamma   90.00000000
_symmetry_Int_Tables_number   1
_chemical_formula_structural   LaH15C24(NO)6
_chemical_formula_sum   'La4 H60 C96 N24 O24'
_cell_volume   3628.60270086
_cell_formula_units_Z   4
loop_
 _symmetry_equiv_pos_site_id
 _symmetry_equiv_pos_as_xyz
  1  'x, y, z'
loop_
 _atom_site_type_symbol
 _atom_site_label
 _atom_site_symmetry_multiplicity
 _atom_site_fract_x
 _atom_site_fract_y
 _atom_site_fract_z
 _atom_site_occupancy
 _atom_site_charge
  La  La1  1  0.747370  0.486040  0.803960  1.0  2.1631
  La  La2  1  0.247370  0.986040  0.803960  1.0  2.1631
  La  La3  1  0.747370  0.513960  0.303960  1.0  2.163
  La  La4  1  0.247370  0.013960  0.303960  1.0  2.163
  H  H5  1  0.319300  0.371000  0.047600  1.0  0.1124
  H  H6  1  0.413900  0.234200  0.848700  1.0  0.1175
  H  H7  1  0.509800  0.471200  0.709500  1.0  0.1025
  H  H8  1  0.585800  0.452600  0.586600  1.0  0.1138
  H  H9  1  0.596900  0.666400  0.517400  1.0  0.1218
  H  H10  1  0.517000  0.683100  0.619200  1.0  0.1105
  H  H11  1  0.272000  0.269300  0.130200  1.0  0.1081
  H  H12  1  0.367200  0.137000  0.926200  1.0  0.1106
  H  H13  1  0.328500  0.816700  0.992600  1.0  0.1154
  H  H14  1  0.351700  0.702700  0.926700  1.0  0.104
  H  H15  1  0.208900  0.736400  0.206700  1.0  0.1164
  H  H16  1  0.233000  0.622500  0.141400  1.0  0.1133
  H  H17  1  0.421800  0.354300  0.818700  1.0  0.2763
  H  H18  1  0.287800  0.545600  0.038300  1.0  0.2871
  H  H19  1  0.458200  0.642300  0.774800  1.0  0.2801
  H  H20  1  0.819300  0.871000  0.047600  1.0  0.1124
  H  H21  1  0.913900  0.734200  0.848700  1.0  0.1175
  H  H22  1  0.009800  0.971200  0.709500  1.0  0.1025
  H  H23  1  0.085800  0.952600  0.586600  1.0  0.1138
  H  H24  1  0.096900  0.166400  0.517400  1.0  0.1218
  H  H25  1  0.017000  0.183100  0.619200  1.0  0.1105
  H  H26  1  0.772000  0.769300  0.130200  1.0  0.1081
  H  H27  1  0.867200  0.637000  0.926200  1.0  0.1106
  H  H28  1  0.828500  0.316700  0.992600  1.0  0.1154
  H  H29  1  0.851700  0.202700  0.926700  1.0  0.104
  H  H30  1  0.708900  0.236400  0.206700  1.0  0.1164
  H  H31  1  0.733000  0.122500  0.141400  1.0  0.1133
  H  H32  1  0.921800  0.854300  0.818700  1.0  0.2763
  H  H33  1  0.787800  0.045600  0.038300  1.0  0.2871
  H  H34  1  0.958200  0.142300  0.774800  1.0  0.2801
  H  H35  1  0.319300  0.629000  0.547600  1.0  0.1126
  H  H36  1  0.413900  0.765800  0.348700  1.0  0.1178
  H  H37  1  0.509800  0.528800  0.209500  1.0  0.1024
  H  H38  1  0.585800  0.547400  0.086600  1.0  0.1127
  H  H39  1  0.596900  0.333600  0.017400  1.0  0.1204
  H  H40  1  0.517000  0.316900  0.119200  1.0  0.111
  H  H41  1  0.272000  0.730700  0.630200  1.0  0.1082
  H  H42  1  0.367200  0.863000  0.426200  1.0  0.1103
  H  H43  1  0.328500  0.183300  0.492600  1.0  0.1153
  H  H44  1  0.351700  0.297300  0.426700  1.0  0.1034
  H  H45  1  0.208900  0.263600  0.706700  1.0  0.1163
  H  H46  1  0.233000  0.377500  0.641400  1.0  0.1139
  H  H47  1  0.421800  0.645700  0.318700  1.0  0.2759
  H  H48  1  0.287800  0.454400  0.538300  1.0  0.2874
  H  H49  1  0.458200  0.357700  0.274800  1.0  0.2843
  H  H50  1  0.819300  0.129000  0.547600  1.0  0.1126
  H  H51  1  0.913900  0.265800  0.348700  1.0  0.1178
  H  H52  1  0.009800  0.028800  0.209500  1.0  0.1024
  H  H53  1  0.085800  0.047400  0.086600  1.0  0.1127
  H  H54  1  0.096900  0.833600  0.017400  1.0  0.1204
  H  H55  1  0.017000  0.816900  0.119200  1.0  0.111
  H  H56  1  0.772000  0.230700  0.630200  1.0  0.1082
  H  H57  1  0.867200  0.363000  0.426200  1.0  0.1103
  H  H58  1  0.828500  0.683300  0.492600  1.0  0.1153
  H  H59  1  0.851700  0.797300  0.426700  1.0  0.1034
  H  H60  1  0.708900  0.763600  0.706700  1.0  0.1163
  H  H61  1  0.733000  0.877500  0.641400  1.0  0.1139
  H  H62  1  0.921800  0.145700  0.318700  1.0  0.2759
  H  H63  1  0.787800  0.954400  0.538300  1.0  0.2874
  H  H64  1  0.958200  0.857700  0.274800  1.0  0.2843
  C  C65  1  0.350600  0.545200  0.939200  1.0  0.6817
  C  C66  1  0.389600  0.441800  0.875300  1.0  0.3087
  C  C67  1  0.426300  0.550600  0.821300  1.0  0.3971
  C  C68  1  0.296100  0.649100  0.028300  1.0  0.231
  C  C69  1  0.370400  0.313700  0.933600  1.0  0.2812
  C  C70  1  0.329000  0.324100  0.021600  1.0  -0.1658
  C  C71  1  0.384800  0.242400  0.903700  1.0  -0.2057
  C  C72  1  0.506200  0.579500  0.685900  1.0  0.2927
  C  C73  1  0.526700  0.511000  0.670200  1.0  -0.1666
  C  C74  1  0.572700  0.499600  0.596000  1.0  -0.0774
  C  C75  1  0.598800  0.557200  0.537100  1.0  -0.1158
  C  C76  1  0.578900  0.626500  0.552100  1.0  -0.0944
  C  C77  1  0.532000  0.636500  0.618900  1.0  -0.1597
  C  C78  1  0.648300  0.544500  0.464000  1.0  0.6761
  C  C79  1  0.284000  0.131600  0.088400  1.0  0.6951
  C  C80  1  0.315600  0.192800  0.040300  1.0  -0.1099
  C  C81  1  0.300700  0.262000  0.073500  1.0  -0.0582
  C  C82  1  0.357400  0.183800  0.952700  1.0  -0.0693
  C  C83  1  0.250400  0.865200  0.146300  1.0  0.6909
  C  C84  1  0.263500  0.790300  0.098500  1.0  -0.0353
  C  C85  1  0.308300  0.777400  0.020200  1.0  -0.057
  C  C86  1  0.322900  0.709000  0.983500  1.0  -0.121
  C  C87  1  0.237200  0.730200  0.147900  1.0  -0.102
  C  C88  1  0.252400  0.662100  0.110800  1.0  -0.1566
  C  C89  1  0.850600  0.045200  0.939200  1.0  0.6817
  C  C90  1  0.889600  0.941800  0.875300  1.0  0.3087
  C  C91  1  0.926300  0.050600  0.821300  1.0  0.3971
  C  C92  1  0.796100  0.149100  0.028300  1.0  0.231
  C  C93  1  0.870400  0.813700  0.933600  1.0  0.2812
  C  C94  1  0.829000  0.824100  0.021600  1.0  -0.1658
  C  C95  1  0.884800  0.742400  0.903700  1.0  -0.2057
  C  C96  1  0.006200  0.079500  0.685900  1.0  0.2927
  C  C97  1  0.026700  0.011000  0.670200  1.0  -0.1666
  C  C98  1  0.072700  0.999600  0.596000  1.0  -0.0774
  C  C99  1  0.098800  0.057200  0.537100  1.0  -0.1158
  C  C100  1  0.078900  0.126500  0.552100  1.0  -0.0944
  C  C101  1  0.032000  0.136500  0.618900  1.0  -0.1597
  C  C102  1  0.148300  0.044500  0.464000  1.0  0.6761
  C  C103  1  0.784000  0.631600  0.088400  1.0  0.6951
  C  C104  1  0.815600  0.692800  0.040300  1.0  -0.1099
  C  C105  1  0.800700  0.762000  0.073500  1.0  -0.0582
  C  C106  1  0.857400  0.683800  0.952700  1.0  -0.0693
  C  C107  1  0.750400  0.365200  0.146300  1.0  0.6909
  C  C108  1  0.763500  0.290300  0.098500  1.0  -0.0353
  C  C109  1  0.808300  0.277400  0.020200  1.0  -0.057
  C  C110  1  0.822900  0.209000  0.983500  1.0  -0.121
  C  C111  1  0.737200  0.230200  0.147900  1.0  -0.102
  C  C112  1  0.752400  0.162100  0.110800  1.0  -0.1566
  C  C113  1  0.350600  0.454800  0.439200  1.0  0.6817
  C  C114  1  0.389600  0.558200  0.375300  1.0  0.3084
  C  C115  1  0.426300  0.449400  0.321300  1.0  0.3956
  C  C116  1  0.296100  0.350900  0.528300  1.0  0.2305
  C  C117  1  0.370400  0.686300  0.433600  1.0  0.281
  C  C118  1  0.329000  0.675900  0.521600  1.0  -0.1649
  C  C119  1  0.384800  0.757600  0.403700  1.0  -0.2053
  C  C120  1  0.506200  0.420500  0.185900  1.0  0.2933
  C  C121  1  0.526700  0.489000  0.170200  1.0  -0.1689
  C  C122  1  0.572700  0.500400  0.096000  1.0  -0.0771
  C  C123  1  0.598800  0.442800  0.037100  1.0  -0.1157
  C  C124  1  0.578900  0.373500  0.052100  1.0  -0.0966
  C  C125  1  0.532000  0.363500  0.118900  1.0  -0.1616
  C  C126  1  0.648300  0.455500  0.964000  1.0  0.6763
  C  C127  1  0.284000  0.868400  0.588400  1.0  0.6942
  C  C128  1  0.315600  0.807200  0.540300  1.0  -0.1097
  C  C129  1  0.300700  0.738000  0.573500  1.0  -0.0583
  C  C130  1  0.357400  0.816200  0.452700  1.0  -0.0697
  C  C131  1  0.250400  0.134800  0.646300  1.0  0.6912
  C  C132  1  0.263500  0.209700  0.598500  1.0  -0.0366
  C  C133  1  0.308300  0.222600  0.520200  1.0  -0.0584
  C  C134  1  0.322900  0.291000  0.483500  1.0  -0.1213
  C  C135  1  0.237200  0.269800  0.647900  1.0  -0.1017
  C  C136  1  0.252400  0.337900  0.610800  1.0  -0.1564
  C  C137  1  0.850600  0.954800  0.439200  1.0  0.6817
  C  C138  1  0.889600  0.058200  0.375300  1.0  0.3084
  C  C139  1  0.926300  0.949400  0.321300  1.0  0.3956
  C  C140  1  0.796100  0.850900  0.528300  1.0  0.2305
  C  C141  1  0.870400  0.186300  0.433600  1.0  0.281
  C  C142  1  0.829000  0.175900  0.521600  1.0  -0.1649
  C  C143  1  0.884800  0.257600  0.403700  1.0  -0.2053
  C  C144  1  0.006200  0.920500  0.185900  1.0  0.2933
  C  C145  1  0.026700  0.989000  0.170200  1.0  -0.1689
  C  C146  1  0.072700  0.000400  0.096000  1.0  -0.0771
  C  C147  1  0.098800  0.942800  0.037100  1.0  -0.1157
  C  C148  1  0.078900  0.873500  0.052100  1.0  -0.0966
  C  C149  1  0.032000  0.863500  0.118900  1.0  -0.1616
  C  C150  1  0.148300  0.955500  0.964000  1.0  0.6763
  C  C151  1  0.784000  0.368400  0.588400  1.0  0.6942
  C  C152  1  0.815600  0.307200  0.540300  1.0  -0.1097
  C  C153  1  0.800700  0.238000  0.573500  1.0  -0.0583
  C  C154  1  0.857400  0.316200  0.452700  1.0  -0.0697
  C  C155  1  0.750400  0.634800  0.646300  1.0  0.6912
  C  C156  1  0.763500  0.709700  0.598500  1.0  -0.0366
  C  C157  1  0.808300  0.722600  0.520200  1.0  -0.0584
  C  C158  1  0.822900  0.791000  0.483500  1.0  -0.1213
  C  C159  1  0.737200  0.769800  0.647900  1.0  -0.1017
  C  C160  1  0.752400  0.837900  0.610800  1.0  -0.1564
  N  N161  1  0.428900  0.479200  0.807400  1.0  -0.5782
  N  N162  1  0.388400  0.587600  0.890600  1.0  -0.5622
  N  N163  1  0.350000  0.472400  0.936800  1.0  -0.4829
  N  N164  1  0.396500  0.368200  0.870600  1.0  -0.3346
  N  N165  1  0.309600  0.576400  0.004800  1.0  -0.3204
  N  N166  1  0.463200  0.596500  0.761700  1.0  -0.3329
  N  N167  1  0.928900  0.979200  0.807400  1.0  -0.5782
  N  N168  1  0.888400  0.087600  0.890600  1.0  -0.5622
  N  N169  1  0.850000  0.972400  0.936800  1.0  -0.4829
  N  N170  1  0.896500  0.868200  0.870600  1.0  -0.3346
  N  N171  1  0.809600  0.076400  0.004800  1.0  -0.3204
  N  N172  1  0.963200  0.096500  0.761700  1.0  -0.3329
  N  N173  1  0.428900  0.520800  0.307400  1.0  -0.5781
  N  N174  1  0.388400  0.412400  0.390600  1.0  -0.5627
  N  N175  1  0.350000  0.527600  0.436800  1.0  -0.4832
  N  N176  1  0.396500  0.631800  0.370600  1.0  -0.3344
  N  N177  1  0.309600  0.423600  0.504800  1.0  -0.3214
  N  N178  1  0.463200  0.403500  0.261700  1.0  -0.3323
  N  N179  1  0.928900  0.020800  0.307400  1.0  -0.5781
  N  N180  1  0.888400  0.912400  0.390600  1.0  -0.5627
  N  N181  1  0.850000  0.027600  0.436800  1.0  -0.4832
  N  N182  1  0.896500  0.131800  0.370600  1.0  -0.3344
  N  N183  1  0.809600  0.923600  0.504800  1.0  -0.3214
  N  N184  1  0.963200  0.903500  0.261700  1.0  -0.3323
  O  O185  1  0.679300  0.487600  0.513300  1.0  -0.7648
  O  O186  1  0.293800  0.067100  0.040800  1.0  -0.8039
  O  O187  1  0.251400  0.140800  0.189900  1.0  -0.6905
  O  O188  1  0.217000  0.877900  0.239900  1.0  -0.6457
  O  O189  1  0.277400  0.919000  0.093600  1.0  -0.7405
  O  O190  1  0.661800  0.587800  0.358600  1.0  -0.6547
  O  O191  1  0.179300  0.987600  0.513300  1.0  -0.7648
  O  O192  1  0.793800  0.567100  0.040800  1.0  -0.8039
  O  O193  1  0.751400  0.640800  0.189900  1.0  -0.6894
  O  O194  1  0.717000  0.377900  0.239900  1.0  -0.6457
  O  O195  1  0.777400  0.419000  0.093600  1.0  -0.7405
  O  O196  1  0.161800  0.087800  0.358600  1.0  -0.6547
  O  O197  1  0.679300  0.512400  0.013300  1.0  -0.7656
  O  O198  1  0.293800  0.932900  0.540800  1.0  -0.8006
  O  O199  1  0.251400  0.859200  0.689900  1.0  -0.6893
  O  O200  1  0.217000  0.122100  0.739900  1.0  -0.6452
  O  O201  1  0.277400  0.081000  0.593600  1.0  -0.7415
  O  O202  1  0.661800  0.412200  0.858600  1.0  -0.6532
  O  O203  1  0.179300  0.012400  0.013300  1.0  -0.7656
  O  O204  1  0.793800  0.432900  0.540800  1.0  -0.8006
  O  O205  1  0.751400  0.359200  0.689900  1.0  -0.6882
  O  O206  1  0.717000  0.622100  0.739900  1.0  -0.6452
  O  O207  1  0.777400  0.581000  0.593600  1.0  -0.7415
  O  O208  1  0.161800  0.912200  0.858600  1.0  -0.6532
