# generated using pymatgen
data_CuH24(C6N)4
_symmetry_space_group_name_H-M   'P 1'
_cell_length_a   14.70970000
_cell_length_b   21.83200000
_cell_length_c   26.71900000
_cell_angle_alpha   90.00000000
_cell_angle_beta   90.00000000
_cell_angle_gamma   90.00000000
_symmetry_Int_Tables_number   1
_chemical_formula_structural   CuH24(C6N)4
_chemical_formula_sum   'Cu8 H192 C192 N32'
_cell_volume   8580.59765092
_cell_formula_units_Z   8
loop_
 _symmetry_equiv_pos_site_id
 _symmetry_equiv_pos_as_xyz
  1  'x, y, z'
loop_
 _atom_site_type_symbol
 _atom_site_label
 _atom_site_symmetry_multiplicity
 _atom_site_fract_x
 _atom_site_fract_y
 _atom_site_fract_z
 _atom_site_occupancy
 _atom_site_charge
  Cu  Cu1  1  0.753660  0.998660  0.462390  1.0  0.3508
  Cu  Cu2  1  0.246340  0.498660  0.037600  1.0  0.3507
  Cu  Cu3  1  0.253660  0.498660  0.537610  1.0  0.3506
  Cu  Cu4  1  0.746340  0.998660  0.962390  1.0  0.3508
  Cu  Cu5  1  0.746340  0.501340  0.462390  1.0  0.3512
  Cu  Cu6  1  0.253660  0.001340  0.037600  1.0  0.3508
  Cu  Cu7  1  0.246340  0.001340  0.537610  1.0  0.351
  Cu  Cu8  1  0.753660  0.501340  0.962390  1.0  0.3511
  H  H9  1  0.765000  0.875000  0.510000  1.0  0.0807
  H  H10  1  0.668000  0.787000  0.520000  1.0  0.0989
  H  H11  1  0.467000  0.876000  0.439000  1.0  0.089
  H  H12  1  0.569000  0.960000  0.430000  1.0  0.0854
  H  H13  1  0.499000  0.742000  0.458000  1.0  0.1035
  H  H14  1  0.429000  0.787000  0.488000  1.0  0.0974
  H  H15  1  0.496000  0.760000  0.566000  1.0  0.0938
  H  H16  1  0.572000  0.719000  0.537000  1.0  0.1065
  H  H17  1  0.542000  0.619000  0.567000  1.0  0.0962
  H  H18  1  0.443000  0.531000  0.567000  1.0  0.0871
  H  H19  1  0.234000  0.631000  0.511000  1.0  0.0892
  H  H20  1  0.326000  0.723000  0.513000  1.0  0.0902
  H  H21  1  0.614000  0.998000  0.544000  1.0  0.081
  H  H22  1  0.605000  0.018000  0.631000  1.0  0.0932
  H  H23  1  0.887000  0.034000  0.635000  1.0  0.0939
  H  H24  1  0.888000  0.017000  0.545000  1.0  0.0841
  H  H25  1  0.797000  0.066000  0.707000  1.0  0.0495
  H  H26  1  0.686000  0.062000  0.706000  1.0  0.0735
  H  H27  1  0.805000  0.958000  0.716000  1.0  0.0921
  H  H28  1  0.694000  0.954000  0.715000  1.0  0.0876
  H  H29  1  0.771000  0.080000  0.786000  1.0  0.0959
  H  H30  1  0.769000  0.084000  0.876000  1.0  0.0864
  H  H31  1  0.724000  0.901000  0.884000  1.0  0.0864
  H  H32  1  0.721000  0.893000  0.795000  1.0  0.0985
  H  H33  1  0.235000  0.375000  0.990000  1.0  0.0803
  H  H34  1  0.332000  0.287000  0.980000  1.0  0.0986
  H  H35  1  0.533000  0.376000  0.061000  1.0  0.0896
  H  H36  1  0.431000  0.460000  0.070000  1.0  0.0849
  H  H37  1  0.501000  0.242000  0.042000  1.0  0.1044
  H  H38  1  0.571000  0.287000  0.012000  1.0  0.0916
  H  H39  1  0.504000  0.260000  0.934000  1.0  0.0937
  H  H40  1  0.428000  0.219000  0.963000  1.0  0.1082
  H  H41  1  0.458000  0.119000  0.933000  1.0  0.0965
  H  H42  1  0.557000  0.031000  0.933000  1.0  0.0855
  H  H43  1  0.766000  0.131000  0.989000  1.0  0.0902
  H  H44  1  0.674000  0.223000  0.987000  1.0  0.0891
  H  H45  1  0.386000  0.498000  0.956000  1.0  0.0808
  H  H46  1  0.395000  0.518000  0.869000  1.0  0.0936
  H  H47  1  0.113000  0.534000  0.865000  1.0  0.0942
  H  H48  1  0.112000  0.517000  0.955000  1.0  0.0842
  H  H49  1  0.203000  0.566000  0.793000  1.0  0.0512
  H  H50  1  0.314000  0.562000  0.794000  1.0  0.0753
  H  H51  1  0.195000  0.458000  0.784000  1.0  0.0922
  H  H52  1  0.306000  0.454000  0.785000  1.0  0.0889
  H  H53  1  0.229000  0.580000  0.714000  1.0  0.0957
  H  H54  1  0.231000  0.584000  0.624000  1.0  0.0869
  H  H55  1  0.276000  0.401000  0.616000  1.0  0.0867
  H  H56  1  0.279000  0.393000  0.705000  1.0  0.0994
  H  H57  1  0.265000  0.375000  0.490000  1.0  0.081
  H  H58  1  0.168000  0.287000  0.480000  1.0  0.0987
  H  H59  1  0.967000  0.376000  0.561000  1.0  0.0894
  H  H60  1  0.069000  0.460000  0.570000  1.0  0.0842
  H  H61  1  0.999000  0.242000  0.542000  1.0  0.1045
  H  H62  1  0.929000  0.287000  0.512000  1.0  0.0945
  H  H63  1  0.996000  0.260000  0.434000  1.0  0.0936
  H  H64  1  0.072000  0.219000  0.463000  1.0  0.1092
  H  H65  1  0.042000  0.119000  0.433000  1.0  0.0967
  H  H66  1  0.943000  0.031000  0.433000  1.0  0.0869
  H  H67  1  0.734000  0.131000  0.489000  1.0  0.0888
  H  H68  1  0.826000  0.223000  0.487000  1.0  0.0896
  H  H69  1  0.114000  0.498000  0.456000  1.0  0.0807
  H  H70  1  0.105000  0.518000  0.369000  1.0  0.0929
  H  H71  1  0.387000  0.534000  0.365000  1.0  0.0951
  H  H72  1  0.388000  0.517000  0.455000  1.0  0.0841
  H  H73  1  0.297000  0.566000  0.293000  1.0  0.0507
  H  H74  1  0.186000  0.562000  0.294000  1.0  0.0729
  H  H75  1  0.305000  0.458000  0.284000  1.0  0.0923
  H  H76  1  0.194000  0.454000  0.285000  1.0  0.0879
  H  H77  1  0.271000  0.580000  0.214000  1.0  0.0964
  H  H78  1  0.269000  0.584000  0.124000  1.0  0.0864
  H  H79  1  0.224000  0.401000  0.116000  1.0  0.0859
  H  H80  1  0.221000  0.393000  0.205000  1.0  0.0995
  H  H81  1  0.735000  0.875000  0.010000  1.0  0.0804
  H  H82  1  0.832000  0.787000  0.020000  1.0  0.0987
  H  H83  1  0.033000  0.876000  0.939000  1.0  0.0891
  H  H84  1  0.931000  0.960000  0.930000  1.0  0.0851
  H  H85  1  0.001000  0.742000  0.958000  1.0  0.1037
  H  H86  1  0.071000  0.787000  0.988000  1.0  0.0974
  H  H87  1  0.004000  0.760000  0.066000  1.0  0.0943
  H  H88  1  0.928000  0.719000  0.037000  1.0  0.1082
  H  H89  1  0.958000  0.619000  0.067000  1.0  0.0956
  H  H90  1  0.057000  0.531000  0.067000  1.0  0.0861
  H  H91  1  0.266000  0.631000  0.011000  1.0  0.0902
  H  H92  1  0.174000  0.723000  0.013000  1.0  0.0895
  H  H93  1  0.886000  0.998000  0.044000  1.0  0.0813
  H  H94  1  0.895000  0.018000  0.131000  1.0  0.094
  H  H95  1  0.613000  0.034000  0.135000  1.0  0.0933
  H  H96  1  0.612000  0.017000  0.045000  1.0  0.084
  H  H97  1  0.703000  0.066000  0.207000  1.0  0.0501
  H  H98  1  0.814000  0.062000  0.206000  1.0  0.0755
  H  H99  1  0.695000  0.958000  0.216000  1.0  0.0922
  H  H100  1  0.806000  0.954000  0.215000  1.0  0.0889
  H  H101  1  0.729000  0.080000  0.286000  1.0  0.0954
  H  H102  1  0.731000  0.084000  0.376000  1.0  0.0868
  H  H103  1  0.776000  0.901000  0.384000  1.0  0.0854
  H  H104  1  0.779000  0.893000  0.295000  1.0  0.0988
  H  H105  1  0.735000  0.625000  0.510000  1.0  0.0804
  H  H106  1  0.832000  0.713000  0.520000  1.0  0.0987
  H  H107  1  0.033000  0.624000  0.439000  1.0  0.089
  H  H108  1  0.931000  0.540000  0.430000  1.0  0.0852
  H  H109  1  0.001000  0.758000  0.458000  1.0  0.1034
  H  H110  1  0.071000  0.713000  0.488000  1.0  0.0978
  H  H111  1  0.004000  0.740000  0.566000  1.0  0.0944
  H  H112  1  0.928000  0.781000  0.537000  1.0  0.1052
  H  H113  1  0.958000  0.881000  0.567000  1.0  0.0956
  H  H114  1  0.057000  0.969000  0.567000  1.0  0.0862
  H  H115  1  0.266000  0.869000  0.511000  1.0  0.0899
  H  H116  1  0.174000  0.777000  0.513000  1.0  0.0898
  H  H117  1  0.886000  0.502000  0.544000  1.0  0.0812
  H  H118  1  0.895000  0.482000  0.631000  1.0  0.0937
  H  H119  1  0.613000  0.466000  0.635000  1.0  0.0943
  H  H120  1  0.612000  0.483000  0.545000  1.0  0.084
  H  H121  1  0.703000  0.434000  0.707000  1.0  0.0522
  H  H122  1  0.814000  0.438000  0.706000  1.0  0.0759
  H  H123  1  0.695000  0.542000  0.716000  1.0  0.0921
  H  H124  1  0.806000  0.546000  0.715000  1.0  0.0885
  H  H125  1  0.729000  0.420000  0.786000  1.0  0.0966
  H  H126  1  0.731000  0.416000  0.876000  1.0  0.0865
  H  H127  1  0.776000  0.599000  0.884000  1.0  0.086
  H  H128  1  0.779000  0.607000  0.795000  1.0  0.1005
  H  H129  1  0.265000  0.125000  0.990000  1.0  0.0813
  H  H130  1  0.168000  0.213000  0.980000  1.0  0.0986
  H  H131  1  0.967000  0.124000  0.061000  1.0  0.0892
  H  H132  1  0.069000  0.040000  0.070000  1.0  0.0855
  H  H133  1  0.999000  0.258000  0.042000  1.0  0.1037
  H  H134  1  0.929000  0.213000  0.012000  1.0  0.0978
  H  H135  1  0.996000  0.240000  0.934000  1.0  0.0932
  H  H136  1  0.072000  0.281000  0.963000  1.0  0.1066
  H  H137  1  0.042000  0.381000  0.933000  1.0  0.0966
  H  H138  1  0.943000  0.469000  0.933000  1.0  0.0874
  H  H139  1  0.734000  0.369000  0.989000  1.0  0.0884
  H  H140  1  0.826000  0.277000  0.987000  1.0  0.0886
  H  H141  1  0.114000  0.002000  0.956000  1.0  0.0807
  H  H142  1  0.105000  0.982000  0.869000  1.0  0.0929
  H  H143  1  0.387000  0.966000  0.865000  1.0  0.0949
  H  H144  1  0.388000  0.983000  0.955000  1.0  0.0841
  H  H145  1  0.297000  0.934000  0.793000  1.0  0.0525
  H  H146  1  0.186000  0.938000  0.794000  1.0  0.0747
  H  H147  1  0.305000  0.042000  0.784000  1.0  0.093
  H  H148  1  0.194000  0.046000  0.785000  1.0  0.0885
  H  H149  1  0.271000  0.920000  0.714000  1.0  0.0981
  H  H150  1  0.269000  0.916000  0.624000  1.0  0.0861
  H  H151  1  0.224000  0.099000  0.616000  1.0  0.0877
  H  H152  1  0.221000  0.107000  0.705000  1.0  0.1005
  H  H153  1  0.235000  0.125000  0.490000  1.0  0.0811
  H  H154  1  0.332000  0.213000  0.480000  1.0  0.0987
  H  H155  1  0.533000  0.124000  0.561000  1.0  0.0894
  H  H156  1  0.431000  0.040000  0.570000  1.0  0.0853
  H  H157  1  0.501000  0.258000  0.542000  1.0  0.1037
  H  H158  1  0.571000  0.213000  0.512000  1.0  0.0966
  H  H159  1  0.504000  0.240000  0.434000  1.0  0.0935
  H  H160  1  0.428000  0.281000  0.463000  1.0  0.1074
  H  H161  1  0.458000  0.381000  0.433000  1.0  0.0966
  H  H162  1  0.557000  0.469000  0.433000  1.0  0.0861
  H  H163  1  0.766000  0.369000  0.489000  1.0  0.0896
  H  H164  1  0.674000  0.277000  0.487000  1.0  0.0884
  H  H165  1  0.386000  0.002000  0.456000  1.0  0.0806
  H  H166  1  0.395000  0.982000  0.369000  1.0  0.0935
  H  H167  1  0.113000  0.966000  0.365000  1.0  0.0939
  H  H168  1  0.112000  0.983000  0.455000  1.0  0.0842
  H  H169  1  0.203000  0.934000  0.293000  1.0  0.0529
  H  H170  1  0.314000  0.938000  0.294000  1.0  0.0755
  H  H171  1  0.195000  0.042000  0.284000  1.0  0.092
  H  H172  1  0.306000  0.046000  0.285000  1.0  0.0882
  H  H173  1  0.229000  0.920000  0.214000  1.0  0.0974
  H  H174  1  0.231000  0.916000  0.124000  1.0  0.086
  H  H175  1  0.276000  0.099000  0.116000  1.0  0.0878
  H  H176  1  0.279000  0.107000  0.205000  1.0  0.1006
  H  H177  1  0.765000  0.625000  0.010000  1.0  0.0806
  H  H178  1  0.668000  0.713000  0.020000  1.0  0.0989
  H  H179  1  0.467000  0.624000  0.939000  1.0  0.0891
  H  H180  1  0.569000  0.540000  0.930000  1.0  0.0853
  H  H181  1  0.499000  0.758000  0.958000  1.0  0.1031
  H  H182  1  0.429000  0.713000  0.988000  1.0  0.0983
  H  H183  1  0.496000  0.740000  0.066000  1.0  0.0939
  H  H184  1  0.572000  0.781000  0.037000  1.0  0.1048
  H  H185  1  0.542000  0.881000  0.067000  1.0  0.0961
  H  H186  1  0.443000  0.969000  0.067000  1.0  0.0874
  H  H187  1  0.234000  0.869000  0.011000  1.0  0.0885
  H  H188  1  0.326000  0.777000  0.013000  1.0  0.0903
  H  H189  1  0.614000  0.502000  0.044000  1.0  0.0812
  H  H190  1  0.605000  0.482000  0.131000  1.0  0.0931
  H  H191  1  0.887000  0.466000  0.135000  1.0  0.0952
  H  H192  1  0.888000  0.483000  0.045000  1.0  0.0842
  H  H193  1  0.797000  0.434000  0.207000  1.0  0.0512
  H  H194  1  0.686000  0.438000  0.206000  1.0  0.0745
  H  H195  1  0.805000  0.542000  0.216000  1.0  0.093
  H  H196  1  0.694000  0.546000  0.215000  1.0  0.0885
  H  H197  1  0.771000  0.420000  0.286000  1.0  0.0973
  H  H198  1  0.769000  0.416000  0.376000  1.0  0.0864
  H  H199  1  0.724000  0.599000  0.384000  1.0  0.086
  H  H200  1  0.721000  0.607000  0.295000  1.0  0.1004
  C  C201  1  0.701800  0.874900  0.494090  1.0  0.1321
  C  C202  1  0.645700  0.823600  0.500800  1.0  -0.1177
  C  C203  1  0.558500  0.823600  0.481250  1.0  0.1007
  C  C204  1  0.530500  0.874700  0.454350  1.0  -0.1789
  C  C205  1  0.591400  0.923100  0.448140  1.0  0.1091
  C  C206  1  0.493600  0.770600  0.488020  1.0  -0.3547
  C  C207  1  0.506400  0.732900  0.534800  1.0  -0.3367
  C  C208  1  0.443700  0.678400  0.537980  1.0  0.0848
  C  C209  1  0.476500  0.622800  0.555340  1.0  -0.0956
  C  C210  1  0.417900  0.572300  0.556270  1.0  0.1005
  C  C211  1  0.299200  0.628500  0.524070  1.0  0.1068
  C  C212  1  0.353200  0.682600  0.523800  1.0  -0.1965
  C  C213  1  0.671300  0.006100  0.562810  1.0  0.1072
  C  C214  1  0.666500  0.017800  0.613860  1.0  -0.1484
  C  C215  1  0.745400  0.027900  0.641200  1.0  0.0797
  C  C216  1  0.827500  0.026700  0.616160  1.0  -0.134
  C  C217  1  0.827900  0.017200  0.563460  1.0  0.1179
  C  C218  1  0.743700  0.039800  0.697040  1.0  -0.2196
  C  C219  1  0.747100  0.980000  0.725580  1.0  -0.3163
  C  C220  1  0.745600  0.986200  0.782130  1.0  0.1058
  C  C221  1  0.759900  0.041000  0.806880  1.0  -0.1752
  C  C222  1  0.759400  0.042800  0.858570  1.0  0.1198
  C  C223  1  0.734200  0.939800  0.863080  1.0  0.1246
  C  C224  1  0.732200  0.934600  0.811850  1.0  -0.1855
  C  C225  1  0.298200  0.374900  0.005910  1.0  0.1335
  C  C226  1  0.354300  0.323600  0.999200  1.0  -0.1183
  C  C227  1  0.441500  0.323600  0.018750  1.0  0.1005
  C  C228  1  0.469500  0.374700  0.045650  1.0  -0.1804
  C  C229  1  0.408600  0.423100  0.051860  1.0  0.1038
  C  C230  1  0.506400  0.270600  0.011980  1.0  -0.3544
  C  C231  1  0.493600  0.232900  0.965200  1.0  -0.338
  C  C232  1  0.556300  0.178400  0.962020  1.0  0.0852
  C  C233  1  0.523500  0.122800  0.944660  1.0  -0.0978
  C  C234  1  0.582100  0.072300  0.943730  1.0  0.1037
  C  C235  1  0.700800  0.128500  0.975930  1.0  0.1021
  C  C236  1  0.646800  0.182600  0.976200  1.0  -0.1965
  C  C237  1  0.328700  0.506100  0.937190  1.0  0.1007
  C  C238  1  0.333500  0.517800  0.886140  1.0  -0.1476
  C  C239  1  0.254600  0.527900  0.858800  1.0  0.0779
  C  C240  1  0.172500  0.526700  0.883840  1.0  -0.134
  C  C241  1  0.172100  0.517200  0.936540  1.0  0.1231
  C  C242  1  0.256300  0.539800  0.802960  1.0  -0.2202
  C  C243  1  0.252900  0.480000  0.774420  1.0  -0.3156
  C  C244  1  0.254400  0.486200  0.717870  1.0  0.106
  C  C245  1  0.240100  0.541000  0.693120  1.0  -0.177
  C  C246  1  0.240600  0.542800  0.641430  1.0  0.1282
  C  C247  1  0.265800  0.439800  0.636920  1.0  0.1148
  C  C248  1  0.267800  0.434600  0.688150  1.0  -0.1873
  C  C249  1  0.201800  0.374900  0.505910  1.0  0.1311
  C  C250  1  0.145700  0.323600  0.499200  1.0  -0.117
  C  C251  1  0.058500  0.323600  0.518750  1.0  0.1005
  C  C252  1  0.030500  0.374700  0.545650  1.0  -0.1803
  C  C253  1  0.091400  0.423100  0.551860  1.0  0.1086
  C  C254  1  0.993600  0.270600  0.511980  1.0  -0.3562
  C  C255  1  0.006400  0.232900  0.465200  1.0  -0.3383
  C  C256  1  0.943700  0.178400  0.462020  1.0  0.0856
  C  C257  1  0.976500  0.122800  0.444660  1.0  -0.0943
  C  C258  1  0.917900  0.072300  0.443730  1.0  0.0991
  C  C259  1  0.799200  0.128500  0.475930  1.0  0.1076
  C  C260  1  0.853200  0.182600  0.476200  1.0  -0.1968
  C  C261  1  0.171300  0.506100  0.437190  1.0  0.1091
  C  C262  1  0.166500  0.517800  0.386140  1.0  -0.1474
  C  C263  1  0.245400  0.527900  0.358800  1.0  0.0779
  C  C264  1  0.327500  0.526700  0.383840  1.0  -0.1339
  C  C265  1  0.327900  0.517200  0.436540  1.0  0.1183
  C  C266  1  0.243700  0.539800  0.302960  1.0  -0.2204
  C  C267  1  0.247100  0.480000  0.274420  1.0  -0.3158
  C  C268  1  0.245600  0.486200  0.217870  1.0  0.1059
  C  C269  1  0.259900  0.541000  0.193120  1.0  -0.1738
  C  C270  1  0.259400  0.542800  0.141430  1.0  0.1203
  C  C271  1  0.234200  0.439800  0.136920  1.0  0.1219
  C  C272  1  0.232200  0.434600  0.188150  1.0  -0.1861
  C  C273  1  0.798200  0.874900  0.994090  1.0  0.1337
  C  C274  1  0.854300  0.823600  0.000800  1.0  -0.1186
  C  C275  1  0.941500  0.823600  0.981250  1.0  0.1008
  C  C276  1  0.969500  0.874700  0.954350  1.0  -0.1809
  C  C277  1  0.908600  0.923100  0.948140  1.0  0.1039
  C  C278  1  0.006400  0.770600  0.988020  1.0  -0.3535
  C  C279  1  0.993600  0.732900  0.034800  1.0  -0.3375
  C  C280  1  0.056300  0.678400  0.037980  1.0  0.0843
  C  C281  1  0.023500  0.622800  0.055340  1.0  -0.0989
  C  C282  1  0.082100  0.572300  0.056270  1.0  0.1043
  C  C283  1  0.200800  0.628500  0.024070  1.0  0.1011
  C  C284  1  0.146800  0.682600  0.023800  1.0  -0.1964
  C  C285  1  0.828700  0.006100  0.062810  1.0  0.0996
  C  C286  1  0.833500  0.017800  0.113860  1.0  -0.1482
  C  C287  1  0.754600  0.027900  0.141200  1.0  0.0797
  C  C288  1  0.672500  0.026700  0.116160  1.0  -0.1352
  C  C289  1  0.672100  0.017200  0.063460  1.0  0.1225
  C  C290  1  0.756300  0.039800  0.197040  1.0  -0.2194
  C  C291  1  0.752900  0.980000  0.225580  1.0  -0.3161
  C  C292  1  0.754400  0.986200  0.282130  1.0  0.1059
  C  C293  1  0.740100  0.041000  0.306880  1.0  -0.1762
  C  C294  1  0.740600  0.042800  0.358570  1.0  0.1285
  C  C295  1  0.765800  0.939800  0.363080  1.0  0.1145
  C  C296  1  0.767800  0.934600  0.311850  1.0  -0.1869
  C  C297  1  0.798200  0.625100  0.494090  1.0  0.1319
  C  C298  1  0.854300  0.676400  0.500800  1.0  -0.1179
  C  C299  1  0.941500  0.676400  0.481250  1.0  0.1004
  C  C300  1  0.969500  0.625300  0.454350  1.0  -0.1817
  C  C301  1  0.908600  0.576900  0.448140  1.0  0.1039
  C  C302  1  0.006400  0.729400  0.488020  1.0  -0.3543
  C  C303  1  0.993600  0.767100  0.534800  1.0  -0.3378
  C  C304  1  0.056300  0.821600  0.537980  1.0  0.0844
  C  C305  1  0.023500  0.877200  0.555340  1.0  -0.0982
  C  C306  1  0.082100  0.927700  0.556270  1.0  0.1029
  C  C307  1  0.200800  0.871500  0.524070  1.0  0.1081
  C  C308  1  0.146800  0.817400  0.523800  1.0  -0.1949
  C  C309  1  0.828700  0.493900  0.562810  1.0  0.0988
  C  C310  1  0.833500  0.482200  0.613860  1.0  -0.1488
  C  C311  1  0.754600  0.472100  0.641200  1.0  0.0799
  C  C312  1  0.672500  0.473300  0.616160  1.0  -0.1367
  C  C313  1  0.672100  0.482800  0.563460  1.0  0.1234
  C  C314  1  0.756300  0.460200  0.697040  1.0  -0.2174
  C  C315  1  0.752900  0.520000  0.725580  1.0  -0.3159
  C  C316  1  0.754400  0.513800  0.782130  1.0  0.1054
  C  C317  1  0.740100  0.459000  0.806880  1.0  -0.1763
  C  C318  1  0.740600  0.457200  0.858570  1.0  0.1276
  C  C319  1  0.765800  0.560200  0.863080  1.0  0.1151
  C  C320  1  0.767800  0.565400  0.811850  1.0  -0.1872
  C  C321  1  0.201800  0.125100  0.005910  1.0  0.1246
  C  C322  1  0.145700  0.176400  0.999200  1.0  -0.1171
  C  C323  1  0.058500  0.176400  0.018750  1.0  0.1
  C  C324  1  0.030500  0.125300  0.045650  1.0  -0.1804
  C  C325  1  0.091400  0.076900  0.051860  1.0  0.1106
  C  C326  1  0.993600  0.229400  0.011980  1.0  -0.3564
  C  C327  1  0.006400  0.267100  0.965200  1.0  -0.3375
  C  C328  1  0.943700  0.321600  0.962020  1.0  0.0857
  C  C329  1  0.976500  0.377200  0.944660  1.0  -0.0968
  C  C330  1  0.917900  0.427700  0.943730  1.0  0.0991
  C  C331  1  0.799200  0.371500  0.975930  1.0  0.111
  C  C332  1  0.853200  0.317400  0.976200  1.0  -0.196
  C  C333  1  0.171300  0.993900  0.937190  1.0  0.108
  C  C334  1  0.166500  0.982200  0.886140  1.0  -0.1507
  C  C335  1  0.245400  0.972100  0.858800  1.0  0.078
  C  C336  1  0.327500  0.973300  0.883840  1.0  -0.1355
  C  C337  1  0.327900  0.982800  0.936540  1.0  0.124
  C  C338  1  0.243700  0.960200  0.802960  1.0  -0.2185
  C  C339  1  0.247100  0.020000  0.774420  1.0  -0.3162
  C  C340  1  0.245600  0.013800  0.717870  1.0  0.1054
  C  C341  1  0.259900  0.959000  0.693120  1.0  -0.1755
  C  C342  1  0.259400  0.957200  0.641430  1.0  0.1196
  C  C343  1  0.234200  0.060200  0.636920  1.0  0.1237
  C  C344  1  0.232200  0.065400  0.688150  1.0  -0.1878
  C  C345  1  0.298200  0.125100  0.505910  1.0  0.1307
  C  C346  1  0.354300  0.176400  0.499200  1.0  -0.1177
  C  C347  1  0.441500  0.176400  0.518750  1.0  0.1001
  C  C348  1  0.469500  0.125300  0.545650  1.0  -0.181
  C  C349  1  0.408600  0.076900  0.551860  1.0  0.1041
  C  C350  1  0.506400  0.229400  0.511980  1.0  -0.3547
  C  C351  1  0.493600  0.267100  0.465200  1.0  -0.3373
  C  C352  1  0.556300  0.321600  0.462020  1.0  0.0853
  C  C353  1  0.523500  0.377200  0.444660  1.0  -0.0963
  C  C354  1  0.582100  0.427700  0.443730  1.0  0.1023
  C  C355  1  0.700800  0.371500  0.475930  1.0  0.1095
  C  C356  1  0.646800  0.317400  0.476200  1.0  -0.1951
  C  C357  1  0.328700  0.993900  0.437190  1.0  0.1
  C  C358  1  0.333500  0.982200  0.386140  1.0  -0.148
  C  C359  1  0.254600  0.972100  0.358800  1.0  0.0781
  C  C360  1  0.172500  0.973300  0.383840  1.0  -0.1356
  C  C361  1  0.172100  0.982800  0.436540  1.0  0.1241
  C  C362  1  0.256300  0.960200  0.302960  1.0  -0.2183
  C  C363  1  0.252900  0.020000  0.274420  1.0  -0.3159
  C  C364  1  0.254400  0.013800  0.217870  1.0  0.1055
  C  C365  1  0.240100  0.959000  0.193120  1.0  -0.1758
  C  C366  1  0.240600  0.957200  0.141430  1.0  0.1266
  C  C367  1  0.265800  0.060200  0.136920  1.0  0.1208
  C  C368  1  0.267800  0.065400  0.188150  1.0  -0.1877
  C  C369  1  0.701800  0.625100  0.994090  1.0  0.1249
  C  C370  1  0.645700  0.676400  0.000800  1.0  -0.1175
  C  C371  1  0.558500  0.676400  0.981250  1.0  0.1003
  C  C372  1  0.530500  0.625300  0.954350  1.0  -0.18
  C  C373  1  0.591400  0.576900  0.948140  1.0  0.11
  C  C374  1  0.493600  0.729400  0.988020  1.0  -0.3554
  C  C375  1  0.506400  0.767100  0.034800  1.0  -0.3369
  C  C376  1  0.443700  0.821600  0.037980  1.0  0.0849
  C  C377  1  0.476500  0.877200  0.055340  1.0  -0.0972
  C  C378  1  0.417900  0.927700  0.056270  1.0  0.0989
  C  C379  1  0.299200  0.871500  0.024070  1.0  0.1109
  C  C380  1  0.353200  0.817400  0.023800  1.0  -0.1958
  C  C381  1  0.671300  0.493900  0.062810  1.0  0.107
  C  C382  1  0.666500  0.482200  0.113860  1.0  -0.1517
  C  C383  1  0.745400  0.472100  0.141200  1.0  0.0798
  C  C384  1  0.827500  0.473300  0.116160  1.0  -0.1357
  C  C385  1  0.827900  0.482800  0.063460  1.0  0.122
  C  C386  1  0.743700  0.460200  0.197040  1.0  -0.2178
  C  C387  1  0.747100  0.520000  0.225580  1.0  -0.3162
  C  C388  1  0.745600  0.513800  0.282130  1.0  0.1053
  C  C389  1  0.759900  0.459000  0.306880  1.0  -0.1737
  C  C390  1  0.759400  0.457200  0.358570  1.0  0.1199
  C  C391  1  0.734200  0.560200  0.363080  1.0  0.1242
  C  C392  1  0.732200  0.565400  0.311850  1.0  -0.187
  N  N393  1  0.674700  0.923120  0.466850  1.0  -0.3152
  N  N394  1  0.331300  0.575890  0.541360  1.0  -0.3285
  N  N395  1  0.750500  0.007160  0.537830  1.0  -0.3362
  N  N396  1  0.746700  0.993160  0.886880  1.0  -0.3352
  N  N397  1  0.325300  0.423120  0.033150  1.0  -0.3154
  N  N398  1  0.668700  0.075890  0.958640  1.0  -0.3276
  N  N399  1  0.249500  0.507160  0.962170  1.0  -0.3357
  N  N400  1  0.253300  0.493160  0.613120  1.0  -0.3364
  N  N401  1  0.174700  0.423120  0.533150  1.0  -0.3149
  N  N402  1  0.831300  0.075890  0.458640  1.0  -0.3285
  N  N403  1  0.250500  0.507160  0.462170  1.0  -0.3357
  N  N404  1  0.246700  0.493160  0.113120  1.0  -0.3364
  N  N405  1  0.825300  0.923120  0.966850  1.0  -0.3158
  N  N406  1  0.168700  0.575890  0.041360  1.0  -0.3271
  N  N407  1  0.749500  0.007160  0.037830  1.0  -0.3363
  N  N408  1  0.753300  0.993160  0.386880  1.0  -0.335
  N  N409  1  0.825300  0.576880  0.466850  1.0  -0.3165
  N  N410  1  0.168700  0.924110  0.541360  1.0  -0.3268
  N  N411  1  0.749500  0.492840  0.537830  1.0  -0.3363
  N  N412  1  0.753300  0.506840  0.886880  1.0  -0.336
  N  N413  1  0.174700  0.076880  0.033150  1.0  -0.3154
  N  N414  1  0.831300  0.424110  0.958640  1.0  -0.3287
  N  N415  1  0.250500  0.992840  0.962170  1.0  -0.3356
  N  N416  1  0.246700  0.006840  0.613120  1.0  -0.3403
  N  N417  1  0.325300  0.076880  0.533150  1.0  -0.3159
  N  N418  1  0.668700  0.424110  0.458640  1.0  -0.327
  N  N419  1  0.249500  0.992840  0.462170  1.0  -0.3357
  N  N420  1  0.253300  0.006840  0.113120  1.0  -0.3372
  N  N421  1  0.674700  0.576880  0.966850  1.0  -0.3162
  N  N422  1  0.331300  0.924110  0.041360  1.0  -0.328
  N  N423  1  0.750500  0.492840  0.037830  1.0  -0.3362
  N  N424  1  0.746700  0.506840  0.386880  1.0  -0.3389
