# generated using pymatgen
data_Cu4WC3S4N3
_symmetry_space_group_name_H-M   'P 1'
_cell_length_a   20.34200000
_cell_length_b   13.56600000
_cell_length_c   9.87700000
_cell_angle_alpha   90.00000000
_cell_angle_beta   90.00000000
_cell_angle_gamma   90.00000000
_symmetry_Int_Tables_number   1
_chemical_formula_structural   Cu4WC3S4N3
_chemical_formula_sum   'Cu16 W4 C12 S16 N12'
_cell_volume   2725.65269264
_cell_formula_units_Z   4
loop_
 _symmetry_equiv_pos_site_id
 _symmetry_equiv_pos_as_xyz
  1  'x, y, z'
loop_
 _atom_site_type_symbol
 _atom_site_label
 _atom_site_symmetry_multiplicity
 _atom_site_fract_x
 _atom_site_fract_y
 _atom_site_fract_z
 _atom_site_occupancy
 _atom_site_charge
  Cu  Cu1  1  0.103500  0.090240  0.560600  1.0  0.353
  Cu  Cu2  1  0.222240  0.386580  0.825430  1.0  0.3754
  Cu  Cu3  1  0.396500  0.909760  0.060600  1.0  0.3536
  Cu  Cu4  1  0.277760  0.613420  0.325430  1.0  0.376
  Cu  Cu5  1  0.896500  0.590240  0.439400  1.0  0.3541
  Cu  Cu6  1  0.777760  0.886580  0.174570  1.0  0.3758
  Cu  Cu7  1  0.603500  0.409760  0.939400  1.0  0.3525
  Cu  Cu8  1  0.722240  0.113420  0.674570  1.0  0.3765
  Cu  Cu9  1  0.896500  0.909760  0.439400  1.0  0.3511
  Cu  Cu10  1  0.777760  0.613420  0.174570  1.0  0.3764
  Cu  Cu11  1  0.603500  0.090240  0.939400  1.0  0.3506
  Cu  Cu12  1  0.722240  0.386580  0.674570  1.0  0.3758
  Cu  Cu13  1  0.103500  0.409760  0.560600  1.0  0.3499
  Cu  Cu14  1  0.222240  0.113420  0.825430  1.0  0.3763
  Cu  Cu15  1  0.396500  0.590240  0.060600  1.0  0.3517
  Cu  Cu16  1  0.277760  0.886580  0.325430  1.0  0.3752
  W  W17  1  0.152760  0.250000  0.696100  1.0  0.5086
  W  W18  1  0.347240  0.750000  0.196100  1.0  0.5082
  W  W19  1  0.847240  0.750000  0.303900  1.0  0.5078
  W  W20  1  0.652760  0.250000  0.803900  1.0  0.5083
  C  C21  1  0.220500  0.973700  0.418300  1.0  0.0416
  C  C22  1  0.022900  0.021100  0.513200  1.0  0.1156
  C  C23  1  0.279500  0.026300  0.918300  1.0  0.0424
  C  C24  1  0.477100  0.978900  0.013200  1.0  0.1178
  C  C25  1  0.779500  0.473700  0.581700  1.0  0.0422
  C  C26  1  0.977100  0.521100  0.486800  1.0  0.1181
  C  C27  1  0.720500  0.526300  0.081700  1.0  0.0411
  C  C28  1  0.522900  0.478900  0.986800  1.0  0.1163
  C  C29  1  0.779500  0.026300  0.581700  1.0  0.0414
  C  C30  1  0.720500  0.973700  0.081700  1.0  0.0409
  C  C31  1  0.220500  0.526300  0.418300  1.0  0.0413
  C  C32  1  0.279500  0.473700  0.918300  1.0  0.0417
  S  S33  1  0.113270  0.113800  0.794600  1.0  -0.2248
  S  S34  1  0.386730  0.886200  0.294600  1.0  -0.2232
  S  S35  1  0.886730  0.613800  0.205400  1.0  -0.2243
  S  S36  1  0.613270  0.386200  0.705400  1.0  -0.2241
  S  S37  1  0.886730  0.886200  0.205400  1.0  -0.224
  S  S38  1  0.613270  0.113800  0.705400  1.0  -0.2247
  S  S39  1  0.113270  0.386200  0.794600  1.0  -0.2244
  S  S40  1  0.386730  0.613800  0.294600  1.0  -0.2235
  S  S41  1  0.261860  0.250000  0.722800  1.0  -0.3139
  S  S42  1  0.124800  0.250000  0.480900  1.0  -0.1599
  S  S43  1  0.238140  0.750000  0.222800  1.0  -0.3072
  S  S44  1  0.375200  0.750000  0.980900  1.0  -0.1604
  S  S45  1  0.738140  0.750000  0.277200  1.0  -0.3137
  S  S46  1  0.875200  0.750000  0.519100  1.0  -0.1603
  S  S47  1  0.761860  0.250000  0.777200  1.0  -0.3059
  S  S48  1  0.624800  0.250000  0.019100  1.0  -0.1595
  N  N49  1  0.183000  0.014800  0.479900  1.0  -0.4547
  N  N50  1  0.977100  0.978900  0.486800  1.0  -0.3357
  N  N51  1  0.317000  0.985200  0.979900  1.0  -0.4545
  N  N52  1  0.522900  0.021100  0.986800  1.0  -0.3378
  N  N53  1  0.817000  0.514800  0.520100  1.0  -0.4545
  N  N54  1  0.022900  0.478900  0.513200  1.0  -0.3381
  N  N55  1  0.683000  0.485200  0.020100  1.0  -0.4542
  N  N56  1  0.477100  0.521100  0.013200  1.0  -0.3359
  N  N57  1  0.817000  0.985200  0.520100  1.0  -0.4541
  N  N58  1  0.683000  0.014800  0.020100  1.0  -0.4545
  N  N59  1  0.183000  0.485200  0.479900  1.0  -0.4546
  N  N60  1  0.317000  0.514800  0.979900  1.0  -0.4547
