# generated using pymatgen
data_Cu3H32C35S6(N3O2)2
_symmetry_space_group_name_H-M   'P 1'
_cell_length_a   10.33500000
_cell_length_b   13.38230000
_cell_length_c   22.66230000
_cell_angle_alpha   100.90300000
_cell_angle_beta   91.35900000
_cell_angle_gamma   104.33100000
_symmetry_Int_Tables_number   1
_chemical_formula_structural   Cu3H32C35S6(N3O2)2
_chemical_formula_sum   'Cu6 H64 C70 S12 N12 O8'
_cell_volume   2973.77486653
_cell_formula_units_Z   2
loop_
 _symmetry_equiv_pos_site_id
 _symmetry_equiv_pos_as_xyz
  1  'x, y, z'
loop_
 _atom_site_type_symbol
 _atom_site_label
 _atom_site_symmetry_multiplicity
 _atom_site_fract_x
 _atom_site_fract_y
 _atom_site_fract_z
 _atom_site_occupancy
 _atom_site_charge
  Cu  Cu1  1  0.049410  0.547850  0.279550  1.0  0.2985
  Cu  Cu2  1  0.418250  0.061130  0.048130  1.0  0.4931
  Cu  Cu3  1  0.950590  0.452150  0.720450  1.0  0.2978
  Cu  Cu4  1  0.581750  0.938870  0.951870  1.0  0.4922
  Cu  Cu5  1  0.500000  0.000000  0.500000  1.0  0.6512
  Cu  Cu6  1  0.000000  0.000000  0.500000  1.0  0.6659
  H  H7  1  0.335900  0.917300  0.125100  1.0  0.073
  H  H8  1  0.407300  0.861000  0.207100  1.0  0.1122
  H  H9  1  0.767100  0.069300  0.208800  1.0  0.1094
  H  H10  1  0.684100  0.120200  0.126900  1.0  0.0793
  H  H11  1  0.543500  0.810100  0.336900  1.0  0.1524
  H  H12  1  0.442300  0.844200  0.295300  1.0  0.1339
  H  H13  1  0.710100  0.741400  0.342500  1.0  0.1027
  H  H14  1  0.899000  0.680500  0.351200  1.0  0.0807
  H  H15  1  0.824400  0.510900  0.186800  1.0  0.0712
  H  H16  1  0.630200  0.563600  0.173900  1.0  0.1072
  H  H17  1  0.258000  0.576500  0.375600  1.0  0.0815
  H  H18  1  0.455500  0.533000  0.391700  1.0  0.1038
  H  H19  1  0.413000  0.376800  0.218600  1.0  0.1114
  H  H20  1  0.218700  0.427400  0.206900  1.0  0.0738
  H  H21  1  0.602100  0.329000  0.224000  1.0  0.1411
  H  H22  1  0.684100  0.280800  0.267000  1.0  0.1543
  H  H23  1  0.676600  0.225700  0.353700  1.0  0.1121
  H  H24  1  0.683500  0.147400  0.435700  1.0  0.07
  H  H25  1  0.318200  0.966100  0.390700  1.0  0.0764
  H  H26  1  0.301700  0.037100  0.306800  1.0  0.1079
  H  H27  1  0.151600  0.985100  0.987600  1.0  0.0691
  H  H28  1  0.016500  0.020700  0.915500  1.0  0.1113
  H  H29  1  0.328600  0.259600  0.892100  1.0  0.1134
  H  H30  1  0.452100  0.218400  0.966500  1.0  0.0825
  H  H31  1  0.855500  0.096400  0.798200  1.0  0.1464
  H  H32  1  0.881100  0.062200  0.860200  1.0  0.1652
  H  H33  1  0.967900  0.126500  0.717500  1.0  0.1127
  H  H34  1  0.985500  0.133500  0.616800  1.0  0.0756
  H  H35  1  0.995400  0.837500  0.576800  1.0  0.0629
  H  H36  1  0.978000  0.821400  0.675500  1.0  0.1068
  H  H37  1  0.645600  0.838100  0.462500  1.0  0.0007
  H  H38  1  0.713200  0.230800  0.023700  1.0  0.0313
  H  H39  1  0.664100  0.082700  0.874900  1.0  0.0724
  H  H40  1  0.592700  0.139000  0.792900  1.0  0.1121
  H  H41  1  0.232900  0.930700  0.791200  1.0  0.1102
  H  H42  1  0.315900  0.879800  0.873100  1.0  0.0796
  H  H43  1  0.456500  0.189900  0.663100  1.0  0.1534
  H  H44  1  0.557700  0.155800  0.704700  1.0  0.1339
  H  H45  1  0.289900  0.258600  0.657500  1.0  0.1035
  H  H46  1  0.101000  0.319500  0.648800  1.0  0.081
  H  H47  1  0.175600  0.489100  0.813200  1.0  0.0711
  H  H48  1  0.369800  0.436400  0.826100  1.0  0.1082
  H  H49  1  0.742000  0.423500  0.624400  1.0  0.0813
  H  H50  1  0.544500  0.467000  0.608300  1.0  0.1031
  H  H51  1  0.587000  0.623200  0.781400  1.0  0.1096
  H  H52  1  0.781300  0.572600  0.793100  1.0  0.0747
  H  H53  1  0.397900  0.671000  0.776000  1.0  0.1405
  H  H54  1  0.315900  0.719200  0.733000  1.0  0.1536
  H  H55  1  0.323400  0.774300  0.646300  1.0  0.111
  H  H56  1  0.316500  0.852600  0.564300  1.0  0.0703
  H  H57  1  0.681800  0.033900  0.609300  1.0  0.0763
  H  H58  1  0.698300  0.962900  0.693200  1.0  0.1073
  H  H59  1  0.848400  0.014900  0.012400  1.0  0.0691
  H  H60  1  0.983500  0.979300  0.084500  1.0  0.11
  H  H61  1  0.671400  0.740400  0.107900  1.0  0.1133
  H  H62  1  0.547900  0.781600  0.033500  1.0  0.0836
  H  H63  1  0.144500  0.903600  0.201800  1.0  0.1456
  H  H64  1  0.118900  0.937800  0.139800  1.0  0.1653
  H  H65  1  0.032100  0.873500  0.282500  1.0  0.1129
  H  H66  1  0.014500  0.866500  0.383200  1.0  0.0749
  H  H67  1  0.004600  0.162500  0.423200  1.0  0.063
  H  H68  1  0.022000  0.178600  0.324500  1.0  0.1084
  H  H69  1  0.354400  0.161900  0.537500  1.0  0.0003
  H  H70  1  0.286800  0.769200  0.976300  1.0  0.0309
  C  C71  1  0.424800  0.948400  0.142400  1.0  0.1533
  C  C72  1  0.466400  0.914500  0.191400  1.0  -0.1879
  C  C73  1  0.595600  0.959100  0.217700  1.0  -0.1186
  C  C74  1  0.677800  0.037000  0.192400  1.0  -0.1422
  C  C75  1  0.627800  0.066500  0.143400  1.0  0.1528
  C  C76  1  0.526100  0.821200  0.295800  1.0  -0.1926
  C  C77  1  0.649100  0.660700  0.256200  1.0  -0.1079
  C  C78  1  0.731600  0.694100  0.309700  1.0  -0.1882
  C  C79  1  0.844300  0.657800  0.314400  1.0  0.1368
  C  C80  1  0.800600  0.558500  0.218800  1.0  0.1196
  C  C81  1  0.684800  0.590100  0.210600  1.0  -0.163
  C  C82  1  0.290000  0.535000  0.343300  1.0  0.1164
  C  C83  1  0.407300  0.508800  0.353300  1.0  -0.1357
  C  C84  1  0.455700  0.446900  0.307400  1.0  -0.0899
  C  C85  1  0.382700  0.417600  0.251900  1.0  -0.1849
  C  C86  1  0.266900  0.448000  0.245400  1.0  0.1201
  C  C87  1  0.601100  0.303900  0.262400  1.0  -0.1451
  C  C88  1  0.486200  0.141900  0.321360  1.0  -0.1032
  C  C89  1  0.601300  0.173000  0.360600  1.0  -0.1614
  C  C90  1  0.604200  0.126100  0.409500  1.0  0.1445
  C  C91  1  0.391200  0.020100  0.383230  1.0  0.1578
  C  C92  1  0.380600  0.062100  0.333260  1.0  -0.154
  C  C93  1  0.187300  0.041500  0.968000  1.0  0.1619
  C  C94  1  0.106300  0.061900  0.924900  1.0  -0.179
  C  C95  1  0.158500  0.144300  0.895200  1.0  -0.0826
  C  C96  1  0.289800  0.203000  0.911100  1.0  -0.1679
  C  C97  1  0.362800  0.177500  0.955300  1.0  0.1504
  C  C98  1  0.920800  0.074100  0.822000  1.0  -0.3461
  C  C99  1  0.967000  0.971900  0.707800  1.0  -0.1236
  C  C100  1  0.971800  0.065400  0.689100  1.0  -0.158
  C  C101  1  0.982300  0.068800  0.628900  1.0  0.1604
  C  C102  1  0.987900  0.896800  0.605800  1.0  0.1364
  C  C103  1  0.977700  0.886400  0.664500  1.0  -0.1456
  C  C104  1  0.716600  0.899600  0.475400  1.0  0.6634
  C  C105  1  0.709200  0.164500  0.998700  1.0  0.6683
  C  C106  1  0.575200  0.051600  0.857600  1.0  0.1525
  C  C107  1  0.533600  0.085500  0.808600  1.0  -0.1883
  C  C108  1  0.404400  0.040900  0.782300  1.0  -0.1225
  C  C109  1  0.322200  0.963000  0.807600  1.0  -0.1432
  C  C110  1  0.372200  0.933500  0.856600  1.0  0.1531
  C  C111  1  0.473900  0.178800  0.704200  1.0  -0.1916
  C  C112  1  0.350900  0.339300  0.743800  1.0  -0.1026
  C  C113  1  0.268400  0.305900  0.690300  1.0  -0.1886
  C  C114  1  0.155700  0.342200  0.685600  1.0  0.1353
  C  C115  1  0.199400  0.441500  0.781200  1.0  0.1187
  C  C116  1  0.315200  0.409900  0.789400  1.0  -0.1613
  C  C117  1  0.710000  0.465000  0.656700  1.0  0.1183
  C  C118  1  0.592700  0.491200  0.646700  1.0  -0.1373
  C  C119  1  0.544300  0.553100  0.692600  1.0  -0.0954
  C  C120  1  0.617300  0.582400  0.748100  1.0  -0.1852
  C  C121  1  0.733100  0.552000  0.754600  1.0  0.1184
  C  C122  1  0.398900  0.696100  0.737600  1.0  -0.1453
  C  C123  1  0.513800  0.858100  0.678640  1.0  -0.1014
  C  C124  1  0.398700  0.827000  0.639400  1.0  -0.1623
  C  C125  1  0.395800  0.873900  0.590500  1.0  0.1469
  C  C126  1  0.608800  0.979900  0.616770  1.0  0.1583
  C  C127  1  0.619400  0.937900  0.666740  1.0  -0.1539
  C  C128  1  0.812700  0.958500  0.032000  1.0  0.162
  C  C129  1  0.893700  0.938100  0.075100  1.0  -0.1783
  C  C130  1  0.841500  0.855700  0.104800  1.0  -0.0776
  C  C131  1  0.710200  0.797000  0.088900  1.0  -0.1707
  C  C132  1  0.637200  0.822500  0.044700  1.0  0.1491
  C  C133  1  0.079200  0.925900  0.178000  1.0  -0.3434
  C  C134  1  0.033000  0.028100  0.292200  1.0  -0.1262
  C  C135  1  0.028200  0.934600  0.310900  1.0  -0.1579
  C  C136  1  0.017700  0.931200  0.371100  1.0  0.159
  C  C137  1  0.012100  0.103200  0.394200  1.0  0.1364
  C  C138  1  0.022300  0.113600  0.335500  1.0  -0.1493
  C  C139  1  0.283400  0.100400  0.524600  1.0  0.6643
  C  C140  1  0.290800  0.835500  0.001300  1.0  0.6734
  S  S141  1  0.661340  0.926060  0.281190  1.0  -0.0004
  S  S142  1  0.500450  0.697060  0.243880  1.0  -0.0062
  S  S143  1  0.604070  0.413110  0.323610  1.0  0.0077
  S  S144  1  0.459730  0.191750  0.257430  1.0  -0.0214
  S  S145  1  0.941060  0.950000  0.781020  1.0  0.0076
  S  S146  1  0.070140  0.181460  0.839890  1.0  -0.021
  S  S147  1  0.338660  0.073940  0.718810  1.0  -0.0003
  S  S148  1  0.499550  0.302940  0.756120  1.0  -0.0077
  S  S149  1  0.395930  0.586890  0.676390  1.0  0.0099
  S  S150  1  0.540270  0.808250  0.742570  1.0  -0.0229
  S  S151  1  0.058940  0.050000  0.218980  1.0  0.003
  S  S152  1  0.929860  0.818540  0.160110  1.0  -0.0167
  N  N153  1  0.502100  0.022500  0.117900  1.0  -0.3523
  N  N154  1  0.880200  0.591900  0.269400  1.0  -0.297
  N  N155  1  0.217800  0.504800  0.289940  1.0  -0.2853
  N  N156  1  0.500800  0.052000  0.422290  1.0  -0.3448
  N  N157  1  0.313400  0.097500  0.983200  1.0  -0.3232
  N  N158  1  0.988100  0.985500  0.586730  1.0  -0.3248
  N  N159  1  0.497900  0.977500  0.882100  1.0  -0.3489
  N  N160  1  0.119800  0.408100  0.730600  1.0  -0.2969
  N  N161  1  0.782200  0.495200  0.710060  1.0  -0.2863
  N  N162  1  0.499200  0.948000  0.577710  1.0  -0.3485
  N  N163  1  0.686600  0.902500  0.016800  1.0  -0.3245
  N  N164  1  0.011900  0.014500  0.413270  1.0  -0.3225
  O  O165  1  0.685100  0.984100  0.490570  1.0  -0.6083
  O  O166  1  0.832100  0.887900  0.475590  1.0  -0.6005
  O  O167  1  0.608100  0.089900  0.001340  1.0  -0.6733
  O  O168  1  0.803000  0.159200  0.966560  1.0  -0.5016
  O  O169  1  0.314900  0.015900  0.509430  1.0  -0.609
  O  O170  1  0.167900  0.112100  0.524410  1.0  -0.6003
  O  O171  1  0.391900  0.910100  0.998660  1.0  -0.6736
  O  O172  1  0.197000  0.840800  0.033440  1.0  -0.4992
