# generated using pymatgen
data_Na6Cu3H8W12C4(NO22)2
_symmetry_space_group_name_H-M   'P 1'
_cell_length_a   12.39200000
_cell_length_b   12.70300000
_cell_length_c   12.99100000
_cell_angle_alpha   63.63000000
_cell_angle_beta   88.80000000
_cell_angle_gamma   66.27000000
_symmetry_Int_Tables_number   1
_chemical_formula_structural   Na6Cu3H8W12C4(NO22)2
_chemical_formula_sum   'Na6 Cu3 H8 W12 C4 N2 O44'
_cell_volume   1645.94922480
_cell_formula_units_Z   1
loop_
 _symmetry_equiv_pos_site_id
 _symmetry_equiv_pos_as_xyz
  1  'x, y, z'
loop_
 _atom_site_type_symbol
 _atom_site_label
 _atom_site_symmetry_multiplicity
 _atom_site_fract_x
 _atom_site_fract_y
 _atom_site_fract_z
 _atom_site_occupancy
 _atom_site_charge
  Na  Na1  1  0.006200  0.636500  0.243000  1.0  0.8135
  Na  Na2  1  0.925100  0.426100  0.191600  1.0  0.903
  Na  Na3  1  0.731400  0.937400  0.106800  1.0  0.8983
  Na  Na4  1  0.993800  0.363500  0.757000  1.0  0.8141
  Na  Na5  1  0.074900  0.573900  0.808400  1.0  0.9036
  Na  Na6  1  0.268600  0.062600  0.893200  1.0  0.893
  Cu  Cu7  1  0.725300  0.916900  0.506600  1.0  0.5505
  Cu  Cu8  1  0.274700  0.083100  0.493400  1.0  0.5523
  Cu  Cu9  1  0.500000  0.500000  0.000000  1.0  0.5312
  H  H10  1  0.707200  0.898000  0.766400  1.0  0.1148
  H  H11  1  0.646000  0.804400  0.791600  1.0  0.1098
  H  H12  1  0.562200  0.904000  0.610500  1.0  0.2748
  H  H13  1  0.579600  0.013400  0.604600  1.0  0.2353
  H  H14  1  0.292800  0.102000  0.233600  1.0  0.1133
  H  H15  1  0.354000  0.195600  0.208400  1.0  0.1095
  H  H16  1  0.437800  0.096000  0.389500  1.0  0.2753
  H  H17  1  0.420400  0.986600  0.395400  1.0  0.236
  W  W18  1  0.598720  0.252880  0.312250  1.0  1.4509
  W  W19  1  0.781350  0.170640  0.545280  1.0  0.9401
  W  W20  1  0.345160  0.512150  0.229110  1.0  2.7087
  W  W21  1  0.375460  0.791030  0.221430  1.0  2.6573
  W  W22  1  0.438480  0.288950  0.547270  1.0  1.8443
  W  W23  1  0.634360  0.519360  0.325050  1.0  2.5934
  W  W24  1  0.401280  0.747120  0.687750  1.0  1.4497
  W  W25  1  0.218650  0.829360  0.454720  1.0  0.9384
  W  W26  1  0.654840  0.487850  0.770890  1.0  2.7077
  W  W27  1  0.624540  0.208970  0.778570  1.0  2.6538
  W  W28  1  0.561520  0.711050  0.452730  1.0  1.8457
  W  W29  1  0.365640  0.480640  0.674950  1.0  2.5949
  C  C30  1  0.690900  0.845000  0.739300  1.0  -0.1301
  C  C31  1  0.810800  0.738000  0.742200  1.0  0.6648
  C  C32  1  0.309100  0.155000  0.260700  1.0  -0.1292
  C  C33  1  0.189200  0.262000  0.257800  1.0  0.6646
  N  N34  1  0.617800  0.930000  0.618500  1.0  -0.5742
  N  N35  1  0.382200  0.070000  0.381500  1.0  -0.5714
  O  O36  1  0.985000  0.451400  0.360700  1.0  -0.3515
  O  O37  1  0.890000  0.661500  0.073900  1.0  -0.5146
  O  O38  1  0.363400  0.437600  0.409500  1.0  -0.7318
  O  O39  1  0.623900  0.086500  0.371500  1.0  -0.6691
  O  O40  1  0.584200  0.226800  0.498500  1.0  -0.6834
  O  O41  1  0.743400  0.173600  0.685100  1.0  -0.6884
  O  O42  1  0.819200  0.749900  0.288000  1.0  -0.7128
  O  O43  1  0.314900  0.671500  0.221600  1.0  -0.9533
  O  O44  1  0.376900  0.548100  0.088200  1.0  -0.8274
  O  O45  1  0.199800  0.531600  0.212400  1.0  -0.8135
  O  O46  1  0.516100  0.690500  0.184100  1.0  -0.9252
  O  O47  1  0.750500  0.222200  0.380100  1.0  -0.6518
  O  O48  1  0.428000  0.323600  0.284100  1.0  -0.6913
  O  O49  1  0.698400  0.381900  0.470800  1.0  -0.6773
  O  O50  1  0.538300  0.449600  0.285300  1.0  -0.9974
  O  O51  1  0.831200  0.754800  0.641000  1.0  -0.6097
  O  O52  1  0.476800  0.617200  0.395300  1.0  -0.8245
  O  O53  1  0.745000  0.491200  0.246800  1.0  -0.8319
  O  O54  1  0.301100  0.930200  0.085200  1.0  -0.9238
  O  O55  1  0.460600  0.846900  0.287300  1.0  -0.9278
  O  O56  1  0.332800  0.365600  0.633100  1.0  -0.7277
  O  O57  1  0.877400  0.658800  0.836100  1.0  -0.579
  O  O58  1  0.015000  0.548600  0.639300  1.0  -0.351
  O  O59  1  0.110000  0.338500  0.926100  1.0  -0.5144
  O  O60  1  0.636600  0.562400  0.590500  1.0  -0.7302
  O  O61  1  0.376100  0.913500  0.628500  1.0  -0.6697
  O  O62  1  0.415800  0.773200  0.501500  1.0  -0.6852
  O  O63  1  0.256600  0.826400  0.314900  1.0  -0.6907
  O  O64  1  0.180800  0.250100  0.712000  1.0  -0.7139
  O  O65  1  0.685100  0.328500  0.778400  1.0  -0.9467
  O  O66  1  0.623100  0.451900  0.911800  1.0  -0.8256
  O  O67  1  0.800200  0.468400  0.787600  1.0  -0.8135
  O  O68  1  0.483900  0.309500  0.815900  1.0  -0.9263
  O  O69  1  0.249500  0.777800  0.619900  1.0  -0.6492
  O  O70  1  0.572000  0.676400  0.715900  1.0  -0.6915
  O  O71  1  0.301600  0.618100  0.529200  1.0  -0.6791
  O  O72  1  0.461700  0.550400  0.714700  1.0  -1.0122
  O  O73  1  0.168800  0.245200  0.359000  1.0  -0.61
  O  O74  1  0.523200  0.382800  0.604700  1.0  -0.8247
  O  O75  1  0.255000  0.508800  0.753200  1.0  -0.8316
  O  O76  1  0.698900  0.069800  0.914800  1.0  -0.9246
  O  O77  1  0.539400  0.153100  0.712700  1.0  -0.9272
  O  O78  1  0.667200  0.634400  0.366900  1.0  -0.729
  O  O79  1  0.122600  0.341200  0.163900  1.0  -0.5783
