# generated using pymatgen
data_MnGaP3(HO6)2
_symmetry_space_group_name_H-M   'P 1'
_cell_length_a   10.19300000
_cell_length_b   14.27600000
_cell_length_c   10.38000000
_cell_angle_alpha   90.00000000
_cell_angle_beta   91.18400000
_cell_angle_gamma   90.00000000
_symmetry_Int_Tables_number   1
_chemical_formula_structural   MnGaP3(HO6)2
_chemical_formula_sum   'Mn4 Ga4 P12 H8 O48'
_cell_volume   1510.12599009
_cell_formula_units_Z   4
loop_
 _symmetry_equiv_pos_site_id
 _symmetry_equiv_pos_as_xyz
  1  'x, y, z'
loop_
 _atom_site_type_symbol
 _atom_site_label
 _atom_site_symmetry_multiplicity
 _atom_site_fract_x
 _atom_site_fract_y
 _atom_site_fract_z
 _atom_site_occupancy
 _atom_site_charge
  Mn  Mn1  1  0.388890  0.507680  0.123580  1.0  1.151
  Mn  Mn2  1  0.111110  0.007680  0.376420  1.0  1.1506
  Mn  Mn3  1  0.611110  0.492320  0.876420  1.0  1.1506
  Mn  Mn4  1  0.888890  0.992320  0.623580  1.0  1.1511
  Ga  Ga5  1  0.111410  0.606740  0.603910  1.0  1.7073
  Ga  Ga6  1  0.388590  0.106740  0.896090  1.0  1.7089
  Ga  Ga7  1  0.888590  0.393260  0.396090  1.0  1.7086
  Ga  Ga8  1  0.611410  0.893260  0.103910  1.0  1.7075
  P  P9  1  0.315300  0.509150  0.789900  1.0  1.854
  P  P10  1  0.885600  0.480920  0.673900  1.0  1.8171
  P  P11  1  0.021900  0.800830  0.501900  1.0  1.6981
  P  P12  1  0.184700  0.009150  0.710100  1.0  1.8548
  P  P13  1  0.614400  0.980920  0.826100  1.0  1.8208
  P  P14  1  0.478100  0.300830  0.998100  1.0  1.6983
  P  P15  1  0.684700  0.490850  0.210100  1.0  1.8555
  P  P16  1  0.114400  0.519080  0.326100  1.0  1.8221
  P  P17  1  0.978100  0.199170  0.498100  1.0  1.6986
  P  P18  1  0.815300  0.990850  0.289900  1.0  1.8544
  P  P19  1  0.385600  0.019080  0.173900  1.0  1.8184
  P  P20  1  0.521900  0.699170  0.001900  1.0  1.6982
  H  H21  1  0.950000  0.690000  0.377000  1.0  0.2549
  H  H22  1  0.144000  0.409000  0.749000  1.0  0.4746
  H  H23  1  0.550000  0.190000  0.123000  1.0  0.2561
  H  H24  1  0.356000  0.909000  0.751000  1.0  0.475
  H  H25  1  0.050000  0.310000  0.623000  1.0  0.2556
  H  H26  1  0.856000  0.591000  0.251000  1.0  0.4756
  H  H27  1  0.450000  0.810000  0.877000  1.0  0.2539
  H  H28  1  0.644000  0.091000  0.249000  1.0  0.4743
  O  O29  1  0.122200  0.728200  0.558900  1.0  -0.8254
  O  O30  1  0.240700  0.592100  0.726600  1.0  -0.8636
  O  O31  1  0.956400  0.578000  0.677400  1.0  -0.7858
  O  O32  1  0.319100  0.521800  0.931500  1.0  -0.8066
  O  O33  1  0.448900  0.497500  0.731000  1.0  -0.7544
  O  O34  1  0.238800  0.417200  0.750900  1.0  -0.5233
  O  O35  1  0.948700  0.848100  0.607400  1.0  -0.7384
  O  O36  1  0.983700  0.404600  0.714300  1.0  -0.702
  O  O37  1  0.768100  0.483500  0.755900  1.0  -0.805
  O  O38  1  0.156400  0.534300  0.468400  1.0  -0.9213
  O  O39  1  0.092700  0.862700  0.409400  1.0  -0.7549
  O  O40  1  0.917500  0.738100  0.425700  1.0  -0.4756
  O  O41  1  0.377800  0.228200  0.941100  1.0  -0.8253
  O  O42  1  0.259300  0.092100  0.773400  1.0  -0.8642
  O  O43  1  0.543600  0.078000  0.822600  1.0  -0.7869
  O  O44  1  0.180900  0.021800  0.568500  1.0  -0.8066
  O  O45  1  0.051100  0.997500  0.769000  1.0  -0.7537
  O  O46  1  0.261200  0.917200  0.749100  1.0  -0.5262
  O  O47  1  0.551300  0.348100  0.892600  1.0  -0.739
  O  O48  1  0.516300  0.904600  0.785700  1.0  -0.7016
  O  O49  1  0.731900  0.983500  0.744100  1.0  -0.8095
  O  O50  1  0.343600  0.034300  0.031600  1.0  -0.9207
  O  O51  1  0.407300  0.362700  0.090600  1.0  -0.7549
  O  O52  1  0.582500  0.238100  0.074300  1.0  -0.4764
  O  O53  1  0.877800  0.271800  0.441100  1.0  -0.8254
  O  O54  1  0.759300  0.407900  0.273400  1.0  -0.8665
  O  O55  1  0.043600  0.422000  0.322600  1.0  -0.7863
  O  O56  1  0.680900  0.478200  0.068500  1.0  -0.8068
  O  O57  1  0.551100  0.502500  0.269000  1.0  -0.7536
  O  O58  1  0.761200  0.582800  0.249100  1.0  -0.5263
  O  O59  1  0.051300  0.151900  0.392600  1.0  -0.7399
  O  O60  1  0.016300  0.595400  0.285700  1.0  -0.7
  O  O61  1  0.231900  0.516500  0.244100  1.0  -0.809
  O  O62  1  0.843600  0.465700  0.531600  1.0  -0.9208
  O  O63  1  0.907300  0.137300  0.590600  1.0  -0.7546
  O  O64  1  0.082500  0.261900  0.574300  1.0  -0.4755
  O  O65  1  0.622200  0.771800  0.058900  1.0  -0.8257
  O  O66  1  0.740700  0.907900  0.226600  1.0  -0.8662
  O  O67  1  0.456400  0.922000  0.177400  1.0  -0.7859
  O  O68  1  0.819100  0.978200  0.431500  1.0  -0.8068
  O  O69  1  0.948900  0.002500  0.231000  1.0  -0.7543
  O  O70  1  0.738800  0.082800  0.250900  1.0  -0.5241
  O  O71  1  0.448700  0.651900  0.107400  1.0  -0.7389
  O  O72  1  0.483700  0.095400  0.214300  1.0  -0.7016
  O  O73  1  0.268100  0.016500  0.255900  1.0  -0.8046
  O  O74  1  0.656400  0.965700  0.968400  1.0  -0.9215
  O  O75  1  0.592700  0.637300  0.909400  1.0  -0.7555
  O  O76  1  0.417500  0.761900  0.925700  1.0  -0.4745
