# generated using pymatgen
data_Zn3H18C34S3N2O21
_symmetry_space_group_name_H-M   'P 1'
_cell_length_a   17.61400000
_cell_length_b   21.91600000
_cell_length_c   18.04600000
_cell_angle_alpha   90.00000000
_cell_angle_beta   105.64000000
_cell_angle_gamma   90.00000000
_symmetry_Int_Tables_number   1
_chemical_formula_structural   Zn3H18C34S3N2O21
_chemical_formula_sum   'Zn12 H72 C136 S12 N8 O84'
_cell_volume   6708.33998034
_cell_formula_units_Z   4
loop_
 _symmetry_equiv_pos_site_id
 _symmetry_equiv_pos_as_xyz
  1  'x, y, z'
loop_
 _atom_site_type_symbol
 _atom_site_label
 _atom_site_symmetry_multiplicity
 _atom_site_fract_x
 _atom_site_fract_y
 _atom_site_fract_z
 _atom_site_occupancy
 _atom_site_charge
  Zn  Zn1  1  0.494050  0.179770  0.492150  1.0  1.0938
  Zn  Zn2  1  0.308020  0.237570  0.489340  1.0  0.972
  Zn  Zn3  1  0.675480  0.257150  0.989310  1.0  0.9746
  Zn  Zn4  1  0.505950  0.679770  0.007850  1.0  1.0936
  Zn  Zn5  1  0.691980  0.737570  0.010660  1.0  0.975
  Zn  Zn6  1  0.324520  0.757150  0.510690  1.0  0.9728
  Zn  Zn7  1  0.505950  0.820230  0.507850  1.0  1.0936
  Zn  Zn8  1  0.691980  0.762430  0.510660  1.0  0.9748
  Zn  Zn9  1  0.324520  0.742850  0.010690  1.0  0.973
  Zn  Zn10  1  0.494050  0.320230  0.992150  1.0  1.0937
  Zn  Zn11  1  0.308020  0.262430  0.989340  1.0  0.9716
  Zn  Zn12  1  0.675480  0.242850  0.489310  1.0  0.9748
  H  H13  1  0.342000  0.210200  0.734100  1.0  0.131
  H  H14  1  0.644500  0.294100  0.747800  1.0  0.1301
  H  H15  1  0.193100  0.901000  0.394900  1.0  0.1345
  H  H16  1  0.551400  0.143100  0.720600  1.0  0.1371
  H  H17  1  0.470900  0.328000  0.553700  1.0  0.1399
  H  H18  1  0.392200  0.996900  0.451700  1.0  0.1239
  H  H19  1  0.183400  0.084900  0.386400  1.0  0.1443
  H  H20  1  0.900700  0.236700  0.875400  1.0  0.1483
  H  H21  1  0.509400  0.172500  0.926900  1.0  0.1368
  H  H22  1  0.966700  0.287200  0.096500  1.0  0.1478
  H  H23  1  0.428900  0.349700  0.761800  1.0  0.1376
  H  H24  1  0.774700  0.227300  0.883500  1.0  0.1047
  H  H25  1  0.209900  0.240200  0.094500  1.0  0.1091
  H  H26  1  0.016200  0.280500  0.873700  1.0  0.1436
  H  H27  1  0.836000  0.276400  0.100200  1.0  0.1281
  H  H28  1  0.077000  0.238800  0.097000  1.0  0.1503
  H  H29  1  0.147900  0.279200  0.873800  1.0  0.1304
  H  H30  1  0.056800  0.948400  0.446200  1.0  0.4377
  H  H31  1  0.658000  0.710200  0.765900  1.0  0.1297
  H  H32  1  0.355500  0.794100  0.752200  1.0  0.1301
  H  H33  1  0.806900  0.401000  0.105100  1.0  0.1368
  H  H34  1  0.448600  0.643100  0.779400  1.0  0.1377
  H  H35  1  0.529100  0.828000  0.946300  1.0  0.1412
  H  H36  1  0.607800  0.496900  0.048300  1.0  0.1228
  H  H37  1  0.816600  0.584900  0.113600  1.0  0.144
  H  H38  1  0.099300  0.736700  0.624600  1.0  0.1474
  H  H39  1  0.490600  0.672500  0.573100  1.0  0.1359
  H  H40  1  0.033300  0.787200  0.403500  1.0  0.1474
  H  H41  1  0.571100  0.849700  0.738200  1.0  0.1372
  H  H42  1  0.225300  0.727300  0.616500  1.0  0.1044
  H  H43  1  0.790100  0.740200  0.405500  1.0  0.1092
  H  H44  1  0.983800  0.780500  0.626300  1.0  0.1435
  H  H45  1  0.164000  0.776400  0.399800  1.0  0.128
  H  H46  1  0.923000  0.738800  0.403000  1.0  0.1495
  H  H47  1  0.852100  0.779200  0.626200  1.0  0.1307
  H  H48  1  0.943200  0.448400  0.053800  1.0  0.4398
  H  H49  1  0.658000  0.789800  0.265900  1.0  0.1295
  H  H50  1  0.355500  0.705900  0.252200  1.0  0.1313
  H  H51  1  0.806900  0.099000  0.605100  1.0  0.1356
  H  H52  1  0.448600  0.856900  0.279400  1.0  0.137
  H  H53  1  0.529100  0.672000  0.446300  1.0  0.1421
  H  H54  1  0.607800  0.003100  0.548300  1.0  0.1229
  H  H55  1  0.816600  0.915100  0.613600  1.0  0.1439
  H  H56  1  0.099300  0.763300  0.124600  1.0  0.1477
  H  H57  1  0.490600  0.827500  0.073100  1.0  0.136
  H  H58  1  0.033300  0.712800  0.903500  1.0  0.1471
  H  H59  1  0.571100  0.650300  0.238200  1.0  0.1374
  H  H60  1  0.225300  0.772700  0.116500  1.0  0.104
  H  H61  1  0.790100  0.759800  0.905500  1.0  0.1094
  H  H62  1  0.983800  0.719500  0.126300  1.0  0.1437
  H  H63  1  0.164000  0.723600  0.899800  1.0  0.128
  H  H64  1  0.923000  0.761200  0.903000  1.0  0.1495
  H  H65  1  0.852100  0.720800  0.126200  1.0  0.1307
  H  H66  1  0.943200  0.051600  0.553800  1.0  0.4404
  H  H67  1  0.342000  0.289800  0.234100  1.0  0.1303
  H  H68  1  0.644500  0.205900  0.247800  1.0  0.131
  H  H69  1  0.193100  0.599000  0.894900  1.0  0.135
  H  H70  1  0.551400  0.356900  0.220600  1.0  0.1365
  H  H71  1  0.470900  0.172000  0.053700  1.0  0.1405
  H  H72  1  0.392200  0.503100  0.951700  1.0  0.1238
  H  H73  1  0.183400  0.415100  0.886400  1.0  0.1433
  H  H74  1  0.900700  0.263300  0.375400  1.0  0.1488
  H  H75  1  0.509400  0.327500  0.426900  1.0  0.1364
  H  H76  1  0.966700  0.212800  0.596500  1.0  0.1478
  H  H77  1  0.428900  0.150300  0.261800  1.0  0.1378
  H  H78  1  0.774700  0.272700  0.383500  1.0  0.1052
  H  H79  1  0.209900  0.259800  0.594500  1.0  0.109
  H  H80  1  0.016200  0.219500  0.373700  1.0  0.1436
  H  H81  1  0.836000  0.223600  0.600200  1.0  0.1278
  H  H82  1  0.077000  0.261200  0.597000  1.0  0.1502
  H  H83  1  0.147900  0.220800  0.373800  1.0  0.1304
  H  H84  1  0.056800  0.551600  0.946200  1.0  0.4414
  C  C85  1  0.296200  0.050500  0.422300  1.0  -0.1113
  C  C86  1  0.393000  0.197200  0.757700  1.0  0.0235
  C  C87  1  0.300200  0.940900  0.426900  1.0  -0.1446
  C  C88  1  0.539800  0.320000  0.768400  1.0  -0.1115
  C  C89  1  0.592500  0.304600  0.723900  1.0  0.0336
  C  C90  1  0.565200  0.305600  0.643900  1.0  -0.1182
  C  C91  1  0.369900  0.220100  0.885700  1.0  0.7097
  C  C92  1  0.218600  0.938500  0.402400  1.0  0.005
  C  C93  1  0.517900  0.155900  0.749500  1.0  0.0167
  C  C94  1  0.419900  0.196100  0.836900  1.0  -0.0485
  C  C95  1  0.439100  0.342500  0.652800  1.0  -0.2594
  C  C96  1  0.488400  0.325800  0.607100  1.0  -0.0402
  C  C97  1  0.337400  0.995900  0.435900  1.0  0.0311
  C  C98  1  0.212800  0.049100  0.397300  1.0  0.0042
  C  C99  1  0.616800  0.283800  0.595300  1.0  0.672
  C  C100  1  0.541700  0.152800  0.830300  1.0  -0.2847
  C  C101  1  0.442300  0.178900  0.713300  1.0  -0.1605
  C  C102  1  0.888900  0.243900  0.921900  1.0  -0.1578
  C  C103  1  0.492700  0.173700  0.873400  1.0  -0.0504
  C  C104  1  0.928500  0.273900  0.053200  1.0  -0.1435
  C  C105  1  0.336400  0.111300  0.436300  1.0  0.7297
  C  C106  1  0.420400  0.188000  0.627500  1.0  0.7007
  C  C107  1  0.463200  0.339200  0.732700  1.0  0.0321
  C  C108  1  0.034300  0.259300  0.986100  1.0  0.0596
  C  C109  1  0.564400  0.310700  0.852900  1.0  0.7283
  C  C110  1  0.176000  0.991100  0.389400  1.0  -0.1315
  C  C111  1  0.345200  0.882500  0.449400  1.0  0.7313
  C  C112  1  0.813300  0.239700  0.927000  1.0  0.2099
  C  C113  1  0.948500  0.259200  0.987800  1.0  0.0997
  C  C114  1  0.170500  0.247600  0.049500  1.0  0.1836
  C  C115  1  0.055000  0.271700  0.918800  1.0  -0.1185
  C  C116  1  0.849200  0.268600  0.054500  1.0  0.1694
  C  C117  1  0.090300  0.247200  0.051600  1.0  -0.1436
  C  C118  1  0.134000  0.271000  0.919000  1.0  0.173
  C  C119  1  0.703800  0.550500  0.077700  1.0  -0.1112
  C  C120  1  0.607000  0.697200  0.742300  1.0  0.018
  C  C121  1  0.699800  0.440900  0.073100  1.0  -0.1444
  C  C122  1  0.460200  0.820000  0.731600  1.0  -0.111
  C  C123  1  0.407500  0.804600  0.776100  1.0  0.0302
  C  C124  1  0.434800  0.805600  0.856100  1.0  -0.1172
  C  C125  1  0.630100  0.720100  0.614300  1.0  0.714
  C  C126  1  0.781400  0.438500  0.097600  1.0  0.0049
  C  C127  1  0.482100  0.655900  0.750500  1.0  0.0167
  C  C128  1  0.580100  0.696100  0.663100  1.0  -0.0495
  C  C129  1  0.560900  0.842500  0.847200  1.0  -0.2559
  C  C130  1  0.511600  0.825800  0.892900  1.0  -0.0406
  C  C131  1  0.662600  0.495900  0.064100  1.0  0.032
  C  C132  1  0.787200  0.549100  0.102700  1.0  0.0041
  C  C133  1  0.383200  0.783800  0.904700  1.0  0.6727
  C  C134  1  0.458300  0.652800  0.669700  1.0  -0.2856
  C  C135  1  0.557700  0.678900  0.786700  1.0  -0.1615
  C  C136  1  0.111100  0.743900  0.578100  1.0  -0.159
  C  C137  1  0.507300  0.673700  0.626600  1.0  -0.05
  C  C138  1  0.071500  0.773900  0.446800  1.0  -0.1407
  C  C139  1  0.663600  0.611300  0.063700  1.0  0.7283
  C  C140  1  0.579600  0.688000  0.872500  1.0  0.7022
  C  C141  1  0.536800  0.839200  0.767300  1.0  0.0336
  C  C142  1  0.965700  0.759300  0.513900  1.0  0.0595
  C  C143  1  0.435600  0.810700  0.647100  1.0  0.7294
  C  C144  1  0.824000  0.491100  0.110600  1.0  -0.1345
  C  C145  1  0.654800  0.382500  0.050600  1.0  0.7311
  C  C146  1  0.186700  0.739700  0.573000  1.0  0.2094
  C  C147  1  0.051500  0.759200  0.512200  1.0  0.0994
  C  C148  1  0.829500  0.747600  0.450500  1.0  0.1831
  C  C149  1  0.945000  0.771700  0.581200  1.0  -0.1187
  C  C150  1  0.150800  0.768600  0.445500  1.0  0.1759
  C  C151  1  0.909700  0.747200  0.448400  1.0  -0.1443
  C  C152  1  0.866000  0.771000  0.581000  1.0  0.1698
  C  C153  1  0.703800  0.949500  0.577700  1.0  -0.1117
  C  C154  1  0.607000  0.802800  0.242300  1.0  0.0177
  C  C155  1  0.699800  0.059100  0.573100  1.0  -0.1444
  C  C156  1  0.460200  0.680000  0.231600  1.0  -0.1123
  C  C157  1  0.407500  0.695400  0.276100  1.0  0.0303
  C  C158  1  0.434800  0.694400  0.356100  1.0  -0.1174
  C  C159  1  0.630100  0.779900  0.114300  1.0  0.711
  C  C160  1  0.781400  0.061500  0.597600  1.0  0.0067
  C  C161  1  0.482100  0.844100  0.250500  1.0  0.0146
  C  C162  1  0.580100  0.803900  0.163100  1.0  -0.0494
  C  C163  1  0.560900  0.657500  0.347200  1.0  -0.2535
  C  C164  1  0.511600  0.674200  0.392900  1.0  -0.04
  C  C165  1  0.662600  0.004100  0.564100  1.0  0.0323
  C  C166  1  0.787200  0.950900  0.602700  1.0  0.0051
  C  C167  1  0.383200  0.716200  0.404700  1.0  0.6731
  C  C168  1  0.458300  0.847200  0.169700  1.0  -0.2868
  C  C169  1  0.557700  0.821100  0.286700  1.0  -0.1621
  C  C170  1  0.111100  0.756100  0.078100  1.0  -0.1591
  C  C171  1  0.507300  0.826300  0.126600  1.0  -0.0524
  C  C172  1  0.071500  0.726100  0.946800  1.0  -0.1419
  C  C173  1  0.663600  0.888700  0.563700  1.0  0.7282
  C  C174  1  0.579600  0.812000  0.372500  1.0  0.7028
  C  C175  1  0.536800  0.660800  0.267300  1.0  0.0326
  C  C176  1  0.965700  0.740700  0.013900  1.0  0.0592
  C  C177  1  0.435600  0.689300  0.147100  1.0  0.7278
  C  C178  1  0.824000  0.008900  0.610600  1.0  -0.1344
  C  C179  1  0.654800  0.117500  0.550600  1.0  0.7318
  C  C180  1  0.186700  0.760300  0.073000  1.0  0.2044
  C  C181  1  0.051500  0.740800  0.012200  1.0  0.0995
  C  C182  1  0.829500  0.752400  0.950500  1.0  0.1765
  C  C183  1  0.945000  0.728300  0.081200  1.0  -0.1185
  C  C184  1  0.150800  0.731400  0.945500  1.0  0.1764
  C  C185  1  0.909700  0.752800  0.948400  1.0  -0.1447
  C  C186  1  0.866000  0.729000  0.081000  1.0  0.1745
  C  C187  1  0.296200  0.449500  0.922300  1.0  -0.1115
  C  C188  1  0.393000  0.302800  0.257700  1.0  0.0224
  C  C189  1  0.300200  0.559100  0.926900  1.0  -0.1446
  C  C190  1  0.539800  0.180000  0.268400  1.0  -0.111
  C  C191  1  0.592500  0.195400  0.223900  1.0  0.0325
  C  C192  1  0.565200  0.194400  0.143900  1.0  -0.1181
  C  C193  1  0.369900  0.279900  0.385700  1.0  0.7091
  C  C194  1  0.218600  0.561500  0.902400  1.0  0.0067
  C  C195  1  0.517900  0.344100  0.249500  1.0  0.017
  C  C196  1  0.419900  0.303900  0.336900  1.0  -0.0481
  C  C197  1  0.439100  0.157500  0.152800  1.0  -0.2571
  C  C198  1  0.488400  0.174200  0.107100  1.0  -0.0407
  C  C199  1  0.337400  0.504100  0.935900  1.0  0.0313
  C  C200  1  0.212800  0.450900  0.897300  1.0  0.0047
  C  C201  1  0.616800  0.216200  0.095300  1.0  0.6719
  C  C202  1  0.541700  0.347200  0.330300  1.0  -0.2866
  C  C203  1  0.442300  0.321100  0.213300  1.0  -0.1611
  C  C204  1  0.888900  0.256100  0.421900  1.0  -0.1596
  C  C205  1  0.492700  0.326300  0.373400  1.0  -0.0523
  C  C206  1  0.928500  0.226100  0.553200  1.0  -0.143
  C  C207  1  0.336400  0.388700  0.936300  1.0  0.7273
  C  C208  1  0.420400  0.312000  0.127500  1.0  0.7016
  C  C209  1  0.463200  0.160800  0.232700  1.0  0.034
  C  C210  1  0.034300  0.240700  0.486100  1.0  0.0596
  C  C211  1  0.564400  0.189300  0.352900  1.0  0.7278
  C  C212  1  0.176000  0.508900  0.889400  1.0  -0.132
  C  C213  1  0.345200  0.617500  0.949400  1.0  0.7317
  C  C214  1  0.813300  0.260300  0.427000  1.0  0.2094
  C  C215  1  0.948500  0.240800  0.487800  1.0  0.0997
  C  C216  1  0.170500  0.252400  0.549500  1.0  0.177
  C  C217  1  0.055000  0.228300  0.418800  1.0  -0.1183
  C  C218  1  0.849200  0.231400  0.554500  1.0  0.171
  C  C219  1  0.090300  0.252800  0.551600  1.0  -0.1404
  C  C220  1  0.134000  0.229000  0.419000  1.0  0.1755
  S  S221  1  0.069940  0.988760  0.355360  1.0  1.2884
  S  S222  1  0.636650  0.123330  0.877130  1.0  1.3945
  S  S223  1  0.340360  0.364990  0.606050  1.0  1.4009
  S  S224  1  0.930060  0.488760  0.144640  1.0  1.283
  S  S225  1  0.363350  0.623330  0.622870  1.0  1.3958
  S  S226  1  0.659640  0.864990  0.893950  1.0  1.3978
  S  S227  1  0.930060  0.011240  0.644640  1.0  1.2839
  S  S228  1  0.363350  0.876670  0.122870  1.0  1.3991
  S  S229  1  0.659640  0.635010  0.393950  1.0  1.3971
  S  S230  1  0.069940  0.511240  0.855360  1.0  1.2895
  S  S231  1  0.636650  0.376670  0.377130  1.0  1.3975
  S  S232  1  0.340360  0.135010  0.106050  1.0  1.3986
  N  N233  1  0.791300  0.252300  0.990800  1.0  -0.2942
  N  N234  1  0.190800  0.258400  0.984300  1.0  -0.2904
  N  N235  1  0.208700  0.752300  0.509200  1.0  -0.2956
  N  N236  1  0.809200  0.758400  0.515700  1.0  -0.2878
  N  N237  1  0.208700  0.747700  0.009200  1.0  -0.2942
  N  N238  1  0.809200  0.741600  0.015700  1.0  -0.2884
  N  N239  1  0.791300  0.247700  0.490800  1.0  -0.2933
  N  N240  1  0.190800  0.241600  0.484300  1.0  -0.2893
  O  O241  1  0.349800  0.199900  0.595400  1.0  -0.5771
  O  O242  1  0.667700  0.162080  0.945600  1.0  -0.8201
  O  O243  1  0.318500  0.332080  0.533200  1.0  -0.7248
  O  O244  1  0.404400  0.243230  0.951500  1.0  -0.6372
  O  O245  1  0.409500  0.111980  0.459400  1.0  -0.5725
  O  O246  1  0.687900  0.288670  0.618200  1.0  -0.5325
  O  O247  1  0.296200  0.217320  0.863000  1.0  -0.5921
  O  O248  1  0.511600  0.319450  0.888000  1.0  -0.6161
  O  O249  1  0.580400  0.260200  0.529100  1.0  -0.6136
  O  O250  1  0.418200  0.884340  0.467700  1.0  -0.5741
  O  O251  1  0.632600  0.292960  0.884100  1.0  -0.5823
  O  O252  1  0.476500  0.184630  0.596600  1.0  -0.5826
  O  O253  1  0.293000  0.350200  0.658000  1.0  -0.6389
  O  O254  1  0.623200  0.060550  0.898900  1.0  -0.5822
  O  O255  1  0.304000  0.835100  0.446300  1.0  -0.5689
  O  O256  1  0.290900  0.158990  0.427300  1.0  -0.5807
  O  O257  1  0.343200  0.430570  0.593300  1.0  -0.5974
  O  O258  1  0.684400  0.126900  0.824300  1.0  -0.5619
  O  O259  1  0.042100  0.046500  0.379600  1.0  -0.5602
  O  O260  1  0.050500  0.975500  0.278700  1.0  -0.5032
  O  O261  1  0.044500  0.939200  0.400500  1.0  -0.5284
  O  O262  1  0.650200  0.699900  0.904600  1.0  -0.577
  O  O263  1  0.332300  0.662080  0.554400  1.0  -0.8199
  O  O264  1  0.681500  0.832080  0.966800  1.0  -0.7232
  O  O265  1  0.595600  0.743230  0.548500  1.0  -0.6377
  O  O266  1  0.590500  0.611980  0.040600  1.0  -0.5714
  O  O267  1  0.312100  0.788670  0.881800  1.0  -0.5335
  O  O268  1  0.703800  0.717320  0.637000  1.0  -0.5945
  O  O269  1  0.488400  0.819450  0.612000  1.0  -0.6148
  O  O270  1  0.419600  0.760200  0.970900  1.0  -0.614
  O  O271  1  0.581800  0.384340  0.032300  1.0  -0.5726
  O  O272  1  0.367400  0.792960  0.615900  1.0  -0.5807
  O  O273  1  0.523500  0.684630  0.903400  1.0  -0.5834
  O  O274  1  0.707000  0.850200  0.842000  1.0  -0.6372
  O  O275  1  0.376800  0.560550  0.601100  1.0  -0.5809
  O  O276  1  0.696000  0.335100  0.053700  1.0  -0.5693
  O  O277  1  0.709100  0.658990  0.072700  1.0  -0.5789
  O  O278  1  0.656800  0.930570  0.906700  1.0  -0.5944
  O  O279  1  0.315600  0.626900  0.675700  1.0  -0.5624
  O  O280  1  0.957900  0.546500  0.120400  1.0  -0.5603
  O  O281  1  0.949500  0.475500  0.221300  1.0  -0.4987
  O  O282  1  0.955500  0.439200  0.099500  1.0  -0.5265
  O  O283  1  0.650200  0.800100  0.404600  1.0  -0.5757
  O  O284  1  0.332300  0.837920  0.054400  1.0  -0.8198
  O  O285  1  0.681500  0.667920  0.466800  1.0  -0.724
  O  O286  1  0.595600  0.756770  0.048500  1.0  -0.6383
  O  O287  1  0.590500  0.888020  0.540600  1.0  -0.5712
  O  O288  1  0.312100  0.711330  0.381800  1.0  -0.5339
  O  O289  1  0.703800  0.782680  0.137000  1.0  -0.5938
  O  O290  1  0.488400  0.680550  0.112000  1.0  -0.6136
  O  O291  1  0.419600  0.739800  0.470900  1.0  -0.6137
  O  O292  1  0.581800  0.115660  0.532300  1.0  -0.5728
  O  O293  1  0.367400  0.707040  0.115900  1.0  -0.5814
  O  O294  1  0.523500  0.815370  0.403400  1.0  -0.5827
  O  O295  1  0.707000  0.649800  0.342000  1.0  -0.6406
  O  O296  1  0.376800  0.939450  0.101100  1.0  -0.5851
  O  O297  1  0.696000  0.164900  0.553700  1.0  -0.569
  O  O298  1  0.709100  0.841010  0.572700  1.0  -0.5795
  O  O299  1  0.656800  0.569430  0.406700  1.0  -0.5946
  O  O300  1  0.315600  0.873100  0.175700  1.0  -0.5624
  O  O301  1  0.957900  0.953500  0.620400  1.0  -0.556
  O  O302  1  0.949500  0.024500  0.721300  1.0  -0.4986
  O  O303  1  0.955500  0.060800  0.599500  1.0  -0.5267
  O  O304  1  0.349800  0.300100  0.095400  1.0  -0.5763
  O  O305  1  0.667700  0.337920  0.445600  1.0  -0.8196
  O  O306  1  0.318500  0.167920  0.033200  1.0  -0.7253
  O  O307  1  0.404400  0.256770  0.451500  1.0  -0.6379
  O  O308  1  0.409500  0.388020  0.959400  1.0  -0.5722
  O  O309  1  0.687900  0.211330  0.118200  1.0  -0.5343
  O  O310  1  0.296200  0.282680  0.363000  1.0  -0.5938
  O  O311  1  0.511600  0.180550  0.388000  1.0  -0.616
  O  O312  1  0.580400  0.239800  0.029100  1.0  -0.6133
  O  O313  1  0.418200  0.615660  0.967700  1.0  -0.5738
  O  O314  1  0.632600  0.207040  0.384100  1.0  -0.5835
  O  O315  1  0.476500  0.315370  0.096600  1.0  -0.5816
  O  O316  1  0.293000  0.149800  0.158000  1.0  -0.6405
  O  O317  1  0.623200  0.439450  0.398900  1.0  -0.5847
  O  O318  1  0.304000  0.664900  0.946300  1.0  -0.569
  O  O319  1  0.290900  0.341010  0.927300  1.0  -0.5813
  O  O320  1  0.343200  0.069430  0.093300  1.0  -0.5957
  O  O321  1  0.684400  0.373100  0.324300  1.0  -0.5614
  O  O322  1  0.042100  0.453500  0.879600  1.0  -0.5569
  O  O323  1  0.050500  0.524500  0.778700  1.0  -0.5023
  O  O324  1  0.044500  0.560800  0.900500  1.0  -0.5317
