# generated using pymatgen
data_Co2H5C17O10
_symmetry_space_group_name_H-M   'P 1'
_cell_length_a   16.27120000
_cell_length_b   16.27120000
_cell_length_c   17.27720000
_cell_angle_alpha   90.00000000
_cell_angle_beta   90.00000000
_cell_angle_gamma   120.00000000
_symmetry_Int_Tables_number   1
_chemical_formula_structural   Co2H5C17O10
_chemical_formula_sum   'Co12 H30 C102 O60'
_cell_volume   3961.34948312
_cell_formula_units_Z   6
loop_
 _symmetry_equiv_pos_site_id
 _symmetry_equiv_pos_as_xyz
  1  'x, y, z'
loop_
 _atom_site_type_symbol
 _atom_site_label
 _atom_site_symmetry_multiplicity
 _atom_site_fract_x
 _atom_site_fract_y
 _atom_site_fract_z
 _atom_site_occupancy
 _atom_site_charge
  Co  Co1  1  0.944080  0.598010  0.793440  1.0  1.1004
  Co  Co2  1  0.965060  0.724310  0.950640  1.0  1.0809
  Co  Co3  1  0.401990  0.346070  0.793440  1.0  1.0993
  Co  Co4  1  0.275690  0.240750  0.950640  1.0  1.0778
  Co  Co5  1  0.653930  0.055920  0.793440  1.0  1.1006
  Co  Co6  1  0.759250  0.034940  0.950640  1.0  1.083
  Co  Co7  1  0.598010  0.944080  0.293440  1.0  1.1004
  Co  Co8  1  0.724310  0.965060  0.450640  1.0  1.0827
  Co  Co9  1  0.346070  0.401990  0.293440  1.0  1.1003
  Co  Co10  1  0.240750  0.275690  0.450640  1.0  1.0831
  Co  Co11  1  0.055920  0.653930  0.293440  1.0  1.0988
  Co  Co12  1  0.034940  0.759250  0.450640  1.0  1.0769
  H  H13  1  0.791700  0.812900  0.853800  1.0  0.1403
  H  H14  1  0.600200  0.791400  0.694800  1.0  0.1306
  H  H15  1  0.692500  0.604600  0.696400  1.0  0.125
  H  H16  1  0.529800  0.676800  0.440200  1.0  0.1308
  H  H17  1  0.405300  0.431000  0.558400  1.0  0.1269
  H  H18  1  0.187100  0.978800  0.853800  1.0  0.1403
  H  H19  1  0.208600  0.808800  0.694800  1.0  0.1313
  H  H20  1  0.395400  0.087900  0.696400  1.0  0.1251
  H  H21  1  0.323200  0.853000  0.440200  1.0  0.1306
  H  H22  1  0.569000  0.974300  0.558400  1.0  0.1257
  H  H23  1  0.021200  0.208300  0.853800  1.0  0.14
  H  H24  1  0.191200  0.399800  0.694800  1.0  0.1295
  H  H25  1  0.912100  0.307500  0.696400  1.0  0.1266
  H  H26  1  0.147000  0.470200  0.440200  1.0  0.1314
  H  H27  1  0.025700  0.594700  0.558400  1.0  0.1253
  H  H28  1  0.812900  0.791700  0.353800  1.0  0.1403
  H  H29  1  0.791400  0.600200  0.194800  1.0  0.1293
  H  H30  1  0.604600  0.692500  0.196400  1.0  0.1266
  H  H31  1  0.676800  0.529800  0.940200  1.0  0.1308
  H  H32  1  0.431000  0.405300  0.058400  1.0  0.1274
  H  H33  1  0.978800  0.187100  0.353800  1.0  0.1403
  H  H34  1  0.808800  0.208600  0.194800  1.0  0.1306
  H  H35  1  0.087900  0.395400  0.196400  1.0  0.1244
  H  H36  1  0.853000  0.323200  0.940200  1.0  0.131
  H  H37  1  0.974300  0.569000  0.058400  1.0  0.1249
  H  H38  1  0.208300  0.021200  0.353800  1.0  0.1403
  H  H39  1  0.399800  0.191200  0.194800  1.0  0.1307
  H  H40  1  0.307500  0.912100  0.196400  1.0  0.1259
  H  H41  1  0.470200  0.147000  0.940200  1.0  0.1306
  H  H42  1  0.594700  0.025700  0.058400  1.0  0.1255
  C  C43  1  0.753500  0.705200  0.778300  1.0  -0.1343
  C  C44  1  0.753300  0.782300  0.811400  1.0  -0.0044
  C  C45  1  0.693900  0.814100  0.779600  1.0  -0.0951
  C  C46  1  0.637200  0.768700  0.716700  1.0  -0.0225
  C  C47  1  0.635400  0.688000  0.685800  1.0  0.0064
  C  C48  1  0.693500  0.657900  0.717000  1.0  -0.0346
  C  C49  1  0.824200  0.679200  0.809300  1.0  0.7418
  C  C50  1  0.696500  0.900500  0.813800  1.0  0.7649
  C  C51  1  0.571600  0.638700  0.617800  1.0  -0.0433
  C  C52  1  0.581900  0.687900  0.549900  1.0  -0.0534
  C  C53  1  0.523700  0.642300  0.484800  1.0  0.0039
  C  C54  1  0.457800  0.546000  0.487700  1.0  -0.1391
  C  C55  1  0.447800  0.495900  0.556500  1.0  -0.045
  C  C56  1  0.500800  0.542200  0.621900  1.0  -0.0666
  C  C57  1  0.660700  0.786500  0.537900  1.0  0.7205
  C  C58  1  0.405400  0.495000  0.417600  1.0  0.6844
  C  C59  1  0.475400  0.485500  0.695600  1.0  0.6667
  C  C60  1  0.294800  0.048300  0.778300  1.0  -0.1341
  C  C61  1  0.217700  0.971000  0.811400  1.0  -0.0062
  C  C62  1  0.185900  0.879800  0.779600  1.0  -0.0976
  C  C63  1  0.231300  0.868500  0.716700  1.0  -0.0198
  C  C64  1  0.312000  0.947400  0.685800  1.0  0.0057
  C  C65  1  0.342100  0.035600  0.717000  1.0  -0.0364
  C  C66  1  0.320800  0.145000  0.809300  1.0  0.7423
  C  C67  1  0.099500  0.796000  0.813800  1.0  0.7651
  C  C68  1  0.361300  0.932900  0.617800  1.0  -0.0431
  C  C69  1  0.312100  0.894000  0.549900  1.0  -0.0534
  C  C70  1  0.357700  0.881400  0.484800  1.0  0.0022
  C  C71  1  0.454000  0.911800  0.487700  1.0  -0.1395
  C  C72  1  0.504100  0.951900  0.556500  1.0  -0.0461
  C  C73  1  0.457800  0.958600  0.621900  1.0  -0.0666
  C  C74  1  0.213500  0.874200  0.537900  1.0  0.72
  C  C75  1  0.505000  0.910400  0.417600  1.0  0.6831
  C  C76  1  0.514500  0.989900  0.695600  1.0  0.664
  C  C77  1  0.951700  0.246500  0.778300  1.0  -0.1327
  C  C78  1  0.029000  0.246700  0.811400  1.0  -0.0046
  C  C79  1  0.120200  0.306100  0.779600  1.0  -0.0973
  C  C80  1  0.131500  0.362800  0.716700  1.0  -0.021
  C  C81  1  0.052600  0.364600  0.685800  1.0  0.007
  C  C82  1  0.964400  0.306500  0.717000  1.0  -0.0366
  C  C83  1  0.855000  0.175800  0.809300  1.0  0.7448
  C  C84  1  0.204000  0.303500  0.813800  1.0  0.7652
  C  C85  1  0.067100  0.428400  0.617800  1.0  -0.0431
  C  C86  1  0.106000  0.418100  0.549900  1.0  -0.053
  C  C87  1  0.118600  0.476300  0.484800  1.0  0.0046
  C  C88  1  0.088200  0.542200  0.487700  1.0  -0.1394
  C  C89  1  0.048100  0.552200  0.556500  1.0  -0.0471
  C  C90  1  0.041400  0.499200  0.621900  1.0  -0.0663
  C  C91  1  0.125800  0.339300  0.537900  1.0  0.7193
  C  C92  1  0.089600  0.594600  0.417600  1.0  0.6827
  C  C93  1  0.010100  0.524600  0.695600  1.0  0.6651
  C  C94  1  0.705200  0.753500  0.278300  1.0  -0.1323
  C  C95  1  0.782300  0.753300  0.311400  1.0  -0.0048
  C  C96  1  0.814100  0.693900  0.279600  1.0  -0.0973
  C  C97  1  0.768700  0.637200  0.216700  1.0  -0.021
  C  C98  1  0.688000  0.635400  0.185800  1.0  0.0069
  C  C99  1  0.657900  0.693500  0.217000  1.0  -0.0369
  C  C100  1  0.679200  0.824200  0.309300  1.0  0.7441
  C  C101  1  0.900500  0.696500  0.313800  1.0  0.7652
  C  C102  1  0.638700  0.571600  0.117800  1.0  -0.0431
  C  C103  1  0.687900  0.581900  0.049900  1.0  -0.0526
  C  C104  1  0.642300  0.523700  0.984800  1.0  0.0043
  C  C105  1  0.546000  0.457800  0.987700  1.0  -0.14
  C  C106  1  0.495900  0.447800  0.056500  1.0  -0.0469
  C  C107  1  0.542200  0.500800  0.121900  1.0  -0.0663
  C  C108  1  0.786500  0.660700  0.037900  1.0  0.7203
  C  C109  1  0.495000  0.405400  0.917600  1.0  0.6826
  C  C110  1  0.485500  0.475400  0.195600  1.0  0.6652
  C  C111  1  0.048300  0.294800  0.278300  1.0  -0.1345
  C  C112  1  0.971000  0.217700  0.311400  1.0  -0.0042
  C  C113  1  0.879800  0.185900  0.279600  1.0  -0.0959
  C  C114  1  0.868500  0.231300  0.216700  1.0  -0.0218
  C  C115  1  0.947400  0.312000  0.185800  1.0  0.0064
  C  C116  1  0.035600  0.342100  0.217000  1.0  -0.0353
  C  C117  1  0.145000  0.320800  0.309300  1.0  0.7421
  C  C118  1  0.796000  0.099500  0.313800  1.0  0.7647
  C  C119  1  0.932900  0.361300  0.117800  1.0  -0.043
  C  C120  1  0.894000  0.312100  0.049900  1.0  -0.0533
  C  C121  1  0.881400  0.357700  0.984800  1.0  0.0037
  C  C122  1  0.911800  0.454000  0.987700  1.0  -0.1389
  C  C123  1  0.951900  0.504100  0.056500  1.0  -0.0453
  C  C124  1  0.958600  0.457800  0.121900  1.0  -0.0663
  C  C125  1  0.874200  0.213500  0.037900  1.0  0.721
  C  C126  1  0.910400  0.505000  0.917600  1.0  0.6836
  C  C127  1  0.989900  0.514500  0.195600  1.0  0.6661
  C  C128  1  0.246500  0.951700  0.278300  1.0  -0.135
  C  C129  1  0.246700  0.029000  0.311400  1.0  -0.0058
  C  C130  1  0.306100  0.120200  0.279600  1.0  -0.0971
  C  C131  1  0.362800  0.131500  0.216700  1.0  -0.0197
  C  C132  1  0.364600  0.052600  0.185800  1.0  0.0057
  C  C133  1  0.306500  0.964400  0.217000  1.0  -0.0372
  C  C134  1  0.175800  0.855000  0.309300  1.0  0.7425
  C  C135  1  0.303500  0.204000  0.313800  1.0  0.7652
  C  C136  1  0.428400  0.067100  0.117800  1.0  -0.0432
  C  C137  1  0.418100  0.106000  0.049900  1.0  -0.0531
  C  C138  1  0.476300  0.118600  0.984800  1.0  0.003
  C  C139  1  0.542200  0.088200  0.987700  1.0  -0.1393
  C  C140  1  0.552200  0.048100  0.056500  1.0  -0.0459
  C  C141  1  0.499200  0.041400  0.121900  1.0  -0.0666
  C  C142  1  0.339300  0.125800  0.037900  1.0  0.7204
  C  C143  1  0.594600  0.089600  0.917600  1.0  0.6832
  C  C144  1  0.524600  0.010100  0.195600  1.0  0.6648
  O  O145  1  0.828900  0.612300  0.776800  1.0  -0.5747
  O  O146  1  0.876300  0.726900  0.863700  1.0  -0.6236
  O  O147  1  0.720400  0.918700  0.883100  1.0  -0.5964
  O  O148  1  0.672300  0.946300  0.770300  1.0  -0.5663
  O  O149  1  0.745000  0.802400  0.548400  1.0  -0.5411
  O  O150  1  0.639300  0.847500  0.514500  1.0  -0.5734
  O  O151  1  0.401900  0.539200  0.360500  1.0  -0.5426
  O  O152  1  0.369000  0.405400  0.413200  1.0  -0.6472
  O  O153  1  0.463600  0.401600  0.691000  1.0  -0.57
  O  O154  1  0.460100  0.515300  0.755700  1.0  -0.5498
  O  O155  1  0.387700  0.216600  0.776800  1.0  -0.5772
  O  O156  1  0.273100  0.149400  0.863700  1.0  -0.6207
  O  O157  1  0.081300  0.801700  0.883100  1.0  -0.5976
  O  O158  1  0.053700  0.726000  0.770300  1.0  -0.5651
  O  O159  1  0.197600  0.942600  0.548400  1.0  -0.5374
  O  O160  1  0.152500  0.791800  0.514500  1.0  -0.5743
  O  O161  1  0.460800  0.862700  0.360500  1.0  -0.5429
  O  O162  1  0.594600  0.963600  0.413200  1.0  -0.6438
  O  O163  1  0.598400  0.062000  0.691000  1.0  -0.5699
  O  O164  1  0.484700  0.944800  0.755700  1.0  -0.5451
  O  O165  1  0.783400  0.171100  0.776800  1.0  -0.576
  O  O166  1  0.850600  0.123700  0.863700  1.0  -0.6187
  O  O167  1  0.198300  0.279600  0.883100  1.0  -0.5974
  O  O168  1  0.274000  0.327700  0.770300  1.0  -0.5668
  O  O169  1  0.057400  0.255000  0.548400  1.0  -0.5375
  O  O170  1  0.208200  0.360700  0.514500  1.0  -0.5736
  O  O171  1  0.137300  0.598100  0.360500  1.0  -0.545
  O  O172  1  0.036400  0.631000  0.413200  1.0  -0.6468
  O  O173  1  0.938000  0.536400  0.691000  1.0  -0.5711
  O  O174  1  0.055200  0.539900  0.755700  1.0  -0.5502
  O  O175  1  0.612300  0.828900  0.276800  1.0  -0.5761
  O  O176  1  0.726900  0.876300  0.363700  1.0  -0.6213
  O  O177  1  0.918700  0.720400  0.383100  1.0  -0.5973
  O  O178  1  0.946300  0.672300  0.270300  1.0  -0.5665
  O  O179  1  0.802400  0.745000  0.048400  1.0  -0.5347
  O  O180  1  0.847500  0.639300  0.014500  1.0  -0.5732
  O  O181  1  0.539200  0.401900  0.860500  1.0  -0.5453
  O  O182  1  0.405400  0.369000  0.913200  1.0  -0.6468
  O  O183  1  0.401600  0.463600  0.191000  1.0  -0.5703
  O  O184  1  0.515300  0.460100  0.255700  1.0  -0.5501
  O  O185  1  0.216600  0.387700  0.276800  1.0  -0.5761
  O  O186  1  0.149400  0.273100  0.363700  1.0  -0.6201
  O  O187  1  0.801700  0.081300  0.383100  1.0  -0.5963
  O  O188  1  0.726000  0.053700  0.270300  1.0  -0.5662
  O  O189  1  0.942600  0.197600  0.048400  1.0  -0.5413
  O  O190  1  0.791800  0.152500  0.014500  1.0  -0.5743
  O  O191  1  0.862700  0.460800  0.860500  1.0  -0.5431
  O  O192  1  0.963600  0.594600  0.913200  1.0  -0.6474
  O  O193  1  0.062000  0.598400  0.191000  1.0  -0.5702
  O  O194  1  0.944800  0.484700  0.255700  1.0  -0.5484
  O  O195  1  0.171100  0.783400  0.276800  1.0  -0.5766
  O  O196  1  0.123700  0.850600  0.363700  1.0  -0.6208
  O  O197  1  0.279600  0.198300  0.383100  1.0  -0.5969
  O  O198  1  0.327700  0.274000  0.270300  1.0  -0.5655
  O  O199  1  0.255000  0.057400  0.048400  1.0  -0.5364
  O  O200  1  0.360700  0.208200  0.014500  1.0  -0.5745
  O  O201  1  0.598100  0.137300  0.860500  1.0  -0.542
  O  O202  1  0.631000  0.036400  0.913200  1.0  -0.6435
  O  O203  1  0.536400  0.938000  0.191000  1.0  -0.5699
  O  O204  1  0.539900  0.055200  0.255700  1.0  -0.5449
