# generated using pymatgen
data_CdHgC4(SN)4
_symmetry_space_group_name_H-M   'P 1'
_cell_length_a   9.25150000
_cell_length_b   14.16700000
_cell_length_c   16.58980000
_cell_angle_alpha   90.00000000
_cell_angle_beta   93.03200000
_cell_angle_gamma   90.00000000
_symmetry_Int_Tables_number   1
_chemical_formula_structural   CdHgC4(SN)4
_chemical_formula_sum   'Cd4 Hg4 C16 S16 N16'
_cell_volume   2171.31495705
_cell_formula_units_Z   4
loop_
 _symmetry_equiv_pos_site_id
 _symmetry_equiv_pos_as_xyz
  1  'x, y, z'
loop_
 _atom_site_type_symbol
 _atom_site_label
 _atom_site_symmetry_multiplicity
 _atom_site_fract_x
 _atom_site_fract_y
 _atom_site_fract_z
 _atom_site_occupancy
 _atom_site_charge
  Cd  Cd1  1  0.973160  0.843170  0.244170  1.0  1.1402
  Cd  Cd2  1  0.526840  0.343170  0.255830  1.0  1.1409
  Cd  Cd3  1  0.026840  0.156830  0.755830  1.0  1.1402
  Cd  Cd4  1  0.473160  0.656830  0.744170  1.0  1.14
  Hg  Hg5  1  0.979970  0.795690  0.918170  1.0  0.4059
  Hg  Hg6  1  0.520030  0.295690  0.581830  1.0  0.4061
  Hg  Hg7  1  0.020030  0.204310  0.081830  1.0  0.4066
  Hg  Hg8  1  0.479970  0.704310  0.418170  1.0  0.4062
  C  C9  1  0.057000  0.704700  0.084600  1.0  0.3758
  C  C10  1  0.141100  0.710800  0.392900  1.0  0.3846
  C  C11  1  0.635300  0.751400  0.257500  1.0  0.3794
  C  C12  1  0.866800  0.005600  0.102100  1.0  0.383
  C  C13  1  0.443000  0.204700  0.415400  1.0  0.3755
  C  C14  1  0.358900  0.210800  0.107100  1.0  0.385
  C  C15  1  0.864700  0.251400  0.242500  1.0  0.3782
  C  C16  1  0.633200  0.505600  0.397900  1.0  0.383
  C  C17  1  0.943000  0.295300  0.915400  1.0  0.376
  C  C18  1  0.858900  0.289200  0.607100  1.0  0.385
  C  C19  1  0.364700  0.248600  0.742500  1.0  0.3784
  C  C20  1  0.133200  0.994400  0.897900  1.0  0.3833
  C  C21  1  0.557000  0.795300  0.584600  1.0  0.3764
  C  C22  1  0.641100  0.789200  0.892900  1.0  0.3846
  C  C23  1  0.135300  0.748600  0.757500  1.0  0.3795
  C  C24  1  0.366800  0.494400  0.602100  1.0  0.3835
  S  S25  1  0.060340  0.647430  0.998060  1.0  -0.2615
  S  S26  1  0.235730  0.654890  0.465090  1.0  -0.2242
  S  S27  1  0.463440  0.721860  0.267520  1.0  -0.2612
  S  S28  1  0.818130  0.092070  0.039190  1.0  -0.2339
  S  S29  1  0.439660  0.147430  0.501940  1.0  -0.2625
  S  S30  1  0.264270  0.154890  0.034910  1.0  -0.2241
  S  S31  1  0.036560  0.221860  0.232480  1.0  -0.2617
  S  S32  1  0.681870  0.592070  0.460810  1.0  -0.2339
  S  S33  1  0.939660  0.352570  0.001940  1.0  -0.2617
  S  S34  1  0.764270  0.345110  0.534910  1.0  -0.2236
  S  S35  1  0.536560  0.278140  0.732480  1.0  -0.2618
  S  S36  1  0.181870  0.907930  0.960810  1.0  -0.2339
  S  S37  1  0.560340  0.852570  0.498060  1.0  -0.2602
  S  S38  1  0.735730  0.845110  0.965090  1.0  -0.2238
  S  S39  1  0.963440  0.778140  0.767520  1.0  -0.2613
  S  S40  1  0.318130  0.407930  0.539190  1.0  -0.234
  N  N41  1  0.052900  0.743900  0.144500  1.0  -0.525
  N  N42  1  0.072500  0.749900  0.344100  1.0  -0.5382
  N  N43  1  0.750900  0.772100  0.247100  1.0  -0.4985
  N  N44  1  0.896700  0.946400  0.144100  1.0  -0.5247
  N  N45  1  0.447100  0.243900  0.355500  1.0  -0.5275
  N  N46  1  0.427500  0.249900  0.155900  1.0  -0.5369
  N  N47  1  0.749100  0.272100  0.252900  1.0  -0.4995
  N  N48  1  0.603300  0.446400  0.355900  1.0  -0.5257
  N  N49  1  0.947100  0.256100  0.855500  1.0  -0.528
  N  N50  1  0.927500  0.250100  0.655900  1.0  -0.5363
  N  N51  1  0.249100  0.227900  0.752900  1.0  -0.4994
  N  N52  1  0.103300  0.053600  0.855900  1.0  -0.5261
  N  N53  1  0.552900  0.756100  0.644500  1.0  -0.5254
  N  N54  1  0.572500  0.750100  0.844100  1.0  -0.5382
  N  N55  1  0.250900  0.727900  0.747100  1.0  -0.4984
  N  N56  1  0.396700  0.553600  0.644100  1.0  -0.5261
