# generated using pymatgen
data_MnHgC4(SN)4
_symmetry_space_group_name_H-M   'P 1'
_cell_length_a   9.24580000
_cell_length_b   14.11100000
_cell_length_c   16.49370000
_cell_angle_alpha   90.00000000
_cell_angle_beta   92.91200000
_cell_angle_gamma   90.00000000
_symmetry_Int_Tables_number   1
_chemical_formula_structural   MnHgC4(SN)4
_chemical_formula_sum   'Mn4 Hg4 C16 S16 N16'
_cell_volume   2149.11288419
_cell_formula_units_Z   4
loop_
 _symmetry_equiv_pos_site_id
 _symmetry_equiv_pos_as_xyz
  1  'x, y, z'
loop_
 _atom_site_type_symbol
 _atom_site_label
 _atom_site_symmetry_multiplicity
 _atom_site_fract_x
 _atom_site_fract_y
 _atom_site_fract_z
 _atom_site_occupancy
 _atom_site_charge
  Mn  Mn1  1  0.020630  0.651750  0.253950  1.0  1.1467
  Mn  Mn2  1  0.479370  0.151750  0.246050  1.0  1.1461
  Mn  Mn3  1  0.979370  0.348250  0.746050  1.0  1.1444
  Mn  Mn4  1  0.520630  0.848250  0.753950  1.0  1.1456
  Hg  Hg5  1  0.516220  0.795390  0.081310  1.0  0.4118
  Hg  Hg6  1  0.983780  0.295390  0.418690  1.0  0.4118
  Hg  Hg7  1  0.483780  0.204610  0.918690  1.0  0.4118
  Hg  Hg8  1  0.016220  0.704610  0.581310  1.0  0.4115
  C  C9  1  0.856300  0.785900  0.110100  1.0  0.3809
  C  C10  1  0.946500  0.790900  0.411000  1.0  0.3657
  C  C11  1  0.132200  0.495600  0.395500  1.0  0.3771
  C  C12  1  0.352400  0.742800  0.240000  1.0  0.3677
  C  C13  1  0.643700  0.285900  0.389900  1.0  0.3811
  C  C14  1  0.553500  0.290900  0.089000  1.0  0.3664
  C  C15  1  0.367800  0.995600  0.104500  1.0  0.3781
  C  C16  1  0.147600  0.242800  0.260000  1.0  0.3682
  C  C17  1  0.143700  0.214100  0.889900  1.0  0.3825
  C  C18  1  0.053500  0.209100  0.589000  1.0  0.3658
  C  C19  1  0.867800  0.504400  0.604500  1.0  0.3783
  C  C20  1  0.647600  0.257200  0.760000  1.0  0.368
  C  C21  1  0.356300  0.714100  0.610100  1.0  0.3821
  C  C22  1  0.446500  0.709100  0.911000  1.0  0.3653
  C  C23  1  0.632200  0.004400  0.895500  1.0  0.3774
  C  C24  1  0.852400  0.757200  0.740000  1.0  0.3676
  S  S25  1  0.763570  0.844730  0.038420  1.0  -0.2241
  S  S26  1  0.938340  0.851060  0.496590  1.0  -0.2585
  S  S27  1  0.181610  0.411710  0.460900  1.0  -0.222
  S  S28  1  0.524270  0.773220  0.232270  1.0  -0.2551
  S  S29  1  0.736430  0.344730  0.461580  1.0  -0.224
  S  S30  1  0.561660  0.351060  0.003410  1.0  -0.2573
  S  S31  1  0.318390  0.911710  0.039100  1.0  -0.2223
  S  S32  1  0.975730  0.273220  0.267730  1.0  -0.255
  S  S33  1  0.236430  0.155270  0.961580  1.0  -0.2243
  S  S34  1  0.061660  0.148940  0.503410  1.0  -0.2572
  S  S35  1  0.818390  0.588290  0.539100  1.0  -0.2223
  S  S36  1  0.475730  0.226780  0.767730  1.0  -0.2547
  S  S37  1  0.263570  0.655270  0.538420  1.0  -0.2244
  S  S38  1  0.438340  0.648940  0.996590  1.0  -0.2586
  S  S39  1  0.681610  0.088290  0.960900  1.0  -0.2222
  S  S40  1  0.024270  0.726780  0.732270  1.0  -0.2548
  N  N41  1  0.923000  0.745100  0.159000  1.0  -0.5394
  N  N42  1  0.953200  0.749900  0.351600  1.0  -0.5172
  N  N43  1  0.100800  0.554100  0.351100  1.0  -0.5443
  N  N44  1  0.236200  0.720200  0.247800  1.0  -0.4935
  N  N45  1  0.577000  0.245100  0.341000  1.0  -0.5394
  N  N46  1  0.546800  0.249900  0.148400  1.0  -0.5153
  N  N47  1  0.399200  0.054100  0.148900  1.0  -0.5437
  N  N48  1  0.263800  0.220200  0.252200  1.0  -0.4905
  N  N49  1  0.077000  0.254900  0.841000  1.0  -0.5398
  N  N50  1  0.046800  0.250100  0.648400  1.0  -0.515
  N  N51  1  0.899200  0.445900  0.648900  1.0  -0.5423
  N  N52  1  0.763800  0.279800  0.752200  1.0  -0.4904
  N  N53  1  0.423000  0.754900  0.659000  1.0  -0.54
  N  N54  1  0.453200  0.750100  0.851600  1.0  -0.5173
  N  N55  1  0.600800  0.945900  0.851100  1.0  -0.5434
  N  N56  1  0.736200  0.779800  0.747800  1.0  -0.4933
