# generated using pymatgen
data_Gd3PH13C14NO19
_symmetry_space_group_name_H-M   'P 1'
_cell_length_a   10.58700000
_cell_length_b   26.04880000
_cell_length_c   11.76310000
_cell_angle_alpha   90.00000000
_cell_angle_beta   98.32600000
_cell_angle_gamma   90.00000000
_symmetry_Int_Tables_number   1
_chemical_formula_structural   Gd3PH13C14NO19
_chemical_formula_sum   'Gd12 P4 H52 C56 N4 O76'
_cell_volume   3209.82048713
_cell_formula_units_Z   4
loop_
 _symmetry_equiv_pos_site_id
 _symmetry_equiv_pos_as_xyz
  1  'x, y, z'
loop_
 _atom_site_type_symbol
 _atom_site_label
 _atom_site_symmetry_multiplicity
 _atom_site_fract_x
 _atom_site_fract_y
 _atom_site_fract_z
 _atom_site_occupancy
 _atom_site_charge
  Gd  Gd1  1  0.852790  0.911320  0.862640  1.0  2.1621
  Gd  Gd2  1  0.360220  0.786710  0.945400  1.0  2.1492
  Gd  Gd3  1  0.774830  0.034330  0.460970  1.0  1.9754
  Gd  Gd4  1  0.147210  0.411320  0.637360  1.0  2.1621
  Gd  Gd5  1  0.639780  0.286710  0.554600  1.0  2.15
  Gd  Gd6  1  0.225170  0.534330  0.039030  1.0  1.9745
  Gd  Gd7  1  0.147210  0.088680  0.137360  1.0  2.1614
  Gd  Gd8  1  0.639780  0.213290  0.054600  1.0  2.1499
  Gd  Gd9  1  0.225170  0.965670  0.539030  1.0  1.9742
  Gd  Gd10  1  0.852790  0.588680  0.362640  1.0  2.1615
  Gd  Gd11  1  0.360220  0.713290  0.445400  1.0  2.149
  Gd  Gd12  1  0.774830  0.465670  0.960970  1.0  1.9751
  P  P13  1  0.910610  0.912790  0.560030  1.0  1.6098
  P  P14  1  0.089390  0.412790  0.939970  1.0  1.6095
  P  P15  1  0.089390  0.087210  0.439970  1.0  1.6114
  P  P16  1  0.910610  0.587210  0.060030  1.0  1.6114
  H  H17  1  0.819200  0.861200  0.343200  1.0  0.1976
  H  H18  1  0.929100  0.823800  0.552900  1.0  0.1399
  H  H19  1  0.785200  0.839300  0.528800  1.0  0.1473
  H  H20  1  0.724900  0.783700  0.372500  1.0  0.0776
  H  H21  1  0.861200  0.758700  0.395900  1.0  0.0763
  H  H22  1  0.771700  0.741500  0.206200  1.0  0.0793
  H  H23  1  0.749500  0.800300  0.182100  1.0  0.0741
  H  H24  1  0.927600  0.775800  0.104200  1.0  0.0703
  H  H25  1  0.990000  0.752000  0.221800  1.0  0.0665
  H  H26  1  0.081500  0.832500  0.203900  1.0  0.0737
  H  H27  1  0.946200  0.858400  0.181500  1.0  0.08
  H  H28  1  0.052900  0.813300  0.393100  1.0  0.0737
  H  H29  1  0.037000  0.872700  0.372600  1.0  0.0736
  H  H30  1  0.180800  0.361200  0.156800  1.0  0.1989
  H  H31  1  0.070900  0.323800  0.947100  1.0  0.1409
  H  H32  1  0.214800  0.339300  0.971200  1.0  0.1464
  H  H33  1  0.275100  0.283700  0.127500  1.0  0.079
  H  H34  1  0.138800  0.258700  0.104100  1.0  0.0761
  H  H35  1  0.228300  0.241500  0.293800  1.0  0.0792
  H  H36  1  0.250500  0.300300  0.317900  1.0  0.0719
  H  H37  1  0.072400  0.275800  0.395800  1.0  0.0704
  H  H38  1  0.010000  0.252000  0.278200  1.0  0.0672
  H  H39  1  0.918500  0.332500  0.296100  1.0  0.0755
  H  H40  1  0.053800  0.358400  0.318500  1.0  0.0789
  H  H41  1  0.947100  0.313300  0.106900  1.0  0.0741
  H  H42  1  0.963000  0.372700  0.127400  1.0  0.0752
  H  H43  1  0.180800  0.138800  0.656800  1.0  0.1994
  H  H44  1  0.070900  0.176200  0.447100  1.0  0.1404
  H  H45  1  0.214800  0.160700  0.471200  1.0  0.1462
  H  H46  1  0.275100  0.216300  0.627500  1.0  0.0787
  H  H47  1  0.138800  0.241300  0.604100  1.0  0.0762
  H  H48  1  0.228300  0.258500  0.793800  1.0  0.0797
  H  H49  1  0.250500  0.199700  0.817900  1.0  0.0718
  H  H50  1  0.072400  0.224200  0.895800  1.0  0.0707
  H  H51  1  0.010000  0.248000  0.778200  1.0  0.066
  H  H52  1  0.918500  0.167500  0.796100  1.0  0.0755
  H  H53  1  0.053800  0.141600  0.818500  1.0  0.0805
  H  H54  1  0.947100  0.186700  0.606900  1.0  0.0736
  H  H55  1  0.963000  0.127300  0.627400  1.0  0.0738
  H  H56  1  0.819200  0.638800  0.843200  1.0  0.1979
  H  H57  1  0.929100  0.676200  0.052900  1.0  0.1401
  H  H58  1  0.785200  0.660700  0.028800  1.0  0.1473
  H  H59  1  0.724900  0.716300  0.872500  1.0  0.0776
  H  H60  1  0.861200  0.741300  0.895900  1.0  0.0754
  H  H61  1  0.771700  0.758500  0.706200  1.0  0.0811
  H  H62  1  0.749500  0.699700  0.682100  1.0  0.0737
  H  H63  1  0.927600  0.724200  0.604200  1.0  0.0706
  H  H64  1  0.990000  0.748000  0.721800  1.0  0.0656
  H  H65  1  0.081500  0.667500  0.703900  1.0  0.0726
  H  H66  1  0.946200  0.641600  0.681500  1.0  0.08
  H  H67  1  0.052900  0.686700  0.893100  1.0  0.0742
  H  H68  1  0.037000  0.627300  0.872600  1.0  0.0751
  C  C69  1  0.869200  0.847310  0.509900  1.0  -0.5549
  C  C70  1  0.810700  0.785120  0.352700  1.0  -0.0788
  C  C71  1  0.806300  0.775500  0.224600  1.0  -0.136
  C  C72  1  0.935700  0.779400  0.187100  1.0  -0.1401
  C  C73  1  0.995500  0.831200  0.223100  1.0  -0.1482
  C  C74  1  0.999600  0.839400  0.351400  1.0  -0.0952
  C  C75  1  0.619400  0.855210  0.963000  1.0  0.6022
  C  C76  1  0.612200  0.831880  0.842200  1.0  0.5557
  C  C77  1  0.072100  0.827100  0.920300  1.0  0.6403
  C  C78  1  0.151200  0.876130  0.907100  1.0  0.5528
  C  C79  1  0.329800  0.722530  0.714700  1.0  0.5726
  C  C80  1  0.291300  0.777140  0.668000  1.0  0.5357
  C  C81  1  0.004600  0.983360  0.055700  1.0  0.5466
  C  C82  1  0.519700  0.001350  0.565600  1.0  0.5459
  C  C83  1  0.130800  0.347310  0.990100  1.0  -0.553
  C  C84  1  0.189300  0.285120  0.147300  1.0  -0.0787
  C  C85  1  0.193700  0.275500  0.275400  1.0  -0.1375
  C  C86  1  0.064300  0.279400  0.312900  1.0  -0.1402
  C  C87  1  0.004500  0.331200  0.276900  1.0  -0.1472
  C  C88  1  0.000400  0.339400  0.148600  1.0  -0.0926
  C  C89  1  0.380600  0.355210  0.537000  1.0  0.6026
  C  C90  1  0.387800  0.331880  0.657800  1.0  0.5548
  C  C91  1  0.927900  0.327100  0.579700  1.0  0.6395
  C  C92  1  0.848800  0.376130  0.592900  1.0  0.5538
  C  C93  1  0.670200  0.222530  0.785300  1.0  0.573
  C  C94  1  0.708700  0.277140  0.832000  1.0  0.5361
  C  C95  1  0.995400  0.483360  0.444300  1.0  0.5479
  C  C96  1  0.480300  0.501350  0.934400  1.0  0.5448
  C  C97  1  0.130800  0.152690  0.490100  1.0  -0.5529
  C  C98  1  0.189300  0.214880  0.647300  1.0  -0.0789
  C  C99  1  0.193700  0.224500  0.775400  1.0  -0.1363
  C  C100  1  0.064300  0.220600  0.812900  1.0  -0.1402
  C  C101  1  0.004500  0.168800  0.776900  1.0  -0.1465
  C  C102  1  0.000400  0.160600  0.648600  1.0  -0.0926
  C  C103  1  0.380600  0.144790  0.037000  1.0  0.6038
  C  C104  1  0.387800  0.168120  0.157800  1.0  0.5555
  C  C105  1  0.927900  0.172900  0.079700  1.0  0.6386
  C  C106  1  0.848800  0.123870  0.092900  1.0  0.5521
  C  C107  1  0.670200  0.277470  0.285300  1.0  0.5733
  C  C108  1  0.708700  0.222860  0.332000  1.0  0.5362
  C  C109  1  0.995400  0.016640  0.944300  1.0  0.5487
  C  C110  1  0.480300  0.998650  0.434400  1.0  0.5449
  C  C111  1  0.869200  0.652690  0.009900  1.0  -0.5518
  C  C112  1  0.810700  0.714880  0.852700  1.0  -0.0791
  C  C113  1  0.806300  0.724500  0.724600  1.0  -0.136
  C  C114  1  0.935700  0.720600  0.687100  1.0  -0.1404
  C  C115  1  0.995500  0.668800  0.723100  1.0  -0.1479
  C  C116  1  0.999600  0.660600  0.851400  1.0  -0.0961
  C  C117  1  0.619400  0.644790  0.463000  1.0  0.6027
  C  C118  1  0.612200  0.668120  0.342200  1.0  0.5547
  C  C119  1  0.072100  0.672900  0.420300  1.0  0.6395
  C  C120  1  0.151200  0.623870  0.407100  1.0  0.5526
  C  C121  1  0.329800  0.777470  0.214700  1.0  0.5713
  C  C122  1  0.291300  0.722860  0.168000  1.0  0.5353
  C  C123  1  0.004600  0.516640  0.555700  1.0  0.5475
  C  C124  1  0.519700  0.498650  0.065600  1.0  0.5461
  N  N125  1  0.868200  0.836930  0.384000  1.0  0.1363
  N  N126  1  0.131800  0.336930  0.116000  1.0  0.1364
  N  N127  1  0.131800  0.163070  0.616000  1.0  0.1353
  N  N128  1  0.868200  0.663070  0.884000  1.0  0.1367
  O  O129  1  0.860300  0.914440  0.673100  1.0  -0.9313
  O  O130  1  0.842600  0.949450  0.471100  1.0  -0.9216
  O  O131  1  0.053600  0.918230  0.571000  1.0  -0.9307
  O  O132  1  0.532800  0.844470  0.019400  1.0  -0.6145
  O  O133  1  0.713800  0.883750  0.995500  1.0  -0.6527
  O  O134  1  0.524900  0.799830  0.814500  1.0  -0.6001
  O  O135  1  0.693000  0.847120  0.782700  1.0  -0.6298
  O  O136  1  0.133000  0.786340  0.942000  1.0  -0.6364
  O  O137  1  0.953200  0.832040  0.908100  1.0  -0.6146
  O  O138  1  0.270600  0.872560  0.932200  1.0  -0.6073
  O  O139  1  0.089700  0.915410  0.872700  1.0  -0.5912
  O  O140  1  0.335800  0.715000  0.820000  1.0  -0.6264
  O  O141  1  0.352700  0.690410  0.641900  1.0  -0.613
  O  O142  1  0.263900  0.808430  0.741600  1.0  -0.5977
  O  O143  1  0.293000  0.785010  0.563900  1.0  -0.5975
  O  O144  1  0.938300  0.943680  0.050400  1.0  -0.6107
  O  O145  1  0.078300  0.999900  0.140600  1.0  -0.6194
  O  O146  1  0.635700  0.009790  0.600800  1.0  -0.6253
  O  O147  1  0.434400  0.995060  0.626500  1.0  -0.6465
  O  O148  1  0.139700  0.414440  0.826900  1.0  -0.9317
  O  O149  1  0.157400  0.449450  0.028900  1.0  -0.9215
  O  O150  1  0.946400  0.418230  0.929000  1.0  -0.9314
  O  O151  1  0.467200  0.344470  0.480600  1.0  -0.6155
  O  O152  1  0.286200  0.383750  0.504500  1.0  -0.6506
  O  O153  1  0.475100  0.299830  0.685500  1.0  -0.6022
  O  O154  1  0.307000  0.347120  0.717300  1.0  -0.6274
  O  O155  1  0.867000  0.286340  0.558000  1.0  -0.6355
  O  O156  1  0.046800  0.332040  0.591900  1.0  -0.615
  O  O157  1  0.729400  0.372560  0.567800  1.0  -0.6066
  O  O158  1  0.910300  0.415410  0.627300  1.0  -0.5931
  O  O159  1  0.664200  0.215000  0.680000  1.0  -0.6271
  O  O160  1  0.647300  0.190410  0.858100  1.0  -0.6129
  O  O161  1  0.736100  0.308430  0.758400  1.0  -0.5975
  O  O162  1  0.707000  0.285010  0.936100  1.0  -0.5998
  O  O163  1  0.061700  0.443680  0.449600  1.0  -0.611
  O  O164  1  0.921700  0.499900  0.359400  1.0  -0.6168
  O  O165  1  0.364300  0.509790  0.899200  1.0  -0.6239
  O  O166  1  0.565600  0.495060  0.873500  1.0  -0.6453
  O  O167  1  0.139700  0.085560  0.326900  1.0  -0.9318
  O  O168  1  0.157400  0.050550  0.528900  1.0  -0.9218
  O  O169  1  0.946400  0.081770  0.429000  1.0  -0.9314
  O  O170  1  0.467200  0.155530  0.980600  1.0  -0.615
  O  O171  1  0.286200  0.116250  0.004500  1.0  -0.6507
  O  O172  1  0.475100  0.200170  0.185500  1.0  -0.6023
  O  O173  1  0.307000  0.152880  0.217300  1.0  -0.6278
  O  O174  1  0.867000  0.213660  0.058000  1.0  -0.6346
  O  O175  1  0.046800  0.167960  0.091900  1.0  -0.6157
  O  O176  1  0.729400  0.127440  0.067800  1.0  -0.6076
  O  O177  1  0.910300  0.084590  0.127300  1.0  -0.5931
  O  O178  1  0.664200  0.285000  0.180000  1.0  -0.6274
  O  O179  1  0.647300  0.309590  0.358100  1.0  -0.6137
  O  O180  1  0.736100  0.191570  0.258400  1.0  -0.597
  O  O181  1  0.707000  0.214990  0.436100  1.0  -0.5989
  O  O182  1  0.061700  0.056320  0.949600  1.0  -0.6108
  O  O183  1  0.921700  0.000100  0.859400  1.0  -0.6161
  O  O184  1  0.364300  0.990210  0.399200  1.0  -0.6245
  O  O185  1  0.565600  0.004940  0.373500  1.0  -0.6451
  O  O186  1  0.860300  0.585560  0.173100  1.0  -0.9313
  O  O187  1  0.842600  0.550550  0.971100  1.0  -0.9208
  O  O188  1  0.053600  0.581770  0.071000  1.0  -0.9313
  O  O189  1  0.532800  0.655530  0.519400  1.0  -0.6137
  O  O190  1  0.713800  0.616250  0.495500  1.0  -0.6506
  O  O191  1  0.524900  0.700170  0.314500  1.0  -0.6008
  O  O192  1  0.693000  0.652880  0.282700  1.0  -0.6299
  O  O193  1  0.133000  0.713660  0.442000  1.0  -0.6354
  O  O194  1  0.953200  0.667960  0.408100  1.0  -0.6157
  O  O195  1  0.270600  0.627440  0.432200  1.0  -0.6081
  O  O196  1  0.089700  0.584590  0.372700  1.0  -0.5934
  O  O197  1  0.335800  0.785000  0.320000  1.0  -0.6278
  O  O198  1  0.352700  0.809590  0.141900  1.0  -0.6118
  O  O199  1  0.263900  0.691570  0.241600  1.0  -0.5976
  O  O200  1  0.293000  0.714990  0.063900  1.0  -0.5998
  O  O201  1  0.938300  0.556320  0.550400  1.0  -0.6096
  O  O202  1  0.078300  0.500100  0.640600  1.0  -0.6186
  O  O203  1  0.635700  0.490210  0.100800  1.0  -0.6247
  O  O204  1  0.434400  0.504940  0.126500  1.0  -0.6471
