# generated using pymatgen
data_CdH20C17N8
_symmetry_space_group_name_H-M   'P 1'
_cell_length_a   12.50800000
_cell_length_b   12.75400000
_cell_length_c   15.26500000
_cell_angle_alpha   90.00000000
_cell_angle_beta   104.78200000
_cell_angle_gamma   90.00000000
_symmetry_Int_Tables_number   1
_chemical_formula_structural   CdH20C17N8
_chemical_formula_sum   'Cd4 H80 C68 N32'
_cell_volume   2354.58442679
_cell_formula_units_Z   4
loop_
 _symmetry_equiv_pos_site_id
 _symmetry_equiv_pos_as_xyz
  1  'x, y, z'
loop_
 _atom_site_type_symbol
 _atom_site_label
 _atom_site_symmetry_multiplicity
 _atom_site_fract_x
 _atom_site_fract_y
 _atom_site_fract_z
 _atom_site_occupancy
 _atom_site_charge
  Cd  Cd1  1  0.226580  0.225600  0.082020  1.0  0.7552
  Cd  Cd2  1  0.773420  0.725600  0.417980  1.0  0.7566
  Cd  Cd3  1  0.773420  0.774410  0.917980  1.0  0.7566
  Cd  Cd4  1  0.226580  0.274410  0.582020  1.0  0.7552
  H  H5  1  0.479200  0.314300  0.191700  1.0  0.0687
  H  H6  1  0.432200  0.034500  0.085800  1.0  0.0709
  H  H7  1  0.631900  0.065200  0.131300  1.0  0.1071
  H  H8  1  0.684800  0.311100  0.260900  1.0  0.07
  H  H9  1  0.751800  0.214300  0.241200  1.0  0.0806
  H  H10  1  0.706600  0.259100  0.020300  1.0  0.0913
  H  H11  1  0.775900  0.187300  0.097100  1.0  0.071
  H  H12  1  0.979900  0.182100  0.119400  1.0  0.0858
  H  H13  1  0.832300  0.403200  0.949500  1.0  0.0885
  H  H14  1  0.025700  0.391000  0.945300  1.0  0.0704
  H  H15  1  0.867200  0.465300  0.487300  1.0  0.0759
  H  H16  1  0.894800  0.327600  0.385500  1.0  0.0941
  H  H17  1  0.795200  0.583000  0.244100  1.0  0.0741
  H  H18  1  0.875900  0.432200  0.161500  1.0  0.0643
  H  H19  1  0.907100  0.327800  0.216000  1.0  0.0628
  H  H20  1  0.645200  0.461500  0.152100  1.0  0.0748
  H  H21  1  0.582400  0.377400  0.083600  1.0  0.0528
  H  H22  1  0.760200  0.600900  0.085800  1.0  0.0653
  H  H23  1  0.643900  0.537100  0.829000  1.0  0.0802
  H  H24  1  0.585500  0.395700  0.914100  1.0  0.1148
  H  H25  1  0.520800  0.814300  0.308300  1.0  0.0683
  H  H26  1  0.567800  0.534500  0.414200  1.0  0.0709
  H  H27  1  0.368100  0.565200  0.368700  1.0  0.1079
  H  H28  1  0.315200  0.811100  0.239100  1.0  0.0699
  H  H29  1  0.248200  0.714300  0.258800  1.0  0.0798
  H  H30  1  0.293400  0.759100  0.479700  1.0  0.0907
  H  H31  1  0.224100  0.687300  0.402900  1.0  0.0705
  H  H32  1  0.020100  0.682100  0.380600  1.0  0.0858
  H  H33  1  0.167700  0.903200  0.550500  1.0  0.0876
  H  H34  1  0.974300  0.891000  0.554700  1.0  0.0702
  H  H35  1  0.132800  0.965300  0.012700  1.0  0.0765
  H  H36  1  0.105200  0.827600  0.114500  1.0  0.0947
  H  H37  1  0.204800  0.083000  0.255900  1.0  0.0746
  H  H38  1  0.124100  0.932200  0.338500  1.0  0.0644
  H  H39  1  0.092900  0.827800  0.284000  1.0  0.0623
  H  H40  1  0.354800  0.961500  0.347900  1.0  0.0755
  H  H41  1  0.417600  0.877400  0.416400  1.0  0.0536
  H  H42  1  0.239800  0.100900  0.414200  1.0  0.0652
  H  H43  1  0.356100  0.037100  0.671000  1.0  0.0795
  H  H44  1  0.414500  0.895700  0.585900  1.0  0.1159
  H  H45  1  0.520800  0.685700  0.808300  1.0  0.0686
  H  H46  1  0.567800  0.965500  0.914200  1.0  0.0707
  H  H47  1  0.368100  0.934800  0.868700  1.0  0.1085
  H  H48  1  0.315200  0.688900  0.739100  1.0  0.0701
  H  H49  1  0.248200  0.785700  0.758800  1.0  0.0794
  H  H50  1  0.293400  0.740900  0.979700  1.0  0.0897
  H  H51  1  0.224100  0.812700  0.902900  1.0  0.0706
  H  H52  1  0.020100  0.817900  0.880600  1.0  0.0865
  H  H53  1  0.167700  0.596800  0.050500  1.0  0.0877
  H  H54  1  0.974300  0.609000  0.054700  1.0  0.0705
  H  H55  1  0.132800  0.534700  0.512700  1.0  0.0766
  H  H56  1  0.105200  0.672400  0.614500  1.0  0.0944
  H  H57  1  0.204800  0.417000  0.755900  1.0  0.0744
  H  H58  1  0.124100  0.567800  0.838500  1.0  0.0651
  H  H59  1  0.092900  0.672200  0.784000  1.0  0.063
  H  H60  1  0.354800  0.538500  0.847900  1.0  0.0755
  H  H61  1  0.417600  0.622600  0.916400  1.0  0.0539
  H  H62  1  0.239800  0.399100  0.914200  1.0  0.0669
  H  H63  1  0.356100  0.462900  0.171000  1.0  0.0797
  H  H64  1  0.414500  0.604300  0.085900  1.0  0.1158
  H  H65  1  0.479200  0.185700  0.691700  1.0  0.0693
  H  H66  1  0.432200  0.465500  0.585800  1.0  0.071
  H  H67  1  0.631900  0.434800  0.631300  1.0  0.1071
  H  H68  1  0.684800  0.188900  0.760900  1.0  0.0703
  H  H69  1  0.751800  0.285700  0.741200  1.0  0.0788
  H  H70  1  0.706600  0.240900  0.520300  1.0  0.0915
  H  H71  1  0.775900  0.312700  0.597100  1.0  0.071
  H  H72  1  0.979900  0.317900  0.619400  1.0  0.0862
  H  H73  1  0.832300  0.096800  0.449500  1.0  0.0882
  H  H74  1  0.025700  0.109000  0.445300  1.0  0.0709
  H  H75  1  0.867200  0.034700  0.987300  1.0  0.0761
  H  H76  1  0.894800  0.172400  0.885500  1.0  0.0938
  H  H77  1  0.795200  0.917000  0.744100  1.0  0.0736
  H  H78  1  0.875900  0.067800  0.661500  1.0  0.0651
  H  H79  1  0.907100  0.172200  0.716000  1.0  0.0632
  H  H80  1  0.645200  0.038500  0.652100  1.0  0.0764
  H  H81  1  0.582400  0.122600  0.583600  1.0  0.0535
  H  H82  1  0.760200  0.899100  0.585800  1.0  0.0673
  H  H83  1  0.643900  0.962900  0.329000  1.0  0.0801
  H  H84  1  0.585500  0.104300  0.414100  1.0  0.1152
  C  C85  1  0.491600  0.248400  0.170090  1.0  0.1159
  C  C86  1  0.466500  0.095500  0.112500  1.0  -0.0038
  C  C87  1  0.577200  0.111800  0.137600  1.0  -0.2016
  C  C88  1  0.696100  0.265400  0.213210  1.0  -0.1052
  C  C89  1  0.768900  0.258300  0.073360  1.0  -0.1483
  C  C90  1  0.967400  0.235500  0.076530  1.0  0.1136
  C  C91  1  0.885000  0.357500  0.983000  1.0  -0.1704
  C  C92  1  0.992000  0.350000  0.981100  1.0  0.0125
  C  C93  1  0.855600  0.472000  0.424900  1.0  0.0129
  C  C94  1  0.870800  0.395500  0.369100  1.0  -0.1793
  C  C95  1  0.815900  0.536500  0.292400  1.0  0.1143
  C  C96  1  0.851400  0.382300  0.200210  1.0  -0.0963
  C  C97  1  0.742000  0.332300  0.145970  1.0  -0.0027
  C  C98  1  0.652400  0.413900  0.104400  1.0  -0.1314
  C  C99  1  0.724200  0.567600  0.032100  1.0  0.1264
  C  C100  1  0.660000  0.532400  0.891900  1.0  -0.0166
  C  C101  1  0.627900  0.453700  0.938200  1.0  -0.1792
  C  C102  1  0.508400  0.748400  0.329910  1.0  0.1156
  C  C103  1  0.533500  0.595500  0.387500  1.0  -0.0029
  C  C104  1  0.422800  0.611800  0.362400  1.0  -0.2027
  C  C105  1  0.303900  0.765400  0.286790  1.0  -0.1038
  C  C106  1  0.231100  0.758300  0.426640  1.0  -0.1498
  C  C107  1  0.032600  0.735500  0.423470  1.0  0.1105
  C  C108  1  0.115000  0.857500  0.517000  1.0  -0.1698
  C  C109  1  0.008000  0.850000  0.518900  1.0  0.0123
  C  C110  1  0.144400  0.972000  0.075100  1.0  0.0129
  C  C111  1  0.129200  0.895500  0.130900  1.0  -0.1791
  C  C112  1  0.184100  0.036500  0.207600  1.0  0.1138
  C  C113  1  0.148600  0.882300  0.299790  1.0  -0.099
  C  C114  1  0.258000  0.832300  0.354030  1.0  -0.002
  C  C115  1  0.347600  0.913900  0.395600  1.0  -0.13
  C  C116  1  0.275800  0.067600  0.467900  1.0  0.127
  C  C117  1  0.340000  0.032400  0.608100  1.0  -0.0171
  C  C118  1  0.372100  0.953700  0.561800  1.0  -0.1788
  C  C119  1  0.508400  0.751600  0.829910  1.0  0.1163
  C  C120  1  0.533500  0.904500  0.887500  1.0  -0.003
  C  C121  1  0.422800  0.888200  0.862400  1.0  -0.2021
  C  C122  1  0.303900  0.734600  0.786790  1.0  -0.1027
  C  C123  1  0.231100  0.741700  0.926640  1.0  -0.1498
  C  C124  1  0.032600  0.764500  0.923470  1.0  0.1106
  C  C125  1  0.115000  0.642500  0.017000  1.0  -0.1689
  C  C126  1  0.008000  0.650000  0.018900  1.0  0.0119
  C  C127  1  0.144400  0.528000  0.575100  1.0  0.0122
  C  C128  1  0.129200  0.604500  0.630900  1.0  -0.1791
  C  C129  1  0.184100  0.463500  0.707600  1.0  0.1136
  C  C130  1  0.148600  0.617700  0.799790  1.0  -0.0986
  C  C131  1  0.258000  0.667700  0.854030  1.0  -0.0023
  C  C132  1  0.347600  0.586100  0.895600  1.0  -0.1306
  C  C133  1  0.275800  0.432400  0.967900  1.0  0.1268
  C  C134  1  0.340000  0.467600  0.108100  1.0  -0.0163
  C  C135  1  0.372100  0.546300  0.061800  1.0  -0.1792
  C  C136  1  0.491600  0.251600  0.670090  1.0  0.1173
  C  C137  1  0.466500  0.404500  0.612500  1.0  -0.0045
  C  C138  1  0.577200  0.388200  0.637600  1.0  -0.2003
  C  C139  1  0.696100  0.234600  0.713210  1.0  -0.1045
  C  C140  1  0.768900  0.241700  0.573360  1.0  -0.1493
  C  C141  1  0.967400  0.264500  0.576530  1.0  0.1131
  C  C142  1  0.885000  0.142500  0.483000  1.0  -0.1698
  C  C143  1  0.992000  0.150000  0.481100  1.0  0.0128
  C  C144  1  0.855600  0.028000  0.924900  1.0  0.0127
  C  C145  1  0.870800  0.104500  0.869100  1.0  -0.1784
  C  C146  1  0.815900  0.963500  0.792400  1.0  0.1141
  C  C147  1  0.851400  0.117700  0.700210  1.0  -0.0963
  C  C148  1  0.742000  0.167700  0.645970  1.0  -0.003
  C  C149  1  0.652400  0.086100  0.604400  1.0  -0.1306
  C  C150  1  0.724200  0.932400  0.532100  1.0  0.1251
  C  C151  1  0.660000  0.967600  0.391900  1.0  -0.0171
  C  C152  1  0.627900  0.046300  0.438200  1.0  -0.1801
  N  N153  1  0.412400  0.182700  0.132610  1.0  -0.3932
  N  N154  1  0.592550  0.209800  0.173680  1.0  0.0155
  N  N155  1  0.043790  0.273400  0.039250  1.0  -0.4125
  N  N156  1  0.869460  0.283900  0.044810  1.0  -0.0032
  N  N157  1  0.820700  0.561300  0.376650  1.0  -0.4013
  N  N158  1  0.844360  0.436300  0.283700  1.0  0.01
  N  N159  1  0.720400  0.605100  0.951380  1.0  -0.4098
  N  N160  1  0.670570  0.476500  0.028890  1.0  0.0106
  N  N161  1  0.587600  0.682700  0.367390  1.0  -0.3864
  N  N162  1  0.407450  0.709800  0.326320  1.0  0.0173
  N  N163  1  0.956210  0.773400  0.460750  1.0  -0.416
  N  N164  1  0.130540  0.783900  0.455190  1.0  -0.0051
  N  N165  1  0.179300  0.061300  0.123350  1.0  -0.4007
  N  N166  1  0.155640  0.936300  0.216300  1.0  0.0096
  N  N167  1  0.279600  0.105100  0.548620  1.0  -0.4103
  N  N168  1  0.329430  0.976500  0.471110  1.0  0.0111
  N  N169  1  0.587600  0.817300  0.867390  1.0  -0.3867
  N  N170  1  0.407450  0.790200  0.826320  1.0  0.0171
  N  N171  1  0.956210  0.726600  0.960750  1.0  -0.4153
  N  N172  1  0.130540  0.716100  0.955190  1.0  -0.005
  N  N173  1  0.179300  0.438700  0.623350  1.0  -0.4011
  N  N174  1  0.155640  0.563700  0.716300  1.0  0.0093
  N  N175  1  0.279600  0.394900  0.048620  1.0  -0.4081
  N  N176  1  0.329430  0.523500  0.971110  1.0  0.0114
  N  N177  1  0.412400  0.317300  0.632610  1.0  -0.3937
  N  N178  1  0.592550  0.290200  0.673680  1.0  0.0154
  N  N179  1  0.043790  0.226600  0.539250  1.0  -0.4123
  N  N180  1  0.869460  0.216100  0.544810  1.0  -0.0031
  N  N181  1  0.820700  0.938700  0.876650  1.0  -0.4
  N  N182  1  0.844360  0.063700  0.783700  1.0  0.0103
  N  N183  1  0.720400  0.894900  0.451380  1.0  -0.4087
  N  N184  1  0.670570  0.023500  0.528890  1.0  0.0107
