# generated using pymatgen
data_Cd7H48C64(N8O13)2
_symmetry_space_group_name_H-M   'P 1'
_cell_length_a   7.50900000
_cell_length_b   11.88100000
_cell_length_c   20.94200000
_cell_angle_alpha   96.62300000
_cell_angle_beta   92.47400000
_cell_angle_gamma   102.01500000
_symmetry_Int_Tables_number   1
_chemical_formula_structural   Cd7H48C64(N8O13)2
_chemical_formula_sum   'Cd7 H48 C64 N16 O26'
_cell_volume   1810.86029130
_cell_formula_units_Z   1
loop_
 _symmetry_equiv_pos_site_id
 _symmetry_equiv_pos_as_xyz
  1  'x, y, z'
loop_
 _atom_site_type_symbol
 _atom_site_label
 _atom_site_symmetry_multiplicity
 _atom_site_fract_x
 _atom_site_fract_y
 _atom_site_fract_z
 _atom_site_occupancy
 _atom_site_charge
  Cd  Cd1  1  0.651690  0.853640  0.095780  1.0  1.0905
  Cd  Cd2  1  0.748800  0.019800  0.478120  1.0  1.0715
  Cd  Cd3  1  0.393730  0.171810  0.084650  1.0  1.1494
  Cd  Cd4  1  0.348310  0.146360  0.904220  1.0  1.088
  Cd  Cd5  1  0.251200  0.980200  0.521880  1.0  1.0722
  Cd  Cd6  1  0.606270  0.828190  0.915350  1.0  1.1469
  Cd  Cd7  1  0.000000  0.000000  0.000000  1.0  1.1576
  H  H8  1  0.054600  0.793800  0.142100  1.0  0.0985
  H  H9  1  0.599300  0.561500  0.128000  1.0  0.1039
  H  H10  1  0.840400  0.469200  0.163000  1.0  0.1395
  H  H11  1  0.224800  0.548400  0.158600  1.0  0.0936
  H  H12  1  0.285300  0.683600  0.165600  1.0  0.1131
  H  H13  1  0.988200  0.659400  0.272700  1.0  0.088
  H  H14  1  0.138400  0.771600  0.271400  1.0  0.1119
  H  H15  1  0.968500  0.572400  0.390500  1.0  0.1436
  H  H16  1  0.030300  0.684700  0.496000  1.0  0.1041
  H  H17  1  0.267700  0.882100  0.375300  1.0  0.0926
  H  H18  1  0.068500  0.464800  0.261600  1.0  0.1089
  H  H19  1  0.211000  0.505800  0.320800  1.0  0.1024
  H  H20  1  0.526700  0.438600  0.312400  1.0  0.1315
  H  H21  1  0.174600  0.351100  0.160800  1.0  0.101
  H  H22  1  0.636000  0.303400  0.234400  1.0  0.1149
  H  H23  1  0.626900  0.891600  0.325600  1.0  0.103
  H  H24  1  0.644400  0.722800  0.474000  1.0  0.1106
  H  H25  1  0.473100  0.586400  0.387300  1.0  0.1322
  H  H26  1  0.468300  0.745600  0.241600  1.0  0.1027
  H  H27  1  0.512300  0.624700  0.248400  1.0  0.0802
  H  H28  1  0.936500  0.059600  0.269500  1.0  0.101
  H  H29  1  0.551100  0.070400  0.297700  1.0  0.1169
  H  H30  1  0.294900  0.481300  0.020200  1.0  0.107
  H  H31  1  0.661000  0.012000  0.019000  1.0  0.4317
  H  H32  1  0.945400  0.206200  0.857900  1.0  0.0983
  H  H33  1  0.400700  0.438500  0.872000  1.0  0.1045
  H  H34  1  0.159600  0.530800  0.837000  1.0  0.1397
  H  H35  1  0.775200  0.451600  0.841400  1.0  0.0932
  H  H36  1  0.714700  0.316400  0.834400  1.0  0.114
  H  H37  1  0.011800  0.340600  0.727300  1.0  0.0886
  H  H38  1  0.861600  0.228400  0.728600  1.0  0.114
  H  H39  1  0.031500  0.427600  0.609500  1.0  0.1429
  H  H40  1  0.969700  0.315300  0.504000  1.0  0.1032
  H  H41  1  0.732300  0.117900  0.624700  1.0  0.0897
  H  H42  1  0.931500  0.535200  0.738400  1.0  0.1089
  H  H43  1  0.789000  0.494200  0.679200  1.0  0.1021
  H  H44  1  0.473300  0.561400  0.687600  1.0  0.1322
  H  H45  1  0.825400  0.648900  0.839200  1.0  0.1012
  H  H46  1  0.364000  0.696600  0.765600  1.0  0.1151
  H  H47  1  0.373100  0.108400  0.674400  1.0  0.1028
  H  H48  1  0.355600  0.277200  0.526000  1.0  0.1104
  H  H49  1  0.526900  0.413600  0.612700  1.0  0.1318
  H  H50  1  0.531700  0.254400  0.758400  1.0  0.0957
  H  H51  1  0.487700  0.375300  0.751600  1.0  0.0792
  H  H52  1  0.063500  0.940400  0.730500  1.0  0.1008
  H  H53  1  0.448900  0.929600  0.702300  1.0  0.1178
  H  H54  1  0.705100  0.518700  0.979800  1.0  0.1079
  H  H55  1  0.339000  0.988000  0.981000  1.0  0.4304
  C  C56  1  0.970000  0.724600  0.142860  1.0  0.1565
  C  C57  1  0.721900  0.597800  0.135400  1.0  0.0637
  C  C58  1  0.854500  0.545600  0.154500  1.0  -0.1696
  C  C59  1  0.200100  0.619900  0.179980  1.0  -0.0776
  C  C60  1  0.238800  0.623200  0.254230  1.0  0.0428
  C  C61  1  0.113300  0.696700  0.287200  1.0  -0.1108
  C  C62  1  0.036700  0.647900  0.400000  1.0  -0.1929
  C  C63  1  0.070400  0.710700  0.457800  1.0  0.0654
  C  C64  1  0.200900  0.818700  0.392200  1.0  0.1553
  C  C65  1  0.195600  0.499700  0.274200  1.0  -0.0889
  C  C66  1  0.469200  0.405100  0.272500  1.0  -0.1486
  C  C67  1  0.276500  0.356100  0.188700  1.0  0.1491
  C  C68  1  0.529000  0.330200  0.229300  1.0  0.0342
  C  C69  1  0.609900  0.832900  0.352000  1.0  0.1417
  C  C70  1  0.618300  0.739900  0.432900  1.0  0.0634
  C  C71  1  0.525000  0.664000  0.385300  1.0  -0.181
  C  C72  1  0.444200  0.680400  0.266290  1.0  -0.1071
  C  C73  1  0.438000  0.131400  0.409200  1.0  0.6919
  C  C74  1  0.331400  0.092800  0.344780  1.0  -0.0482
  C  C75  1  0.142200  0.083300  0.337080  1.0  -0.1471
  C  C76  1  0.060400  0.060500  0.275200  1.0  0.0021
  C  C77  1  0.155100  0.039000  0.221120  1.0  -0.1957
  C  C78  1  0.341600  0.036500  0.229320  1.0  -0.0661
  C  C79  1  0.426600  0.067200  0.291770  1.0  -0.0921
  C  C80  1  0.449800  0.991900  0.177120  1.0  0.7057
  C  C81  1  0.047300  0.015600  0.156700  1.0  0.7009
  C  C82  1  0.023700  0.085700  0.393400  1.0  0.6717
  C  C83  1  0.311500  0.694900  0.005800  1.0  0.7158
  C  C84  1  0.145300  0.596800  0.003780  1.0  -0.0929
  C  C85  1  0.966300  0.609200  0.991120  1.0  -0.1306
  C  C86  1  0.175700  0.489100  0.012100  1.0  -0.0692
  C  C87  1  0.917400  0.723700  0.985900  1.0  0.6861
  C  C88  1  0.030000  0.275400  0.857140  1.0  0.1565
  C  C89  1  0.278100  0.402200  0.864600  1.0  0.0636
  C  C90  1  0.145500  0.454400  0.845500  1.0  -0.1696
  C  C91  1  0.799900  0.380100  0.820020  1.0  -0.0773
  C  C92  1  0.761200  0.376800  0.745770  1.0  0.0432
  C  C93  1  0.886700  0.303300  0.712800  1.0  -0.1113
  C  C94  1  0.963300  0.352100  0.600000  1.0  -0.1953
  C  C95  1  0.929600  0.289300  0.542200  1.0  0.0663
  C  C96  1  0.799100  0.181300  0.607800  1.0  0.1568
  C  C97  1  0.804400  0.500300  0.725800  1.0  -0.0886
  C  C98  1  0.530800  0.594900  0.727500  1.0  -0.1498
  C  C99  1  0.723500  0.643900  0.811300  1.0  0.1473
  C  C100  1  0.471000  0.669800  0.770700  1.0  0.0341
  C  C101  1  0.390100  0.167100  0.648000  1.0  0.1436
  C  C102  1  0.381700  0.260100  0.567100  1.0  0.0588
  C  C103  1  0.475000  0.336000  0.614700  1.0  -0.183
  C  C104  1  0.555800  0.319600  0.733710  1.0  -0.1072
  C  C105  1  0.562000  0.868600  0.590800  1.0  0.6925
  C  C106  1  0.668600  0.907200  0.655220  1.0  -0.0487
  C  C107  1  0.857800  0.916700  0.662920  1.0  -0.1442
  C  C108  1  0.939600  0.939500  0.724800  1.0  0.0028
  C  C109  1  0.844900  0.961000  0.778880  1.0  -0.196
  C  C110  1  0.658400  0.963500  0.770680  1.0  -0.0662
  C  C111  1  0.573400  0.932800  0.708230  1.0  -0.0897
  C  C112  1  0.550200  0.008100  0.822880  1.0  0.7056
  C  C113  1  0.952700  0.984400  0.843300  1.0  0.7011
  C  C114  1  0.976300  0.914300  0.606600  1.0  0.6709
  C  C115  1  0.688500  0.305100  0.994200  1.0  0.7157
  C  C116  1  0.854700  0.403200  0.996220  1.0  -0.0946
  C  C117  1  0.033700  0.390800  0.008880  1.0  -0.1302
  C  C118  1  0.824300  0.510900  0.987900  1.0  -0.0697
  C  C119  1  0.082600  0.276300  0.014100  1.0  0.6861
  N  N120  1  0.791700  0.711700  0.128320  1.0  -0.4182
  N  N121  1  0.014300  0.627400  0.158710  1.0  0.0542
  N  N122  1  0.307800  0.422200  0.246470  1.0  0.0403
  N  N123  1  0.404800  0.300300  0.176470  1.0  -0.3881
  N  N124  1  0.670400  0.846900  0.412790  1.0  -0.3957
  N  N125  1  0.519900  0.722500  0.332420  1.0  0.0362
  N  N126  1  0.171200  0.817700  0.453210  1.0  -0.3664
  N  N127  1  0.123600  0.717400  0.356950  1.0  0.0454
  N  N128  1  0.208300  0.288300  0.871680  1.0  -0.4185
  N  N129  1  0.985700  0.372600  0.841290  1.0  0.0524
  N  N130  1  0.692200  0.577800  0.753530  1.0  0.0417
  N  N131  1  0.595200  0.699700  0.823530  1.0  -0.3885
  N  N132  1  0.329600  0.153100  0.587210  1.0  -0.3992
  N  N133  1  0.480100  0.277500  0.667580  1.0  0.0351
  N  N134  1  0.828800  0.182300  0.546790  1.0  -0.3693
  N  N135  1  0.876400  0.282600  0.643050  1.0  0.0439
  O  O136  1  0.082200  0.072500  0.447400  1.0  -0.6353
  O  O137  1  0.860100  0.095600  0.381530  1.0  -0.6578
  O  O138  1  0.495700  0.237000  0.422440  1.0  -0.5887
  O  O139  1  0.468200  0.053100  0.442190  1.0  -0.6832
  O  O140  1  0.880200  0.979400  0.157080  1.0  -0.6156
  O  O141  1  0.131500  0.034600  0.106930  1.0  -0.6702
  O  O142  1  0.468000  0.889500  0.178550  1.0  -0.607
  O  O143  1  0.524400  0.052800  0.137060  1.0  -0.6265
  O  O144  1  0.406200  0.718200  0.057280  1.0  -0.6113
  O  O145  1  0.345200  0.738800  0.954170  1.0  -0.6545
  O  O146  1  0.760200  0.717300  0.961570  1.0  -0.6333
  O  O147  1  0.029400  0.814800  0.006320  1.0  -0.5859
  O  O148  1  0.695500  0.947400  0.011550  1.0  -0.9714
  O  O149  1  0.917800  0.927500  0.552600  1.0  -0.6368
  O  O150  1  0.139900  0.904400  0.618470  1.0  -0.6583
  O  O151  1  0.504300  0.763000  0.577560  1.0  -0.5876
  O  O152  1  0.531800  0.946900  0.557810  1.0  -0.6833
  O  O153  1  0.119800  0.020600  0.842920  1.0  -0.6152
  O  O154  1  0.868500  0.965400  0.893070  1.0  -0.6712
  O  O155  1  0.532000  0.110500  0.821450  1.0  -0.6086
  O  O156  1  0.475600  0.947200  0.862940  1.0  -0.6272
  O  O157  1  0.593800  0.281800  0.942720  1.0  -0.6113
  O  O158  1  0.654800  0.261200  0.045830  1.0  -0.6556
  O  O159  1  0.239800  0.282700  0.038430  1.0  -0.6339
  O  O160  1  0.970600  0.185200  0.993680  1.0  -0.586
  O  O161  1  0.304500  0.052600  0.988450  1.0  -0.974
