# generated using pymatgen
data_LaH14C14(NO2)4
_symmetry_space_group_name_H-M   'P 1'
_cell_length_a   9.01540000
_cell_length_b   25.44100000
_cell_length_c   11.39000000
_cell_angle_alpha   90.00000000
_cell_angle_beta   104.41000000
_cell_angle_gamma   90.00000000
_symmetry_Int_Tables_number   1
_chemical_formula_structural   LaH14C14(NO2)4
_chemical_formula_sum   'La4 H56 C56 N16 O32'
_cell_volume   2530.23202476
_cell_formula_units_Z   4
loop_
 _symmetry_equiv_pos_site_id
 _symmetry_equiv_pos_as_xyz
  1  'x, y, z'
loop_
 _atom_site_type_symbol
 _atom_site_label
 _atom_site_symmetry_multiplicity
 _atom_site_fract_x
 _atom_site_fract_y
 _atom_site_fract_z
 _atom_site_occupancy
 _atom_site_charge
  La  La1  1  0.500000  0.234720  0.500000  1.0  2.1291
  La  La2  1  0.000000  0.734720  0.500000  1.0  2.1291
  La  La3  1  0.500000  0.765280  0.500000  1.0  2.1283
  La  La4  1  0.000000  0.265280  0.500000  1.0  2.1283
  H  H5  1  0.371200  0.120800  0.233600  1.0  0.108
  H  H6  1  0.527200  0.104400  0.328400  1.0  0.0923
  H  H7  1  0.240200  0.048300  0.088100  1.0  0.1045
  H  H8  1  0.302300  0.316500  0.199500  1.0  0.0996
  H  H9  1  0.258100  0.257200  0.157000  1.0  0.0957
  H  H10  1  0.114100  0.392000  0.086800  1.0  0.1118
  H  H11  1  0.871200  0.620800  0.233600  1.0  0.108
  H  H12  1  0.027200  0.604400  0.328400  1.0  0.0923
  H  H13  1  0.740200  0.548300  0.088100  1.0  0.1045
  H  H14  1  0.802300  0.816500  0.199500  1.0  0.0996
  H  H15  1  0.758100  0.757200  0.157000  1.0  0.0957
  H  H16  1  0.614100  0.892000  0.086800  1.0  0.1118
  H  H17  1  0.628800  0.120800  0.766400  1.0  0.1063
  H  H18  1  0.472800  0.104400  0.671600  1.0  0.0953
  H  H19  1  0.759800  0.048300  0.911900  1.0  0.1043
  H  H20  1  0.697700  0.316500  0.800500  1.0  0.0987
  H  H21  1  0.741900  0.257200  0.843000  1.0  0.0964
  H  H22  1  0.885900  0.392000  0.913200  1.0  0.1135
  H  H23  1  0.128800  0.620800  0.766400  1.0  0.1063
  H  H24  1  0.972800  0.604400  0.671600  1.0  0.0953
  H  H25  1  0.259800  0.548300  0.911900  1.0  0.1043
  H  H26  1  0.197700  0.816500  0.800500  1.0  0.0987
  H  H27  1  0.241900  0.757200  0.843000  1.0  0.0964
  H  H28  1  0.385900  0.892000  0.913200  1.0  0.1135
  H  H29  1  0.628800  0.879200  0.766400  1.0  0.1069
  H  H30  1  0.472800  0.895600  0.671600  1.0  0.0954
  H  H31  1  0.759800  0.951700  0.911900  1.0  0.1044
  H  H32  1  0.697700  0.683500  0.800500  1.0  0.0989
  H  H33  1  0.741900  0.742800  0.843000  1.0  0.0953
  H  H34  1  0.885900  0.608000  0.913200  1.0  0.1122
  H  H35  1  0.128800  0.379200  0.766400  1.0  0.1069
  H  H36  1  0.972800  0.395600  0.671600  1.0  0.0954
  H  H37  1  0.259800  0.451700  0.911900  1.0  0.1044
  H  H38  1  0.197700  0.183500  0.800500  1.0  0.0989
  H  H39  1  0.241900  0.242800  0.843000  1.0  0.0953
  H  H40  1  0.385900  0.108000  0.913200  1.0  0.1122
  H  H41  1  0.371200  0.879200  0.233600  1.0  0.1073
  H  H42  1  0.527200  0.895600  0.328400  1.0  0.0924
  H  H43  1  0.240200  0.951700  0.088100  1.0  0.104
  H  H44  1  0.302300  0.683500  0.199500  1.0  0.0995
  H  H45  1  0.258100  0.742800  0.157000  1.0  0.0956
  H  H46  1  0.114100  0.608000  0.086800  1.0  0.1124
  H  H47  1  0.871200  0.379200  0.233600  1.0  0.1073
  H  H48  1  0.027200  0.395600  0.328400  1.0  0.0924
  H  H49  1  0.740200  0.451700  0.088100  1.0  0.104
  H  H50  1  0.802300  0.183500  0.199500  1.0  0.0995
  H  H51  1  0.758100  0.242800  0.157000  1.0  0.0956
  H  H52  1  0.614100  0.108000  0.086800  1.0  0.1124
  H  H53  1  0.527900  0.000000  0.394900  1.0  0.0907
  H  H54  1  0.027900  0.500000  0.394900  1.0  0.0907
  H  H55  1  0.472100  0.000000  0.605100  1.0  0.0912
  H  H56  1  0.972100  0.500000  0.605100  1.0  0.0912
  H  H57  1  0.000000  0.242700  0.000000  1.0  0.1053
  H  H58  1  0.500000  0.742700  0.000000  1.0  0.1053
  H  H59  1  0.000000  0.757300  0.000000  1.0  0.1046
  H  H60  1  0.500000  0.257300  0.000000  1.0  0.1046
  C  C61  1  0.341500  0.106010  0.405500  1.0  0.6959
  C  C62  1  0.416400  0.096540  0.300900  1.0  -0.1631
  C  C63  1  0.297600  0.026190  0.150200  1.0  -0.1212
  C  C64  1  0.150200  0.282910  0.287500  1.0  0.7262
  C  C65  1  0.216800  0.290990  0.178400  1.0  -0.1603
  C  C66  1  0.062300  0.361990  0.047000  1.0  -0.1019
  C  C67  1  0.841500  0.606010  0.405500  1.0  0.6959
  C  C68  1  0.916400  0.596540  0.300900  1.0  -0.1631
  C  C69  1  0.797600  0.526190  0.150200  1.0  -0.1212
  C  C70  1  0.650200  0.782910  0.287500  1.0  0.7262
  C  C71  1  0.716800  0.790990  0.178400  1.0  -0.1603
  C  C72  1  0.562300  0.861990  0.047000  1.0  -0.1019
  C  C73  1  0.658500  0.106010  0.594500  1.0  0.6984
  C  C74  1  0.583600  0.096540  0.699100  1.0  -0.1629
  C  C75  1  0.702400  0.026190  0.849800  1.0  -0.1215
  C  C76  1  0.849800  0.282910  0.712500  1.0  0.7248
  C  C77  1  0.783200  0.290990  0.821600  1.0  -0.1601
  C  C78  1  0.937700  0.361990  0.953000  1.0  -0.1012
  C  C79  1  0.158500  0.606010  0.594500  1.0  0.6984
  C  C80  1  0.083600  0.596540  0.699100  1.0  -0.1629
  C  C81  1  0.202400  0.526190  0.849800  1.0  -0.1215
  C  C82  1  0.349800  0.782910  0.712500  1.0  0.7248
  C  C83  1  0.283200  0.790990  0.821600  1.0  -0.1601
  C  C84  1  0.437700  0.861990  0.953000  1.0  -0.1012
  C  C85  1  0.658500  0.893990  0.594500  1.0  0.6983
  C  C86  1  0.583600  0.903460  0.699100  1.0  -0.1631
  C  C87  1  0.702400  0.973810  0.849800  1.0  -0.1264
  C  C88  1  0.849800  0.717090  0.712500  1.0  0.7235
  C  C89  1  0.783200  0.709010  0.821600  1.0  -0.1598
  C  C90  1  0.937700  0.638010  0.953000  1.0  -0.1006
  C  C91  1  0.158500  0.393990  0.594500  1.0  0.6983
  C  C92  1  0.083600  0.403460  0.699100  1.0  -0.1631
  C  C93  1  0.202400  0.473810  0.849800  1.0  -0.1264
  C  C94  1  0.349800  0.217090  0.712500  1.0  0.7235
  C  C95  1  0.283200  0.209010  0.821600  1.0  -0.1598
  C  C96  1  0.437700  0.138010  0.953000  1.0  -0.1006
  C  C97  1  0.341500  0.893990  0.405500  1.0  0.696
  C  C98  1  0.416400  0.903460  0.300900  1.0  -0.1636
  C  C99  1  0.297600  0.973810  0.150200  1.0  -0.126
  C  C100  1  0.150200  0.717090  0.287500  1.0  0.7251
  C  C101  1  0.216800  0.709010  0.178400  1.0  -0.1599
  C  C102  1  0.062300  0.638010  0.047000  1.0  -0.1015
  C  C103  1  0.841500  0.393990  0.405500  1.0  0.696
  C  C104  1  0.916400  0.403460  0.300900  1.0  -0.1636
  C  C105  1  0.797600  0.473810  0.150200  1.0  -0.126
  C  C106  1  0.650200  0.217090  0.287500  1.0  0.7251
  C  C107  1  0.716800  0.209010  0.178400  1.0  -0.1599
  C  C108  1  0.562300  0.138010  0.047000  1.0  -0.1015
  C  C109  1  0.455100  0.000000  0.318600  1.0  0.0527
  C  C110  1  0.955100  0.500000  0.318600  1.0  0.0527
  C  C111  1  0.544900  0.000000  0.681400  1.0  0.0497
  C  C112  1  0.044900  0.500000  0.681400  1.0  0.0497
  C  C113  1  0.000000  0.280000  0.000000  1.0  0.0567
  C  C114  1  0.500000  0.780000  0.000000  1.0  0.0567
  C  C115  1  0.000000  0.720000  0.000000  1.0  0.0563
  C  C116  1  0.500000  0.220000  0.000000  1.0  0.0563
  N  N117  1  0.396000  0.042330  0.256700  1.0  0.0243
  N  N118  1  0.100800  0.310430  0.074700  1.0  0.0406
  N  N119  1  0.896000  0.542330  0.256700  1.0  0.0243
  N  N120  1  0.600800  0.810430  0.074700  1.0  0.0406
  N  N121  1  0.604000  0.042330  0.743300  1.0  0.0245
  N  N122  1  0.899200  0.310430  0.925300  1.0  0.0397
  N  N123  1  0.104000  0.542330  0.743300  1.0  0.0245
  N  N124  1  0.399200  0.810430  0.925300  1.0  0.0397
  N  N125  1  0.604000  0.957670  0.743300  1.0  0.0244
  N  N126  1  0.899200  0.689570  0.925300  1.0  0.0395
  N  N127  1  0.104000  0.457670  0.743300  1.0  0.0244
  N  N128  1  0.399200  0.189570  0.925300  1.0  0.0395
  N  N129  1  0.396000  0.957670  0.256700  1.0  0.0237
  N  N130  1  0.100800  0.689570  0.074700  1.0  0.0407
  N  N131  1  0.896000  0.457670  0.256700  1.0  0.0237
  N  N132  1  0.600800  0.189570  0.074700  1.0  0.0407
  O  O133  1  0.339500  0.153550  0.437400  1.0  -0.712
  O  O134  1  0.293100  0.068530  0.452700  1.0  -0.5429
  O  O135  1  0.241600  0.267380  0.384400  1.0  -0.8539
  O  O136  1  0.012000  0.290820  0.278380  1.0  -0.656
  O  O137  1  0.839500  0.653550  0.437400  1.0  -0.712
  O  O138  1  0.793100  0.568530  0.452700  1.0  -0.5429
  O  O139  1  0.741600  0.767380  0.384400  1.0  -0.8539
  O  O140  1  0.512000  0.790820  0.278380  1.0  -0.656
  O  O141  1  0.660500  0.153550  0.562600  1.0  -0.7097
  O  O142  1  0.706900  0.068530  0.547300  1.0  -0.5486
  O  O143  1  0.758400  0.267380  0.615600  1.0  -0.8544
  O  O144  1  0.988000  0.290820  0.721620  1.0  -0.6564
  O  O145  1  0.160500  0.653550  0.562600  1.0  -0.7097
  O  O146  1  0.206900  0.568530  0.547300  1.0  -0.5486
  O  O147  1  0.258400  0.767380  0.615600  1.0  -0.8544
  O  O148  1  0.488000  0.790820  0.721620  1.0  -0.6564
  O  O149  1  0.660500  0.846450  0.562600  1.0  -0.712
  O  O150  1  0.706900  0.931470  0.547300  1.0  -0.5477
  O  O151  1  0.758400  0.732620  0.615600  1.0  -0.8554
  O  O152  1  0.988000  0.709180  0.721620  1.0  -0.656
  O  O153  1  0.160500  0.346450  0.562600  1.0  -0.712
  O  O154  1  0.206900  0.431470  0.547300  1.0  -0.5477
  O  O155  1  0.258400  0.232620  0.615600  1.0  -0.8554
  O  O156  1  0.488000  0.209180  0.721620  1.0  -0.656
  O  O157  1  0.339500  0.846450  0.437400  1.0  -0.7081
  O  O158  1  0.293100  0.931470  0.452700  1.0  -0.5433
  O  O159  1  0.241600  0.732620  0.384400  1.0  -0.8554
  O  O160  1  0.012000  0.709180  0.278380  1.0  -0.6562
  O  O161  1  0.839500  0.346450  0.437400  1.0  -0.7081
  O  O162  1  0.793100  0.431470  0.452700  1.0  -0.5433
  O  O163  1  0.741600  0.232620  0.384400  1.0  -0.8554
  O  O164  1  0.512000  0.209180  0.278380  1.0  -0.6562
