# generated using pymatgen
data_LaH18C14N4(ClO5)2
_symmetry_space_group_name_H-M   'P 1'
_cell_length_a   8.92940000
_cell_length_b   12.42380000
_cell_length_c   12.42380000
_cell_angle_alpha   98.01560000
_cell_angle_beta   106.85500000
_cell_angle_gamma   73.14540000
_symmetry_Int_Tables_number   1
_chemical_formula_structural   LaH18C14N4(ClO5)2
_chemical_formula_sum   'La2 H36 C28 N8 Cl4 O20'
_cell_volume   1260.08148681
_cell_formula_units_Z   2
loop_
 _symmetry_equiv_pos_site_id
 _symmetry_equiv_pos_as_xyz
  1  'x, y, z'
loop_
 _atom_site_type_symbol
 _atom_site_label
 _atom_site_symmetry_multiplicity
 _atom_site_fract_x
 _atom_site_fract_y
 _atom_site_fract_z
 _atom_site_occupancy
 _atom_site_charge
  La  La1  1  0.750000  0.527930  0.527930  1.0  2.0337
  La  La2  1  0.250000  0.472070  0.472070  1.0  2.0337
  H  H3  1  0.555000  0.433000  0.319000  1.0  0.4074
  H  H4  1  0.700000  0.425000  0.293000  1.0  0.4352
  H  H5  1  0.906100  0.617600  0.841800  1.0  0.1224
  H  H6  1  0.818300  0.532500  0.868100  1.0  0.1285
  H  H7  1  0.908900  0.806400  0.983800  1.0  0.12
  H  H8  1  0.878700  0.845900  0.179500  1.0  0.1271
  H  H9  1  0.742100  0.563700  0.051900  1.0  0.1216
  H  H10  1  0.755300  0.750600  0.302200  1.0  0.1149
  H  H11  1  0.681400  0.647900  0.241300  1.0  0.1098
  H  H12  1  0.945000  0.319000  0.433000  1.0  0.4049
  H  H13  1  0.800000  0.293000  0.425000  1.0  0.4349
  H  H14  1  0.593900  0.841800  0.617600  1.0  0.121
  H  H15  1  0.681700  0.868100  0.532500  1.0  0.1281
  H  H16  1  0.591100  0.983800  0.806400  1.0  0.1212
  H  H17  1  0.621300  0.179500  0.845900  1.0  0.1251
  H  H18  1  0.757900  0.051900  0.563700  1.0  0.1203
  H  H19  1  0.744700  0.302200  0.750600  1.0  0.1124
  H  H20  1  0.818600  0.241300  0.647900  1.0  0.1113
  H  H21  1  0.445000  0.567000  0.681000  1.0  0.4065
  H  H22  1  0.300000  0.575000  0.707000  1.0  0.4334
  H  H23  1  0.093900  0.382400  0.158200  1.0  0.1224
  H  H24  1  0.181700  0.467500  0.131900  1.0  0.1293
  H  H25  1  0.091100  0.193600  0.016200  1.0  0.1199
  H  H26  1  0.121300  0.154100  0.820500  1.0  0.1268
  H  H27  1  0.257900  0.436300  0.948100  1.0  0.1209
  H  H28  1  0.244700  0.249400  0.697800  1.0  0.1153
  H  H29  1  0.318600  0.352100  0.758700  1.0  0.1099
  H  H30  1  0.055000  0.681000  0.567000  1.0  0.4092
  H  H31  1  0.200000  0.707000  0.575000  1.0  0.4368
  H  H32  1  0.406100  0.158200  0.382400  1.0  0.1221
  H  H33  1  0.318300  0.131900  0.467500  1.0  0.1268
  H  H34  1  0.408900  0.016200  0.193600  1.0  0.1209
  H  H35  1  0.378700  0.820500  0.154100  1.0  0.126
  H  H36  1  0.242100  0.948100  0.436300  1.0  0.1202
  H  H37  1  0.255300  0.697800  0.249400  1.0  0.1115
  H  H38  1  0.181400  0.758700  0.352100  1.0  0.112
  C  C39  1  0.655300  0.670000  0.783600  1.0  0.7026
  C  C40  1  0.812700  0.613100  0.867100  1.0  -0.151
  C  C41  1  0.871800  0.762900  0.022500  1.0  -0.1074
  C  C42  1  0.855000  0.784600  0.129000  1.0  -0.1138
  C  C43  1  0.779700  0.629200  0.059200  1.0  0.0906
  C  C44  1  0.776300  0.678900  0.256100  1.0  -0.1403
  C  C45  1  0.926800  0.596200  0.321200  1.0  0.7201
  C  C46  1  0.844700  0.783600  0.670000  1.0  0.7019
  C  C47  1  0.687300  0.867100  0.613100  1.0  -0.1518
  C  C48  1  0.628200  0.022500  0.762900  1.0  -0.1053
  C  C49  1  0.645000  0.129000  0.784600  1.0  -0.1092
  C  C50  1  0.720300  0.059200  0.629200  1.0  0.0904
  C  C51  1  0.723700  0.256100  0.678900  1.0  -0.1435
  C  C52  1  0.573200  0.321200  0.596200  1.0  0.7179
  C  C53  1  0.344700  0.330000  0.216400  1.0  0.7034
  C  C54  1  0.187300  0.386900  0.132900  1.0  -0.1506
  C  C55  1  0.128200  0.237100  0.977500  1.0  -0.1075
  C  C56  1  0.145000  0.215400  0.871000  1.0  -0.1159
  C  C57  1  0.220300  0.370800  0.940800  1.0  0.0897
  C  C58  1  0.223700  0.321100  0.743900  1.0  -0.1398
  C  C59  1  0.073200  0.403800  0.678800  1.0  0.7178
  C  C60  1  0.155300  0.216400  0.330000  1.0  0.7019
  C  C61  1  0.312700  0.132900  0.386900  1.0  -0.1529
  C  C62  1  0.371800  0.977500  0.237100  1.0  -0.103
  C  C63  1  0.355000  0.871000  0.215400  1.0  -0.1073
  C  C64  1  0.279700  0.940800  0.370800  1.0  0.091
  C  C65  1  0.276300  0.743900  0.321100  1.0  -0.1423
  C  C66  1  0.426800  0.678800  0.403800  1.0  0.7214
  N  N67  1  0.824500  0.665700  0.981300  1.0  0.0587
  N  N68  1  0.796800  0.700500  0.149500  1.0  0.0618
  N  N69  1  0.675500  0.981300  0.665700  1.0  0.06
  N  N70  1  0.703200  0.149500  0.700500  1.0  0.063
  N  N71  1  0.175500  0.334300  0.018700  1.0  0.0596
  N  N72  1  0.203200  0.299500  0.850500  1.0  0.0623
  N  N73  1  0.324500  0.018700  0.334300  1.0  0.0608
  N  N74  1  0.296800  0.850500  0.299500  1.0  0.0629
  Cl  Cl75  1  0.803900  0.370100  0.159900  1.0  -0.445
  Cl  Cl76  1  0.696100  0.159900  0.370100  1.0  -0.4434
  Cl  Cl77  1  0.196100  0.629900  0.840100  1.0  -0.4448
  Cl  Cl78  1  0.303900  0.840100  0.629900  1.0  -0.442
  O  O79  1  0.629800  0.621190  0.686990  1.0  -0.6584
  O  O80  1  0.567300  0.759800  0.813000  1.0  -0.5655
  O  O81  1  0.912600  0.554620  0.403820  1.0  -0.7759
  O  O82  1  0.055700  0.574540  0.294460  1.0  -0.6404
  O  O83  1  0.623100  0.468900  0.316700  1.0  -0.7429
  O  O84  1  0.870200  0.686990  0.621190  1.0  -0.6596
  O  O85  1  0.932700  0.813000  0.759800  1.0  -0.5582
  O  O86  1  0.587400  0.403820  0.554620  1.0  -0.7757
  O  O87  1  0.444300  0.294460  0.574540  1.0  -0.6401
  O  O88  1  0.876900  0.316700  0.468900  1.0  -0.7445
  O  O89  1  0.370200  0.378810  0.313010  1.0  -0.6565
  O  O90  1  0.432700  0.240200  0.187000  1.0  -0.5648
  O  O91  1  0.087400  0.445380  0.596180  1.0  -0.7757
  O  O92  1  0.944300  0.425460  0.705540  1.0  -0.6411
  O  O93  1  0.376900  0.531100  0.683300  1.0  -0.7437
  O  O94  1  0.129800  0.313010  0.378810  1.0  -0.6595
  O  O95  1  0.067300  0.187000  0.240200  1.0  -0.561
  O  O96  1  0.412600  0.596180  0.445380  1.0  -0.7758
  O  O97  1  0.555700  0.705540  0.425460  1.0  -0.6407
  O  O98  1  0.123100  0.683300  0.531100  1.0  -0.7447
