# generated using pymatgen
data_Na2H54(C19O6)3
_symmetry_space_group_name_H-M   'P 1'
_cell_length_a   8.84600000
_cell_length_b   22.00060000
_cell_length_c   22.54750000
_cell_angle_alpha   119.20100000
_cell_angle_beta   96.00920000
_cell_angle_gamma   90.00000000
_symmetry_Int_Tables_number   1
_chemical_formula_structural   Na2H54(C19O6)3
_chemical_formula_sum   'Na4 H108 C114 O36'
_cell_volume   3802.81472560
_cell_formula_units_Z   2
loop_
 _symmetry_equiv_pos_site_id
 _symmetry_equiv_pos_as_xyz
  1  'x, y, z'
loop_
 _atom_site_type_symbol
 _atom_site_label
 _atom_site_symmetry_multiplicity
 _atom_site_fract_x
 _atom_site_fract_y
 _atom_site_fract_z
 _atom_site_occupancy
 _atom_site_charge
  Na  Na1  1  0.643700  0.319830  0.411040  1.0  0.9673
  Na  Na2  1  0.856300  0.908790  0.588960  1.0  0.9624
  Na  Na3  1  0.356300  0.680170  0.588960  1.0  0.9673
  Na  Na4  1  0.143700  0.091210  0.411040  1.0  0.9615
  H  H5  1  0.394700  0.230500  0.558400  1.0  0.12
  H  H6  1  0.252700  0.255200  0.529800  1.0  0.1056
  H  H7  1  0.479200  0.454000  0.661600  1.0  0.148
  H  H8  1  0.383700  0.524600  0.763000  1.0  0.1185
  H  H9  1  0.138500  0.362400  0.742600  1.0  0.1141
  H  H10  1  0.229700  0.291100  0.640600  1.0  0.1301
  H  H11  1  0.359600  0.574000  0.870800  1.0  0.1235
  H  H12  1  0.251100  0.582500  0.924600  1.0  0.1399
  H  H13  1  0.361800  0.521500  0.899000  1.0  0.1351
  H  H14  1  0.053400  0.495400  0.898200  1.0  0.1274
  H  H15  1  0.001300  0.436700  0.823000  1.0  0.1269
  H  H16  1  0.153300  0.431400  0.862400  1.0  0.1359
  H  H17  1  0.196800  0.633200  0.845200  1.0  0.112
  H  H18  1  0.052700  0.687500  0.796600  1.0  0.1438
  H  H19  1  0.756800  0.521500  0.705800  1.0  0.1301
  H  H20  1  0.903900  0.467200  0.753000  1.0  0.1189
  H  H21  1  0.016100  0.973600  0.222600  1.0  0.1151
  H  H22  1  0.130600  0.940200  0.255000  1.0  0.1174
  H  H23  1  0.137400  0.817600  0.037200  1.0  0.1374
  H  H24  1  0.980900  0.718600  0.971800  1.0  0.1315
  H  H25  1  0.774200  0.759900  0.135600  1.0  0.1117
  H  H26  1  0.928900  0.859800  0.200400  1.0  0.141
  H  H27  1  0.906900  0.611700  0.932800  1.0  0.1356
  H  H28  1  0.904600  0.588400  0.988200  1.0  0.13
  H  H29  1  0.774700  0.560800  0.926600  1.0  0.1289
  H  H30  1  0.893100  0.729400  0.751000  1.0  0.0958
  H  H31  1  0.945500  0.678600  0.679400  1.0  0.124
  H  H32  1  0.105300  0.672100  0.441600  1.0  0.1191
  H  H33  1  0.247300  0.725400  0.470200  1.0  0.1037
  H  H34  1  0.020800  0.792400  0.338400  1.0  0.1479
  H  H35  1  0.116300  0.761600  0.237000  1.0  0.1172
  H  H36  1  0.361500  0.619800  0.257400  1.0  0.1163
  H  H37  1  0.270300  0.650500  0.359400  1.0  0.13
  H  H38  1  0.140400  0.703200  0.129200  1.0  0.1249
  H  H39  1  0.248900  0.657900  0.075400  1.0  0.1395
  H  H40  1  0.138200  0.622500  0.101000  1.0  0.1365
  H  H41  1  0.446600  0.597200  0.101800  1.0  0.1278
  H  H42  1  0.498700  0.613700  0.177000  1.0  0.1261
  H  H43  1  0.346700  0.569000  0.137600  1.0  0.1348
  H  H44  1  0.303200  0.788000  0.154800  1.0  0.1108
  H  H45  1  0.447300  0.890900  0.203400  1.0  0.1433
  H  H46  1  0.743200  0.815700  0.294200  1.0  0.1308
  H  H47  1  0.596100  0.714200  0.247000  1.0  0.1161
  H  H48  1  0.483900  0.751000  0.777400  1.0  0.1134
  H  H49  1  0.369400  0.685200  0.745000  1.0  0.1222
  H  H50  1  0.362600  0.780400  0.962800  1.0  0.1367
  H  H51  1  0.519100  0.746800  0.028200  1.0  0.1309
  H  H52  1  0.725800  0.624300  0.864400  1.0  0.1128
  H  H53  1  0.571100  0.659400  0.799600  1.0  0.1412
  H  H54  1  0.593100  0.678900  0.067200  1.0  0.1339
  H  H55  1  0.595400  0.600200  0.011800  1.0  0.1317
  H  H56  1  0.725300  0.634200  0.073400  1.0  0.1284
  H  H57  1  0.606900  0.978400  0.249000  1.0  0.0957
  H  H58  1  0.554500  0.999200  0.320600  1.0  0.1255
  H  H59  1  0.605300  0.769500  0.441600  1.0  0.1194
  H  H60  1  0.747300  0.744800  0.470200  1.0  0.1029
  H  H61  1  0.520800  0.546000  0.338400  1.0  0.1478
  H  H62  1  0.616300  0.475400  0.237000  1.0  0.1192
  H  H63  1  0.861500  0.637600  0.257400  1.0  0.1146
  H  H64  1  0.770300  0.708900  0.359400  1.0  0.1319
  H  H65  1  0.640400  0.426000  0.129200  1.0  0.1231
  H  H66  1  0.748900  0.417500  0.075400  1.0  0.1409
  H  H67  1  0.638200  0.478500  0.101000  1.0  0.1349
  H  H68  1  0.946600  0.504600  0.101800  1.0  0.1277
  H  H69  1  0.998700  0.563300  0.177000  1.0  0.1266
  H  H70  1  0.846700  0.568600  0.137600  1.0  0.1366
  H  H71  1  0.803200  0.366800  0.154800  1.0  0.1118
  H  H72  1  0.947300  0.312500  0.203400  1.0  0.1445
  H  H73  1  0.243200  0.478500  0.294200  1.0  0.1305
  H  H74  1  0.096100  0.532800  0.247000  1.0  0.1197
  H  H75  1  0.983900  0.026400  0.777400  1.0  0.1132
  H  H76  1  0.869400  0.059800  0.745000  1.0  0.1176
  H  H77  1  0.862600  0.182400  0.962800  1.0  0.1377
  H  H78  1  0.019100  0.281400  0.028200  1.0  0.1299
  H  H79  1  0.225800  0.240100  0.864400  1.0  0.1115
  H  H80  1  0.071100  0.140200  0.799600  1.0  0.1412
  H  H81  1  0.093100  0.388300  0.067200  1.0  0.1339
  H  H82  1  0.095400  0.411600  0.011800  1.0  0.1304
  H  H83  1  0.225300  0.439200  0.073400  1.0  0.1288
  H  H84  1  0.106900  0.270600  0.249000  1.0  0.0974
  H  H85  1  0.054500  0.321400  0.320600  1.0  0.126
  H  H86  1  0.894700  0.327900  0.558400  1.0  0.1195
  H  H87  1  0.752700  0.274600  0.529800  1.0  0.1058
  H  H88  1  0.979200  0.207600  0.661600  1.0  0.1466
  H  H89  1  0.883700  0.238400  0.763000  1.0  0.1177
  H  H90  1  0.638500  0.380200  0.742600  1.0  0.1162
  H  H91  1  0.729700  0.349500  0.640600  1.0  0.1303
  H  H92  1  0.859600  0.296800  0.870800  1.0  0.1254
  H  H93  1  0.751100  0.342100  0.924600  1.0  0.1391
  H  H94  1  0.861800  0.377500  0.899000  1.0  0.1366
  H  H95  1  0.553400  0.402800  0.898200  1.0  0.1274
  H  H96  1  0.501300  0.386300  0.823000  1.0  0.1254
  H  H97  1  0.653300  0.431000  0.862400  1.0  0.1346
  H  H98  1  0.696800  0.212000  0.845200  1.0  0.1107
  H  H99  1  0.552700  0.109100  0.796600  1.0  0.1437
  H  H100  1  0.256800  0.184300  0.705800  1.0  0.1299
  H  H101  1  0.403900  0.285800  0.753000  1.0  0.1159
  H  H102  1  0.516100  0.249000  0.222600  1.0  0.1162
  H  H103  1  0.630600  0.314800  0.255000  1.0  0.1212
  H  H104  1  0.637400  0.219600  0.037200  1.0  0.1368
  H  H105  1  0.480900  0.253200  0.971800  1.0  0.1318
  H  H106  1  0.274200  0.375700  0.135600  1.0  0.1122
  H  H107  1  0.428900  0.340600  0.200400  1.0  0.1407
  H  H108  1  0.406900  0.321100  0.932800  1.0  0.1332
  H  H109  1  0.404600  0.399800  0.988200  1.0  0.1328
  H  H110  1  0.274700  0.365800  0.926600  1.0  0.1288
  H  H111  1  0.393100  0.021600  0.751000  1.0  0.0972
  H  H112  1  0.445500  0.000800  0.679400  1.0  0.1235
  C  C113  1  0.420700  0.225590  0.467580  1.0  0.7748
  C  C114  1  0.363100  0.257170  0.535940  1.0  -0.0425
  C  C115  1  0.361500  0.364780  0.638760  1.0  0.33
  C  C116  1  0.409000  0.435310  0.677220  1.0  -0.1696
  C  C117  1  0.352000  0.477550  0.738500  1.0  -0.133
  C  C118  1  0.249600  0.451950  0.764300  1.0  0.023
  C  C119  1  0.206300  0.381300  0.726200  1.0  -0.1388
  C  C120  1  0.260900  0.338250  0.664700  1.0  -0.228
  C  C121  1  0.175900  0.502600  0.828200  1.0  0.0583
  C  C122  1  0.298500  0.549500  0.886000  1.0  -0.3583
  C  C123  1  0.087600  0.462770  0.855540  1.0  -0.3343
  C  C124  1  0.069700  0.543940  0.804680  1.0  0.0405
  C  C125  1  0.108500  0.609850  0.816300  1.0  -0.1277
  C  C126  1  0.023000  0.642850  0.787100  1.0  -0.2937
  C  C127  1  0.892400  0.608450  0.743500  1.0  0.3189
  C  C128  1  0.847600  0.543690  0.732980  1.0  -0.1964
  C  C129  1  0.935000  0.511600  0.762000  1.0  -0.1365
  C  C130  1  0.229600  0.020310  0.249020  1.0  0.7612
  C  C131  1  0.119300  0.959040  0.223880  1.0  -0.0337
  C  C132  1  0.048000  0.848570  0.124740  1.0  0.3151
  C  C133  1  0.063200  0.806170  0.056940  1.0  -0.1543
  C  C134  1  0.969300  0.746530  0.017860  1.0  -0.1275
  C  C135  1  0.856700  0.727190  0.045980  1.0  0.0094
  C  C136  1  0.846600  0.771270  0.114940  1.0  -0.1266
  C  C137  1  0.939600  0.831400  0.154400  1.0  -0.2647
  C  C138  1  0.842800  0.599990  0.957980  1.0  -0.352
  C  C139  1  0.738900  0.717810  0.671220  1.0  0.7559
  C  C140  1  0.858600  0.692100  0.705200  1.0  -0.0519
  C  C141  1  0.079300  0.758010  0.532420  1.0  0.7762
  C  C142  1  0.136900  0.721230  0.464060  1.0  -0.0471
  C  C143  1  0.138500  0.726020  0.361240  1.0  0.3302
  C  C144  1  0.091000  0.758090  0.322780  1.0  -0.168
  C  C145  1  0.148000  0.739050  0.261500  1.0  -0.1327
  C  C146  1  0.250400  0.687650  0.235700  1.0  0.0235
  C  C147  1  0.293700  0.655100  0.273800  1.0  -0.1384
  C  C148  1  0.239100  0.673550  0.335300  1.0  -0.2271
  C  C149  1  0.324100  0.674400  0.171800  1.0  0.0587
  C  C150  1  0.201500  0.663500  0.114000  1.0  -0.36
  C  C151  1  0.412400  0.607230  0.144460  1.0  -0.3344
  C  C152  1  0.430300  0.739260  0.195320  1.0  0.0409
  C  C153  1  0.391500  0.793550  0.183700  1.0  -0.1272
  C  C154  1  0.477000  0.855750  0.212900  1.0  -0.2918
  C  C155  1  0.607600  0.864950  0.256500  1.0  0.3186
  C  C156  1  0.652400  0.810710  0.267020  1.0  -0.1991
  C  C157  1  0.565000  0.749600  0.238000  1.0  -0.1319
  C  C158  1  0.270400  0.771290  0.750980  1.0  0.7621
  C  C159  1  0.380700  0.735160  0.776120  1.0  -0.0324
  C  C160  1  0.452000  0.723830  0.875260  1.0  0.3174
  C  C161  1  0.436800  0.749230  0.943060  1.0  -0.1533
  C  C162  1  0.530700  0.728670  0.982140  1.0  -0.1275
  C  C163  1  0.643300  0.681210  0.954020  1.0  0.0078
  C  C164  1  0.653400  0.656330  0.885060  1.0  -0.1251
  C  C165  1  0.560400  0.677000  0.845600  1.0  -0.2643
  C  C166  1  0.657200  0.642010  0.042020  1.0  -0.3547
  C  C167  1  0.761100  0.046590  0.328780  1.0  0.7531
  C  C168  1  0.641400  0.986900  0.294800  1.0  -0.0485
  C  C169  1  0.579300  0.774410  0.532420  1.0  0.7766
  C  C170  1  0.636900  0.742830  0.464060  1.0  -0.0434
  C  C171  1  0.638500  0.635220  0.361240  1.0  0.3315
  C  C172  1  0.591000  0.564690  0.322780  1.0  -0.1682
  C  C173  1  0.648000  0.522450  0.261500  1.0  -0.133
  C  C174  1  0.750400  0.548050  0.235700  1.0  0.023
  C  C175  1  0.793700  0.618700  0.273800  1.0  -0.137
  C  C176  1  0.739100  0.661750  0.335300  1.0  -0.2265
  C  C177  1  0.824100  0.497400  0.171800  1.0  0.0586
  C  C178  1  0.701500  0.450500  0.114000  1.0  -0.3598
  C  C179  1  0.912400  0.537230  0.144460  1.0  -0.3354
  C  C180  1  0.930300  0.456060  0.195320  1.0  0.0395
  C  C181  1  0.891500  0.390150  0.183700  1.0  -0.1264
  C  C182  1  0.977000  0.357150  0.212900  1.0  -0.2967
  C  C183  1  0.107600  0.391550  0.256500  1.0  0.3206
  C  C184  1  0.152400  0.456310  0.267020  1.0  -0.1994
  C  C185  1  0.065000  0.488400  0.238000  1.0  -0.1351
  C  C186  1  0.770400  0.979690  0.750980  1.0  0.759
  C  C187  1  0.880700  0.040960  0.776120  1.0  -0.0324
  C  C188  1  0.952000  0.151430  0.875260  1.0  0.3164
  C  C189  1  0.936800  0.193830  0.943060  1.0  -0.1593
  C  C190  1  0.030700  0.253470  0.982140  1.0  -0.1276
  C  C191  1  0.143300  0.272810  0.954020  1.0  0.0086
  C  C192  1  0.153400  0.228730  0.885060  1.0  -0.1281
  C  C193  1  0.060400  0.168600  0.845600  1.0  -0.2642
  C  C194  1  0.157200  0.400010  0.042020  1.0  -0.3514
  C  C195  1  0.261100  0.282190  0.328780  1.0  0.7569
  C  C196  1  0.141400  0.307900  0.294800  1.0  -0.0514
  C  C197  1  0.920700  0.241990  0.467580  1.0  0.776
  C  C198  1  0.863100  0.278770  0.535940  1.0  -0.0459
  C  C199  1  0.861500  0.273980  0.638760  1.0  0.3291
  C  C200  1  0.909000  0.241910  0.677220  1.0  -0.1695
  C  C201  1  0.852000  0.260950  0.738500  1.0  -0.1298
  C  C202  1  0.749600  0.312350  0.764300  1.0  0.0243
  C  C203  1  0.706300  0.344900  0.726200  1.0  -0.1401
  C  C204  1  0.760900  0.326450  0.664700  1.0  -0.2262
  C  C205  1  0.675900  0.325600  0.828200  1.0  0.0579
  C  C206  1  0.798500  0.336500  0.886000  1.0  -0.3586
  C  C207  1  0.587600  0.392770  0.855540  1.0  -0.3339
  C  C208  1  0.569700  0.260740  0.804680  1.0  0.0402
  C  C209  1  0.608500  0.206450  0.816300  1.0  -0.1273
  C  C210  1  0.523000  0.144250  0.787100  1.0  -0.2916
  C  C211  1  0.392400  0.135050  0.743500  1.0  0.3183
  C  C212  1  0.347600  0.189290  0.732980  1.0  -0.1982
  C  C213  1  0.435000  0.250400  0.762000  1.0  -0.1324
  C  C214  1  0.729600  0.228710  0.249020  1.0  0.7614
  C  C215  1  0.619300  0.264840  0.223880  1.0  -0.0323
  C  C216  1  0.548000  0.276170  0.124740  1.0  0.3173
  C  C217  1  0.563200  0.250770  0.056940  1.0  -0.158
  C  C218  1  0.469300  0.271330  0.017860  1.0  -0.1275
  C  C219  1  0.356700  0.318790  0.045980  1.0  0.0084
  C  C220  1  0.346600  0.343670  0.114940  1.0  -0.1251
  C  C221  1  0.439600  0.323000  0.154400  1.0  -0.2651
  C  C222  1  0.342800  0.357990  0.957980  1.0  -0.3537
  C  C223  1  0.238900  0.953410  0.671220  1.0  0.7507
  C  C224  1  0.358600  0.013100  0.705200  1.0  -0.0499
  C  C225  1  0.750000  0.662700  0.000000  1.0  0.0545
  C  C226  1  0.250000  0.337300  0.000000  1.0  0.0539
  O  O227  1  0.508300  0.259460  0.453680  1.0  -0.7202
  O  O228  1  0.368500  0.163640  0.426220  1.0  -0.6418
  O  O229  1  0.197600  0.076740  0.299720  1.0  -0.6904
  O  O230  1  0.346400  0.014780  0.221160  1.0  -0.5098
  O  O231  1  0.419500  0.327650  0.577940  1.0  -0.2515
  O  O232  1  0.799400  0.634380  0.708580  1.0  -0.2544
  O  O233  1  0.145900  0.907110  0.157620  1.0  -0.2469
  O  O234  1  0.608000  0.692000  0.654440  1.0  -0.6989
  O  O235  1  0.787500  0.768340  0.664540  1.0  -0.4998
  O  O236  1  0.991700  0.805780  0.546320  1.0  -0.718
  O  O237  1  0.131500  0.737420  0.573780  1.0  -0.6418
  O  O238  1  0.302400  0.777020  0.700280  1.0  -0.6901
  O  O239  1  0.153600  0.793620  0.778840  1.0  -0.5081
  O  O240  1  0.080500  0.749710  0.422060  1.0  -0.2489
  O  O241  1  0.700600  0.925800  0.291420  1.0  -0.2543
  O  O242  1  0.354100  0.749490  0.842380  1.0  -0.2447
  O  O243  1  0.892000  0.037560  0.345560  1.0  -0.7004
  O  O244  1  0.712500  0.103800  0.335460  1.0  -0.4969
  O  O245  1  0.491700  0.740540  0.546320  1.0  -0.72
  O  O246  1  0.631500  0.836360  0.573780  1.0  -0.6407
  O  O247  1  0.802400  0.923260  0.700280  1.0  -0.6911
  O  O248  1  0.653600  0.985220  0.778840  1.0  -0.5095
  O  O249  1  0.580500  0.672350  0.422060  1.0  -0.252
  O  O250  1  0.200600  0.365620  0.291420  1.0  -0.2544
  O  O251  1  0.854100  0.092890  0.842380  1.0  -0.2458
  O  O252  1  0.392000  0.308000  0.345560  1.0  -0.7012
  O  O253  1  0.212500  0.231660  0.335460  1.0  -0.5015
  O  O254  1  0.008300  0.194220  0.453680  1.0  -0.7196
  O  O255  1  0.868500  0.262580  0.426220  1.0  -0.6391
  O  O256  1  0.697600  0.222980  0.299720  1.0  -0.6912
  O  O257  1  0.846400  0.206380  0.221160  1.0  -0.507
  O  O258  1  0.919500  0.250290  0.577940  1.0  -0.2492
  O  O259  1  0.299400  0.074200  0.708580  1.0  -0.2542
  O  O260  1  0.645900  0.250510  0.157620  1.0  -0.2461
  O  O261  1  0.108000  0.962440  0.654440  1.0  -0.6987
  O  O262  1  0.287500  0.896200  0.664540  1.0  -0.5001
