# generated using pymatgen
data_ZnH13C20(NO2)2
_symmetry_space_group_name_H-M   'P 1'
_cell_length_a   6.88900000
_cell_length_b   11.60600000
_cell_length_c   23.85100000
_cell_angle_alpha   90.00000000
_cell_angle_beta   90.00000000
_cell_angle_gamma   96.08200000
_symmetry_Int_Tables_number   1
_chemical_formula_structural   ZnH13C20(NO2)2
_chemical_formula_sum   'Zn4 H52 C80 N8 O16'
_cell_volume   1896.24267073
_cell_formula_units_Z   4
loop_
 _symmetry_equiv_pos_site_id
 _symmetry_equiv_pos_as_xyz
  1  'x, y, z'
loop_
 _atom_site_type_symbol
 _atom_site_label
 _atom_site_symmetry_multiplicity
 _atom_site_fract_x
 _atom_site_fract_y
 _atom_site_fract_z
 _atom_site_occupancy
 _atom_site_charge
  Zn  Zn1  1  0.131260  0.141800  0.481840  1.0  0.9622
  Zn  Zn2  1  0.868740  0.358200  0.981840  1.0  0.9615
  Zn  Zn3  1  0.868740  0.858200  0.518150  1.0  0.9618
  Zn  Zn4  1  0.131260  0.641800  0.018150  1.0  0.9624
  H  H5  1  0.521400  0.446400  0.585500  1.0  0.3106
  H  H6  1  0.843200  0.507800  0.586600  1.0  0.1119
  H  H7  1  0.149600  0.608200  0.573200  1.0  0.0982
  H  H8  1  0.569900  0.258600  0.450000  1.0  0.1171
  H  H9  1  0.225300  0.319700  0.577200  1.0  0.1006
  H  H10  1  0.638600  0.311500  0.699400  1.0  0.1135
  H  H11  1  0.840700  0.263200  0.627300  1.0  0.1016
  H  H12  1  0.441800  0.999900  0.582300  1.0  0.1055
  H  H13  1  0.239300  0.047000  0.654900  1.0  0.1105
  H  H14  1  0.510800  0.288900  0.782900  1.0  0.1062
  H  H15  1  0.316200  0.329000  0.858300  1.0  0.0993
  H  H16  1  0.838800  0.185700  0.776300  1.0  0.1002
  H  H17  1  0.032200  0.143400  0.701000  1.0  0.107
  H  H18  1  0.478600  0.053600  0.085500  1.0  0.3098
  H  H19  1  0.156800  0.992200  0.086600  1.0  0.1119
  H  H20  1  0.850400  0.891800  0.073200  1.0  0.098
  H  H21  1  0.430100  0.241400  0.950000  1.0  0.1178
  H  H22  1  0.774700  0.180300  0.077200  1.0  0.1004
  H  H23  1  0.361400  0.188500  0.199400  1.0  0.1135
  H  H24  1  0.159300  0.236800  0.127300  1.0  0.1016
  H  H25  1  0.558200  0.500100  0.082300  1.0  0.1056
  H  H26  1  0.760700  0.453000  0.154900  1.0  0.1102
  H  H27  1  0.489200  0.211100  0.282900  1.0  0.1063
  H  H28  1  0.683800  0.171000  0.358300  1.0  0.0992
  H  H29  1  0.161200  0.314300  0.276300  1.0  0.1007
  H  H30  1  0.967800  0.356600  0.201000  1.0  0.107
  H  H31  1  0.478600  0.553600  0.414500  1.0  0.3108
  H  H32  1  0.156800  0.492200  0.413400  1.0  0.112
  H  H33  1  0.850400  0.391800  0.426800  1.0  0.0979
  H  H34  1  0.430100  0.741400  0.550000  1.0  0.1179
  H  H35  1  0.774700  0.680300  0.422800  1.0  0.1001
  H  H36  1  0.361400  0.688500  0.300600  1.0  0.1133
  H  H37  1  0.159300  0.736800  0.372700  1.0  0.101
  H  H38  1  0.558200  0.000100  0.417700  1.0  0.1059
  H  H39  1  0.760700  0.953000  0.345100  1.0  0.1091
  H  H40  1  0.489200  0.711100  0.217100  1.0  0.1064
  H  H41  1  0.683800  0.671000  0.141700  1.0  0.0989
  H  H42  1  0.161200  0.814300  0.223700  1.0  0.1007
  H  H43  1  0.967800  0.856600  0.299000  1.0  0.107
  H  H44  1  0.521400  0.946400  0.914500  1.0  0.3105
  H  H45  1  0.843200  0.007800  0.913400  1.0  0.1123
  H  H46  1  0.149600  0.108200  0.926800  1.0  0.0979
  H  H47  1  0.569900  0.758600  0.050000  1.0  0.1179
  H  H48  1  0.225300  0.819700  0.922800  1.0  0.1005
  H  H49  1  0.638600  0.811500  0.800600  1.0  0.1135
  H  H50  1  0.840700  0.763200  0.872700  1.0  0.1013
  H  H51  1  0.441800  0.499900  0.917700  1.0  0.1061
  H  H52  1  0.239300  0.547000  0.845100  1.0  0.1091
  H  H53  1  0.510800  0.788900  0.717100  1.0  0.1067
  H  H54  1  0.316200  0.829000  0.641700  1.0  0.0988
  H  H55  1  0.838800  0.685700  0.723700  1.0  0.1002
  H  H56  1  0.032200  0.643400  0.799000  1.0  0.1074
  C  C57  1  0.814300  0.439000  0.508030  1.0  0.0124
  C  C58  1  0.906200  0.504300  0.551300  1.0  -0.1069
  C  C59  1  0.088900  0.564100  0.543240  1.0  -0.1006
  C  C60  1  0.621000  0.375300  0.514700  1.0  0.0599
  C  C61  1  0.522100  0.290900  0.483200  1.0  0.0204
  C  C62  1  0.333400  0.323800  0.552260  1.0  0.2212
  C  C63  1  0.418500  0.182800  0.685700  1.0  0.0493
  C  C64  1  0.598400  0.247000  0.676050  1.0  -0.1498
  C  C65  1  0.718800  0.218300  0.633060  1.0  -0.0344
  C  C66  1  0.664100  0.125200  0.598450  1.0  -0.1611
  C  C67  1  0.483100  0.062600  0.606540  1.0  -0.0168
  C  C68  1  0.362400  0.091000  0.649760  1.0  -0.1291
  C  C69  1  0.799200  0.091100  0.553500  1.0  0.6902
  C  C70  1  0.293000  0.210400  0.733630  1.0  0.0374
  C  C71  1  0.374000  0.267000  0.781300  1.0  -0.1291
  C  C72  1  0.257700  0.291500  0.826170  1.0  -0.0426
  C  C73  1  0.057000  0.262100  0.825030  1.0  -0.1445
  C  C74  1  0.975800  0.206700  0.777880  1.0  -0.042
  C  C75  1  0.091500  0.181400  0.732930  1.0  -0.1353
  C  C76  1  0.932600  0.289500  0.874150  1.0  0.6518
  C  C77  1  0.185700  0.061000  0.008030  1.0  0.0122
  C  C78  1  0.093800  0.995700  0.051300  1.0  -0.1066
  C  C79  1  0.911100  0.935900  0.043240  1.0  -0.1009
  C  C80  1  0.379000  0.124700  0.014700  1.0  0.0598
  C  C81  1  0.477900  0.209100  0.983200  1.0  0.0196
  C  C82  1  0.666667  0.176200  0.052260  1.0  0.2146
  C  C83  1  0.581500  0.317200  0.185700  1.0  0.0495
  C  C84  1  0.401600  0.253000  0.176050  1.0  -0.1498
  C  C85  1  0.281200  0.281700  0.133060  1.0  -0.0327
  C  C86  1  0.335900  0.374800  0.098450  1.0  -0.1614
  C  C87  1  0.516900  0.437400  0.106540  1.0  -0.016
  C  C88  1  0.637600  0.409000  0.149760  1.0  -0.1298
  C  C89  1  0.200800  0.408900  0.053500  1.0  0.6899
  C  C90  1  0.707000  0.289600  0.233630  1.0  0.0377
  C  C91  1  0.626000  0.233000  0.281300  1.0  -0.1283
  C  C92  1  0.742300  0.208500  0.326170  1.0  -0.0425
  C  C93  1  0.943000  0.237900  0.325030  1.0  -0.1445
  C  C94  1  0.024200  0.293300  0.277880  1.0  -0.0427
  C  C95  1  0.908500  0.318600  0.232930  1.0  -0.135
  C  C96  1  0.067400  0.210500  0.374150  1.0  0.6517
  C  C97  1  0.185700  0.561000  0.491970  1.0  0.0122
  C  C98  1  0.093800  0.495700  0.448700  1.0  -0.1058
  C  C99  1  0.911100  0.435900  0.456760  1.0  -0.1029
  C  C100  1  0.379000  0.624700  0.485300  1.0  0.0596
  C  C101  1  0.477900  0.709100  0.516800  1.0  0.0196
  C  C102  1  0.666667  0.676200  0.447740  1.0  0.2141
  C  C103  1  0.581500  0.817200  0.314300  1.0  0.0498
  C  C104  1  0.401600  0.753000  0.323950  1.0  -0.149
  C  C105  1  0.281200  0.781700  0.366940  1.0  -0.0332
  C  C106  1  0.335900  0.874800  0.401550  1.0  -0.1617
  C  C107  1  0.516900  0.937400  0.393460  1.0  -0.0162
  C  C108  1  0.637600  0.909000  0.350240  1.0  -0.1305
  C  C109  1  0.200800  0.908900  0.446500  1.0  0.6896
  C  C110  1  0.707000  0.789600  0.266370  1.0  0.0373
  C  C111  1  0.626000  0.733000  0.218700  1.0  -0.1282
  C  C112  1  0.742300  0.708500  0.173830  1.0  -0.0426
  C  C113  1  0.943000  0.737900  0.174970  1.0  -0.1441
  C  C114  1  0.024200  0.793300  0.222120  1.0  -0.0428
  C  C115  1  0.908500  0.818600  0.267070  1.0  -0.1358
  C  C116  1  0.067400  0.710500  0.125850  1.0  0.6506
  C  C117  1  0.814300  0.939000  0.991970  1.0  0.0125
  C  C118  1  0.906200  0.004300  0.948700  1.0  -0.1057
  C  C119  1  0.088900  0.064100  0.956760  1.0  -0.1039
  C  C120  1  0.621000  0.875300  0.985300  1.0  0.0596
  C  C121  1  0.522100  0.790900  0.016800  1.0  0.0213
  C  C122  1  0.333400  0.823800  0.947740  1.0  0.2206
  C  C123  1  0.418500  0.682800  0.814300  1.0  0.0497
  C  C124  1  0.598400  0.747000  0.823950  1.0  -0.1496
  C  C125  1  0.718800  0.718300  0.866940  1.0  -0.0344
  C  C126  1  0.664100  0.625200  0.901550  1.0  -0.1611
  C  C127  1  0.483100  0.562600  0.893460  1.0  -0.0164
  C  C128  1  0.362400  0.591000  0.850240  1.0  -0.1302
  C  C129  1  0.799200  0.591100  0.946500  1.0  0.6906
  C  C130  1  0.293000  0.710400  0.766370  1.0  0.037
  C  C131  1  0.374000  0.767000  0.718700  1.0  -0.1289
  C  C132  1  0.257700  0.791500  0.673830  1.0  -0.0422
  C  C133  1  0.057000  0.762100  0.674970  1.0  -0.1442
  C  C134  1  0.975800  0.706700  0.722120  1.0  -0.042
  C  C135  1  0.091500  0.681400  0.767070  1.0  -0.1356
  C  C136  1  0.932600  0.789500  0.625850  1.0  0.651
  N  N137  1  0.496900  0.395400  0.558430  1.0  -0.2799
  N  N138  1  0.342000  0.259500  0.506860  1.0  -0.3933
  N  N139  1  0.503100  0.104600  0.058430  1.0  -0.2806
  N  N140  1  0.658000  0.240500  0.006860  1.0  -0.3925
  N  N141  1  0.503100  0.604600  0.441570  1.0  -0.2808
  N  N142  1  0.658000  0.740500  0.493140  1.0  -0.3932
  N  N143  1  0.496900  0.895400  0.941570  1.0  -0.2802
  N  N144  1  0.342000  0.759500  0.993140  1.0  -0.3935
  O  O145  1  0.958900  0.153700  0.547230  1.0  -0.5977
  O  O146  1  0.747300  0.001380  0.524990  1.0  -0.6121
  O  O147  1  0.023900  0.341800  0.914920  1.0  -0.6143
  O  O148  1  0.753400  0.261500  0.873210  1.0  -0.5914
  O  O149  1  0.041100  0.346300  0.047230  1.0  -0.5978
  O  O150  1  0.252700  0.498620  0.024990  1.0  -0.6119
  O  O151  1  0.976100  0.158200  0.414920  1.0  -0.6134
  O  O152  1  0.246600  0.238500  0.373210  1.0  -0.592
  O  O153  1  0.041100  0.846300  0.452770  1.0  -0.5978
  O  O154  1  0.252700  0.998620  0.475010  1.0  -0.6124
  O  O155  1  0.976100  0.658200  0.085080  1.0  -0.6145
  O  O156  1  0.246600  0.738500  0.126790  1.0  -0.5923
  O  O157  1  0.958900  0.653700  0.952770  1.0  -0.5977
  O  O158  1  0.747300  0.501380  0.975010  1.0  -0.6124
  O  O159  1  0.023900  0.841800  0.585080  1.0  -0.6151
  O  O160  1  0.753400  0.761500  0.626790  1.0  -0.5912
