# generated using pymatgen
data_MnH5C10N3O4
_symmetry_space_group_name_H-M   'P 1'
_cell_length_a   7.84010000
_cell_length_b   10.31760000
_cell_length_c   15.88090000
_cell_angle_alpha   90.00000000
_cell_angle_beta   90.00000000
_cell_angle_gamma   90.00000000
_symmetry_Int_Tables_number   1
_chemical_formula_structural   MnH5C10N3O4
_chemical_formula_sum   'Mn4 H20 C40 N12 O16'
_cell_volume   1284.62213218
_cell_formula_units_Z   4
loop_
 _symmetry_equiv_pos_site_id
 _symmetry_equiv_pos_as_xyz
  1  'x, y, z'
loop_
 _atom_site_type_symbol
 _atom_site_label
 _atom_site_symmetry_multiplicity
 _atom_site_fract_x
 _atom_site_fract_y
 _atom_site_fract_z
 _atom_site_occupancy
 _atom_site_charge
  Mn  Mn1  1  0.355740  0.027040  0.469660  1.0  1.0522
  Mn  Mn2  1  0.644260  0.972960  0.969660  1.0  1.0509
  Mn  Mn3  1  0.855740  0.472960  0.469660  1.0  1.0517
  Mn  Mn4  1  0.144260  0.527040  0.969660  1.0  1.0514
  H  H5  1  0.587900  0.550000  0.158300  1.0  0.3079
  H  H6  1  0.449100  0.081000  0.282400  1.0  0.0813
  H  H7  1  0.567200  0.984600  0.166400  1.0  0.1223
  H  H8  1  0.440000  0.640200  0.264700  1.0  0.1288
  H  H9  1  0.333500  0.746700  0.379500  1.0  0.081
  H  H10  1  0.412100  0.450000  0.658300  1.0  0.3068
  H  H11  1  0.550900  0.919000  0.782400  1.0  0.0807
  H  H12  1  0.432800  0.015400  0.666400  1.0  0.1222
  H  H13  1  0.560000  0.359800  0.764700  1.0  0.128
  H  H14  1  0.666500  0.253300  0.879500  1.0  0.0809
  H  H15  1  0.087900  0.950000  0.158300  1.0  0.3075
  H  H16  1  0.949100  0.419000  0.282400  1.0  0.0806
  H  H17  1  0.067200  0.515400  0.166400  1.0  0.1221
  H  H18  1  0.940000  0.859800  0.264700  1.0  0.1278
  H  H19  1  0.833500  0.753300  0.379500  1.0  0.0811
  H  H20  1  0.912100  0.050000  0.658300  1.0  0.3077
  H  H21  1  0.050900  0.581000  0.782400  1.0  0.0813
  H  H22  1  0.932800  0.484600  0.666400  1.0  0.1227
  H  H23  1  0.060000  0.140200  0.764700  1.0  0.1292
  H  H24  1  0.166500  0.246700  0.879500  1.0  0.081
  C  C25  1  0.450400  0.991000  0.279400  1.0  0.1754
  C  C26  1  0.520400  0.933900  0.209030  1.0  -0.1768
  C  C27  1  0.520300  0.799800  0.202500  1.0  0.0491
  C  C28  1  0.446100  0.730100  0.267440  1.0  -0.2038
  C  C29  1  0.381500  0.795000  0.336100  1.0  0.1842
  C  C30  1  0.606900  0.737400  0.131490  1.0  0.3352
  C  C31  1  0.765900  0.704600  0.022780  1.0  -0.0112
  C  C32  1  0.732200  0.584300  0.057650  1.0  -0.0404
  C  C33  1  0.781600  0.446900  0.035490  1.0  0.7074
  C  C34  1  0.867600  0.744300  0.948210  1.0  0.7183
  C  C35  1  0.549600  0.009000  0.779400  1.0  0.1736
  C  C36  1  0.479600  0.066100  0.709030  1.0  -0.1754
  C  C37  1  0.479700  0.200200  0.702500  1.0  0.0494
  C  C38  1  0.553900  0.269900  0.767440  1.0  -0.2076
  C  C39  1  0.618500  0.205000  0.836100  1.0  0.1847
  C  C40  1  0.393100  0.262600  0.631490  1.0  0.3352
  C  C41  1  0.234100  0.295400  0.522780  1.0  -0.011
  C  C42  1  0.267800  0.415700  0.557650  1.0  -0.04
  C  C43  1  0.218400  0.553100  0.535490  1.0  0.7077
  C  C44  1  0.132400  0.255700  0.448210  1.0  0.7198
  C  C45  1  0.950400  0.509000  0.279400  1.0  0.1733
  C  C46  1  0.020400  0.566100  0.209030  1.0  -0.176
  C  C47  1  0.020300  0.700200  0.202500  1.0  0.049
  C  C48  1  0.946100  0.769900  0.267440  1.0  -0.2078
  C  C49  1  0.881500  0.705000  0.336100  1.0  0.1842
  C  C50  1  0.106900  0.762600  0.131490  1.0  0.3345
  C  C51  1  0.265900  0.795400  0.022780  1.0  -0.0115
  C  C52  1  0.232200  0.915700  0.057650  1.0  -0.0411
  C  C53  1  0.281600  0.053100  0.035490  1.0  0.7102
  C  C54  1  0.367600  0.755700  0.948210  1.0  0.7189
  C  C55  1  0.049600  0.491000  0.779400  1.0  0.175
  C  C56  1  0.979600  0.433900  0.709030  1.0  -0.1772
  C  C57  1  0.979700  0.299800  0.702500  1.0  0.0494
  C  C58  1  0.053900  0.230100  0.767440  1.0  -0.2038
  C  C59  1  0.118500  0.295000  0.836100  1.0  0.1848
  C  C60  1  0.893100  0.237400  0.631490  1.0  0.3359
  C  C61  1  0.734100  0.204600  0.522780  1.0  -0.0108
  C  C62  1  0.767800  0.084300  0.557650  1.0  -0.0395
  C  C63  1  0.718400  0.946900  0.535490  1.0  0.7105
  C  C64  1  0.632400  0.244300  0.448210  1.0  0.7198
  N  N65  1  0.384200  0.924100  0.343530  1.0  -0.3574
  N  N66  1  0.683400  0.799100  0.069080  1.0  -0.4874
  N  N67  1  0.630200  0.607600  0.125220  1.0  -0.2509
  N  N68  1  0.615800  0.075900  0.843530  1.0  -0.3543
  N  N69  1  0.316600  0.200900  0.569080  1.0  -0.4854
  N  N70  1  0.369800  0.392400  0.625220  1.0  -0.2526
  N  N71  1  0.884200  0.575900  0.343530  1.0  -0.3572
  N  N72  1  0.183400  0.700900  0.069080  1.0  -0.486
  N  N73  1  0.130200  0.892400  0.125220  1.0  -0.2511
  N  N74  1  0.115800  0.424100  0.843530  1.0  -0.3548
  N  N75  1  0.816600  0.299100  0.569080  1.0  -0.4868
  N  N76  1  0.869800  0.107600  0.625220  1.0  -0.2533
  O  O77  1  0.849900  0.859300  0.922610  1.0  -0.6013
  O  O78  1  0.966100  0.663800  0.915190  1.0  -0.6172
  O  O79  1  0.931900  0.422670  0.016170  1.0  -0.6268
  O  O80  1  0.665700  0.364700  0.042150  1.0  -0.5706
  O  O81  1  0.150100  0.140700  0.422610  1.0  -0.6012
  O  O82  1  0.033900  0.336200  0.415190  1.0  -0.6174
  O  O83  1  0.068100  0.577330  0.516170  1.0  -0.6251
  O  O84  1  0.334300  0.635300  0.542150  1.0  -0.5723
  O  O85  1  0.349900  0.640700  0.922610  1.0  -0.6009
  O  O86  1  0.466100  0.836200  0.915190  1.0  -0.617
  O  O87  1  0.431900  0.077330  0.016170  1.0  -0.6246
  O  O88  1  0.165700  0.135300  0.042150  1.0  -0.5703
  O  O89  1  0.650100  0.359300  0.422610  1.0  -0.6017
  O  O90  1  0.533900  0.163800  0.415190  1.0  -0.6177
  O  O91  1  0.568100  0.922670  0.516170  1.0  -0.6271
  O  O92  1  0.834300  0.864700  0.542150  1.0  -0.5705
