# generated using pymatgen
data_MnH5C10N3O4
_symmetry_space_group_name_H-M   'P 1'
_cell_length_a   7.75630000
_cell_length_b   9.69380000
_cell_length_c   9.69380000
_cell_angle_alpha   114.10000000
_cell_angle_beta   99.30550000
_cell_angle_gamma   80.69450000
_symmetry_Int_Tables_number   1
_chemical_formula_structural   MnH5C10N3O4
_chemical_formula_sum   'Mn2 H10 C20 N6 O8'
_cell_volume   652.85717777
_cell_formula_units_Z   2
loop_
 _symmetry_equiv_pos_site_id
 _symmetry_equiv_pos_as_xyz
  1  'x, y, z'
loop_
 _atom_site_type_symbol
 _atom_site_label
 _atom_site_symmetry_multiplicity
 _atom_site_fract_x
 _atom_site_fract_y
 _atom_site_fract_z
 _atom_site_occupancy
 _atom_site_charge
  Mn  Mn1  1  0.525010  0.445540  0.112140  1.0  1.0888
  Mn  Mn2  1  0.025010  0.887860  0.554460  1.0  1.0888
  H  H3  1  0.867600  0.479700  0.734700  1.0  0.1344
  H  H4  1  0.017400  0.253600  0.739400  1.0  0.0854
  H  H5  1  0.834000  0.027000  0.318800  1.0  0.0944
  H  H6  1  0.676200  0.241300  0.300100  1.0  0.1288
  H  H7  1  0.665500  0.678800  0.724600  1.0  0.3261
  H  H8  1  0.367600  0.265300  0.520300  1.0  0.1358
  H  H9  1  0.517400  0.260600  0.746400  1.0  0.0851
  H  H10  1  0.334000  0.681200  0.973000  1.0  0.094
  H  H11  1  0.176200  0.699900  0.758700  1.0  0.1301
  H  H12  1  0.165500  0.275400  0.321200  1.0  0.3306
  C  C13  1  0.296300  0.705400  0.322400  1.0  0.6822
  C  C14  1  0.432200  0.669300  0.436500  1.0  -0.0135
  C  C15  1  0.420600  0.907600  0.706400  1.0  0.6705
  C  C16  1  0.481900  0.752100  0.591500  1.0  -0.0039
  C  C17  1  0.857200  0.389100  0.649900  1.0  -0.1818
  C  C18  1  0.947300  0.251600  0.651400  1.0  0.1751
  C  C19  1  0.838300  0.118400  0.403400  1.0  0.17
  C  C20  1  0.743500  0.247000  0.390400  1.0  -0.138
  C  C21  1  0.750700  0.386500  0.516500  1.0  0.0261
  C  C22  1  0.638800  0.524400  0.509600  1.0  0.2782
  C  C23  1  0.796300  0.677600  0.294600  1.0  0.6824
  C  C24  1  0.932200  0.563500  0.330700  1.0  -0.0137
  C  C25  1  0.920600  0.293600  0.092400  1.0  0.6731
  C  C26  1  0.981900  0.408500  0.247900  1.0  -0.0115
  C  C27  1  0.357200  0.350100  0.610900  1.0  -0.1867
  C  C28  1  0.447300  0.348600  0.748400  1.0  0.1758
  C  C29  1  0.338300  0.596600  0.881600  1.0  0.1694
  C  C30  1  0.243500  0.609600  0.753000  1.0  -0.1439
  C  C31  1  0.250700  0.483500  0.613500  1.0  0.0264
  C  C32  1  0.138800  0.490400  0.475600  1.0  0.2782
  N  N33  1  0.534500  0.528000  0.387000  1.0  -0.4788
  N  N34  1  0.611200  0.658000  0.634800  1.0  -0.2765
  N  N35  1  0.937400  0.117100  0.532100  1.0  -0.3698
  N  N36  1  0.034500  0.613000  0.472000  1.0  -0.4789
  N  N37  1  0.111200  0.365200  0.342000  1.0  -0.2792
  N  N38  1  0.437400  0.467900  0.882900  1.0  -0.3716
  O  O39  1  0.297500  0.611200  0.187000  1.0  -0.5827
  O  O40  1  0.191200  0.826200  0.367800  1.0  -0.6102
  O  O41  1  0.259100  0.954100  0.702900  1.0  -0.6182
  O  O42  1  0.540500  0.978300  0.802100  1.0  -0.5805
  O  O43  1  0.797500  0.813000  0.388800  1.0  -0.5823
  O  O44  1  0.691200  0.632200  0.173800  1.0  -0.61
  O  O45  1  0.759100  0.297100  0.045900  1.0  -0.6203
  O  O46  1  0.040500  0.197900  0.021700  1.0  -0.5779
