# generated using pymatgen
data_Fe3P3(O6F)2
_symmetry_space_group_name_H-M   'P 1'
_cell_length_a   8.84940000
_cell_length_b   10.37280000
_cell_length_c   16.94710000
_cell_angle_alpha   90.00000000
_cell_angle_beta   92.86900000
_cell_angle_gamma   90.00000000
_symmetry_Int_Tables_number   1
_chemical_formula_structural   Fe3P3(O6F)2
_chemical_formula_sum   'Fe12 P12 O48 F8'
_cell_volume   1553.67625876
_cell_formula_units_Z   4
loop_
 _symmetry_equiv_pos_site_id
 _symmetry_equiv_pos_as_xyz
  1  'x, y, z'
loop_
 _atom_site_type_symbol
 _atom_site_label
 _atom_site_symmetry_multiplicity
 _atom_site_fract_x
 _atom_site_fract_y
 _atom_site_fract_z
 _atom_site_occupancy
 _atom_site_charge
  Fe  Fe1  1  0.728500  0.182300  0.301500  1.0  1.5055
  Fe  Fe2  1  0.070700  0.349200  0.268500  1.0  1.2751
  Fe  Fe3  1  0.590800  0.151000  0.096100  1.0  1.3374
  Fe  Fe4  1  0.771500  0.682300  0.198500  1.0  1.5043
  Fe  Fe5  1  0.429300  0.849200  0.231500  1.0  1.2743
  Fe  Fe6  1  0.909200  0.651000  0.403900  1.0  1.336
  Fe  Fe7  1  0.271500  0.817700  0.698500  1.0  1.504
  Fe  Fe8  1  0.929300  0.650800  0.731500  1.0  1.2748
  Fe  Fe9  1  0.409200  0.849000  0.903900  1.0  1.3361
  Fe  Fe10  1  0.228500  0.317700  0.801500  1.0  1.5054
  Fe  Fe11  1  0.570700  0.150800  0.768500  1.0  1.2753
  Fe  Fe12  1  0.090800  0.349000  0.596100  1.0  1.3366
  P  P13  1  0.377200  0.158400  0.244300  1.0  1.8295
  P  P14  1  0.787400  0.380800  0.158600  1.0  1.8009
  P  P15  1  0.891700  0.368800  0.431600  1.0  1.8173
  P  P16  1  0.122800  0.658400  0.255700  1.0  1.8325
  P  P17  1  0.712600  0.880800  0.341400  1.0  1.8001
  P  P18  1  0.608300  0.868800  0.068400  1.0  1.8172
  P  P19  1  0.622800  0.841600  0.755700  1.0  1.8324
  P  P20  1  0.212600  0.619200  0.841400  1.0  1.8004
  P  P21  1  0.108300  0.631200  0.568400  1.0  1.8181
  P  P22  1  0.877200  0.341600  0.744300  1.0  1.8294
  P  P23  1  0.287400  0.119200  0.658600  1.0  1.8008
  P  P24  1  0.391700  0.131200  0.931600  1.0  1.8184
  O  O25  1  0.504800  0.182900  0.307800  1.0  -0.6864
  O  O26  1  0.962300  0.365500  0.168400  1.0  -0.6874
  O  O27  1  0.714900  0.342000  0.235500  1.0  -0.719
  O  O28  1  0.963300  0.297400  0.503600  1.0  -0.7245
  O  O29  1  0.830800  0.502300  0.455900  1.0  -0.6668
  O  O30  1  0.729000  0.293200  0.089000  1.0  -0.6864
  O  O31  1  0.426100  0.194800  0.160900  1.0  -0.7215
  O  O32  1  0.760300  0.286100  0.397200  1.0  -0.6949
  O  O33  1  0.013200  0.397100  0.370700  1.0  -0.8223
  O  O34  1  0.323400  0.017000  0.245800  1.0  -0.6732
  O  O35  1  0.746700  0.521000  0.137000  1.0  -0.6879
  O  O36  1  0.245600  0.248400  0.263800  1.0  -0.8519
  O  O37  1  0.995200  0.682900  0.192200  1.0  -0.6856
  O  O38  1  0.537700  0.865500  0.331600  1.0  -0.686
  O  O39  1  0.785100  0.842000  0.264500  1.0  -0.7197
  O  O40  1  0.536700  0.797400  0.996400  1.0  -0.7249
  O  O41  1  0.669200  0.002300  0.044100  1.0  -0.669
  O  O42  1  0.771000  0.793200  0.411000  1.0  -0.6872
  O  O43  1  0.073900  0.694800  0.339100  1.0  -0.7237
  O  O44  1  0.739700  0.786100  0.102800  1.0  -0.697
  O  O45  1  0.486800  0.897100  0.129300  1.0  -0.8234
  O  O46  1  0.176600  0.517000  0.254200  1.0  -0.6744
  O  O47  1  0.753300  0.021000  0.363000  1.0  -0.6882
  O  O48  1  0.254400  0.748400  0.236200  1.0  -0.8499
  O  O49  1  0.495200  0.817100  0.692200  1.0  -0.6849
  O  O50  1  0.037700  0.634500  0.831600  1.0  -0.6858
  O  O51  1  0.285100  0.658000  0.764500  1.0  -0.7203
  O  O52  1  0.036700  0.702600  0.496400  1.0  -0.7234
  O  O53  1  0.169200  0.497700  0.544100  1.0  -0.6682
  O  O54  1  0.271000  0.706800  0.911000  1.0  -0.6863
  O  O55  1  0.573900  0.805200  0.839100  1.0  -0.7237
  O  O56  1  0.239700  0.713900  0.602800  1.0  -0.6962
  O  O57  1  0.986800  0.602900  0.629300  1.0  -0.8242
  O  O58  1  0.676600  0.983000  0.754200  1.0  -0.6735
  O  O59  1  0.253300  0.479000  0.863000  1.0  -0.6881
  O  O60  1  0.754400  0.751600  0.736200  1.0  -0.8493
  O  O61  1  0.004800  0.317100  0.807800  1.0  -0.6864
  O  O62  1  0.462300  0.134500  0.668400  1.0  -0.6879
  O  O63  1  0.214900  0.158000  0.735500  1.0  -0.7197
  O  O64  1  0.463300  0.202600  0.003600  1.0  -0.724
  O  O65  1  0.330800  0.997700  0.955900  1.0  -0.6667
  O  O66  1  0.229000  0.206800  0.589000  1.0  -0.6854
  O  O67  1  0.926100  0.305200  0.660900  1.0  -0.7209
  O  O68  1  0.260300  0.213900  0.897200  1.0  -0.6947
  O  O69  1  0.513200  0.102900  0.870700  1.0  -0.8223
  O  O70  1  0.823400  0.483000  0.745800  1.0  -0.6722
  O  O71  1  0.246700  0.979000  0.637000  1.0  -0.6878
  O  O72  1  0.745600  0.251600  0.763800  1.0  -0.8513
  F  F73  1  0.951300  0.183000  0.284400  1.0  -0.4553
  F  F74  1  0.705500  0.089400  0.197200  1.0  -0.4879
  F  F75  1  0.548700  0.683000  0.215600  1.0  -0.4546
  F  F76  1  0.794500  0.589400  0.302800  1.0  -0.4879
  F  F77  1  0.048700  0.817000  0.715600  1.0  -0.4544
  F  F78  1  0.294500  0.910600  0.802800  1.0  -0.4865
  F  F79  1  0.451300  0.317000  0.784400  1.0  -0.4547
  F  F80  1  0.205500  0.410600  0.697200  1.0  -0.4864
