# generated using pymatgen
data_AgH12C28(S3N2)2
_symmetry_space_group_name_H-M   'P 1'
_cell_length_a   22.84110000
_cell_length_b   12.58250000
_cell_length_c   22.97450000
_cell_angle_alpha   90.00000000
_cell_angle_beta   90.00000000
_cell_angle_gamma   90.00000000
_symmetry_Int_Tables_number   1
_chemical_formula_structural   AgH12C28(S3N2)2
_chemical_formula_sum   'Ag8 H96 C224 S48 N32'
_cell_volume   6602.82858466
_cell_formula_units_Z   8
loop_
 _symmetry_equiv_pos_site_id
 _symmetry_equiv_pos_as_xyz
  1  'x, y, z'
loop_
 _atom_site_type_symbol
 _atom_site_label
 _atom_site_symmetry_multiplicity
 _atom_site_fract_x
 _atom_site_fract_y
 _atom_site_fract_z
 _atom_site_occupancy
 _atom_site_charge
  Ag  Ag1  1  0.753430  0.874350  0.531060  1.0  0.4076
  Ag  Ag2  1  0.746570  0.125650  0.031060  1.0  0.4081
  Ag  Ag3  1  0.246570  0.374350  0.968940  1.0  0.4068
  Ag  Ag4  1  0.253430  0.625650  0.468940  1.0  0.4063
  Ag  Ag5  1  0.246570  0.125650  0.468940  1.0  0.4083
  Ag  Ag6  1  0.253430  0.874350  0.968940  1.0  0.4079
  Ag  Ag7  1  0.753430  0.625650  0.031060  1.0  0.4061
  Ag  Ag8  1  0.746570  0.374350  0.531060  1.0  0.4065
  H  H9  1  0.887900  0.311400  0.728100  1.0  0.0982
  H  H10  1  0.887500  0.147100  0.672600  1.0  0.0916
  H  H11  1  0.692000  0.417100  0.747900  1.0  0.1047
  H  H12  1  0.688400  0.581000  0.803500  1.0  0.1081
  H  H13  1  0.876400  0.866200  0.885400  1.0  0.0949
  H  H14  1  0.881500  0.703100  0.827500  1.0  0.1007
  H  H15  1  0.608600  0.633100  0.389200  1.0  0.0946
  H  H16  1  0.554800  0.470300  0.377100  1.0  0.1035
  H  H17  1  0.475100  0.155800  0.552200  1.0  0.1033
  H  H18  1  0.532500  0.319400  0.561700  1.0  0.0957
  H  H19  1  0.462700  0.071700  0.356400  1.0  0.1
  H  H20  1  0.403200  0.909700  0.346800  1.0  0.0963
  H  H21  1  0.612100  0.688600  0.228100  1.0  0.0988
  H  H22  1  0.612500  0.852900  0.172600  1.0  0.0915
  H  H23  1  0.808000  0.582900  0.247900  1.0  0.1061
  H  H24  1  0.811600  0.419000  0.303500  1.0  0.1081
  H  H25  1  0.623600  0.133800  0.385400  1.0  0.0944
  H  H26  1  0.618500  0.296900  0.327500  1.0  0.101
  H  H27  1  0.891400  0.366900  0.889200  1.0  0.0942
  H  H28  1  0.945200  0.529700  0.877100  1.0  0.1037
  H  H29  1  0.024900  0.844200  0.052200  1.0  0.1033
  H  H30  1  0.967500  0.680600  0.061700  1.0  0.0957
  H  H31  1  0.037300  0.928300  0.856400  1.0  0.0999
  H  H32  1  0.096800  0.090300  0.846800  1.0  0.0971
  H  H33  1  0.112100  0.811400  0.771900  1.0  0.0982
  H  H34  1  0.112500  0.647100  0.827400  1.0  0.091
  H  H35  1  0.308000  0.917100  0.752100  1.0  0.1063
  H  H36  1  0.311600  0.081000  0.696500  1.0  0.1083
  H  H37  1  0.123600  0.366200  0.614600  1.0  0.0944
  H  H38  1  0.118500  0.203100  0.672500  1.0  0.1011
  H  H39  1  0.391400  0.133100  0.110800  1.0  0.0943
  H  H40  1  0.445200  0.970300  0.122900  1.0  0.1032
  H  H41  1  0.524900  0.655800  0.947800  1.0  0.1037
  H  H42  1  0.467500  0.819400  0.938300  1.0  0.0963
  H  H43  1  0.537300  0.571700  0.143600  1.0  0.1
  H  H44  1  0.596800  0.409700  0.153200  1.0  0.0964
  H  H45  1  0.387900  0.188600  0.271900  1.0  0.0981
  H  H46  1  0.387500  0.352900  0.327400  1.0  0.0931
  H  H47  1  0.192000  0.082900  0.252100  1.0  0.1054
  H  H48  1  0.188400  0.919000  0.196500  1.0  0.1083
  H  H49  1  0.376400  0.633800  0.114600  1.0  0.095
  H  H50  1  0.381500  0.796900  0.172500  1.0  0.1007
  H  H51  1  0.108600  0.866900  0.610800  1.0  0.0944
  H  H52  1  0.054800  0.029700  0.622900  1.0  0.1037
  H  H53  1  0.975100  0.344200  0.447800  1.0  0.1035
  H  H54  1  0.032500  0.180600  0.438300  1.0  0.0966
  H  H55  1  0.962700  0.428300  0.643600  1.0  0.0999
  H  H56  1  0.903200  0.590300  0.653200  1.0  0.0971
  H  H57  1  0.112100  0.688600  0.271900  1.0  0.0983
  H  H58  1  0.112500  0.852900  0.327400  1.0  0.0919
  H  H59  1  0.308000  0.582900  0.252100  1.0  0.1063
  H  H60  1  0.311600  0.419000  0.196500  1.0  0.1083
  H  H61  1  0.123600  0.133800  0.114600  1.0  0.0944
  H  H62  1  0.118500  0.296900  0.172500  1.0  0.101
  H  H63  1  0.391400  0.366900  0.610800  1.0  0.0943
  H  H64  1  0.445200  0.529700  0.622900  1.0  0.1032
  H  H65  1  0.524900  0.844200  0.447800  1.0  0.1037
  H  H66  1  0.467500  0.680600  0.438300  1.0  0.0963
  H  H67  1  0.537300  0.928300  0.643600  1.0  0.1004
  H  H68  1  0.596800  0.090300  0.653200  1.0  0.097
  H  H69  1  0.387900  0.311400  0.771900  1.0  0.0978
  H  H70  1  0.387500  0.147100  0.827400  1.0  0.0922
  H  H71  1  0.192000  0.417100  0.752100  1.0  0.1053
  H  H72  1  0.188400  0.581000  0.696500  1.0  0.1084
  H  H73  1  0.376400  0.866200  0.614600  1.0  0.095
  H  H74  1  0.381500  0.703100  0.672500  1.0  0.1008
  H  H75  1  0.108600  0.633100  0.110800  1.0  0.0944
  H  H76  1  0.054800  0.470300  0.122900  1.0  0.1039
  H  H77  1  0.975100  0.155800  0.947800  1.0  0.1034
  H  H78  1  0.032500  0.319400  0.938300  1.0  0.0966
  H  H79  1  0.962700  0.071700  0.143600  1.0  0.0995
  H  H80  1  0.903200  0.909700  0.153200  1.0  0.0963
  H  H81  1  0.887900  0.188600  0.228100  1.0  0.0985
  H  H82  1  0.887500  0.352900  0.172600  1.0  0.0925
  H  H83  1  0.692000  0.082900  0.247900  1.0  0.1053
  H  H84  1  0.688400  0.919000  0.303500  1.0  0.1083
  H  H85  1  0.876400  0.633800  0.385400  1.0  0.0947
  H  H86  1  0.881500  0.796900  0.327500  1.0  0.1008
  H  H87  1  0.608600  0.866900  0.889200  1.0  0.0944
  H  H88  1  0.554800  0.029700  0.877100  1.0  0.1035
  H  H89  1  0.475100  0.344200  0.052200  1.0  0.1033
  H  H90  1  0.532500  0.180600  0.061700  1.0  0.0957
  H  H91  1  0.462700  0.428300  0.856400  1.0  0.1
  H  H92  1  0.403200  0.590300  0.846800  1.0  0.0973
  H  H93  1  0.612100  0.811400  0.728100  1.0  0.0985
  H  H94  1  0.612500  0.647100  0.672600  1.0  0.0906
  H  H95  1  0.808000  0.917100  0.747900  1.0  0.1057
  H  H96  1  0.811600  0.081000  0.803500  1.0  0.1078
  H  H97  1  0.623600  0.366200  0.885400  1.0  0.0945
  H  H98  1  0.618500  0.203100  0.827500  1.0  0.1009
  H  H99  1  0.891400  0.133100  0.389200  1.0  0.0945
  H  H100  1  0.945200  0.970300  0.377100  1.0  0.1036
  H  H101  1  0.024900  0.655800  0.552200  1.0  0.1033
  H  H102  1  0.967500  0.819400  0.561700  1.0  0.0957
  H  H103  1  0.037300  0.571700  0.356400  1.0  0.1
  H  H104  1  0.096800  0.409700  0.346800  1.0  0.0964
  C  C105  1  0.784100  0.072300  0.625600  1.0  0.2893
  C  C106  1  0.800600  0.162900  0.658700  1.0  -0.0407
  C  C107  1  0.799700  0.327300  0.715300  1.0  -0.0759
  C  C108  1  0.854100  0.282200  0.711200  1.0  -0.0664
  C  C109  1  0.853800  0.188400  0.679200  1.0  -0.0696
  C  C110  1  0.780800  0.421800  0.746600  1.0  -0.0569
  C  C111  1  0.725700  0.454400  0.759600  1.0  -0.0904
  C  C112  1  0.723600  0.548400  0.791900  1.0  -0.0771
  C  C113  1  0.777900  0.588300  0.805000  1.0  -0.057
  C  C114  1  0.792500  0.682500  0.836400  1.0  -0.0773
  C  C115  1  0.789300  0.845700  0.895900  1.0  -0.0112
  C  C116  1  0.843700  0.823600  0.877000  1.0  -0.1062
  C  C117  1  0.846700  0.730100  0.843400  1.0  -0.0812
  C  C118  1  0.771100  0.934400  0.928800  1.0  0.2926
  C  C119  1  0.652300  0.687300  0.498500  1.0  0.2557
  C  C120  1  0.619400  0.599900  0.475700  1.0  -0.037
  C  C121  1  0.600900  0.585200  0.419700  1.0  -0.0767
  C  C122  1  0.570000  0.492800  0.413000  1.0  -0.0587
  C  C123  1  0.563400  0.436200  0.463300  1.0  -0.0806
  C  C124  1  0.531500  0.337800  0.474100  1.0  -0.0603
  C  C125  1  0.474400  0.170900  0.464200  1.0  -0.0368
  C  C126  1  0.487100  0.196900  0.520200  1.0  -0.0926
  C  C127  1  0.520000  0.291600  0.525800  1.0  -0.0874
  C  C128  1  0.443500  0.080200  0.442000  1.0  -0.0566
  C  C129  1  0.442600  0.040400  0.387600  1.0  -0.092
  C  C130  1  0.408400  0.947000  0.381900  1.0  -0.1199
  C  C131  1  0.384300  0.918500  0.433300  1.0  -0.0678
  C  C132  1  0.349200  0.825800  0.446200  1.0  0.3188
  C  C133  1  0.715900  0.927700  0.125600  1.0  0.2885
  C  C134  1  0.699400  0.837100  0.158700  1.0  -0.0394
  C  C135  1  0.700300  0.672700  0.215300  1.0  -0.0734
  C  C136  1  0.645900  0.717800  0.211200  1.0  -0.0672
  C  C137  1  0.646200  0.811600  0.179200  1.0  -0.0692
  C  C138  1  0.719200  0.578200  0.246600  1.0  -0.058
  C  C139  1  0.774300  0.545600  0.259600  1.0  -0.0883
  C  C140  1  0.776400  0.451600  0.291900  1.0  -0.0763
  C  C141  1  0.722100  0.411700  0.305000  1.0  -0.0594
  C  C142  1  0.707500  0.317500  0.336400  1.0  -0.0781
  C  C143  1  0.710700  0.154300  0.395900  1.0  -0.0127
  C  C144  1  0.656300  0.176400  0.377000  1.0  -0.1058
  C  C145  1  0.653300  0.269900  0.343400  1.0  -0.0801
  C  C146  1  0.728900  0.065600  0.428800  1.0  0.2926
  C  C147  1  0.847700  0.312700  0.998500  1.0  0.2567
  C  C148  1  0.880600  0.400100  0.975700  1.0  -0.0362
  C  C149  1  0.899100  0.414800  0.919700  1.0  -0.0776
  C  C150  1  0.930000  0.507200  0.913000  1.0  -0.0585
  C  C151  1  0.936600  0.563800  0.963300  1.0  -0.0806
  C  C152  1  0.968500  0.662200  0.974100  1.0  -0.0607
  C  C153  1  0.025600  0.829100  0.964200  1.0  -0.0362
  C  C154  1  0.012900  0.803100  0.020200  1.0  -0.0907
  C  C155  1  0.980000  0.708400  0.025800  1.0  -0.0878
  C  C156  1  0.056500  0.919800  0.942000  1.0  -0.0568
  C  C157  1  0.057400  0.959600  0.887600  1.0  -0.0912
  C  C158  1  0.091600  0.053000  0.881900  1.0  -0.1206
  C  C159  1  0.115700  0.081500  0.933300  1.0  -0.0664
  C  C160  1  0.150800  0.174200  0.946200  1.0  0.3203
  C  C161  1  0.215900  0.572300  0.874400  1.0  0.2892
  C  C162  1  0.199400  0.662900  0.841300  1.0  -0.0406
  C  C163  1  0.200300  0.827300  0.784700  1.0  -0.0732
  C  C164  1  0.145900  0.782200  0.788800  1.0  -0.0675
  C  C165  1  0.146200  0.688400  0.820800  1.0  -0.0693
  C  C166  1  0.219200  0.921800  0.753400  1.0  -0.0577
  C  C167  1  0.274300  0.954400  0.740400  1.0  -0.0873
  C  C168  1  0.276400  0.048400  0.708100  1.0  -0.0768
  C  C169  1  0.222100  0.088300  0.695000  1.0  -0.059
  C  C170  1  0.207500  0.182500  0.663600  1.0  -0.0776
  C  C171  1  0.210700  0.345700  0.604100  1.0  -0.0117
  C  C172  1  0.156300  0.323600  0.623000  1.0  -0.1061
  C  C173  1  0.153300  0.230100  0.656600  1.0  -0.0783
  C  C174  1  0.228900  0.434400  0.571200  1.0  0.2922
  C  C175  1  0.347700  0.187300  0.001500  1.0  0.2558
  C  C176  1  0.380600  0.099900  0.024300  1.0  -0.0381
  C  C177  1  0.399100  0.085200  0.080300  1.0  -0.078
  C  C178  1  0.430000  0.992800  0.087000  1.0  -0.0588
  C  C179  1  0.436600  0.936200  0.036700  1.0  -0.0788
  C  C180  1  0.468500  0.837800  0.025900  1.0  -0.0612
  C  C181  1  0.525600  0.670900  0.035800  1.0  -0.0362
  C  C182  1  0.512900  0.696900  0.979800  1.0  -0.0919
  C  C183  1  0.480000  0.791600  0.974200  1.0  -0.0872
  C  C184  1  0.556500  0.580200  0.058000  1.0  -0.0559
  C  C185  1  0.557400  0.540400  0.112400  1.0  -0.0934
  C  C186  1  0.591600  0.447000  0.118100  1.0  -0.1206
  C  C187  1  0.615700  0.418500  0.066700  1.0  -0.0664
  C  C188  1  0.650800  0.325800  0.053800  1.0  0.3205
  C  C189  1  0.284100  0.427700  0.374400  1.0  0.2884
  C  C190  1  0.300600  0.337100  0.341300  1.0  -0.0406
  C  C191  1  0.299700  0.172700  0.284700  1.0  -0.0758
  C  C192  1  0.354100  0.217800  0.288800  1.0  -0.0673
  C  C193  1  0.353800  0.311600  0.320800  1.0  -0.0693
  C  C194  1  0.280800  0.078200  0.253400  1.0  -0.0564
  C  C195  1  0.225700  0.045600  0.240400  1.0  -0.0883
  C  C196  1  0.223600  0.951600  0.208100  1.0  -0.0766
  C  C197  1  0.277900  0.911700  0.195000  1.0  -0.0573
  C  C198  1  0.292500  0.817500  0.163600  1.0  -0.0773
  C  C199  1  0.289300  0.654300  0.104100  1.0  -0.0111
  C  C200  1  0.343700  0.676400  0.123000  1.0  -0.107
  C  C201  1  0.346700  0.769900  0.156600  1.0  -0.0798
  C  C202  1  0.271100  0.565600  0.071200  1.0  0.2928
  C  C203  1  0.152300  0.812700  0.501500  1.0  0.2565
  C  C204  1  0.119400  0.900100  0.524300  1.0  -0.0385
  C  C205  1  0.100900  0.914800  0.580300  1.0  -0.0763
  C  C206  1  0.070000  0.007200  0.587000  1.0  -0.0605
  C  C207  1  0.063400  0.063800  0.536700  1.0  -0.0786
  C  C208  1  0.031500  0.162200  0.525900  1.0  -0.0612
  C  C209  1  0.974400  0.329100  0.535800  1.0  -0.0368
  C  C210  1  0.987100  0.303100  0.479800  1.0  -0.0916
  C  C211  1  0.020000  0.208400  0.474200  1.0  -0.0864
  C  C212  1  0.943500  0.419800  0.558000  1.0  -0.0563
  C  C213  1  0.942600  0.459600  0.612400  1.0  -0.0929
  C  C214  1  0.908400  0.553000  0.618100  1.0  -0.1208
  C  C215  1  0.884300  0.581500  0.566700  1.0  -0.0673
  C  C216  1  0.849200  0.674200  0.553800  1.0  0.3183
  C  C217  1  0.215900  0.927700  0.374400  1.0  0.2882
  C  C218  1  0.199400  0.837100  0.341300  1.0  -0.0402
  C  C219  1  0.200300  0.672700  0.284700  1.0  -0.0734
  C  C220  1  0.145900  0.717800  0.288800  1.0  -0.0676
  C  C221  1  0.146200  0.811600  0.320800  1.0  -0.0694
  C  C222  1  0.219200  0.578200  0.253400  1.0  -0.0577
  C  C223  1  0.274300  0.545600  0.240400  1.0  -0.0868
  C  C224  1  0.276400  0.451600  0.208100  1.0  -0.0765
  C  C225  1  0.222100  0.411700  0.195000  1.0  -0.0593
  C  C226  1  0.207500  0.317500  0.163600  1.0  -0.078
  C  C227  1  0.210700  0.154300  0.104100  1.0  -0.0122
  C  C228  1  0.156300  0.176400  0.123000  1.0  -0.1064
  C  C229  1  0.153300  0.269900  0.156600  1.0  -0.0786
  C  C230  1  0.228900  0.065600  0.071200  1.0  0.2924
  C  C231  1  0.347700  0.312700  0.501500  1.0  0.2564
  C  C232  1  0.380600  0.400100  0.524300  1.0  -0.038
  C  C233  1  0.399100  0.414800  0.580300  1.0  -0.0773
  C  C234  1  0.430000  0.507200  0.587000  1.0  -0.0589
  C  C235  1  0.436600  0.563800  0.536700  1.0  -0.0787
  C  C236  1  0.468500  0.662200  0.525900  1.0  -0.0614
  C  C237  1  0.525600  0.829100  0.535800  1.0  -0.0362
  C  C238  1  0.512900  0.803100  0.479800  1.0  -0.0911
  C  C239  1  0.480000  0.708400  0.474200  1.0  -0.0864
  C  C240  1  0.556500  0.919800  0.558000  1.0  -0.0561
  C  C241  1  0.557400  0.959600  0.612400  1.0  -0.0933
  C  C242  1  0.591600  0.053000  0.618100  1.0  -0.1212
  C  C243  1  0.615700  0.081500  0.566700  1.0  -0.0665
  C  C244  1  0.650800  0.174200  0.553800  1.0  0.3199
  C  C245  1  0.284100  0.072300  0.874400  1.0  0.2893
  C  C246  1  0.300600  0.162900  0.841300  1.0  -0.0415
  C  C247  1  0.299700  0.327300  0.784700  1.0  -0.076
  C  C248  1  0.354100  0.282200  0.788800  1.0  -0.0671
  C  C249  1  0.353800  0.188400  0.820800  1.0  -0.0695
  C  C250  1  0.280800  0.421800  0.753400  1.0  -0.0564
  C  C251  1  0.225700  0.454400  0.740400  1.0  -0.089
  C  C252  1  0.223600  0.548400  0.708100  1.0  -0.0771
  C  C253  1  0.277900  0.588300  0.695000  1.0  -0.057
  C  C254  1  0.292500  0.682500  0.663600  1.0  -0.077
  C  C255  1  0.289300  0.845700  0.604100  1.0  -0.0105
  C  C256  1  0.343700  0.823600  0.623000  1.0  -0.1066
  C  C257  1  0.346700  0.730100  0.656600  1.0  -0.0798
  C  C258  1  0.271100  0.934400  0.571200  1.0  0.2926
  C  C259  1  0.152300  0.687300  0.001500  1.0  0.2557
  C  C260  1  0.119400  0.599900  0.024300  1.0  -0.0386
  C  C261  1  0.100900  0.585200  0.080300  1.0  -0.0771
  C  C262  1  0.070000  0.492800  0.087000  1.0  -0.0602
  C  C263  1  0.063400  0.436200  0.036700  1.0  -0.0787
  C  C264  1  0.031500  0.337800  0.025900  1.0  -0.061
  C  C265  1  0.974400  0.170900  0.035800  1.0  -0.0368
  C  C266  1  0.987100  0.196900  0.979800  1.0  -0.0923
  C  C267  1  0.020000  0.291600  0.974200  1.0  -0.087
  C  C268  1  0.943500  0.080200  0.058000  1.0  -0.0562
  C  C269  1  0.942600  0.040400  0.112400  1.0  -0.0929
  C  C270  1  0.908400  0.947000  0.118100  1.0  -0.1203
  C  C271  1  0.884300  0.918500  0.066700  1.0  -0.0674
  C  C272  1  0.849200  0.825800  0.053800  1.0  0.3183
  C  C273  1  0.784100  0.427700  0.125600  1.0  0.2887
  C  C274  1  0.800600  0.337100  0.158700  1.0  -0.0395
  C  C275  1  0.799700  0.172700  0.215300  1.0  -0.0758
  C  C276  1  0.854100  0.217800  0.211200  1.0  -0.0668
  C  C277  1  0.853800  0.311600  0.179200  1.0  -0.0692
  C  C278  1  0.780800  0.078200  0.246600  1.0  -0.0568
  C  C279  1  0.725700  0.045600  0.259600  1.0  -0.0894
  C  C280  1  0.723600  0.951600  0.291900  1.0  -0.0765
  C  C281  1  0.777900  0.911700  0.305000  1.0  -0.0573
  C  C282  1  0.792500  0.817500  0.336400  1.0  -0.0775
  C  C283  1  0.789300  0.654300  0.395900  1.0  -0.0118
  C  C284  1  0.843700  0.676400  0.377000  1.0  -0.1066
  C  C285  1  0.846700  0.769900  0.343400  1.0  -0.0812
  C  C286  1  0.771100  0.565600  0.428800  1.0  0.293
  C  C287  1  0.652300  0.812700  0.998500  1.0  0.2568
  C  C288  1  0.619400  0.900100  0.975700  1.0  -0.0369
  C  C289  1  0.600900  0.914800  0.919700  1.0  -0.0766
  C  C290  1  0.570000  0.007200  0.913000  1.0  -0.0586
  C  C291  1  0.563400  0.063800  0.963300  1.0  -0.0806
  C  C292  1  0.531500  0.162200  0.974100  1.0  -0.0604
  C  C293  1  0.474400  0.329100  0.964200  1.0  -0.0368
  C  C294  1  0.487100  0.303100  0.020200  1.0  -0.092
  C  C295  1  0.520000  0.208400  0.025800  1.0  -0.0868
  C  C296  1  0.443500  0.419800  0.942000  1.0  -0.0567
  C  C297  1  0.442600  0.459600  0.887600  1.0  -0.092
  C  C298  1  0.408400  0.553000  0.881900  1.0  -0.1197
  C  C299  1  0.384300  0.581500  0.933300  1.0  -0.0678
  C  C300  1  0.349200  0.674200  0.946200  1.0  0.3182
  C  C301  1  0.715900  0.572300  0.625600  1.0  0.2892
  C  C302  1  0.699400  0.662900  0.658700  1.0  -0.0402
  C  C303  1  0.700300  0.827300  0.715300  1.0  -0.0732
  C  C304  1  0.645900  0.782200  0.711200  1.0  -0.0672
  C  C305  1  0.646200  0.688400  0.679200  1.0  -0.0693
  C  C306  1  0.719200  0.921800  0.746600  1.0  -0.0581
  C  C307  1  0.774300  0.954400  0.759600  1.0  -0.0891
  C  C308  1  0.776400  0.048400  0.791900  1.0  -0.0767
  C  C309  1  0.722100  0.088300  0.805000  1.0  -0.0592
  C  C310  1  0.707500  0.182500  0.836400  1.0  -0.0778
  C  C311  1  0.710700  0.345700  0.895900  1.0  -0.0122
  C  C312  1  0.656300  0.323600  0.877000  1.0  -0.1056
  C  C313  1  0.653300  0.230100  0.843400  1.0  -0.0798
  C  C314  1  0.728900  0.434400  0.928800  1.0  0.292
  C  C315  1  0.847700  0.187300  0.498500  1.0  0.2557
  C  C316  1  0.880600  0.099900  0.475700  1.0  -0.0362
  C  C317  1  0.899100  0.085200  0.419700  1.0  -0.0774
  C  C318  1  0.930000  0.992800  0.413000  1.0  -0.0588
  C  C319  1  0.936600  0.936200  0.463300  1.0  -0.0807
  C  C320  1  0.968500  0.837800  0.474100  1.0  -0.0604
  C  C321  1  0.025600  0.670900  0.464200  1.0  -0.0363
  C  C322  1  0.012900  0.696900  0.520200  1.0  -0.0916
  C  C323  1  0.980000  0.791600  0.525800  1.0  -0.0883
  C  C324  1  0.056500  0.580200  0.442000  1.0  -0.0567
  C  C325  1  0.057400  0.540400  0.387600  1.0  -0.0914
  C  C326  1  0.091600  0.447000  0.381900  1.0  -0.1206
  C  C327  1  0.115700  0.418500  0.433300  1.0  -0.0661
  C  C328  1  0.150800  0.325800  0.446200  1.0  0.3207
  S  S329  1  0.748240  0.254310  0.678370  1.0  0.1216
  S  S330  1  0.831920  0.508610  0.775570  1.0  0.1116
  S  S331  1  0.738860  0.752800  0.873080  1.0  0.1232
  S  S332  1  0.598180  0.498700  0.520390  1.0  0.1242
  S  S333  1  0.503030  0.265600  0.416990  1.0  0.1163
  S  S334  1  0.402250  0.004370  0.488300  1.0  0.1205
  S  S335  1  0.751760  0.745690  0.178370  1.0  0.1206
  S  S336  1  0.668080  0.491390  0.275570  1.0  0.1125
  S  S337  1  0.761140  0.247200  0.373080  1.0  0.1234
  S  S338  1  0.901820  0.501300  0.020390  1.0  0.1243
  S  S339  1  0.996970  0.734400  0.916990  1.0  0.1158
  S  S340  1  0.097750  0.995630  0.988300  1.0  0.12
  S  S341  1  0.251760  0.754310  0.821630  1.0  0.1213
  S  S342  1  0.168080  0.008610  0.724430  1.0  0.1125
  S  S343  1  0.261140  0.252800  0.626920  1.0  0.1223
  S  S344  1  0.401820  0.998700  0.979610  1.0  0.1253
  S  S345  1  0.496970  0.765600  0.083010  1.0  0.1142
  S  S346  1  0.597750  0.504370  0.011700  1.0  0.1206
  S  S347  1  0.248240  0.245690  0.321630  1.0  0.1214
  S  S348  1  0.331920  0.991390  0.224430  1.0  0.1117
  S  S349  1  0.238860  0.747200  0.126920  1.0  0.1222
  S  S350  1  0.098180  0.001300  0.479610  1.0  0.1247
  S  S351  1  0.003030  0.234400  0.583010  1.0  0.1143
  S  S352  1  0.902250  0.495630  0.511700  1.0  0.1207
  S  S353  1  0.251760  0.745690  0.321630  1.0  0.1212
  S  S354  1  0.168080  0.491390  0.224430  1.0  0.1125
  S  S355  1  0.261140  0.247200  0.126920  1.0  0.1228
  S  S356  1  0.401820  0.501300  0.479610  1.0  0.1254
  S  S357  1  0.496970  0.734400  0.583010  1.0  0.1145
  S  S358  1  0.597750  0.995630  0.511700  1.0  0.1206
  S  S359  1  0.248240  0.254310  0.821630  1.0  0.1215
  S  S360  1  0.331920  0.508610  0.724430  1.0  0.1117
  S  S361  1  0.238860  0.752800  0.626920  1.0  0.1217
  S  S362  1  0.098180  0.498700  0.979610  1.0  0.1249
  S  S363  1  0.003030  0.265600  0.083010  1.0  0.1139
  S  S364  1  0.902250  0.004370  0.011700  1.0  0.1208
  S  S365  1  0.748240  0.245690  0.178370  1.0  0.1214
  S  S366  1  0.831920  0.991390  0.275570  1.0  0.1115
  S  S367  1  0.738860  0.747200  0.373080  1.0  0.123
  S  S368  1  0.598180  0.001300  0.020390  1.0  0.1242
  S  S369  1  0.503030  0.234400  0.916990  1.0  0.1159
  S  S370  1  0.402250  0.495630  0.988300  1.0  0.1205
  S  S371  1  0.751760  0.754310  0.678370  1.0  0.1208
  S  S372  1  0.668080  0.008610  0.775570  1.0  0.1125
  S  S373  1  0.761140  0.252800  0.873080  1.0  0.1235
  S  S374  1  0.901820  0.998700  0.520390  1.0  0.1243
  S  S375  1  0.996970  0.765600  0.416990  1.0  0.1162
  S  S376  1  0.097750  0.504370  0.488300  1.0  0.1199
  N  N377  1  0.769100  0.001700  0.599600  1.0  -0.4393
  N  N378  1  0.757300  0.006300  0.955600  1.0  -0.4594
  N  N379  1  0.678600  0.756900  0.516500  1.0  -0.4631
  N  N380  1  0.322100  0.754200  0.457800  1.0  -0.442
  N  N381  1  0.730900  0.998300  0.099600  1.0  -0.4406
  N  N382  1  0.742700  0.993700  0.455600  1.0  -0.456
  N  N383  1  0.821400  0.243100  0.016500  1.0  -0.4604
  N  N384  1  0.177900  0.245800  0.957800  1.0  -0.4435
  N  N385  1  0.230900  0.501700  0.900400  1.0  -0.4379
  N  N386  1  0.242700  0.506300  0.544400  1.0  -0.4577
  N  N387  1  0.321400  0.256900  0.983500  1.0  -0.4632
  N  N388  1  0.677900  0.254200  0.042200  1.0  -0.4402
  N  N389  1  0.269100  0.498300  0.400400  1.0  -0.4406
  N  N390  1  0.257300  0.493700  0.044400  1.0  -0.4565
  N  N391  1  0.178600  0.743100  0.483500  1.0  -0.4595
  N  N392  1  0.822100  0.745800  0.542200  1.0  -0.4436
  N  N393  1  0.230900  0.998300  0.400400  1.0  -0.441
  N  N394  1  0.242700  0.993700  0.044400  1.0  -0.4561
  N  N395  1  0.321400  0.243100  0.483500  1.0  -0.4604
  N  N396  1  0.677900  0.245800  0.542200  1.0  -0.443
  N  N397  1  0.269100  0.001700  0.900400  1.0  -0.4382
  N  N398  1  0.257300  0.006300  0.544400  1.0  -0.4576
  N  N399  1  0.178600  0.756900  0.983500  1.0  -0.4632
  N  N400  1  0.822100  0.754200  0.042200  1.0  -0.4416
  N  N401  1  0.769100  0.498300  0.099600  1.0  -0.4401
  N  N402  1  0.757300  0.493700  0.455600  1.0  -0.4559
  N  N403  1  0.678600  0.743100  0.016500  1.0  -0.4596
  N  N404  1  0.322100  0.745800  0.957800  1.0  -0.4437
  N  N405  1  0.730900  0.501700  0.599600  1.0  -0.439
  N  N406  1  0.742700  0.506300  0.955600  1.0  -0.4595
  N  N407  1  0.821400  0.256900  0.516500  1.0  -0.4634
  N  N408  1  0.177900  0.254200  0.457800  1.0  -0.4411
