# generated using pymatgen
data_ZnH8C11NO4
_symmetry_space_group_name_H-M   'P 1'
_cell_length_a   9.84010000
_cell_length_b   11.06170000
_cell_length_c   13.53070000
_cell_angle_alpha   66.18100000
_cell_angle_beta   85.82300000
_cell_angle_gamma   69.89000000
_symmetry_Int_Tables_number   1
_chemical_formula_structural   ZnH8C11NO4
_chemical_formula_sum   'Zn4 H32 C44 N4 O16'
_cell_volume   1261.46546663
_cell_formula_units_Z   4
loop_
 _symmetry_equiv_pos_site_id
 _symmetry_equiv_pos_as_xyz
  1  'x, y, z'
loop_
 _atom_site_type_symbol
 _atom_site_label
 _atom_site_symmetry_multiplicity
 _atom_site_fract_x
 _atom_site_fract_y
 _atom_site_fract_z
 _atom_site_occupancy
 _atom_site_charge
  Zn  Zn1  1  0.111340  0.472950  0.204200  1.0  0.9301
  Zn  Zn2  1  0.168580  0.445900  0.982520  1.0  1.0303
  Zn  Zn3  1  0.888660  0.527050  0.795800  1.0  0.93
  Zn  Zn4  1  0.831420  0.554100  0.017480  1.0  1.0308
  H  H5  1  0.122800  0.906300  0.103900  1.0  0.1181
  H  H6  1  0.327100  0.135600  0.871300  1.0  0.1103
  H  H7  1  0.353400  0.750600  0.895200  1.0  0.1157
  H  H8  1  0.418100  0.837200  0.732000  1.0  0.091
  H  H9  1  0.522600  0.919000  0.664100  1.0  0.1281
  H  H10  1  0.204300  0.673100  0.767900  1.0  0.0793
  H  H11  1  0.352300  0.701700  0.625900  1.0  0.1297
  H  H12  1  0.602800  0.293600  0.781100  1.0  0.1263
  H  H13  1  0.447200  0.276000  0.919200  1.0  0.0826
  H  H14  1  0.559300  0.610300  0.536400  1.0  0.097
  H  H15  1  0.748600  0.346900  0.655400  1.0  0.0982
  H  H16  1  0.711400  0.661400  0.408700  1.0  0.1302
  H  H17  1  0.868900  0.671900  0.269400  1.0  0.0876
  H  H18  1  0.080600  0.266700  0.419200  1.0  0.0799
  H  H19  1  0.938900  0.247400  0.561300  1.0  0.1364
  H  H20  1  0.877200  0.093700  0.896100  1.0  0.1181
  H  H21  1  0.672900  0.864400  0.128700  1.0  0.1103
  H  H22  1  0.646600  0.249400  0.104800  1.0  0.1157
  H  H23  1  0.581900  0.162800  0.268000  1.0  0.0902
  H  H24  1  0.477400  0.081000  0.335900  1.0  0.1253
  H  H25  1  0.795700  0.326900  0.232100  1.0  0.08
  H  H26  1  0.647700  0.298300  0.374100  1.0  0.131
  H  H27  1  0.397200  0.706400  0.218900  1.0  0.1257
  H  H28  1  0.552800  0.724000  0.080800  1.0  0.0824
  H  H29  1  0.440700  0.389700  0.463600  1.0  0.0966
  H  H30  1  0.251400  0.653100  0.344600  1.0  0.0982
  H  H31  1  0.288600  0.338600  0.591300  1.0  0.1306
  H  H32  1  0.131100  0.328100  0.730600  1.0  0.0872
  H  H33  1  0.919400  0.733300  0.580800  1.0  0.0791
  H  H34  1  0.061100  0.752600  0.438700  1.0  0.137
  H  H35  1  0.025700  0.319980  0.142930  1.0  0.2092
  H  H36  1  0.974300  0.680020  0.857070  1.0  0.2071
  C  C37  1  0.191000  0.681600  0.054600  1.0  0.6777
  C  C38  1  0.229400  0.813700  0.004300  1.0  -0.1011
  C  C39  1  0.179700  0.917500  0.043200  1.0  -0.0862
  C  C40  1  0.215000  0.041000  0.991100  1.0  -0.1089
  C  C41  1  0.303500  0.052500  0.906300  1.0  -0.1451
  C  C42  1  0.358500  0.943500  0.871700  1.0  0.2649
  C  C43  1  0.319000  0.824100  0.920000  1.0  -0.1573
  C  C44  1  0.497400  0.870200  0.738400  1.0  -0.0701
  C  C45  1  0.628700  0.742900  0.799400  1.0  0.7192
  C  C46  1  0.155200  0.164300  0.025600  1.0  0.6725
  C  C47  1  0.286300  0.594600  0.770800  1.0  0.1805
  C  C48  1  0.374900  0.612900  0.685700  1.0  -0.2279
  C  C49  1  0.496200  0.501500  0.688000  1.0  0.1313
  C  C50  1  0.521600  0.373600  0.776700  1.0  -0.1978
  C  C51  1  0.427700  0.363700  0.858700  1.0  0.1721
  C  C52  1  0.591800  0.522500  0.597300  1.0  -0.0927
  C  C53  1  0.714700  0.433100  0.593200  1.0  -0.1133
  C  C54  1  0.809400  0.450500  0.500900  1.0  0.138
  C  C55  1  0.788400  0.578900  0.412300  1.0  -0.1982
  C  C56  1  0.882200  0.584400  0.329100  1.0  0.1652
  C  C57  1  0.005100  0.349200  0.417200  1.0  0.1681
  C  C58  1  0.920500  0.336000  0.501900  1.0  -0.2288
  C  C59  1  0.809000  0.318400  0.945400  1.0  0.6778
  C  C60  1  0.770600  0.186300  0.995700  1.0  -0.0998
  C  C61  1  0.820300  0.082500  0.956800  1.0  -0.0866
  C  C62  1  0.785000  0.959000  0.008900  1.0  -0.1093
  C  C63  1  0.696500  0.947500  0.093700  1.0  -0.143
  C  C64  1  0.641500  0.056500  0.128300  1.0  0.2649
  C  C65  1  0.681000  0.175900  0.080000  1.0  -0.1533
  C  C66  1  0.502600  0.129800  0.261600  1.0  -0.0699
  C  C67  1  0.371300  0.257100  0.200600  1.0  0.7192
  C  C68  1  0.844800  0.835700  0.974400  1.0  0.6711
  C  C69  1  0.713700  0.405400  0.229200  1.0  0.1805
  C  C70  1  0.625100  0.387100  0.314300  1.0  -0.2265
  C  C71  1  0.503800  0.498500  0.312000  1.0  0.1318
  C  C72  1  0.478400  0.626400  0.223300  1.0  -0.1949
  C  C73  1  0.572300  0.636300  0.141300  1.0  0.1722
  C  C74  1  0.408200  0.477500  0.402700  1.0  -0.0934
  C  C75  1  0.285300  0.566900  0.406800  1.0  -0.1137
  C  C76  1  0.190600  0.549500  0.499100  1.0  0.1382
  C  C77  1  0.211600  0.421100  0.587700  1.0  -0.1983
  C  C78  1  0.117800  0.415600  0.670900  1.0  0.1652
  C  C79  1  0.994900  0.650800  0.582800  1.0  0.1674
  C  C80  1  0.079500  0.664000  0.498100  1.0  -0.2289
  N  N81  1  0.309600  0.473300  0.856200  1.0  -0.3113
  N  N82  1  0.990400  0.469100  0.331300  1.0  -0.3298
  N  N83  1  0.690400  0.526700  0.143800  1.0  -0.3111
  N  N84  1  0.009600  0.530900  0.668700  1.0  -0.3306
  O  O85  1  0.142100  0.654100  0.147500  1.0  -0.5926
  O  O86  1  0.211100  0.608200  0.001600  1.0  -0.6127
  O  O87  1  0.445300  0.968600  0.786800  1.0  -0.2687
  O  O88  1  0.654300  0.707200  0.896200  1.0  -0.5633
  O  O89  1  0.701500  0.682100  0.739000  1.0  -0.5983
  O  O90  1  0.159300  0.279300  0.956400  1.0  -0.5803
  O  O91  1  0.109300  0.143100  0.117500  1.0  -0.5861
  O  O92  1  0.025700  0.418800  0.110300  1.0  -0.9018
  O  O93  1  0.857900  0.345900  0.852500  1.0  -0.5918
  O  O94  1  0.788900  0.391800  0.998400  1.0  -0.6126
  O  O95  1  0.554700  0.031400  0.213200  1.0  -0.2674
  O  O96  1  0.345700  0.292800  0.103800  1.0  -0.5636
  O  O97  1  0.298500  0.317900  0.261000  1.0  -0.6
  O  O98  1  0.840700  0.720700  0.043600  1.0  -0.5797
  O  O99  1  0.890700  0.856900  0.882500  1.0  -0.5865
  O  O100  1  0.974300  0.581200  0.889700  1.0  -0.9001
