# generated using pymatgen
data_CoH8C11NO4
_symmetry_space_group_name_H-M   'P 1'
_cell_length_a   9.83850000
_cell_length_b   11.06290000
_cell_length_c   13.53980000
_cell_angle_alpha   66.61000000
_cell_angle_beta   85.89800000
_cell_angle_gamma   69.71700000
_symmetry_Int_Tables_number   1
_chemical_formula_structural   CoH8C11NO4
_chemical_formula_sum   'Co4 H32 C44 N4 O16'
_cell_volume   1264.98451098
_cell_formula_units_Z   4
loop_
 _symmetry_equiv_pos_site_id
 _symmetry_equiv_pos_as_xyz
  1  'x, y, z'
loop_
 _atom_site_type_symbol
 _atom_site_label
 _atom_site_symmetry_multiplicity
 _atom_site_fract_x
 _atom_site_fract_y
 _atom_site_fract_z
 _atom_site_occupancy
 _atom_site_charge
  Co  Co1  1  0.892570  0.023230  0.797480  1.0  0.9642
  Co  Co2  1  0.829470  0.055180  0.014340  1.0  1.0532
  Co  Co3  1  0.107430  0.976770  0.202520  1.0  0.9644
  Co  Co4  1  0.170530  0.944820  0.985660  1.0  1.0532
  H  H5  1  0.957900  0.172000  0.870700  1.0  0.3862
  H  H6  1  0.647400  0.749900  0.104000  1.0  0.1191
  H  H7  1  0.670100  0.366900  0.125300  1.0  0.107
  H  H8  1  0.878500  0.591300  0.895400  1.0  0.1206
  H  H9  1  0.478400  0.585400  0.334500  1.0  0.132
  H  H10  1  0.581800  0.667100  0.265700  1.0  0.0989
  H  H11  1  0.792300  0.829300  0.231200  1.0  0.0816
  H  H12  1  0.641900  0.805100  0.369500  1.0  0.1201
  H  H13  1  0.395600  0.211800  0.216000  1.0  0.1281
  H  H14  1  0.553700  0.227000  0.079400  1.0  0.0819
  H  H15  1  0.441900  0.891600  0.459900  1.0  0.0952
  H  H16  1  0.249200  0.157900  0.344400  1.0  0.1014
  H  H17  1  0.294700  0.831200  0.591700  1.0  0.1288
  H  H18  1  0.135900  0.821600  0.734500  1.0  0.1004
  H  H19  1  0.919100  0.224100  0.579400  1.0  0.0806
  H  H20  1  0.065200  0.244600  0.441000  1.0  0.1219
  H  H21  1  0.042100  0.828000  0.129300  1.0  0.3864
  H  H22  1  0.352600  0.250100  0.896000  1.0  0.1189
  H  H23  1  0.329900  0.633100  0.874700  1.0  0.1075
  H  H24  1  0.121500  0.408700  0.104600  1.0  0.12
  H  H25  1  0.521600  0.414600  0.665500  1.0  0.133
  H  H26  1  0.418200  0.332900  0.734300  1.0  0.1
  H  H27  1  0.207700  0.170700  0.768800  1.0  0.0811
  H  H28  1  0.358100  0.194900  0.630500  1.0  0.1193
  H  H29  1  0.604400  0.788200  0.784000  1.0  0.1285
  H  H30  1  0.446300  0.773000  0.920600  1.0  0.0819
  H  H31  1  0.558100  0.108400  0.540100  1.0  0.094
  H  H32  1  0.750800  0.842100  0.655600  1.0  0.1016
  H  H33  1  0.705300  0.168800  0.408300  1.0  0.129
  H  H34  1  0.864100  0.178400  0.265500  1.0  0.1011
  H  H35  1  0.080900  0.775900  0.420600  1.0  0.0819
  H  H36  1  0.934800  0.755400  0.559000  1.0  0.1222
  C  C37  1  0.811300  0.815300  0.944200  1.0  0.6821
  C  C38  1  0.771500  0.686700  0.994600  1.0  -0.1401
  C  C39  1  0.681900  0.676400  0.079000  1.0  -0.1273
  C  C40  1  0.642900  0.557400  0.126900  1.0  0.2338
  C  C41  1  0.696200  0.448300  0.091700  1.0  -0.1167
  C  C42  1  0.787500  0.457800  0.007700  1.0  -0.1606
  C  C43  1  0.821700  0.580800  0.956000  1.0  -0.0523
  C  C44  1  0.502400  0.633800  0.260300  1.0  -0.152
  C  C45  1  0.369200  0.761000  0.199800  1.0  0.7132
  C  C46  1  0.845400  0.335700  0.973800  1.0  0.6789
  C  C47  1  0.710500  0.908700  0.227500  1.0  0.1828
  C  C48  1  0.621000  0.893600  0.310400  1.0  -0.2061
  C  C49  1  0.501100  0.005300  0.309000  1.0  0.1282
  C  C50  1  0.476900  0.131400  0.220800  1.0  -0.1911
  C  C51  1  0.572000  0.139700  0.139300  1.0  0.1717
  C  C52  1  0.408600  0.980000  0.400400  1.0  -0.1381
  C  C53  1  0.284800  0.070700  0.404700  1.0  -0.1275
  C  C54  1  0.194200  0.044700  0.500700  1.0  0.0188
  C  C55  1  0.217600  0.913300  0.589200  1.0  -0.1335
  C  C56  1  0.122200  0.907900  0.674300  1.0  0.1824
  C  C57  1  0.997600  0.142400  0.582900  1.0  0.1719
  C  C58  1  0.083700  0.156100  0.499700  1.0  -0.2266
  C  C59  1  0.188700  0.184700  0.055800  1.0  0.6809
  C  C60  1  0.228500  0.313300  0.005400  1.0  -0.1402
  C  C61  1  0.318100  0.323600  0.921000  1.0  -0.1309
  C  C62  1  0.357100  0.442600  0.873100  1.0  0.2337
  C  C63  1  0.303800  0.551700  0.908300  1.0  -0.1193
  C  C64  1  0.212500  0.542200  0.992300  1.0  -0.1594
  C  C65  1  0.178300  0.419200  0.044000  1.0  -0.0516
  C  C66  1  0.497600  0.366200  0.739700  1.0  -0.1509
  C  C67  1  0.630800  0.239000  0.800200  1.0  0.7123
  C  C68  1  0.154600  0.664300  0.026200  1.0  0.6789
  C  C69  1  0.289500  0.091300  0.772500  1.0  0.1832
  C  C70  1  0.379000  0.106400  0.689600  1.0  -0.2068
  C  C71  1  0.498900  0.994700  0.691000  1.0  0.1263
  C  C72  1  0.523100  0.868600  0.779200  1.0  -0.1935
  C  C73  1  0.428000  0.860300  0.860700  1.0  0.1718
  C  C74  1  0.591400  0.020000  0.599600  1.0  -0.1369
  C  C75  1  0.715200  0.929300  0.595300  1.0  -0.128
  C  C76  1  0.805800  0.955300  0.499300  1.0  0.0174
  C  C77  1  0.782400  0.086700  0.410800  1.0  -0.1315
  C  C78  1  0.877800  0.092100  0.325700  1.0  0.1822
  C  C79  1  0.002400  0.857600  0.417100  1.0  0.1726
  C  C80  1  0.916300  0.843900  0.500300  1.0  -0.2251
  N  N81  1  0.688700  0.029600  0.141500  1.0  -0.3017
  N  N82  1  0.013400  0.024400  0.669400  1.0  -0.327
  N  N83  1  0.311300  0.970400  0.858500  1.0  -0.3027
  N  N84  1  0.986600  0.975600  0.330600  1.0  -0.3257
  O  O85  1  0.864200  0.840400  0.853300  1.0  -0.5833
  O  O86  1  0.790100  0.891400  0.996500  1.0  -0.6485
  O  O87  1  0.554100  0.534400  0.211200  1.0  -0.2664
  O  O88  1  0.295000  0.820000  0.259300  1.0  -0.5684
  O  O89  1  0.345300  0.794300  0.102300  1.0  -0.5689
  O  O90  1  0.841000  0.220300  0.042900  1.0  -0.5809
  O  O91  1  0.890300  0.354700  0.881800  1.0  -0.5952
  O  O92  1  0.977500  0.079400  0.890400  1.0  -0.9704
  O  O93  1  0.135800  0.159600  0.146700  1.0  -0.584
  O  O94  1  0.209900  0.108600  0.003500  1.0  -0.6485
  O  O95  1  0.445900  0.465600  0.788800  1.0  -0.2673
  O  O96  1  0.705000  0.180000  0.740700  1.0  -0.5671
  O  O97  1  0.654700  0.205700  0.897700  1.0  -0.5693
  O  O98  1  0.159000  0.779700  0.957100  1.0  -0.5819
  O  O99  1  0.109700  0.645300  0.118200  1.0  -0.5951
  O  O100  1  0.022500  0.920600  0.109600  1.0  -0.9696
