# generated using pymatgen
data_ZnH8C17(O2F3)2
_symmetry_space_group_name_H-M   'P 1'
_cell_length_a   7.72000000
_cell_length_b   21.25000000
_cell_length_c   21.25000000
_cell_angle_alpha   120.00000000
_cell_angle_beta   90.00000000
_cell_angle_gamma   90.00000000
_symmetry_Int_Tables_number   1
_chemical_formula_structural   ZnH8C17(O2F3)2
_chemical_formula_sum   'Zn6 H48 C102 O24 F36'
_cell_volume   3019.01868418
_cell_formula_units_Z   6
loop_
 _symmetry_equiv_pos_site_id
 _symmetry_equiv_pos_as_xyz
  1  'x, y, z'
loop_
 _atom_site_type_symbol
 _atom_site_label
 _atom_site_symmetry_multiplicity
 _atom_site_fract_x
 _atom_site_fract_y
 _atom_site_fract_z
 _atom_site_occupancy
 _atom_site_charge
  Zn  Zn1  1  0.833330  0.598060  0.299030  1.0  1.0214
  Zn  Zn2  1  0.166670  0.700970  0.401940  1.0  1.021
  Zn  Zn3  1  0.500000  0.700970  0.299030  1.0  1.0208
  Zn  Zn4  1  0.833330  0.401940  0.700970  1.0  1.0214
  Zn  Zn5  1  0.166670  0.299030  0.598060  1.0  1.0207
  Zn  Zn6  1  0.500000  0.299030  0.700970  1.0  1.021
  H  H7  1  0.724400  0.746400  0.154300  1.0  0.0981
  H  H8  1  0.847100  0.764000  0.065000  1.0  0.1069
  H  H9  1  0.140800  0.637600  0.156800  1.0  0.1093
  H  H10  1  0.267400  0.656900  0.069600  1.0  0.1134
  H  H11  1  0.057730  0.407900  0.253600  1.0  0.098
  H  H12  1  0.180430  0.301000  0.236000  1.0  0.1064
  H  H13  1  0.474130  0.519200  0.362400  1.0  0.1092
  H  H14  1  0.600730  0.412700  0.343100  1.0  0.1131
  H  H15  1  0.391070  0.845700  0.592100  1.0  0.098
  H  H16  1  0.513770  0.935000  0.699000  1.0  0.1066
  H  H17  1  0.807470  0.843200  0.480800  1.0  0.1095
  H  H18  1  0.934070  0.930400  0.587300  1.0  0.1135
  H  H19  1  0.724400  0.253600  0.845700  1.0  0.0983
  H  H20  1  0.847100  0.236000  0.935000  1.0  0.1065
  H  H21  1  0.140800  0.362400  0.843200  1.0  0.1092
  H  H22  1  0.267400  0.343100  0.930400  1.0  0.1136
  H  H23  1  0.057730  0.592100  0.746400  1.0  0.0975
  H  H24  1  0.180430  0.699000  0.764000  1.0  0.1067
  H  H25  1  0.474130  0.480800  0.637600  1.0  0.1094
  H  H26  1  0.600730  0.587300  0.656900  1.0  0.1131
  H  H27  1  0.391070  0.154300  0.407900  1.0  0.0979
  H  H28  1  0.513770  0.065000  0.301000  1.0  0.1067
  H  H29  1  0.807470  0.156800  0.519200  1.0  0.1099
  H  H30  1  0.934070  0.069600  0.412700  1.0  0.1131
  H  H31  1  0.608930  0.592100  0.845700  1.0  0.0981
  H  H32  1  0.486230  0.699000  0.935000  1.0  0.106
  H  H33  1  0.192530  0.480800  0.843200  1.0  0.1091
  H  H34  1  0.065930  0.587300  0.930400  1.0  0.1135
  H  H35  1  0.275600  0.154300  0.746400  1.0  0.098
  H  H36  1  0.152900  0.065000  0.764000  1.0  0.1065
  H  H37  1  0.859200  0.156800  0.637600  1.0  0.1094
  H  H38  1  0.732600  0.069600  0.656900  1.0  0.1134
  H  H39  1  0.942270  0.253600  0.407900  1.0  0.0986
  H  H40  1  0.819570  0.236000  0.301000  1.0  0.1062
  H  H41  1  0.525870  0.362400  0.519200  1.0  0.1086
  H  H42  1  0.399270  0.343100  0.412700  1.0  0.1134
  H  H43  1  0.608930  0.407900  0.154300  1.0  0.0977
  H  H44  1  0.486230  0.301000  0.065000  1.0  0.1062
  H  H45  1  0.192530  0.519200  0.156800  1.0  0.1092
  H  H46  1  0.065930  0.412700  0.069600  1.0  0.1134
  H  H47  1  0.275600  0.845700  0.253600  1.0  0.0984
  H  H48  1  0.152900  0.935000  0.236000  1.0  0.1062
  H  H49  1  0.859200  0.843200  0.362400  1.0  0.1095
  H  H50  1  0.732600  0.930400  0.343100  1.0  0.1134
  H  H51  1  0.942270  0.746400  0.592100  1.0  0.0986
  H  H52  1  0.819570  0.764000  0.699000  1.0  0.106
  H  H53  1  0.525870  0.637600  0.480800  1.0  0.1091
  H  H54  1  0.399270  0.656900  0.587300  1.0  0.1138
  C  C55  1  0.828300  0.677000  0.219600  1.0  0.7119
  C  C56  1  0.915400  0.689300  0.162800  1.0  -0.1691
  C  C57  1  0.833500  0.727300  0.136500  1.0  0.0023
  C  C58  1  0.907700  0.738800  0.083300  1.0  -0.1502
  C  C59  1  0.081300  0.662900  0.138300  1.0  -0.02
  C  C60  1  0.156600  0.674800  0.086000  1.0  -0.1487
  C  C61  1  0.073800  0.712000  0.057300  1.0  0.0808
  C  C62  1  0.041100  0.744700  0.957200  1.0  0.6901
  C  C63  1  0.161630  0.542600  0.323000  1.0  0.7109
  C  C64  1  0.248730  0.473500  0.310700  1.0  -0.171
  C  C65  1  0.166830  0.409200  0.272700  1.0  0.0037
  C  C66  1  0.241030  0.344500  0.261200  1.0  -0.1499
  C  C67  1  0.414630  0.475400  0.337100  1.0  -0.0176
  C  C68  1  0.489930  0.411200  0.325200  1.0  -0.148
  C  C69  1  0.407130  0.345300  0.288000  1.0  0.081
  C  C70  1  0.374430  0.212500  0.255300  1.0  0.6918
  C  C71  1  0.494970  0.780400  0.457400  1.0  0.7122
  C  C72  1  0.582070  0.837200  0.526500  1.0  -0.1717
  C  C73  1  0.500170  0.863500  0.590800  1.0  0.0026
  C  C74  1  0.574370  0.916700  0.655500  1.0  -0.1504
  C  C75  1  0.747970  0.861700  0.524600  1.0  -0.0191
  C  C76  1  0.823270  0.914000  0.588800  1.0  -0.1456
  C  C77  1  0.740470  0.942700  0.654700  1.0  0.0808
  C  C78  1  0.707770  0.042800  0.787500  1.0  0.6903
  C  C79  1  0.828300  0.323000  0.780400  1.0  0.7123
  C  C80  1  0.915400  0.310700  0.837200  1.0  -0.1693
  C  C81  1  0.833500  0.272700  0.863500  1.0  0.0025
  C  C82  1  0.907700  0.261200  0.916700  1.0  -0.1499
  C  C83  1  0.081300  0.337100  0.861700  1.0  -0.0207
  C  C84  1  0.156600  0.325200  0.914000  1.0  -0.148
  C  C85  1  0.073800  0.288000  0.942700  1.0  0.0805
  C  C86  1  0.041100  0.255300  0.042800  1.0  0.6893
  C  C87  1  0.161630  0.457400  0.677000  1.0  0.7122
  C  C88  1  0.248730  0.526500  0.689300  1.0  -0.1718
  C  C89  1  0.166830  0.590800  0.727300  1.0  0.0037
  C  C90  1  0.241030  0.655500  0.738800  1.0  -0.1501
  C  C91  1  0.414630  0.524600  0.662900  1.0  -0.0207
  C  C92  1  0.489930  0.588800  0.674800  1.0  -0.1483
  C  C93  1  0.407130  0.654700  0.712000  1.0  0.0816
  C  C94  1  0.374430  0.787500  0.744700  1.0  0.6901
  C  C95  1  0.494970  0.219600  0.542600  1.0  0.7115
  C  C96  1  0.582070  0.162800  0.473500  1.0  -0.1718
  C  C97  1  0.500170  0.136500  0.409200  1.0  0.0025
  C  C98  1  0.574370  0.083300  0.344500  1.0  -0.1504
  C  C99  1  0.747970  0.138300  0.475400  1.0  -0.0185
  C  C100  1  0.823270  0.086000  0.411200  1.0  -0.1452
  C  C101  1  0.740470  0.057300  0.345300  1.0  0.0813
  C  C102  1  0.707770  0.957200  0.212500  1.0  0.69
  C  C103  1  0.505030  0.457400  0.780400  1.0  0.7119
  C  C104  1  0.417930  0.526500  0.837200  1.0  -0.1713
  C  C105  1  0.499830  0.590800  0.863500  1.0  0.0023
  C  C106  1  0.425630  0.655500  0.916700  1.0  -0.1499
  C  C107  1  0.252030  0.524600  0.861700  1.0  -0.019
  C  C108  1  0.176730  0.588800  0.914000  1.0  -0.1465
  C  C109  1  0.259530  0.654700  0.942700  1.0  0.0823
  C  C110  1  0.292230  0.787500  0.042800  1.0  0.6888
  C  C111  1  0.171700  0.219600  0.677000  1.0  0.7124
  C  C112  1  0.084600  0.162800  0.689300  1.0  -0.1712
  C  C113  1  0.166500  0.136500  0.727300  1.0  0.0019
  C  C114  1  0.092300  0.083300  0.738800  1.0  -0.1505
  C  C115  1  0.918700  0.138300  0.662900  1.0  -0.0184
  C  C116  1  0.843400  0.086000  0.674800  1.0  -0.1441
  C  C117  1  0.926200  0.057300  0.712000  1.0  0.0816
  C  C118  1  0.958900  0.957200  0.744700  1.0  0.6895
  C  C119  1  0.838370  0.323000  0.542600  1.0  0.7121
  C  C120  1  0.751270  0.310700  0.473500  1.0  -0.1689
  C  C121  1  0.833170  0.272700  0.409200  1.0  0.0022
  C  C122  1  0.758970  0.261200  0.344500  1.0  -0.1502
  C  C123  1  0.585370  0.337100  0.475400  1.0  -0.0217
  C  C124  1  0.510070  0.325200  0.411200  1.0  -0.1472
  C  C125  1  0.592870  0.288000  0.345300  1.0  0.0815
  C  C126  1  0.625570  0.255300  0.212500  1.0  0.6882
  C  C127  1  0.505030  0.542600  0.219600  1.0  0.712
  C  C128  1  0.417930  0.473500  0.162800  1.0  -0.1705
  C  C129  1  0.499830  0.409200  0.136500  1.0  0.0035
  C  C130  1  0.425630  0.344500  0.083300  1.0  -0.1498
  C  C131  1  0.252030  0.475400  0.138300  1.0  -0.0181
  C  C132  1  0.176730  0.411200  0.086000  1.0  -0.1467
  C  C133  1  0.259530  0.345300  0.057300  1.0  0.0819
  C  C134  1  0.292230  0.212500  0.957200  1.0  0.6896
  C  C135  1  0.171700  0.780400  0.323000  1.0  0.7117
  C  C136  1  0.084600  0.837200  0.310700  1.0  -0.1709
  C  C137  1  0.166500  0.863500  0.272700  1.0  0.0016
  C  C138  1  0.092300  0.916700  0.261200  1.0  -0.1506
  C  C139  1  0.918700  0.861700  0.337100  1.0  -0.0178
  C  C140  1  0.843400  0.914000  0.325200  1.0  -0.1438
  C  C141  1  0.926200  0.942700  0.288000  1.0  0.0819
  C  C142  1  0.958900  0.042800  0.255300  1.0  0.6892
  C  C143  1  0.838370  0.677000  0.457400  1.0  0.7117
  C  C144  1  0.751270  0.689300  0.526500  1.0  -0.1685
  C  C145  1  0.833170  0.727300  0.590800  1.0  0.0011
  C  C146  1  0.758970  0.738800  0.655500  1.0  -0.1501
  C  C147  1  0.585370  0.662900  0.524600  1.0  -0.0194
  C  C148  1  0.510070  0.674800  0.588800  1.0  -0.1477
  C  C149  1  0.592870  0.712000  0.654700  1.0  0.0813
  C  C150  1  0.625570  0.744700  0.787500  1.0  0.6883
  C  C151  1  0.166670  0.723100  0.000000  1.0  -0.2932
  C  C152  1  0.500000  0.276900  0.276900  1.0  -0.2931
  C  C153  1  0.833330  0.000000  0.723100  1.0  -0.2926
  C  C154  1  0.166670  0.276900  0.000000  1.0  -0.2926
  C  C155  1  0.500000  0.723100  0.723100  1.0  -0.2929
  C  C156  1  0.833330  0.000000  0.276900  1.0  -0.2931
  O  O157  1  0.907300  0.637600  0.238900  1.0  -0.609
  O  O158  1  0.685700  0.706600  0.242200  1.0  -0.5878
  O  O159  1  0.240630  0.601300  0.362400  1.0  -0.6089
  O  O160  1  0.019030  0.535600  0.293400  1.0  -0.5887
  O  O161  1  0.573970  0.761100  0.398700  1.0  -0.6084
  O  O162  1  0.352370  0.757800  0.464400  1.0  -0.5886
  O  O163  1  0.907300  0.362400  0.761100  1.0  -0.6088
  O  O164  1  0.685700  0.293400  0.757800  1.0  -0.5884
  O  O165  1  0.240630  0.398700  0.637600  1.0  -0.6079
  O  O166  1  0.019030  0.464400  0.706600  1.0  -0.589
  O  O167  1  0.573970  0.238900  0.601300  1.0  -0.6083
  O  O168  1  0.352370  0.242200  0.535600  1.0  -0.5882
  O  O169  1  0.426030  0.398700  0.761100  1.0  -0.6084
  O  O170  1  0.647630  0.464400  0.757800  1.0  -0.5867
  O  O171  1  0.092700  0.238900  0.637600  1.0  -0.6085
  O  O172  1  0.314300  0.242200  0.706600  1.0  -0.5872
  O  O173  1  0.759370  0.362400  0.601300  1.0  -0.6097
  O  O174  1  0.980970  0.293400  0.535600  1.0  -0.5868
  O  O175  1  0.426030  0.601300  0.238900  1.0  -0.6082
  O  O176  1  0.647630  0.535600  0.242200  1.0  -0.5879
  O  O177  1  0.092700  0.761100  0.362400  1.0  -0.609
  O  O178  1  0.314300  0.757800  0.293400  1.0  -0.5869
  O  O179  1  0.759370  0.637600  0.398700  1.0  -0.6094
  O  O180  1  0.980970  0.706600  0.464400  1.0  -0.5865
  F  F181  1  0.122500  0.746500  0.902400  1.0  -0.2078
  F  F182  1  0.912100  0.697700  0.928500  1.0  -0.1878
  F  F183  1  0.969700  0.810100  0.997100  1.0  -0.1978
  F  F184  1  0.455830  0.155900  0.253500  1.0  -0.2064
  F  F185  1  0.245430  0.230800  0.302300  1.0  -0.1887
  F  F186  1  0.303030  0.187000  0.189900  1.0  -0.1991
  F  F187  1  0.789170  0.097600  0.844100  1.0  -0.2062
  F  F188  1  0.578770  0.071500  0.769200  1.0  -0.1886
  F  F189  1  0.636370  0.002900  0.813000  1.0  -0.1981
  F  F190  1  0.122500  0.253500  0.097600  1.0  -0.2085
  F  F191  1  0.912100  0.302300  0.071500  1.0  -0.188
  F  F192  1  0.969700  0.189900  0.002900  1.0  -0.1988
  F  F193  1  0.455830  0.844100  0.746500  1.0  -0.2063
  F  F194  1  0.245430  0.769200  0.697700  1.0  -0.1882
  F  F195  1  0.303030  0.813000  0.810100  1.0  -0.1998
  F  F196  1  0.789170  0.902400  0.155900  1.0  -0.2066
  F  F197  1  0.578770  0.928500  0.230800  1.0  -0.1884
  F  F198  1  0.636370  0.997100  0.187000  1.0  -0.1964
  F  F199  1  0.210830  0.844100  0.097600  1.0  -0.2068
  F  F200  1  0.421230  0.769200  0.071500  1.0  -0.1891
  F  F201  1  0.363630  0.813000  0.002900  1.0  -0.199
  F  F202  1  0.877500  0.902400  0.746500  1.0  -0.2066
  F  F203  1  0.087900  0.928500  0.697700  1.0  -0.1884
  F  F204  1  0.030300  0.997100  0.810100  1.0  -0.198
  F  F205  1  0.544170  0.253500  0.155900  1.0  -0.2078
  F  F206  1  0.754570  0.302300  0.230800  1.0  -0.1879
  F  F207  1  0.696970  0.189900  0.187000  1.0  -0.1973
  F  F208  1  0.210830  0.155900  0.902400  1.0  -0.2059
  F  F209  1  0.421230  0.230800  0.928500  1.0  -0.1888
  F  F210  1  0.363630  0.187000  0.997100  1.0  -0.2009
  F  F211  1  0.877500  0.097600  0.253500  1.0  -0.2061
  F  F212  1  0.087900  0.071500  0.302300  1.0  -0.1886
  F  F213  1  0.030300  0.002900  0.189900  1.0  -0.1967
  F  F214  1  0.544170  0.746500  0.844100  1.0  -0.208
  F  F215  1  0.754570  0.697700  0.769200  1.0  -0.1883
  F  F216  1  0.696970  0.810100  0.813000  1.0  -0.1972
