# generated using pymatgen
data_ZnH8C17(O2F3)2
_symmetry_space_group_name_H-M   'P 1'
_cell_length_a   7.73000000
_cell_length_b   21.26000000
_cell_length_c   21.26000000
_cell_angle_alpha   120.00000000
_cell_angle_beta   90.00000000
_cell_angle_gamma   90.00000000
_symmetry_Int_Tables_number   1
_chemical_formula_structural   ZnH8C17(O2F3)2
_chemical_formula_sum   'Zn6 H48 C102 O24 F36'
_cell_volume   3025.77510954
_cell_formula_units_Z   6
loop_
 _symmetry_equiv_pos_site_id
 _symmetry_equiv_pos_as_xyz
  1  'x, y, z'
loop_
 _atom_site_type_symbol
 _atom_site_label
 _atom_site_symmetry_multiplicity
 _atom_site_fract_x
 _atom_site_fract_y
 _atom_site_fract_z
 _atom_site_occupancy
 _atom_site_charge
  Zn  Zn1  1  0.000000  0.299090  0.700920  1.0  1.022
  Zn  Zn2  1  0.666667  0.401830  0.700910  1.0  1.0226
  Zn  Zn3  1  0.333333  0.299090  0.598180  1.0  1.0222
  Zn  Zn4  1  0.000000  0.700910  0.299080  1.0  1.0224
  Zn  Zn5  1  0.666667  0.598170  0.299080  1.0  1.023
  Zn  Zn6  1  0.333333  0.700920  0.401830  1.0  1.0219
  H  H7  1  0.109600  0.153400  0.407600  1.0  0.099
  H  H8  1  0.565300  0.070500  0.413200  1.0  0.1124
  H  H9  1  0.692500  0.157100  0.519300  1.0  0.1054
  H  H10  1  0.989200  0.064800  0.301500  1.0  0.1109
  H  H11  1  0.776270  0.254200  0.846600  1.0  0.0993
  H  H12  1  0.231970  0.342700  0.929500  1.0  0.1128
  H  H13  1  0.359170  0.362200  0.842900  1.0  0.1048
  H  H14  1  0.655870  0.236700  0.935200  1.0  0.1106
  H  H15  1  0.442930  0.592400  0.745800  1.0  0.0984
  H  H16  1  0.898630  0.586800  0.657300  1.0  0.1127
  H  H17  1  0.025830  0.480700  0.637800  1.0  0.1047
  H  H18  1  0.322530  0.698500  0.763300  1.0  0.1103
  H  H19  1  0.109600  0.846600  0.592400  1.0  0.0986
  H  H20  1  0.565300  0.929500  0.586800  1.0  0.1127
  H  H21  1  0.692500  0.842900  0.480700  1.0  0.105
  H  H22  1  0.989200  0.935200  0.698500  1.0  0.1105
  H  H23  1  0.776270  0.745800  0.153400  1.0  0.0993
  H  H24  1  0.231970  0.657300  0.070500  1.0  0.1128
  H  H25  1  0.359170  0.637800  0.157100  1.0  0.1046
  H  H26  1  0.655870  0.763300  0.064800  1.0  0.1109
  H  H27  1  0.442930  0.407600  0.254200  1.0  0.0988
  H  H28  1  0.898630  0.413200  0.342700  1.0  0.1122
  H  H29  1  0.025830  0.519300  0.362200  1.0  0.1047
  H  H30  1  0.322530  0.301500  0.236700  1.0  0.1104
  H  H31  1  0.557070  0.745800  0.592400  1.0  0.0992
  H  H32  1  0.101370  0.657300  0.586800  1.0  0.1124
  H  H33  1  0.974170  0.637800  0.480700  1.0  0.1045
  H  H34  1  0.677470  0.763300  0.698500  1.0  0.1109
  H  H35  1  0.890400  0.407600  0.153400  1.0  0.0987
  H  H36  1  0.434700  0.413200  0.070500  1.0  0.1124
  H  H37  1  0.307500  0.519300  0.157100  1.0  0.1048
  H  H38  1  0.010800  0.301500  0.064800  1.0  0.1107
  H  H39  1  0.223730  0.846600  0.254200  1.0  0.0989
  H  H40  1  0.768030  0.929500  0.342700  1.0  0.1124
  H  H41  1  0.640830  0.842900  0.362200  1.0  0.1049
  H  H42  1  0.344130  0.935200  0.236700  1.0  0.1112
  H  H43  1  0.557070  0.254200  0.407600  1.0  0.0993
  H  H44  1  0.101370  0.342700  0.413200  1.0  0.1126
  H  H45  1  0.974170  0.362200  0.519300  1.0  0.1042
  H  H46  1  0.677470  0.236700  0.301500  1.0  0.1111
  H  H47  1  0.890400  0.592400  0.846600  1.0  0.0988
  H  H48  1  0.434700  0.586800  0.929500  1.0  0.1123
  H  H49  1  0.307500  0.480700  0.842900  1.0  0.1048
  H  H50  1  0.010800  0.698500  0.935200  1.0  0.111
  H  H51  1  0.223730  0.153400  0.745800  1.0  0.0987
  H  H52  1  0.768030  0.070500  0.657300  1.0  0.1128
  H  H53  1  0.640830  0.157100  0.637800  1.0  0.1047
  H  H54  1  0.344130  0.064800  0.763300  1.0  0.1114
  C  C55  1  0.003800  0.218900  0.541300  1.0  0.7245
  C  C56  1  0.000200  0.135800  0.408800  1.0  -0.0021
  C  C57  1  0.676400  0.086300  0.411500  1.0  -0.1407
  C  C58  1  0.752100  0.138700  0.475700  1.0  -0.0027
  C  C59  1  0.917400  0.163500  0.474300  1.0  -0.1825
  C  C60  1  0.928100  0.083100  0.344900  1.0  -0.1591
  C  C61  1  0.759200  0.056900  0.345600  1.0  0.0871
  C  C62  1  0.540900  0.042400  0.255000  1.0  0.6914
  C  C63  1  0.670470  0.322400  0.781100  1.0  0.7266
  C  C64  1  0.666870  0.273000  0.864200  1.0  -0.0024
  C  C65  1  0.343070  0.325200  0.913700  1.0  -0.1458
  C  C66  1  0.418770  0.337000  0.861300  1.0  -0.0062
  C  C67  1  0.584070  0.310800  0.836500  1.0  -0.1799
  C  C68  1  0.594770  0.261800  0.916900  1.0  -0.1592
  C  C69  1  0.425870  0.288700  0.943100  1.0  0.0864
  C  C70  1  0.207570  0.212600  0.957600  1.0  0.6921
  C  C71  1  0.337130  0.458700  0.677600  1.0  0.7241
  C  C72  1  0.333530  0.591200  0.727000  1.0  0.0005
  C  C73  1  0.009730  0.588500  0.674800  1.0  -0.1453
  C  C74  1  0.085430  0.524300  0.663000  1.0  -0.0038
  C  C75  1  0.250730  0.525700  0.689200  1.0  -0.181
  C  C76  1  0.261430  0.655100  0.738200  1.0  -0.1583
  C  C77  1  0.092530  0.654400  0.711300  1.0  0.0871
  C  C78  1  0.874230  0.745000  0.787400  1.0  0.6909
  C  C79  1  0.003800  0.781100  0.458700  1.0  0.7243
  C  C80  1  0.000200  0.864200  0.591200  1.0  -0.0015
  C  C81  1  0.676400  0.913700  0.588500  1.0  -0.1402
  C  C82  1  0.752100  0.861300  0.524300  1.0  -0.0029
  C  C83  1  0.917400  0.836500  0.525700  1.0  -0.1814
  C  C84  1  0.928100  0.916900  0.655100  1.0  -0.1591
  C  C85  1  0.759200  0.943100  0.654400  1.0  0.0869
  C  C86  1  0.540900  0.957600  0.745000  1.0  0.6904
  C  C87  1  0.670470  0.677600  0.218900  1.0  0.726
  C  C88  1  0.666870  0.727000  0.135800  1.0  -0.003
  C  C89  1  0.343070  0.674800  0.086300  1.0  -0.1455
  C  C90  1  0.418770  0.663000  0.138700  1.0  -0.0042
  C  C91  1  0.584070  0.689200  0.163500  1.0  -0.1796
  C  C92  1  0.594770  0.738200  0.083100  1.0  -0.1588
  C  C93  1  0.425870  0.711300  0.056900  1.0  0.0867
  C  C94  1  0.207570  0.787400  0.042400  1.0  0.691
  C  C95  1  0.337130  0.541300  0.322400  1.0  0.7237
  C  C96  1  0.333530  0.408800  0.273000  1.0  -0.0011
  C  C97  1  0.009730  0.411500  0.325200  1.0  -0.145
  C  C98  1  0.085430  0.475700  0.337000  1.0  -0.0032
  C  C99  1  0.250730  0.474300  0.310800  1.0  -0.1796
  C  C100  1  0.261430  0.344900  0.261800  1.0  -0.1586
  C  C101  1  0.092530  0.345600  0.288700  1.0  0.0866
  C  C102  1  0.874230  0.255000  0.212600  1.0  0.6903
  C  C103  1  0.662870  0.677600  0.458700  1.0  0.726
  C  C104  1  0.666470  0.727000  0.591200  1.0  -0.0011
  C  C105  1  0.990270  0.674800  0.588500  1.0  -0.1475
  C  C106  1  0.914570  0.663000  0.524300  1.0  -0.0054
  C  C107  1  0.749270  0.689200  0.525700  1.0  -0.1795
  C  C108  1  0.738570  0.738200  0.655100  1.0  -0.1584
  C  C109  1  0.907470  0.711300  0.654400  1.0  0.086
  C  C110  1  0.125770  0.787400  0.745000  1.0  0.6908
  C  C111  1  0.996200  0.541300  0.218900  1.0  0.7244
  C  C112  1  0.999800  0.408800  0.135800  1.0  0.0011
  C  C113  1  0.323600  0.411500  0.086300  1.0  -0.1455
  C  C114  1  0.247900  0.475700  0.138700  1.0  -0.0029
  C  C115  1  0.082600  0.474300  0.163500  1.0  -0.1798
  C  C116  1  0.071900  0.344900  0.083100  1.0  -0.1586
  C  C117  1  0.240800  0.345600  0.056900  1.0  0.086
  C  C118  1  0.459100  0.255000  0.042400  1.0  0.6911
  C  C119  1  0.329530  0.781100  0.322400  1.0  0.7236
  C  C120  1  0.333130  0.864200  0.273000  1.0  -0.0005
  C  C121  1  0.656930  0.913700  0.325200  1.0  -0.1421
  C  C122  1  0.581230  0.861300  0.337000  1.0  -0.0028
  C  C123  1  0.415930  0.836500  0.310800  1.0  -0.181
  C  C124  1  0.405230  0.916900  0.261800  1.0  -0.159
  C  C125  1  0.574130  0.943100  0.288700  1.0  0.0864
  C  C126  1  0.792430  0.957600  0.212600  1.0  0.6911
  C  C127  1  0.662870  0.322400  0.541300  1.0  0.7254
  C  C128  1  0.666470  0.273000  0.408800  1.0  -0.0007
  C  C129  1  0.990270  0.325200  0.411500  1.0  -0.1469
  C  C130  1  0.914570  0.337000  0.475700  1.0  -0.0052
  C  C131  1  0.749270  0.310800  0.474300  1.0  -0.1799
  C  C132  1  0.738570  0.261800  0.344900  1.0  -0.1593
  C  C133  1  0.907470  0.288700  0.345600  1.0  0.0858
  C  C134  1  0.125770  0.212600  0.255000  1.0  0.6919
  C  C135  1  0.996200  0.458700  0.781100  1.0  0.7233
  C  C136  1  0.999800  0.591200  0.864200  1.0  0.0004
  C  C137  1  0.323600  0.588500  0.913700  1.0  -0.1469
  C  C138  1  0.247900  0.524300  0.861300  1.0  -0.003
  C  C139  1  0.082600  0.525700  0.836500  1.0  -0.1805
  C  C140  1  0.071900  0.655100  0.916900  1.0  -0.1583
  C  C141  1  0.240800  0.654400  0.943100  1.0  0.0867
  C  C142  1  0.459100  0.745000  0.957600  1.0  0.6913
  C  C143  1  0.329530  0.218900  0.677600  1.0  0.7242
  C  C144  1  0.333130  0.135800  0.727000  1.0  -0.0006
  C  C145  1  0.656930  0.086300  0.674800  1.0  -0.1421
  C  C146  1  0.581230  0.138700  0.663000  1.0  -0.0032
  C  C147  1  0.415930  0.163500  0.689200  1.0  -0.1822
  C  C148  1  0.405230  0.083100  0.738200  1.0  -0.1591
  C  C149  1  0.574130  0.056900  0.711300  1.0  0.0867
  C  C150  1  0.792430  0.042400  0.787400  1.0  0.6908
  C  C151  1  0.666667  0.000000  0.276500  1.0  -0.2965
  C  C152  1  0.333333  0.276500  0.000000  1.0  -0.2963
  C  C153  1  0.000000  0.723500  0.723500  1.0  -0.2967
  C  C154  1  0.666667  0.000000  0.723500  1.0  -0.2963
  C  C155  1  0.333333  0.723500  0.000000  1.0  -0.2968
  C  C156  1  0.000000  0.276500  0.276500  1.0  -0.2966
  O  O157  1  0.925800  0.239000  0.600600  1.0  -0.6177
  O  O158  1  0.146200  0.242100  0.535600  1.0  -0.5921
  O  O159  1  0.592470  0.361600  0.761000  1.0  -0.6177
  O  O160  1  0.812870  0.293500  0.757900  1.0  -0.5919
  O  O161  1  0.259130  0.399400  0.638400  1.0  -0.6173
  O  O162  1  0.479530  0.464400  0.706500  1.0  -0.593
  O  O163  1  0.925800  0.761000  0.399400  1.0  -0.6172
  O  O164  1  0.146200  0.757900  0.464400  1.0  -0.5926
  O  O165  1  0.592470  0.638400  0.239000  1.0  -0.618
  O  O166  1  0.812870  0.706500  0.242100  1.0  -0.5918
  O  O167  1  0.259130  0.600600  0.361600  1.0  -0.6177
  O  O168  1  0.479530  0.535600  0.293500  1.0  -0.5921
  O  O169  1  0.740870  0.638400  0.399400  1.0  -0.6187
  O  O170  1  0.520470  0.706500  0.464400  1.0  -0.5919
  O  O171  1  0.074200  0.600600  0.239000  1.0  -0.6184
  O  O172  1  0.853800  0.535600  0.242100  1.0  -0.5939
  O  O173  1  0.407530  0.761000  0.361600  1.0  -0.6188
  O  O174  1  0.187130  0.757900  0.293500  1.0  -0.5926
  O  O175  1  0.740870  0.361600  0.600600  1.0  -0.6188
  O  O176  1  0.520470  0.293500  0.535600  1.0  -0.5927
  O  O177  1  0.074200  0.399400  0.761000  1.0  -0.6178
  O  O178  1  0.853800  0.464400  0.757900  1.0  -0.5924
  O  O179  1  0.407530  0.239000  0.638400  1.0  -0.6182
  O  O180  1  0.187130  0.242100  0.706500  1.0  -0.5929
  F  F181  1  0.415700  0.071300  0.301800  1.0  -0.1786
  F  F182  1  0.469100  0.003600  0.190000  1.0  -0.1994
  F  F183  1  0.625300  0.097600  0.253400  1.0  -0.2148
  F  F184  1  0.082370  0.230500  0.928700  1.0  -0.1797
  F  F185  1  0.135770  0.186400  0.996400  1.0  -0.2018
  F  F186  1  0.291970  0.155800  0.902400  1.0  -0.2124
  F  F187  1  0.749030  0.698200  0.769500  1.0  -0.1776
  F  F188  1  0.802430  0.810000  0.813600  1.0  -0.1984
  F  F189  1  0.958630  0.746600  0.844200  1.0  -0.2153
  F  F190  1  0.415700  0.928700  0.698200  1.0  -0.1789
  F  F191  1  0.469100  0.996400  0.810000  1.0  -0.1996
  F  F192  1  0.625300  0.902400  0.746600  1.0  -0.2149
  F  F193  1  0.082370  0.769500  0.071300  1.0  -0.1788
  F  F194  1  0.135770  0.813600  0.003600  1.0  -0.2008
  F  F195  1  0.291970  0.844200  0.097600  1.0  -0.2145
  F  F196  1  0.749030  0.301800  0.230500  1.0  -0.1781
  F  F197  1  0.802430  0.190000  0.186400  1.0  -0.1988
  F  F198  1  0.958630  0.253400  0.155800  1.0  -0.2163
  F  F199  1  0.250970  0.769500  0.698200  1.0  -0.1794
  F  F200  1  0.197570  0.813600  0.810000  1.0  -0.2006
  F  F201  1  0.041370  0.844200  0.746600  1.0  -0.2137
  F  F202  1  0.584300  0.301800  0.071300  1.0  -0.1783
  F  F203  1  0.530900  0.190000  0.003600  1.0  -0.1994
  F  F204  1  0.374700  0.253400  0.097600  1.0  -0.2158
  F  F205  1  0.917630  0.928700  0.230500  1.0  -0.1791
  F  F206  1  0.864230  0.996400  0.186400  1.0  -0.1983
  F  F207  1  0.708030  0.902400  0.155800  1.0  -0.2154
  F  F208  1  0.250970  0.230500  0.301800  1.0  -0.18
  F  F209  1  0.197570  0.186400  0.190000  1.0  -0.2003
  F  F210  1  0.041370  0.155800  0.253400  1.0  -0.2143
  F  F211  1  0.584300  0.698200  0.928700  1.0  -0.178
  F  F212  1  0.530900  0.810000  0.996400  1.0  -0.1984
  F  F213  1  0.374700  0.746600  0.902400  1.0  -0.216
  F  F214  1  0.917630  0.071300  0.769500  1.0  -0.179
  F  F215  1  0.864230  0.003600  0.813600  1.0  -0.1987
  F  F216  1  0.708030  0.097600  0.844200  1.0  -0.2146
