# generated using pymatgen
data_Zn2H24(C11O4)3
_symmetry_space_group_name_H-M   'P 1'
_cell_length_a   12.45800000
_cell_length_b   17.20890000
_cell_length_c   28.38730000
_cell_angle_alpha   81.60040000
_cell_angle_beta   77.32450000
_cell_angle_gamma   68.77910000
_symmetry_Int_Tables_number   1
_chemical_formula_structural   Zn2H24(C11O4)3
_chemical_formula_sum   'Zn8 H96 C132 O48'
_cell_volume   5520.08683356
_cell_formula_units_Z   4
loop_
 _symmetry_equiv_pos_site_id
 _symmetry_equiv_pos_as_xyz
  1  'x, y, z'
loop_
 _atom_site_type_symbol
 _atom_site_label
 _atom_site_symmetry_multiplicity
 _atom_site_fract_x
 _atom_site_fract_y
 _atom_site_fract_z
 _atom_site_occupancy
 _atom_site_charge
  Zn  Zn1  1  0.720550  0.863690  0.828210  1.0  1.0339
  Zn  Zn2  1  0.796280  0.430840  0.256220  1.0  1.154
  Zn  Zn3  1  0.587550  0.363690  0.328210  1.0  1.0339
  Zn  Zn4  1  0.516660  0.930840  0.756220  1.0  1.1544
  Zn  Zn5  1  0.412450  0.636310  0.671790  1.0  1.034
  Zn  Zn6  1  0.483340  0.069160  0.243780  1.0  1.1558
  Zn  Zn7  1  0.279450  0.136310  0.171790  1.0  1.0339
  Zn  Zn8  1  0.203720  0.569160  0.743780  1.0  1.1554
  H  H9  1  0.881400  0.047300  0.760500  1.0  0.086
  H  H10  1  0.941000  0.157900  0.720500  1.0  0.128
  H  H11  1  0.641200  0.251600  0.664600  1.0  0.1428
  H  H12  1  0.584400  0.139900  0.705100  1.0  0.1052
  H  H13  1  0.957200  0.290900  0.685100  1.0  0.0676
  H  H14  1  0.998700  0.225900  0.643900  1.0  0.0743
  H  H15  1  0.634700  0.705800  0.687200  1.0  0.0972
  H  H16  1  0.715600  0.578600  0.653000  1.0  0.1176
  H  H17  1  0.971700  0.507200  0.734000  1.0  0.1284
  H  H18  1  0.888200  0.635800  0.768200  1.0  0.1046
  H  H19  1  0.363400  0.224800  0.429800  1.0  0.1039
  H  H20  1  0.233800  0.200100  0.500100  1.0  0.133
  H  H21  1  0.226800  0.409200  0.550600  1.0  0.1149
  H  H22  1  0.348400  0.433900  0.480900  1.0  0.1062
  H  H23  1  0.719900  0.340700  0.441900  1.0  0.1099
  H  H24  1  0.781500  0.329400  0.514800  1.0  0.1278
  H  H25  1  0.013800  0.443000  0.449400  1.0  0.1244
  H  H26  1  0.954300  0.452100  0.376100  1.0  0.0823
  H  H27  1  0.819000  0.349700  0.579500  1.0  0.0797
  H  H28  1  0.942000  0.276600  0.565000  1.0  0.0778
  H  H29  1  0.104100  0.346600  0.632000  1.0  0.0805
  H  H30  1  0.072300  0.406100  0.584300  1.0  0.0632
  H  H31  1  0.784100  0.433900  0.645300  1.0  0.0769
  H  H32  1  0.861100  0.479500  0.606500  1.0  0.0727
  H  H33  1  0.310800  0.547300  0.260500  1.0  0.0858
  H  H34  1  0.180600  0.657900  0.220500  1.0  0.1278
  H  H35  1  0.442600  0.751600  0.164600  1.0  0.1421
  H  H36  1  0.570600  0.639900  0.205100  1.0  0.1047
  H  H37  1  0.066800  0.790900  0.185100  1.0  0.0686
  H  H38  1  0.131500  0.725900  0.143900  1.0  0.0746
  H  H39  1  0.972300  0.205800  0.187200  1.0  0.0974
  H  H40  1  0.052800  0.078600  0.153000  1.0  0.1166
  H  H41  1  0.787100  0.007200  0.234000  1.0  0.1289
  H  H42  1  0.707800  0.135800  0.268200  1.0  0.1036
  H  H43  1  0.982000  0.724800  0.929800  1.0  0.1036
  H  H44  1  0.066000  0.700100  0.000100  1.0  0.134
  H  H45  1  0.813400  0.909200  0.050600  1.0  0.1144
  H  H46  1  0.736800  0.933900  0.980900  1.0  0.1057
  H  H47  1  0.497500  0.840700  0.941900  1.0  0.1098
  H  H48  1  0.374300  0.829400  0.014800  1.0  0.1288
  H  H49  1  0.093800  0.943000  0.949400  1.0  0.1247
  H  H50  1  0.217500  0.952100  0.876100  1.0  0.085
  H  H51  1  0.251800  0.849700  0.079500  1.0  0.0826
  H  H52  1  0.216400  0.776600  0.065000  1.0  0.0778
  H  H53  1  0.917300  0.846600  0.132000  1.0  0.0796
  H  H54  1  0.937300  0.906100  0.084300  1.0  0.0624
  H  H55  1  0.136700  0.933900  0.145300  1.0  0.076
  H  H56  1  0.052900  0.979500  0.106500  1.0  0.0739
  H  H57  1  0.689200  0.452700  0.739500  1.0  0.0862
  H  H58  1  0.819400  0.342100  0.779500  1.0  0.1278
  H  H59  1  0.557400  0.248400  0.835400  1.0  0.1425
  H  H60  1  0.429400  0.360100  0.794900  1.0  0.1042
  H  H61  1  0.933200  0.209100  0.814900  1.0  0.0688
  H  H62  1  0.868500  0.274100  0.856100  1.0  0.0768
  H  H63  1  0.027700  0.794200  0.812800  1.0  0.0968
  H  H64  1  0.947200  0.921400  0.847000  1.0  0.1167
  H  H65  1  0.212900  0.992800  0.766000  1.0  0.1301
  H  H66  1  0.292200  0.864200  0.731800  1.0  0.1034
  H  H67  1  0.018000  0.275200  0.070200  1.0  0.1031
  H  H68  1  0.934000  0.299900  0.999900  1.0  0.1353
  H  H69  1  0.186600  0.090800  0.949400  1.0  0.1148
  H  H70  1  0.263200  0.066100  0.019100  1.0  0.1072
  H  H71  1  0.502500  0.159300  0.058100  1.0  0.1099
  H  H72  1  0.625700  0.170600  0.985200  1.0  0.1289
  H  H73  1  0.906200  0.057000  0.050600  1.0  0.1251
  H  H74  1  0.782500  0.047900  0.123900  1.0  0.0838
  H  H75  1  0.748200  0.150300  0.920500  1.0  0.0817
  H  H76  1  0.783600  0.223400  0.935000  1.0  0.0788
  H  H77  1  0.082700  0.153400  0.868000  1.0  0.0797
  H  H78  1  0.062700  0.093900  0.915700  1.0  0.063
  H  H79  1  0.863300  0.066100  0.854700  1.0  0.0764
  H  H80  1  0.947100  0.020500  0.893500  1.0  0.0732
  H  H81  1  0.118600  0.952700  0.239500  1.0  0.0865
  H  H82  1  0.059000  0.842100  0.279500  1.0  0.1268
  H  H83  1  0.358800  0.748400  0.335400  1.0  0.1421
  H  H84  1  0.415600  0.860100  0.294900  1.0  0.1051
  H  H85  1  0.042800  0.709100  0.314900  1.0  0.068
  H  H86  1  0.001300  0.774100  0.356100  1.0  0.0778
  H  H87  1  0.365300  0.294200  0.312800  1.0  0.0973
  H  H88  1  0.284400  0.421400  0.347000  1.0  0.1179
  H  H89  1  0.028300  0.492800  0.266000  1.0  0.1287
  H  H90  1  0.111800  0.364200  0.231800  1.0  0.1044
  H  H91  1  0.636600  0.775200  0.570200  1.0  0.1035
  H  H92  1  0.766200  0.799900  0.499900  1.0  0.1345
  H  H93  1  0.773200  0.590800  0.449400  1.0  0.1149
  H  H94  1  0.651600  0.566100  0.519100  1.0  0.1059
  H  H95  1  0.280100  0.659300  0.558100  1.0  0.1095
  H  H96  1  0.218500  0.670600  0.485200  1.0  0.1275
  H  H97  1  0.986200  0.557000  0.550600  1.0  0.1236
  H  H98  1  0.045700  0.547900  0.623900  1.0  0.0823
  H  H99  1  0.181000  0.650300  0.420500  1.0  0.0791
  H  H100  1  0.058000  0.723400  0.435000  1.0  0.079
  H  H101  1  0.895900  0.653400  0.368000  1.0  0.0798
  H  H102  1  0.927700  0.593900  0.415700  1.0  0.0635
  H  H103  1  0.215900  0.566100  0.354700  1.0  0.0773
  H  H104  1  0.138900  0.520500  0.393500  1.0  0.0726
  C  C105  1  0.688920  0.012040  0.761320  1.0  0.7412
  C  C106  1  0.726690  0.083500  0.736920  1.0  -0.2054
  C  C107  1  0.832800  0.088790  0.741010  1.0  0.0296
  C  C108  1  0.869150  0.153880  0.717020  1.0  -0.2841
  C  C109  1  0.798000  0.212940  0.687860  1.0  0.3056
  C  C110  1  0.690510  0.209640  0.683740  1.0  -0.2428
  C  C111  1  0.656690  0.143630  0.708190  1.0  0.0051
  C  C112  1  0.940810  0.279970  0.654610  1.0  0.0596
  C  C113  1  0.946360  0.350740  0.615540  1.0  -0.034
  C  C114  1  0.705180  0.767230  0.751610  1.0  0.7391
  C  C115  1  0.754300  0.684870  0.730530  1.0  -0.2056
  C  C116  1  0.703660  0.665540  0.696540  1.0  0.0192
  C  C117  1  0.751140  0.590000  0.676320  1.0  -0.245
  C  C118  1  0.850280  0.530770  0.689870  1.0  0.2957
  C  C119  1  0.903180  0.547710  0.724530  1.0  -0.2455
  C  C120  1  0.853760  0.624350  0.744530  1.0  0.0106
  C  C121  1  0.449410  0.350410  0.402970  1.0  0.6578
  C  C122  1  0.366590  0.332270  0.448550  1.0  -0.1739
  C  C123  1  0.334070  0.263050  0.454410  1.0  -0.0213
  C  C124  1  0.257470  0.247640  0.496420  1.0  -0.2471
  C  C125  1  0.218250  0.303060  0.531840  1.0  0.2934
  C  C126  1  0.253380  0.371470  0.525770  1.0  -0.253
  C  C127  1  0.325890  0.385870  0.484550  1.0  -0.0089
  C  C128  1  0.793300  0.401210  0.354790  1.0  0.739
  C  C129  1  0.780000  0.361460  0.443340  1.0  0.0088
  C  C130  1  0.815630  0.355410  0.486730  1.0  -0.2796
  C  C131  1  0.901450  0.387320  0.489380  1.0  0.3063
  C  C132  1  0.953570  0.422370  0.447890  1.0  -0.2458
  C  C133  1  0.918320  0.427630  0.404330  1.0  0.0027
  C  C134  1  0.905030  0.336020  0.572320  1.0  0.0573
  C  C135  1  0.072040  0.352270  0.602250  1.0  0.0653
  C  C136  1  0.864240  0.435550  0.633370  1.0  0.0555
  C  C137  1  0.831360  0.397680  0.401400  1.0  -0.1924
  C  C138  1  0.537720  0.512040  0.261320  1.0  0.7391
  C  C139  1  0.452890  0.583500  0.236920  1.0  -0.2037
  C  C140  1  0.337400  0.588790  0.241010  1.0  0.0285
  C  C141  1  0.259950  0.653880  0.217020  1.0  -0.2868
  C  C142  1  0.301200  0.712940  0.187860  1.0  0.3053
  C  C143  1  0.416110  0.709640  0.183740  1.0  -0.2462
  C  C144  1  0.491490  0.643630  0.208190  1.0  0.0122
  C  C145  1  0.124610  0.779970  0.154610  1.0  0.061
  C  C146  1  0.087360  0.850740  0.115540  1.0  -0.035
  C  C147  1  0.775980  0.267230  0.251610  1.0  0.7398
  C  C148  1  0.830300  0.184870  0.230530  1.0  -0.2082
  C  C149  1  0.934260  0.165540  0.196540  1.0  0.0201
  C  C150  1  0.982540  0.090000  0.176320  1.0  -0.2432
  C  C151  1  0.929080  0.030770  0.189870  1.0  0.2953
  C  C152  1  0.824580  0.047710  0.224530  1.0  -0.2484
  C  C153  1  0.777360  0.124350  0.244530  1.0  0.0094
  C  C154  1  0.797210  0.850410  0.902970  1.0  0.6636
  C  C155  1  0.852590  0.832270  0.948550  1.0  -0.1741
  C  C156  1  0.948470  0.763050  0.954410  1.0  -0.0212
  C  C157  1  0.998470  0.747640  0.996420  1.0  -0.248
  C  C158  1  0.946850  0.803060  0.031840  1.0  0.2923
  C  C159  1  0.849380  0.871470  0.025770  1.0  -0.2513
  C  C160  1  0.803690  0.885870  0.984550  1.0  -0.0165
  C  C161  1  0.450700  0.901210  0.854790  1.0  0.7394
  C  C162  1  0.415200  0.861460  0.943340  1.0  0.0117
  C  C163  1  0.342230  0.855410  0.986730  1.0  -0.2795
  C  C164  1  0.221850  0.887320  0.989380  1.0  0.3071
  C  C165  1  0.176170  0.922370  0.947890  1.0  -0.2418
  C  C166  1  0.249720  0.927630  0.904330  1.0  0.003
  C  C167  1  0.186630  0.836020  0.072320  1.0  0.0551
  C  C168  1  0.973440  0.852270  0.102250  1.0  0.0676
  C  C169  1  0.066840  0.935550  0.133370  1.0  0.0551
  C  C170  1  0.369560  0.897680  0.901400  1.0  -0.1964
  C  C171  1  0.462280  0.487960  0.738680  1.0  0.7406
  C  C172  1  0.547110  0.416500  0.763080  1.0  -0.2037
  C  C173  1  0.662600  0.411210  0.758990  1.0  0.0318
  C  C174  1  0.740050  0.346120  0.782980  1.0  -0.2854
  C  C175  1  0.698800  0.287060  0.812140  1.0  0.3054
  C  C176  1  0.583890  0.290360  0.816260  1.0  -0.248
  C  C177  1  0.508510  0.356370  0.791810  1.0  0.0098
  C  C178  1  0.875390  0.220030  0.845390  1.0  0.0607
  C  C179  1  0.912640  0.149260  0.884460  1.0  -0.0352
  C  C180  1  0.224020  0.732770  0.748390  1.0  0.7393
  C  C181  1  0.169700  0.815130  0.769470  1.0  -0.2085
  C  C182  1  0.065740  0.834460  0.803460  1.0  0.0138
  C  C183  1  0.017460  0.910000  0.823680  1.0  -0.2437
  C  C184  1  0.070920  0.969230  0.810130  1.0  0.2959
  C  C185  1  0.175420  0.952290  0.775470  1.0  -0.2499
  C  C186  1  0.222640  0.875650  0.755470  1.0  0.0107
  C  C187  1  0.202790  0.149590  0.097030  1.0  0.6616
  C  C188  1  0.147410  0.167730  0.051450  1.0  -0.1738
  C  C189  1  0.051530  0.236950  0.045590  1.0  -0.0207
  C  C190  1  0.001530  0.252360  0.003580  1.0  -0.2489
  C  C191  1  0.053150  0.196940  0.968160  1.0  0.2937
  C  C192  1  0.150620  0.128530  0.974230  1.0  -0.2533
  C  C193  1  0.196310  0.114130  0.015450  1.0  -0.01
  C  C194  1  0.549300  0.098790  0.145210  1.0  0.7382
  C  C195  1  0.584800  0.138540  0.056660  1.0  0.0106
  C  C196  1  0.657770  0.144590  0.013270  1.0  -0.2806
  C  C197  1  0.778150  0.112680  0.010620  1.0  0.3067
  C  C198  1  0.823830  0.077630  0.052110  1.0  -0.2443
  C  C199  1  0.750280  0.072370  0.095670  1.0  -0.0011
  C  C200  1  0.813370  0.163980  0.927680  1.0  0.0553
  C  C201  1  0.026560  0.147730  0.897750  1.0  0.0667
  C  C202  1  0.933160  0.064450  0.866630  1.0  0.054
  C  C203  1  0.630440  0.102320  0.098600  1.0  -0.1983
  C  C204  1  0.311080  0.987960  0.238680  1.0  0.7404
  C  C205  1  0.273310  0.916500  0.263080  1.0  -0.1906
  C  C206  1  0.167200  0.911210  0.258990  1.0  0.0314
  C  C207  1  0.130850  0.846120  0.282980  1.0  -0.2868
  C  C208  1  0.202000  0.787060  0.312140  1.0  0.305
  C  C209  1  0.309490  0.790360  0.316260  1.0  -0.2404
  C  C210  1  0.343310  0.856370  0.291810  1.0  0.0068
  C  C211  1  0.059190  0.720030  0.345390  1.0  0.0584
  C  C212  1  0.053640  0.649260  0.384460  1.0  -0.035
  C  C213  1  0.294820  0.232770  0.248390  1.0  0.7391
  C  C214  1  0.245700  0.315130  0.269470  1.0  -0.2046
  C  C215  1  0.296340  0.334460  0.303460  1.0  0.0149
  C  C216  1  0.248860  0.410000  0.323680  1.0  -0.2446
  C  C217  1  0.149720  0.469230  0.310130  1.0  0.2959
  C  C218  1  0.096820  0.452290  0.275470  1.0  -0.2458
  C  C219  1  0.146240  0.375650  0.255470  1.0  0.0117
  C  C220  1  0.550590  0.649590  0.597030  1.0  0.6611
  C  C221  1  0.633410  0.667730  0.551450  1.0  -0.1731
  C  C222  1  0.665930  0.736950  0.545590  1.0  -0.0201
  C  C223  1  0.742530  0.752360  0.503580  1.0  -0.2485
  C  C224  1  0.781750  0.696940  0.468160  1.0  0.2923
  C  C225  1  0.746620  0.628530  0.474230  1.0  -0.2521
  C  C226  1  0.674110  0.614130  0.515450  1.0  -0.0088
  C  C227  1  0.206700  0.598790  0.645210  1.0  0.7379
  C  C228  1  0.220000  0.638540  0.556660  1.0  0.0146
  C  C229  1  0.184370  0.644590  0.513270  1.0  -0.2806
  C  C230  1  0.098550  0.612680  0.510620  1.0  0.3061
  C  C231  1  0.046430  0.577630  0.552110  1.0  -0.2447
  C  C232  1  0.081680  0.572370  0.595670  1.0  -1e-04
  C  C233  1  0.094970  0.663980  0.427680  1.0  0.0565
  C  C234  1  0.927960  0.647730  0.397750  1.0  0.0653
  C  C235  1  0.135760  0.564450  0.366630  1.0  0.0547
  C  C236  1  0.168640  0.602320  0.598600  1.0  -0.198
  O  O237  1  0.759080  0.780240  0.780400  1.0  -0.6007
  O  O238  1  0.752410  0.958570  0.788530  1.0  -0.5941
  O  O239  1  0.907340  0.453850  0.671650  1.0  -0.2767
  O  O240  1  0.718470  0.367850  0.354950  1.0  -0.6444
  O  O241  1  0.839290  0.435170  0.317630  1.0  -0.6191
  O  O242  1  0.143380  0.284220  0.572620  1.0  -0.3122
  O  O243  1  0.464560  0.418700  0.397580  1.0  -0.5917
  O  O244  1  0.937120  0.388980  0.531220  1.0  -0.2632
  O  O245  1  0.593900  0.010620  0.753180  1.0  -0.6788
  O  O246  1  0.497970  0.296280  0.373380  1.0  -0.5927
  O  O247  1  0.612300  0.820130  0.738070  1.0  -0.6619
  O  O248  1  0.824370  0.278580  0.661420  1.0  -0.2669
  O  O249  1  0.680280  0.280240  0.280400  1.0  -0.6016
  O  O250  1  0.500490  0.458570  0.288530  1.0  -0.5933
  O  O251  1  0.967160  0.953850  0.171650  1.0  -0.2765
  O  O252  1  0.558730  0.867850  0.854950  1.0  -0.6455
  O  O253  1  0.407910  0.935170  0.817630  1.0  -0.6181
  O  O254  1  0.999780  0.784220  0.072620  1.0  -0.3118
  O  O255  1  0.719160  0.918700  0.897580  1.0  -0.5911
  O  O256  1  0.142680  0.888980  0.031220  1.0  -0.2616
  O  O257  1  0.642300  0.510620  0.253180  1.0  -0.6789
  O  O258  1  0.832370  0.796280  0.873380  1.0  -0.5927
  O  O259  1  0.829500  0.320130  0.238070  1.0  -0.6648
  O  O260  1  0.235630  0.778580  0.161420  1.0  -0.2663
  O  O261  1  0.319720  0.719760  0.719600  1.0  -0.6013
  O  O262  1  0.499510  0.541430  0.711470  1.0  -0.5932
  O  O263  1  0.032840  0.046150  0.828350  1.0  -0.2766
  O  O264  1  0.441270  0.132150  0.145050  1.0  -0.6422
  O  O265  1  0.592090  0.064830  0.182370  1.0  -0.6165
  O  O266  1  0.000220  0.215780  0.927380  1.0  -0.3116
  O  O267  1  0.280840  0.081300  0.102420  1.0  -0.5941
  O  O268  1  0.857320  0.111020  0.968780  1.0  -0.2618
  O  O269  1  0.357700  0.489380  0.746820  1.0  -0.6845
  O  O270  1  0.167630  0.203720  0.126620  1.0  -0.5922
  O  O271  1  0.170500  0.679870  0.761930  1.0  -0.6658
  O  O272  1  0.764370  0.221420  0.838580  1.0  -0.266
  O  O273  1  0.240920  0.219760  0.219600  1.0  -0.5998
  O  O274  1  0.247590  0.041430  0.211470  1.0  -0.5941
  O  O275  1  0.092660  0.546150  0.328350  1.0  -0.2776
  O  O276  1  0.281530  0.632150  0.645050  1.0  -0.6432
  O  O277  1  0.160710  0.564830  0.682370  1.0  -0.6135
  O  O278  1  0.856620  0.715780  0.427380  1.0  -0.3124
  O  O279  1  0.535440  0.581300  0.602420  1.0  -0.592
  O  O280  1  0.062880  0.611020  0.468780  1.0  -0.2629
  O  O281  1  0.406100  0.989380  0.246820  1.0  -0.6794
  O  O282  1  0.502030  0.703720  0.626620  1.0  -0.5937
  O  O283  1  0.387700  0.179870  0.261930  1.0  -0.6657
  O  O284  1  0.175630  0.721420  0.338580  1.0  -0.2666
