# generated using pymatgen
data_Zn2H24(C11O4)3
_symmetry_space_group_name_H-M   'P 1'
_cell_length_a   6.93140000
_cell_length_b   12.38200000
_cell_length_c   27.73800000
_cell_angle_alpha   96.64100000
_cell_angle_beta   91.23100000
_cell_angle_gamma   104.22100000
_symmetry_Int_Tables_number   1
_chemical_formula_structural   Zn2H24(C11O4)3
_chemical_formula_sum   'Zn4 H48 C66 O24'
_cell_volume   2289.08670390
_cell_formula_units_Z   2
loop_
 _symmetry_equiv_pos_site_id
 _symmetry_equiv_pos_as_xyz
  1  'x, y, z'
loop_
 _atom_site_type_symbol
 _atom_site_label
 _atom_site_symmetry_multiplicity
 _atom_site_fract_x
 _atom_site_fract_y
 _atom_site_fract_z
 _atom_site_occupancy
 _atom_site_charge
  Zn  Zn1  1  0.296530  0.427690  0.496370  1.0  1.1538
  Zn  Zn2  1  0.011100  0.635170  0.991010  1.0  1.0457
  Zn  Zn3  1  0.703470  0.572310  0.503630  1.0  1.1555
  Zn  Zn4  1  0.988900  0.364830  0.008990  1.0  1.0478
  H  H5  1  0.953900  0.384300  0.602400  1.0  0.1005
  H  H6  1  0.040100  0.275700  0.658800  1.0  0.1288
  H  H7  1  0.460800  0.109500  0.660200  1.0  0.1089
  H  H8  1  0.377600  0.213900  0.603300  1.0  0.107
  H  H9  1  0.091400  0.139900  0.698200  1.0  0.0692
  H  H10  1  0.013600  0.212000  0.742000  1.0  0.0786
  H  H11  1  0.910500  0.918100  0.695600  1.0  0.0641
  H  H12  1  0.979900  0.875400  0.743900  1.0  0.0777
  H  H13  1  0.538100  0.938300  0.680000  1.0  0.1136
  H  H14  1  0.622800  0.808300  0.622800  1.0  0.1016
  H  H15  1  0.049800  0.629100  0.608600  1.0  0.1005
  H  H16  1  0.963100  0.760700  0.664500  1.0  0.1282
  H  H17  1  0.296300  0.120300  0.772200  1.0  0.0705
  H  H18  1  0.198500  0.030800  0.808000  1.0  0.0703
  H  H19  1  0.124900  0.355200  0.877300  1.0  0.1318
  H  H20  1  0.382400  0.476600  0.927500  1.0  0.0893
  H  H21  1  0.742800  0.271400  0.893100  1.0  0.1037
  H  H22  1  0.489300  0.152100  0.840800  1.0  0.1135
  H  H23  1  0.685300  0.980800  0.758800  1.0  0.0586
  H  H24  1  0.774300  0.086700  0.799100  1.0  0.0815
  H  H25  1  0.447000  0.935500  0.807500  1.0  0.1162
  H  H26  1  0.197500  0.838500  0.853100  1.0  0.0978
  H  H27  1  0.604800  0.714200  0.920400  1.0  0.1099
  H  H28  1  0.849200  0.805400  0.872800  1.0  0.1206
  H  H29  1  0.046100  0.615700  0.397600  1.0  0.1004
  H  H30  1  0.959900  0.724300  0.341200  1.0  0.1291
  H  H31  1  0.539200  0.890500  0.339800  1.0  0.1106
  H  H32  1  0.622400  0.786100  0.396700  1.0  0.1061
  H  H33  1  0.908600  0.860100  0.301800  1.0  0.0675
  H  H34  1  0.986400  0.788000  0.258000  1.0  0.0775
  H  H35  1  0.089500  0.081900  0.304400  1.0  0.0639
  H  H36  1  0.020100  0.124600  0.256100  1.0  0.0782
  H  H37  1  0.461900  0.061700  0.320000  1.0  0.1137
  H  H38  1  0.377200  0.191700  0.377200  1.0  0.102
  H  H39  1  0.950200  0.370900  0.391400  1.0  0.1006
  H  H40  1  0.036900  0.239300  0.335500  1.0  0.1277
  H  H41  1  0.703700  0.879700  0.227800  1.0  0.0703
  H  H42  1  0.801500  0.969200  0.192000  1.0  0.0697
  H  H43  1  0.875100  0.644800  0.122700  1.0  0.1319
  H  H44  1  0.617600  0.523400  0.072500  1.0  0.0889
  H  H45  1  0.257200  0.728600  0.106900  1.0  0.1035
  H  H46  1  0.510700  0.847900  0.159200  1.0  0.1133
  H  H47  1  0.314700  0.019200  0.241200  1.0  0.0583
  H  H48  1  0.225700  0.913300  0.200900  1.0  0.0807
  H  H49  1  0.553000  0.064500  0.192500  1.0  0.1161
  H  H50  1  0.802500  0.161500  0.146900  1.0  0.0979
  H  H51  1  0.395200  0.285800  0.079600  1.0  0.1096
  H  H52  1  0.150800  0.194600  0.127200  1.0  0.119
  C  C53  1  0.601800  0.378400  0.560600  1.0  0.7394
  C  C54  1  0.656900  0.309900  0.596600  1.0  -0.1868
  C  C55  1  0.853300  0.327500  0.613800  1.0  -0.0117
  C  C56  1  0.905000  0.263500  0.647700  1.0  -0.2698
  C  C57  1  0.760000  0.182900  0.664700  1.0  0.3047
  C  C58  1  0.561700  0.165100  0.648100  1.0  -0.2532
  C  C59  1  0.512700  0.227200  0.614600  1.0  -0.0055
  C  C60  1  0.986700  0.137700  0.722000  1.0  0.0672
  C  C61  1  0.988100  0.047300  0.754000  1.0  -0.0262
  C  C62  1  0.008600  0.937700  0.723700  1.0  0.0521
  C  C63  1  0.239500  0.863600  0.676300  1.0  0.2958
  C  C64  1  0.437900  0.876200  0.664700  1.0  -0.2502
  C  C65  1  0.487800  0.798300  0.631100  1.0  -0.016
  C  C66  1  0.347600  0.706700  0.609300  1.0  -0.1868
  C  C67  1  0.149100  0.693000  0.622700  1.0  -0.0054
  C  C68  1  0.097500  0.770900  0.655800  1.0  -0.2512
  C  C69  1  0.402200  0.625900  0.570400  1.0  0.7084
  C  C70  1  0.176000  0.091600  0.790100  1.0  0.0589
  C  C71  1  0.290400  0.246500  0.852800  1.0  0.3143
  C  C72  1  0.252200  0.339800  0.879700  1.0  -0.2584
  C  C73  1  0.404500  0.410200  0.910300  1.0  0.0
  C  C74  1  0.584000  0.386600  0.916100  1.0  -0.1838
  C  C75  1  0.617700  0.289000  0.889500  1.0  -0.0094
  C  C76  1  0.468300  0.218600  0.858200  1.0  -0.279
  C  C77  1  0.755000  0.462700  0.947300  1.0  0.6956
  C  C78  1  0.800800  0.018000  0.781500  1.0  0.0627
  C  C79  1  0.671100  0.884400  0.838000  1.0  0.3095
  C  C80  1  0.479000  0.891500  0.830900  1.0  -0.27
  C  C81  1  0.331100  0.833900  0.858100  1.0  -0.0161
  C  C82  1  0.376400  0.770000  0.892500  1.0  -0.1456
  C  C83  1  0.572400  0.759600  0.897700  1.0  -0.0334
  C  C84  1  0.717600  0.814700  0.870000  1.0  -0.1954
  C  C85  1  0.222200  0.718500  0.925800  1.0  0.6609
  C  C86  1  0.398200  0.621600  0.439400  1.0  0.7398
  C  C87  1  0.343100  0.690100  0.403400  1.0  -0.1856
  C  C88  1  0.146700  0.672500  0.386200  1.0  -0.0102
  C  C89  1  0.095000  0.736500  0.352300  1.0  -0.2698
  C  C90  1  0.240000  0.817100  0.335300  1.0  0.3052
  C  C91  1  0.438300  0.834900  0.351900  1.0  -0.2521
  C  C92  1  0.487300  0.772800  0.385400  1.0  -0.0029
  C  C93  1  0.013300  0.862300  0.278000  1.0  0.0672
  C  C94  1  0.011900  0.952700  0.246000  1.0  -0.0261
  C  C95  1  0.991400  0.062300  0.276300  1.0  0.0526
  C  C96  1  0.760500  0.136400  0.323700  1.0  0.2971
  C  C97  1  0.562100  0.123800  0.335300  1.0  -0.2524
  C  C98  1  0.512200  0.201700  0.368900  1.0  -0.012
  C  C99  1  0.652400  0.293300  0.390700  1.0  -0.1847
  C  C100  1  0.850900  0.307000  0.377300  1.0  -0.0038
  C  C101  1  0.902500  0.229100  0.344200  1.0  -0.2492
  C  C102  1  0.597800  0.374100  0.429600  1.0  0.7088
  C  C103  1  0.824000  0.908400  0.209900  1.0  0.0578
  C  C104  1  0.709600  0.753500  0.147200  1.0  0.313
  C  C105  1  0.747800  0.660200  0.120300  1.0  -0.2576
  C  C106  1  0.595500  0.589800  0.089700  1.0  -0.0031
  C  C107  1  0.416000  0.613400  0.083900  1.0  -0.1841
  C  C108  1  0.382300  0.711000  0.110500  1.0  -0.0092
  C  C109  1  0.531700  0.781400  0.141800  1.0  -0.2795
  C  C110  1  0.245000  0.537300  0.052700  1.0  0.6949
  C  C111  1  0.199200  0.982000  0.218500  1.0  0.0629
  C  C112  1  0.328900  0.115600  0.162000  1.0  0.3106
  C  C113  1  0.521000  0.108500  0.169100  1.0  -0.2701
  C  C114  1  0.668900  0.166100  0.141900  1.0  -0.0151
  C  C115  1  0.623600  0.230000  0.107500  1.0  -0.1467
  C  C116  1  0.427600  0.240400  0.102300  1.0  -0.0308
  C  C117  1  0.282400  0.185300  0.130000  1.0  -0.1971
  C  C118  1  0.777800  0.281500  0.074200  1.0  0.6611
  O  O119  1  0.426100  0.353700  0.544400  1.0  -0.6209
  O  O120  1  0.732600  0.456800  0.548100  1.0  -0.628
  O  O121  1  0.793800  0.112700  0.697200  1.0  -0.2676
  O  O122  1  0.204300  0.951700  0.706800  1.0  -0.2702
  O  O123  1  0.272000  0.546000  0.552500  1.0  -0.5874
  O  O124  1  0.580700  0.650000  0.558200  1.0  -0.638
  O  O125  1  0.133800  0.180800  0.823200  1.0  -0.2806
  O  O126  1  0.731700  0.553000  0.967400  1.0  -0.55
  O  O127  1  0.919400  0.433300  0.950700  1.0  -0.6566
  O  O128  1  0.832300  0.943100  0.815400  1.0  -0.2751
  O  O129  1  0.045700  0.716800  0.917900  1.0  -0.6117
  O  O130  1  0.278300  0.677200  0.962100  1.0  -0.5767
  O  O131  1  0.573900  0.646300  0.455600  1.0  -0.6249
  O  O132  1  0.267400  0.543200  0.451900  1.0  -0.6267
  O  O133  1  0.206200  0.887300  0.302800  1.0  -0.2678
  O  O134  1  0.795700  0.048300  0.293200  1.0  -0.2708
  O  O135  1  0.728000  0.454000  0.447500  1.0  -0.5865
  O  O136  1  0.419300  0.350000  0.441800  1.0  -0.6374
  O  O137  1  0.866200  0.819200  0.176800  1.0  -0.2802
  O  O138  1  0.268300  0.447000  0.032600  1.0  -0.546
  O  O139  1  0.080600  0.566700  0.049300  1.0  -0.6566
  O  O140  1  0.167700  0.056900  0.184600  1.0  -0.2768
  O  O141  1  0.954300  0.283200  0.082100  1.0  -0.6133
  O  O142  1  0.721700  0.322800  0.037900  1.0  -0.5763
