# generated using pymatgen
data_CuSiH10W12C12(NO8)4
_symmetry_space_group_name_H-M   'P 1'
_cell_length_a   24.68030000
_cell_length_b   10.59660000
_cell_length_c   19.98250000
_cell_angle_alpha   90.00000000
_cell_angle_beta   99.51500000
_cell_angle_gamma   90.00000000
_symmetry_Int_Tables_number   1
_chemical_formula_structural   CuSiH10W12C12(NO8)4
_chemical_formula_sum   'Cu4 Si4 H40 W48 C48 N16 O128'
_cell_volume   5154.07160912
_cell_formula_units_Z   4
loop_
 _symmetry_equiv_pos_site_id
 _symmetry_equiv_pos_as_xyz
  1  'x, y, z'
loop_
 _atom_site_type_symbol
 _atom_site_label
 _atom_site_symmetry_multiplicity
 _atom_site_fract_x
 _atom_site_fract_y
 _atom_site_fract_z
 _atom_site_occupancy
 _atom_site_charge
  Cu  Cu1  1  0.500000  0.500000  0.000000  1.0  0.9608
  Cu  Cu2  1  0.000000  0.000000  0.000000  1.0  0.9608
  Cu  Cu3  1  0.500000  0.500000  0.500000  1.0  0.9608
  Cu  Cu4  1  0.000000  0.000000  0.500000  1.0  0.9608
  Si  Si5  1  0.500000  0.000000  0.750000  1.0  1.3094
  Si  Si6  1  0.000000  0.500000  0.750000  1.0  1.3094
  Si  Si7  1  0.500000  0.000000  0.250000  1.0  1.3093
  Si  Si8  1  0.000000  0.500000  0.250000  1.0  1.3093
  H  H9  1  0.597900  0.299500  0.018600  1.0  0.1095
  H  H10  1  0.680400  0.553500  0.926200  1.0  0.1171
  H  H11  1  0.588400  0.641500  0.931900  1.0  0.1083
  H  H12  1  0.682700  0.221700  0.066200  1.0  0.1093
  H  H13  1  0.738000  0.397700  0.913300  1.0  0.1185
  H  H14  1  0.097900  0.799500  0.018600  1.0  0.1095
  H  H15  1  0.180400  0.053500  0.926200  1.0  0.1171
  H  H16  1  0.088400  0.141500  0.931900  1.0  0.1083
  H  H17  1  0.182700  0.721700  0.066200  1.0  0.1093
  H  H18  1  0.238000  0.897700  0.913300  1.0  0.1185
  H  H19  1  0.402100  0.299500  0.481400  1.0  0.1091
  H  H20  1  0.319600  0.553500  0.573800  1.0  0.1161
  H  H21  1  0.411600  0.641500  0.568100  1.0  0.1077
  H  H22  1  0.317300  0.221700  0.433800  1.0  0.1096
  H  H23  1  0.262000  0.397700  0.586700  1.0  0.1185
  H  H24  1  0.902100  0.799500  0.481400  1.0  0.1091
  H  H25  1  0.819600  0.053500  0.573800  1.0  0.1161
  H  H26  1  0.911600  0.141500  0.568100  1.0  0.1077
  H  H27  1  0.817300  0.721700  0.433800  1.0  0.1096
  H  H28  1  0.762000  0.897700  0.586700  1.0  0.1185
  H  H29  1  0.402100  0.700500  0.981400  1.0  0.1087
  H  H30  1  0.319600  0.446500  0.073800  1.0  0.117
  H  H31  1  0.411600  0.358500  0.068100  1.0  0.1078
  H  H32  1  0.317300  0.778300  0.933800  1.0  0.1093
  H  H33  1  0.262000  0.602300  0.086700  1.0  0.1179
  H  H34  1  0.902100  0.200500  0.981400  1.0  0.1087
  H  H35  1  0.819600  0.946500  0.073800  1.0  0.117
  H  H36  1  0.911600  0.858500  0.068100  1.0  0.1078
  H  H37  1  0.817300  0.278300  0.933800  1.0  0.1093
  H  H38  1  0.762000  0.102300  0.086700  1.0  0.1179
  H  H39  1  0.597900  0.700500  0.518600  1.0  0.1088
  H  H40  1  0.680400  0.446500  0.426200  1.0  0.117
  H  H41  1  0.588400  0.358500  0.431900  1.0  0.108
  H  H42  1  0.682700  0.778300  0.566200  1.0  0.109
  H  H43  1  0.738000  0.602300  0.413300  1.0  0.118
  H  H44  1  0.097900  0.200500  0.518600  1.0  0.1088
  H  H45  1  0.180400  0.946500  0.426200  1.0  0.117
  H  H46  1  0.088400  0.858500  0.431900  1.0  0.108
  H  H47  1  0.182700  0.278300  0.566200  1.0  0.109
  H  H48  1  0.238000  0.102300  0.413300  1.0  0.118
  W  W49  1  0.396650  0.771490  0.710320  1.0  1.4879
  W  W50  1  0.381510  0.989540  0.828110  1.0  1.3301
  W  W51  1  0.485300  0.241110  0.867760  1.0  2.58
  W  W52  1  0.398320  0.229450  0.698580  1.0  1.3646
  W  W53  1  0.475650  0.759970  0.863310  1.0  2.2199
  W  W54  1  0.423120  0.011870  0.585210  1.0  1.3264
  W  W55  1  0.896650  0.271490  0.710320  1.0  1.4879
  W  W56  1  0.881510  0.489540  0.828110  1.0  1.3301
  W  W57  1  0.985300  0.741110  0.867760  1.0  2.58
  W  W58  1  0.898320  0.729450  0.698580  1.0  1.3646
  W  W59  1  0.975650  0.259970  0.863310  1.0  2.2199
  W  W60  1  0.923120  0.511870  0.585210  1.0  1.3264
  W  W61  1  0.603350  0.771490  0.789680  1.0  1.4876
  W  W62  1  0.618490  0.989540  0.671890  1.0  1.3314
  W  W63  1  0.514700  0.241110  0.632240  1.0  2.5779
  W  W64  1  0.601680  0.229450  0.801420  1.0  1.3688
  W  W65  1  0.524350  0.759970  0.636690  1.0  2.2161
  W  W66  1  0.576880  0.011870  0.914790  1.0  1.3261
  W  W67  1  0.103350  0.271490  0.789680  1.0  1.4876
  W  W68  1  0.118490  0.489540  0.671890  1.0  1.3314
  W  W69  1  0.014700  0.741110  0.632240  1.0  2.5779
  W  W70  1  0.101680  0.729450  0.801420  1.0  1.3688
  W  W71  1  0.024350  0.259970  0.636690  1.0  2.2161
  W  W72  1  0.076880  0.511870  0.914790  1.0  1.3261
  W  W73  1  0.603350  0.228510  0.289680  1.0  1.4925
  W  W74  1  0.618490  0.010460  0.171890  1.0  1.33
  W  W75  1  0.514700  0.758890  0.132240  1.0  2.5795
  W  W76  1  0.601680  0.770550  0.301420  1.0  1.3623
  W  W77  1  0.524350  0.240030  0.136690  1.0  2.217
  W  W78  1  0.576880  0.988130  0.414790  1.0  1.3264
  W  W79  1  0.103350  0.728510  0.289680  1.0  1.4925
  W  W80  1  0.118490  0.510460  0.171890  1.0  1.33
  W  W81  1  0.014700  0.258890  0.132240  1.0  2.5795
  W  W82  1  0.101680  0.270550  0.301420  1.0  1.3623
  W  W83  1  0.024350  0.740030  0.136690  1.0  2.217
  W  W84  1  0.076880  0.488130  0.414790  1.0  1.3264
  W  W85  1  0.396650  0.228510  0.210320  1.0  1.4903
  W  W86  1  0.381510  0.010460  0.328110  1.0  1.3299
  W  W87  1  0.485300  0.758890  0.367760  1.0  2.5809
  W  W88  1  0.398320  0.770550  0.198580  1.0  1.3627
  W  W89  1  0.475650  0.240030  0.363310  1.0  2.2204
  W  W90  1  0.423120  0.988130  0.085210  1.0  1.3269
  W  W91  1  0.896650  0.728510  0.210320  1.0  1.4903
  W  W92  1  0.881510  0.510460  0.328110  1.0  1.3299
  W  W93  1  0.985300  0.258890  0.367760  1.0  2.5809
  W  W94  1  0.898320  0.270550  0.198580  1.0  1.3627
  W  W95  1  0.975650  0.740030  0.363310  1.0  2.2204
  W  W96  1  0.923120  0.488130  0.085210  1.0  1.3269
  C  C97  1  0.606800  0.372300  0.996800  1.0  0.1456
  C  C98  1  0.652900  0.514100  0.945100  1.0  -0.0913
  C  C99  1  0.601500  0.563200  0.948300  1.0  -0.0304
  C  C100  1  0.709900  0.232800  0.039600  1.0  -0.1936
  C  C101  1  0.702800  0.320500  0.987800  1.0  0.1663
  C  C102  1  0.742900  0.338000  0.948000  1.0  -0.1938
  C  C103  1  0.106800  0.872300  0.996800  1.0  0.1456
  C  C104  1  0.152900  0.014100  0.945100  1.0  -0.0913
  C  C105  1  0.101500  0.063200  0.948300  1.0  -0.0304
  C  C106  1  0.209900  0.732800  0.039600  1.0  -0.1936
  C  C107  1  0.202800  0.820500  0.987800  1.0  0.1663
  C  C108  1  0.242900  0.838000  0.948000  1.0  -0.1938
  C  C109  1  0.393200  0.372300  0.503200  1.0  0.1452
  C  C110  1  0.347100  0.514100  0.554900  1.0  -0.0934
  C  C111  1  0.398500  0.563200  0.551700  1.0  -0.0307
  C  C112  1  0.290100  0.232800  0.460400  1.0  -0.1931
  C  C113  1  0.297200  0.320500  0.512200  1.0  0.1669
  C  C114  1  0.257100  0.338000  0.552000  1.0  -0.194
  C  C115  1  0.893200  0.872300  0.503200  1.0  0.1452
  C  C116  1  0.847100  0.014100  0.554900  1.0  -0.0934
  C  C117  1  0.898500  0.063200  0.551700  1.0  -0.0307
  C  C118  1  0.790100  0.732800  0.460400  1.0  -0.1931
  C  C119  1  0.797200  0.820500  0.512200  1.0  0.1669
  C  C120  1  0.757100  0.838000  0.552000  1.0  -0.194
  C  C121  1  0.393200  0.627700  0.003200  1.0  0.145
  C  C122  1  0.347100  0.485900  0.054900  1.0  -0.0924
  C  C123  1  0.398500  0.436800  0.051700  1.0  -0.0317
  C  C124  1  0.290100  0.767200  0.960400  1.0  -0.1959
  C  C125  1  0.297200  0.679500  0.012200  1.0  0.1669
  C  C126  1  0.257100  0.662000  0.052000  1.0  -0.1939
  C  C127  1  0.893200  0.127700  0.003200  1.0  0.145
  C  C128  1  0.847100  0.985900  0.054900  1.0  -0.0924
  C  C129  1  0.898500  0.936800  0.051700  1.0  -0.0317
  C  C130  1  0.790100  0.267200  0.960400  1.0  -0.1959
  C  C131  1  0.797200  0.179500  0.012200  1.0  0.1669
  C  C132  1  0.757100  0.162000  0.052000  1.0  -0.1939
  C  C133  1  0.606800  0.627700  0.496800  1.0  0.1459
  C  C134  1  0.652900  0.485900  0.445100  1.0  -0.0923
  C  C135  1  0.601500  0.436800  0.448300  1.0  -0.0311
  C  C136  1  0.709900  0.767200  0.539600  1.0  -0.1969
  C  C137  1  0.702800  0.679500  0.487800  1.0  0.1664
  C  C138  1  0.742900  0.662000  0.448000  1.0  -0.1938
  C  C139  1  0.106800  0.127700  0.496800  1.0  0.1459
  C  C140  1  0.152900  0.985900  0.445100  1.0  -0.0923
  C  C141  1  0.101500  0.936800  0.448300  1.0  -0.0311
  C  C142  1  0.209900  0.267200  0.539600  1.0  -0.1969
  C  C143  1  0.202800  0.179500  0.487800  1.0  0.1664
  C  C144  1  0.242900  0.162000  0.448000  1.0  -0.1938
  N  N145  1  0.573000  0.475600  0.980300  1.0  -0.2946
  N  N146  1  0.656200  0.396100  0.975100  1.0  0.0004
  N  N147  1  0.073000  0.975600  0.980300  1.0  -0.2946
  N  N148  1  0.156200  0.896100  0.975100  1.0  0.0004
  N  N149  1  0.427000  0.475600  0.519700  1.0  -0.2952
  N  N150  1  0.343800  0.396100  0.524900  1.0  0.0015
  N  N151  1  0.927000  0.975600  0.519700  1.0  -0.2952
  N  N152  1  0.843800  0.896100  0.524900  1.0  0.0015
  N  N153  1  0.427000  0.524400  0.019700  1.0  -0.2951
  N  N154  1  0.343800  0.603900  0.024900  1.0  0.0009
  N  N155  1  0.927000  0.024400  0.019700  1.0  -0.2951
  N  N156  1  0.843800  0.103900  0.024900  1.0  0.0009
  N  N157  1  0.573000  0.524400  0.480300  1.0  -0.2943
  N  N158  1  0.656200  0.603900  0.475100  1.0  -1e-04
  N  N159  1  0.073000  0.024400  0.480300  1.0  -0.2943
  N  N160  1  0.156200  0.103900  0.475100  1.0  -1e-04
  O  O161  1  0.455800  0.907700  0.778200  1.0  -0.7605
  O  O162  1  0.375700  0.138900  0.617200  1.0  -0.6965
  O  O163  1  0.529800  0.087000  0.810300  1.0  -0.765
  O  O164  1  0.549000  0.314700  0.847400  1.0  -0.7354
  O  O165  1  0.351300  0.858100  0.761300  1.0  -0.6929
  O  O166  1  0.372700  0.102300  0.750700  1.0  -0.6824
  O  O167  1  0.536800  0.721800  0.821400  1.0  -0.72
  O  O168  1  0.427100  0.681400  0.793600  1.0  -0.6847
  O  O169  1  0.468300  0.141900  0.563100  1.0  -0.6813
  O  O170  1  0.413000  0.853700  0.884100  1.0  -0.7042
  O  O171  1  0.444300  0.278300  0.782300  1.0  -0.7176
  O  O172  1  0.520000  0.891700  0.908600  1.0  -0.724
  O  O173  1  0.431800  0.108400  0.872200  1.0  -0.7255
  O  O174  1  0.391000  0.895800  0.645400  1.0  -0.7068
  O  O175  1  0.464200  0.355100  0.920500  1.0  -0.7522
  O  O176  1  0.480300  0.645400  0.924000  1.0  -0.7595
  O  O177  1  0.955800  0.407700  0.778200  1.0  -0.7605
  O  O178  1  0.875700  0.638900  0.617200  1.0  -0.6965
  O  O179  1  0.029800  0.587000  0.810300  1.0  -0.765
  O  O180  1  0.049000  0.814700  0.847400  1.0  -0.7354
  O  O181  1  0.851300  0.358100  0.761300  1.0  -0.6929
  O  O182  1  0.872700  0.602300  0.750700  1.0  -0.6824
  O  O183  1  0.036800  0.221800  0.821400  1.0  -0.72
  O  O184  1  0.927100  0.181400  0.793600  1.0  -0.6847
  O  O185  1  0.968300  0.641900  0.563100  1.0  -0.6813
  O  O186  1  0.913000  0.353700  0.884100  1.0  -0.7042
  O  O187  1  0.944300  0.778300  0.782300  1.0  -0.7176
  O  O188  1  0.020000  0.391700  0.908600  1.0  -0.724
  O  O189  1  0.931800  0.608400  0.872200  1.0  -0.7255
  O  O190  1  0.891000  0.395800  0.645400  1.0  -0.7068
  O  O191  1  0.964200  0.855100  0.920500  1.0  -0.7522
  O  O192  1  0.980300  0.145400  0.924000  1.0  -0.7595
  O  O193  1  0.544200  0.907700  0.721800  1.0  -0.762
  O  O194  1  0.624300  0.138900  0.882800  1.0  -0.6956
  O  O195  1  0.470200  0.087000  0.689700  1.0  -0.7636
  O  O196  1  0.451000  0.314700  0.652600  1.0  -0.7353
  O  O197  1  0.648700  0.858100  0.738700  1.0  -0.696
  O  O198  1  0.627300  0.102300  0.749300  1.0  -0.6794
  O  O199  1  0.463200  0.721800  0.678600  1.0  -0.7199
  O  O200  1  0.572900  0.681400  0.706400  1.0  -0.6845
  O  O201  1  0.531700  0.141900  0.936900  1.0  -0.6825
  O  O202  1  0.587000  0.853700  0.615900  1.0  -0.7052
  O  O203  1  0.555700  0.278300  0.717700  1.0  -0.7165
  O  O204  1  0.480000  0.891700  0.591400  1.0  -0.7245
  O  O205  1  0.568200  0.108400  0.627800  1.0  -0.7269
  O  O206  1  0.609000  0.895800  0.854600  1.0  -0.7063
  O  O207  1  0.535800  0.355100  0.579500  1.0  -0.7528
  O  O208  1  0.519700  0.645400  0.576000  1.0  -0.7612
  O  O209  1  0.044200  0.407700  0.721800  1.0  -0.762
  O  O210  1  0.124300  0.638900  0.882800  1.0  -0.6956
  O  O211  1  0.970200  0.587000  0.689700  1.0  -0.7636
  O  O212  1  0.951000  0.814700  0.652600  1.0  -0.7353
  O  O213  1  0.148700  0.358100  0.738700  1.0  -0.696
  O  O214  1  0.127300  0.602300  0.749300  1.0  -0.6794
  O  O215  1  0.963200  0.221800  0.678600  1.0  -0.7199
  O  O216  1  0.072900  0.181400  0.706400  1.0  -0.6845
  O  O217  1  0.031700  0.641900  0.936900  1.0  -0.6825
  O  O218  1  0.087000  0.353700  0.615900  1.0  -0.7052
  O  O219  1  0.055700  0.778300  0.717700  1.0  -0.7165
  O  O220  1  0.980000  0.391700  0.591400  1.0  -0.7245
  O  O221  1  0.068200  0.608400  0.627800  1.0  -0.7269
  O  O222  1  0.109000  0.395800  0.854600  1.0  -0.7063
  O  O223  1  0.035800  0.855100  0.579500  1.0  -0.7528
  O  O224  1  0.019700  0.145400  0.576000  1.0  -0.7612
  O  O225  1  0.544200  0.092300  0.221800  1.0  -0.7621
  O  O226  1  0.624300  0.861100  0.382800  1.0  -0.6958
  O  O227  1  0.470200  0.913000  0.189700  1.0  -0.7636
  O  O228  1  0.451000  0.685300  0.152600  1.0  -0.7351
  O  O229  1  0.648700  0.141900  0.238700  1.0  -0.6963
  O  O230  1  0.627300  0.897700  0.249300  1.0  -0.6792
  O  O231  1  0.463200  0.278200  0.178600  1.0  -0.7234
  O  O232  1  0.572900  0.318600  0.206400  1.0  -0.6827
  O  O233  1  0.531700  0.858100  0.436900  1.0  -0.6824
  O  O234  1  0.587000  0.146300  0.115900  1.0  -0.7054
  O  O235  1  0.555700  0.721700  0.217700  1.0  -0.7171
  O  O236  1  0.480000  0.108300  0.091400  1.0  -0.7247
  O  O237  1  0.568200  0.891600  0.127800  1.0  -0.7269
  O  O238  1  0.609000  0.104200  0.354600  1.0  -0.7069
  O  O239  1  0.535800  0.644900  0.079500  1.0  -0.7532
  O  O240  1  0.519700  0.354600  0.076000  1.0  -0.7606
  O  O241  1  0.044200  0.592300  0.221800  1.0  -0.7621
  O  O242  1  0.124300  0.361100  0.382800  1.0  -0.6958
  O  O243  1  0.970200  0.413000  0.189700  1.0  -0.7636
  O  O244  1  0.951000  0.185300  0.152600  1.0  -0.7351
  O  O245  1  0.148700  0.641900  0.238700  1.0  -0.6963
  O  O246  1  0.127300  0.397700  0.249300  1.0  -0.6792
  O  O247  1  0.963200  0.778200  0.178600  1.0  -0.7234
  O  O248  1  0.072900  0.818600  0.206400  1.0  -0.6827
  O  O249  1  0.031700  0.358100  0.436900  1.0  -0.6824
  O  O250  1  0.087000  0.646300  0.115900  1.0  -0.7054
  O  O251  1  0.055700  0.221700  0.217700  1.0  -0.7171
  O  O252  1  0.980000  0.608300  0.091400  1.0  -0.7247
  O  O253  1  0.068200  0.391600  0.127800  1.0  -0.7269
  O  O254  1  0.109000  0.604200  0.354600  1.0  -0.7069
  O  O255  1  0.035800  0.144900  0.079500  1.0  -0.7532
  O  O256  1  0.019700  0.854600  0.076000  1.0  -0.7606
  O  O257  1  0.455800  0.092300  0.278200  1.0  -0.7606
  O  O258  1  0.375700  0.861100  0.117200  1.0  -0.6963
  O  O259  1  0.529800  0.913000  0.310300  1.0  -0.7648
  O  O260  1  0.549000  0.685300  0.347400  1.0  -0.7347
  O  O261  1  0.351300  0.141900  0.261300  1.0  -0.6927
  O  O262  1  0.372700  0.897700  0.250700  1.0  -0.6829
  O  O263  1  0.536800  0.278200  0.321400  1.0  -0.7224
  O  O264  1  0.427100  0.318600  0.293600  1.0  -0.6828
  O  O265  1  0.468300  0.858100  0.063100  1.0  -0.6812
  O  O266  1  0.413000  0.146300  0.384100  1.0  -0.7047
  O  O267  1  0.444300  0.721700  0.282300  1.0  -0.7172
  O  O268  1  0.520000  0.108300  0.408600  1.0  -0.7241
  O  O269  1  0.431800  0.891600  0.372200  1.0  -0.7258
  O  O270  1  0.391000  0.104200  0.145400  1.0  -0.7067
  O  O271  1  0.464200  0.644900  0.420500  1.0  -0.7524
  O  O272  1  0.480300  0.354600  0.424000  1.0  -0.7591
  O  O273  1  0.955800  0.592300  0.278200  1.0  -0.7606
  O  O274  1  0.875700  0.361100  0.117200  1.0  -0.6963
  O  O275  1  0.029800  0.413000  0.310300  1.0  -0.7648
  O  O276  1  0.049000  0.185300  0.347400  1.0  -0.7347
  O  O277  1  0.851300  0.641900  0.261300  1.0  -0.6927
  O  O278  1  0.872700  0.397700  0.250700  1.0  -0.6829
  O  O279  1  0.036800  0.778200  0.321400  1.0  -0.7224
  O  O280  1  0.927100  0.818600  0.293600  1.0  -0.6828
  O  O281  1  0.968300  0.358100  0.063100  1.0  -0.6812
  O  O282  1  0.913000  0.646300  0.384100  1.0  -0.7047
  O  O283  1  0.944300  0.221700  0.282300  1.0  -0.7172
  O  O284  1  0.020000  0.608300  0.408600  1.0  -0.7241
  O  O285  1  0.931800  0.391600  0.372200  1.0  -0.7258
  O  O286  1  0.891000  0.604200  0.145400  1.0  -0.7067
  O  O287  1  0.964200  0.144900  0.420500  1.0  -0.7524
  O  O288  1  0.980300  0.854600  0.424000  1.0  -0.7591
