# generated using pymatgen
data_KCo2Cu2SiH20W10C24(N4O17)2
_symmetry_space_group_name_H-M   'P 1'
_cell_length_a   24.58000000
_cell_length_b   10.44540000
_cell_length_c   22.47770000
_cell_angle_alpha   90.00000000
_cell_angle_beta   98.32200000
_cell_angle_gamma   90.00000000
_symmetry_Int_Tables_number   1
_chemical_formula_structural   KCo2Cu2SiH20W10C24(N4O17)2
_chemical_formula_sum   'K4 Co8 Cu8 Si4 H80 W40 C96 N32 O136'
_cell_volume   5710.33493479
_cell_formula_units_Z   4
loop_
 _symmetry_equiv_pos_site_id
 _symmetry_equiv_pos_as_xyz
  1  'x, y, z'
loop_
 _atom_site_type_symbol
 _atom_site_label
 _atom_site_symmetry_multiplicity
 _atom_site_fract_x
 _atom_site_fract_y
 _atom_site_fract_z
 _atom_site_occupancy
 _atom_site_charge
  K  K1  1  0.500000  0.176200  0.250000  1.0  0.9348
  K  K2  1  0.000000  0.676200  0.250000  1.0  0.9348
  K  K3  1  0.500000  0.823800  0.750000  1.0  0.9348
  K  K4  1  0.000000  0.323800  0.750000  1.0  0.9348
  Co  Co5  1  0.410400  0.440760  0.291760  1.0  1.0236
  Co  Co6  1  0.406070  0.911840  0.280330  1.0  0.981
  Co  Co7  1  0.910400  0.940760  0.291760  1.0  1.0236
  Co  Co8  1  0.906070  0.411840  0.280330  1.0  0.981
  Co  Co9  1  0.589600  0.559240  0.708240  1.0  1.0212
  Co  Co10  1  0.593930  0.088160  0.719670  1.0  0.9779
  Co  Co11  1  0.089600  0.059240  0.708240  1.0  1.0212
  Co  Co12  1  0.093930  0.588160  0.719670  1.0  0.9779
  Cu  Cu13  1  0.435550  0.171840  0.029870  1.0  0.8542
  Cu  Cu14  1  0.935550  0.671840  0.029870  1.0  0.8542
  Cu  Cu15  1  0.564450  0.171840  0.470130  1.0  0.8529
  Cu  Cu16  1  0.064450  0.671840  0.470130  1.0  0.8529
  Cu  Cu17  1  0.564450  0.828160  0.970130  1.0  0.8526
  Cu  Cu18  1  0.064450  0.328160  0.970130  1.0  0.8526
  Cu  Cu19  1  0.435550  0.828160  0.529870  1.0  0.854
  Cu  Cu20  1  0.935550  0.328160  0.529870  1.0  0.854
  Si  Si21  1  0.500000  0.679100  0.250000  1.0  1.3717
  Si  Si22  1  0.000000  0.179100  0.250000  1.0  1.3717
  Si  Si23  1  0.500000  0.320900  0.750000  1.0  1.3714
  Si  Si24  1  0.000000  0.820900  0.750000  1.0  1.3714
  H  H25  1  0.336200  0.022300  0.070300  1.0  0.1272
  H  H26  1  0.246700  0.133300  0.916200  1.0  0.1275
  H  H27  1  0.338700  0.231500  0.921800  1.0  0.1202
  H  H28  1  0.171300  0.081600  0.964500  1.0  0.1191
  H  H29  1  0.275500  0.852500  0.069800  1.0  0.102
  H  H30  1  0.033400  0.860800  0.022600  1.0  0.1181
  H  H31  1  0.134400  0.573200  0.073600  1.0  0.1158
  H  H32  1  0.040000  0.494700  0.068600  1.0  0.1157
  H  H33  1  0.099800  0.954400  0.984200  1.0  0.1047
  H  H34  1  0.204500  0.728900  0.089500  1.0  0.1321
  H  H35  1  0.836200  0.522300  0.070300  1.0  0.1272
  H  H36  1  0.746700  0.633300  0.916200  1.0  0.1275
  H  H37  1  0.838700  0.731500  0.921800  1.0  0.1202
  H  H38  1  0.671300  0.581600  0.964500  1.0  0.1191
  H  H39  1  0.775500  0.352500  0.069800  1.0  0.102
  H  H40  1  0.533400  0.360800  0.022600  1.0  0.1181
  H  H41  1  0.634400  0.073200  0.073600  1.0  0.1158
  H  H42  1  0.540000  0.994700  0.068600  1.0  0.1157
  H  H43  1  0.599800  0.454400  0.984200  1.0  0.1047
  H  H44  1  0.704500  0.228900  0.089500  1.0  0.1321
  H  H45  1  0.663800  0.022300  0.429700  1.0  0.1282
  H  H46  1  0.753300  0.133300  0.583800  1.0  0.1266
  H  H47  1  0.661300  0.231500  0.578200  1.0  0.1199
  H  H48  1  0.828700  0.081600  0.535500  1.0  0.1185
  H  H49  1  0.724500  0.852500  0.430200  1.0  0.1021
  H  H50  1  0.966600  0.860800  0.477400  1.0  0.1179
  H  H51  1  0.865600  0.573200  0.426400  1.0  0.1155
  H  H52  1  0.960000  0.494700  0.431400  1.0  0.1149
  H  H53  1  0.900200  0.954400  0.515800  1.0  0.1047
  H  H54  1  0.795500  0.728900  0.410500  1.0  0.1317
  H  H55  1  0.163800  0.522300  0.429700  1.0  0.1282
  H  H56  1  0.253300  0.633300  0.583800  1.0  0.1266
  H  H57  1  0.161300  0.731500  0.578200  1.0  0.1199
  H  H58  1  0.328700  0.581600  0.535500  1.0  0.1185
  H  H59  1  0.224500  0.352500  0.430200  1.0  0.1021
  H  H60  1  0.466600  0.360800  0.477400  1.0  0.1179
  H  H61  1  0.365600  0.073200  0.426400  1.0  0.1155
  H  H62  1  0.460000  0.994700  0.431400  1.0  0.1149
  H  H63  1  0.400200  0.454400  0.515800  1.0  0.1047
  H  H64  1  0.295500  0.228900  0.410500  1.0  0.1317
  H  H65  1  0.663800  0.977700  0.929700  1.0  0.1279
  H  H66  1  0.753300  0.866700  0.083800  1.0  0.1269
  H  H67  1  0.661300  0.768500  0.078200  1.0  0.12
  H  H68  1  0.828700  0.918400  0.035500  1.0  0.1189
  H  H69  1  0.724500  0.147500  0.930200  1.0  0.1021
  H  H70  1  0.966600  0.139200  0.977400  1.0  0.1177
  H  H71  1  0.865600  0.426800  0.926400  1.0  0.1152
  H  H72  1  0.960000  0.505300  0.931400  1.0  0.1153
  H  H73  1  0.900200  0.045600  0.015800  1.0  0.1051
  H  H74  1  0.795500  0.271100  0.910500  1.0  0.1321
  H  H75  1  0.163800  0.477700  0.929700  1.0  0.1279
  H  H76  1  0.253300  0.366700  0.083800  1.0  0.1269
  H  H77  1  0.161300  0.268500  0.078200  1.0  0.12
  H  H78  1  0.328700  0.418400  0.035500  1.0  0.1189
  H  H79  1  0.224500  0.647500  0.930200  1.0  0.1021
  H  H80  1  0.466600  0.639200  0.977400  1.0  0.1177
  H  H81  1  0.365600  0.926800  0.926400  1.0  0.1152
  H  H82  1  0.460000  0.005300  0.931400  1.0  0.1153
  H  H83  1  0.400200  0.545600  0.015800  1.0  0.1051
  H  H84  1  0.295500  0.771100  0.910500  1.0  0.1321
  H  H85  1  0.336200  0.977700  0.570300  1.0  0.1269
  H  H86  1  0.246700  0.866700  0.416200  1.0  0.1275
  H  H87  1  0.338700  0.768500  0.421800  1.0  0.1206
  H  H88  1  0.171300  0.918400  0.464500  1.0  0.1188
  H  H89  1  0.275500  0.147500  0.569800  1.0  0.1018
  H  H90  1  0.033400  0.139200  0.522600  1.0  0.1177
  H  H91  1  0.134400  0.426800  0.573600  1.0  0.1154
  H  H92  1  0.040000  0.505300  0.568600  1.0  0.1157
  H  H93  1  0.099800  0.045600  0.484200  1.0  0.1047
  H  H94  1  0.204500  0.271100  0.589500  1.0  0.1319
  H  H95  1  0.836200  0.477700  0.570300  1.0  0.1269
  H  H96  1  0.746700  0.366700  0.416200  1.0  0.1275
  H  H97  1  0.838700  0.268500  0.421800  1.0  0.1206
  H  H98  1  0.671300  0.418400  0.464500  1.0  0.1188
  H  H99  1  0.775500  0.647500  0.569800  1.0  0.1018
  H  H100  1  0.533400  0.639200  0.522600  1.0  0.1177
  H  H101  1  0.634400  0.926800  0.573600  1.0  0.1154
  H  H102  1  0.540000  0.005300  0.568600  1.0  0.1157
  H  H103  1  0.599800  0.545600  0.484200  1.0  0.1047
  H  H104  1  0.704500  0.771100  0.589500  1.0  0.1319
  W  W105  1  0.361120  0.686900  0.178950  1.0  1.2786
  W  W106  1  0.544800  0.664860  0.108210  1.0  1.9996
  W  W107  1  0.458180  0.437560  0.143100  1.0  2.2366
  W  W108  1  0.448530  0.914310  0.146270  1.0  2.0669
  W  W109  1  0.589600  0.440760  0.208240  1.0  1.2837
  W  W110  1  0.593930  0.911840  0.219670  1.0  1.2896
  W  W111  1  0.861120  0.186900  0.178950  1.0  1.2786
  W  W112  1  0.044800  0.164860  0.108210  1.0  1.9996
  W  W113  1  0.958180  0.937560  0.143100  1.0  2.2366
  W  W114  1  0.948530  0.414310  0.146270  1.0  2.0669
  W  W115  1  0.089600  0.940760  0.208240  1.0  1.2837
  W  W116  1  0.093930  0.411840  0.219670  1.0  1.2896
  W  W117  1  0.638880  0.686900  0.321050  1.0  1.2782
  W  W118  1  0.455200  0.664860  0.391790  1.0  2.0017
  W  W119  1  0.541820  0.437560  0.356900  1.0  2.2363
  W  W120  1  0.551470  0.914310  0.353730  1.0  2.0662
  W  W121  1  0.138880  0.186900  0.321050  1.0  1.2782
  W  W122  1  0.955200  0.164860  0.391790  1.0  2.0017
  W  W123  1  0.041820  0.937560  0.356900  1.0  2.2363
  W  W124  1  0.051470  0.414310  0.353730  1.0  2.0662
  W  W125  1  0.638880  0.313100  0.821050  1.0  1.2784
  W  W126  1  0.455200  0.335140  0.891790  1.0  2.0011
  W  W127  1  0.541820  0.562440  0.856900  1.0  2.2357
  W  W128  1  0.551470  0.085690  0.853730  1.0  2.0656
  W  W129  1  0.410400  0.559240  0.791760  1.0  1.2858
  W  W130  1  0.406070  0.088160  0.780330  1.0  1.2856
  W  W131  1  0.138880  0.813100  0.821050  1.0  1.2784
  W  W132  1  0.955200  0.835140  0.891790  1.0  2.0011
  W  W133  1  0.041820  0.062440  0.856900  1.0  2.2357
  W  W134  1  0.051470  0.585690  0.853730  1.0  2.0656
  W  W135  1  0.910400  0.059240  0.791760  1.0  1.2858
  W  W136  1  0.906070  0.588160  0.780330  1.0  1.2856
  W  W137  1  0.361120  0.313100  0.678950  1.0  1.2784
  W  W138  1  0.544800  0.335140  0.608210  1.0  1.9992
  W  W139  1  0.458180  0.562440  0.643100  1.0  2.2366
  W  W140  1  0.448530  0.085690  0.646270  1.0  2.066
  W  W141  1  0.861120  0.813100  0.678950  1.0  1.2784
  W  W142  1  0.044800  0.835140  0.608210  1.0  1.9992
  W  W143  1  0.958180  0.062440  0.643100  1.0  2.2366
  W  W144  1  0.948530  0.585690  0.646270  1.0  2.066
  C  C145  1  0.325500  0.061500  0.033300  1.0  0.1581
  C  C146  1  0.275600  0.123400  0.947400  1.0  -0.0698
  C  C147  1  0.326900  0.178100  0.950500  1.0  -0.0267
  C  C148  1  0.231100  0.977100  0.013600  1.0  0.1687
  C  C149  1  0.177900  0.009800  0.988900  1.0  -0.2087
  C  C150  1  0.239900  0.872200  0.052100  1.0  -0.1156
  C  C151  1  0.046700  0.780100  0.034600  1.0  0.1173
  C  C152  1  0.102500  0.621000  0.062800  1.0  -0.0907
  C  C153  1  0.050400  0.577600  0.060000  1.0  -0.015
  C  C154  1  0.144700  0.828100  0.038200  1.0  0.1354
  C  C155  1  0.135500  0.934200  0.001100  1.0  -0.1308
  C  C156  1  0.197900  0.799000  0.064000  1.0  -0.1669
  C  C157  1  0.825500  0.561500  0.033300  1.0  0.1581
  C  C158  1  0.775600  0.623400  0.947400  1.0  -0.0698
  C  C159  1  0.826900  0.678100  0.950500  1.0  -0.0267
  C  C160  1  0.731100  0.477100  0.013600  1.0  0.1687
  C  C161  1  0.677900  0.509800  0.988900  1.0  -0.2087
  C  C162  1  0.739900  0.372200  0.052100  1.0  -0.1156
  C  C163  1  0.546700  0.280100  0.034600  1.0  0.1173
  C  C164  1  0.602500  0.121000  0.062800  1.0  -0.0907
  C  C165  1  0.550400  0.077600  0.060000  1.0  -0.015
  C  C166  1  0.644700  0.328100  0.038200  1.0  0.1354
  C  C167  1  0.635500  0.434200  0.001100  1.0  -0.1308
  C  C168  1  0.697900  0.299000  0.064000  1.0  -0.1669
  C  C169  1  0.674500  0.061500  0.466700  1.0  0.1586
  C  C170  1  0.724400  0.123400  0.552600  1.0  -0.0699
  C  C171  1  0.673100  0.178100  0.549500  1.0  -0.0273
  C  C172  1  0.768900  0.977100  0.486400  1.0  0.1679
  C  C173  1  0.822100  0.009800  0.511100  1.0  -0.2091
  C  C174  1  0.760100  0.872200  0.447900  1.0  -0.115
  C  C175  1  0.953300  0.780100  0.465400  1.0  0.1164
  C  C176  1  0.897500  0.621000  0.437200  1.0  -0.0955
  C  C177  1  0.949600  0.577600  0.440000  1.0  -0.0145
  C  C178  1  0.855300  0.828100  0.461800  1.0  0.1345
  C  C179  1  0.864500  0.934200  0.498900  1.0  -0.1332
  C  C180  1  0.802100  0.799000  0.436000  1.0  -0.1633
  C  C181  1  0.174500  0.561500  0.466700  1.0  0.1586
  C  C182  1  0.224400  0.623400  0.552600  1.0  -0.0699
  C  C183  1  0.173100  0.678100  0.549500  1.0  -0.0273
  C  C184  1  0.268900  0.477100  0.486400  1.0  0.1679
  C  C185  1  0.322100  0.509800  0.511100  1.0  -0.2091
  C  C186  1  0.260100  0.372200  0.447900  1.0  -0.115
  C  C187  1  0.453300  0.280100  0.465400  1.0  0.1164
  C  C188  1  0.397500  0.121000  0.437200  1.0  -0.0955
  C  C189  1  0.449600  0.077600  0.440000  1.0  -0.0145
  C  C190  1  0.355300  0.328100  0.461800  1.0  0.1345
  C  C191  1  0.364500  0.434200  0.498900  1.0  -0.1332
  C  C192  1  0.302100  0.299000  0.436000  1.0  -0.1633
  C  C193  1  0.674500  0.938500  0.966700  1.0  0.1582
  C  C194  1  0.724400  0.876600  0.052600  1.0  -0.0697
  C  C195  1  0.673100  0.821900  0.049500  1.0  -0.0272
  C  C196  1  0.768900  0.022900  0.986400  1.0  0.1682
  C  C197  1  0.822100  0.990200  0.011100  1.0  -0.2088
  C  C198  1  0.760100  0.127800  0.947900  1.0  -0.1154
  C  C199  1  0.953300  0.219900  0.965400  1.0  0.1165
  C  C200  1  0.897500  0.379000  0.937200  1.0  -0.0951
  C  C201  1  0.949600  0.422400  0.940000  1.0  -0.0141
  C  C202  1  0.855300  0.171900  0.961800  1.0  0.1345
  C  C203  1  0.864500  0.065800  0.998900  1.0  -0.1332
  C  C204  1  0.802100  0.201000  0.936000  1.0  -0.1633
  C  C205  1  0.174500  0.438500  0.966700  1.0  0.1582
  C  C206  1  0.224400  0.376600  0.052600  1.0  -0.0697
  C  C207  1  0.173100  0.321900  0.049500  1.0  -0.0272
  C  C208  1  0.268900  0.522900  0.986400  1.0  0.1682
  C  C209  1  0.322100  0.490200  0.011100  1.0  -0.2088
  C  C210  1  0.260100  0.627800  0.947900  1.0  -0.1154
  C  C211  1  0.453300  0.719900  0.965400  1.0  0.1165
  C  C212  1  0.397500  0.879000  0.937200  1.0  -0.0951
  C  C213  1  0.449600  0.922400  0.940000  1.0  -0.0141
  C  C214  1  0.355300  0.671900  0.961800  1.0  0.1345
  C  C215  1  0.364500  0.565800  0.998900  1.0  -0.1332
  C  C216  1  0.302100  0.701000  0.936000  1.0  -0.1633
  C  C217  1  0.325500  0.938500  0.533300  1.0  0.1579
  C  C218  1  0.275600  0.876600  0.447400  1.0  -0.0698
  C  C219  1  0.326900  0.821900  0.450500  1.0  -0.0273
  C  C220  1  0.231100  0.022900  0.513600  1.0  0.1689
  C  C221  1  0.177900  0.990200  0.488900  1.0  -0.209
  C  C222  1  0.239900  0.127800  0.552100  1.0  -0.116
  C  C223  1  0.046700  0.219900  0.534600  1.0  0.1175
  C  C224  1  0.102500  0.379000  0.562800  1.0  -0.0898
  C  C225  1  0.050400  0.422400  0.560000  1.0  -0.0143
  C  C226  1  0.144700  0.171900  0.538200  1.0  0.1353
  C  C227  1  0.135500  0.065800  0.501100  1.0  -0.1309
  C  C228  1  0.197900  0.201000  0.564000  1.0  -0.1673
  C  C229  1  0.825500  0.438500  0.533300  1.0  0.1579
  C  C230  1  0.775600  0.376600  0.447400  1.0  -0.0698
  C  C231  1  0.826900  0.321900  0.450500  1.0  -0.0273
  C  C232  1  0.731100  0.522900  0.513600  1.0  0.1689
  C  C233  1  0.677900  0.490200  0.488900  1.0  -0.209
  C  C234  1  0.739900  0.627800  0.552100  1.0  -0.116
  C  C235  1  0.546700  0.719900  0.534600  1.0  0.1175
  C  C236  1  0.602500  0.879000  0.562800  1.0  -0.0898
  C  C237  1  0.550400  0.922400  0.560000  1.0  -0.0143
  C  C238  1  0.644700  0.671900  0.538200  1.0  0.1353
  C  C239  1  0.635500  0.565800  0.501100  1.0  -0.1309
  C  C240  1  0.697900  0.701000  0.564000  1.0  -0.1673
  N  N241  1  0.357800  0.139800  0.003600  1.0  -0.3267
  N  N242  1  0.274800  0.051300  0.998500  1.0  0.0414
  N  N243  1  0.015900  0.675900  0.042600  1.0  -0.3263
  N  N244  1  0.100300  0.746100  0.047000  1.0  0.0624
  N  N245  1  0.857800  0.639800  0.003600  1.0  -0.3267
  N  N246  1  0.774800  0.551300  0.998500  1.0  0.0414
  N  N247  1  0.515900  0.175900  0.042600  1.0  -0.3263
  N  N248  1  0.600300  0.246100  0.047000  1.0  0.0624
  N  N249  1  0.642200  0.139800  0.496400  1.0  -0.3276
  N  N250  1  0.725200  0.051300  0.501500  1.0  0.0405
  N  N251  1  0.984100  0.675900  0.457400  1.0  -0.3248
  N  N252  1  0.899700  0.746100  0.453000  1.0  0.0622
  N  N253  1  0.142200  0.639800  0.496400  1.0  -0.3276
  N  N254  1  0.225200  0.551300  0.501500  1.0  0.0405
  N  N255  1  0.484100  0.175900  0.457400  1.0  -0.3248
  N  N256  1  0.399700  0.246100  0.453000  1.0  0.0622
  N  N257  1  0.642200  0.860200  0.996400  1.0  -0.3276
  N  N258  1  0.725200  0.948700  0.001500  1.0  0.0403
  N  N259  1  0.984100  0.324100  0.957400  1.0  -0.3247
  N  N260  1  0.899700  0.253900  0.953000  1.0  0.0619
  N  N261  1  0.142200  0.360200  0.996400  1.0  -0.3276
  N  N262  1  0.225200  0.448700  0.001500  1.0  0.0403
  N  N263  1  0.484100  0.824100  0.957400  1.0  -0.3247
  N  N264  1  0.399700  0.753900  0.953000  1.0  0.0619
  N  N265  1  0.357800  0.860200  0.503600  1.0  -0.3262
  N  N266  1  0.274800  0.948700  0.498500  1.0  0.0414
  N  N267  1  0.015900  0.324100  0.542600  1.0  -0.3261
  N  N268  1  0.100300  0.253900  0.547000  1.0  0.0623
  N  N269  1  0.857800  0.360200  0.503600  1.0  -0.3262
  N  N270  1  0.774800  0.448700  0.498500  1.0  0.0414
  N  N271  1  0.515900  0.824100  0.542600  1.0  -0.3261
  N  N272  1  0.600300  0.753900  0.547000  1.0  0.0623
  O  O273  1  0.381700  0.820600  0.126200  1.0  -0.6778
  O  O274  1  0.346800  0.818400  0.233800  1.0  -0.6455
  O  O275  1  0.587600  0.782400  0.157400  1.0  -0.6821
  O  O276  1  0.416400  0.003900  0.206800  1.0  -0.7852
  O  O277  1  0.369900  0.570400  0.245300  1.0  -0.6652
  O  O278  1  0.595500  0.533900  0.135500  1.0  -0.6836
  O  O279  1  0.473400  0.351200  0.335100  1.0  -0.7381
  O  O280  1  0.484600  0.782600  0.108400  1.0  -0.8068
  O  O281  1  0.518000  0.589300  0.196100  1.0  -0.7545
  O  O282  1  0.437700  0.391200  0.218200  1.0  -0.7484
  O  O283  1  0.492100  0.532200  0.083400  1.0  -0.6468
  O  O284  1  0.518600  0.961300  0.185400  1.0  -0.7593
  O  O285  1  0.448100  0.769000  0.222400  1.0  -0.7667
  O  O286  1  0.405000  0.570900  0.140300  1.0  -0.7274
  O  O287  1  0.438300  0.028000  0.089300  1.0  -0.7207
  O  O288  1  0.563200  0.704100  0.039000  1.0  -0.7259
  O  O289  1  0.422600  0.326100  0.096500  1.0  -0.7291
  O  O290  1  0.881700  0.320600  0.126200  1.0  -0.6778
  O  O291  1  0.846800  0.318400  0.233800  1.0  -0.6455
  O  O292  1  0.087600  0.282400  0.157400  1.0  -0.6821
  O  O293  1  0.916400  0.503900  0.206800  1.0  -0.7852
  O  O294  1  0.869900  0.070400  0.245300  1.0  -0.6652
  O  O295  1  0.095500  0.033900  0.135500  1.0  -0.6836
  O  O296  1  0.973400  0.851200  0.335100  1.0  -0.7381
  O  O297  1  0.984600  0.282600  0.108400  1.0  -0.8068
  O  O298  1  0.018000  0.089300  0.196100  1.0  -0.7545
  O  O299  1  0.937700  0.891200  0.218200  1.0  -0.7484
  O  O300  1  0.992100  0.032200  0.083400  1.0  -0.6468
  O  O301  1  0.018600  0.461300  0.185400  1.0  -0.7593
  O  O302  1  0.948100  0.269000  0.222400  1.0  -0.7667
  O  O303  1  0.905000  0.070900  0.140300  1.0  -0.7274
  O  O304  1  0.938300  0.528000  0.089300  1.0  -0.7207
  O  O305  1  0.063200  0.204100  0.039000  1.0  -0.7259
  O  O306  1  0.922600  0.826100  0.096500  1.0  -0.7291
  O  O307  1  0.618300  0.820600  0.373800  1.0  -0.6763
  O  O308  1  0.653200  0.818400  0.266200  1.0  -0.6573
  O  O309  1  0.412400  0.782400  0.342600  1.0  -0.6828
  O  O310  1  0.583600  0.003900  0.293200  1.0  -0.7842
  O  O311  1  0.630100  0.570400  0.254700  1.0  -0.6634
  O  O312  1  0.404500  0.533900  0.364500  1.0  -0.6656
  O  O313  1  0.526600  0.351200  0.164900  1.0  -0.7465
  O  O314  1  0.515400  0.782600  0.391600  1.0  -0.807
  O  O315  1  0.482000  0.589300  0.303900  1.0  -0.7673
  O  O316  1  0.562300  0.391200  0.281800  1.0  -0.7481
  O  O317  1  0.507900  0.532200  0.416600  1.0  -0.6462
  O  O318  1  0.481400  0.961300  0.314600  1.0  -0.7529
  O  O319  1  0.551900  0.769000  0.277600  1.0  -0.7553
  O  O320  1  0.595000  0.570900  0.359700  1.0  -0.7269
  O  O321  1  0.561700  0.028000  0.410700  1.0  -0.7186
  O  O322  1  0.436800  0.704100  0.461000  1.0  -0.7255
  O  O323  1  0.577400  0.326100  0.403500  1.0  -0.7269
  O  O324  1  0.118300  0.320600  0.373800  1.0  -0.6763
  O  O325  1  0.153200  0.318400  0.266200  1.0  -0.6573
  O  O326  1  0.912400  0.282400  0.342600  1.0  -0.6828
  O  O327  1  0.083600  0.503900  0.293200  1.0  -0.7842
  O  O328  1  0.130100  0.070400  0.254700  1.0  -0.6634
  O  O329  1  0.904500  0.033900  0.364500  1.0  -0.6656
  O  O330  1  0.026600  0.851200  0.164900  1.0  -0.7465
  O  O331  1  0.015400  0.282600  0.391600  1.0  -0.807
  O  O332  1  0.982000  0.089300  0.303900  1.0  -0.7673
  O  O333  1  0.062300  0.891200  0.281800  1.0  -0.7481
  O  O334  1  0.007900  0.032200  0.416600  1.0  -0.6462
  O  O335  1  0.981400  0.461300  0.314600  1.0  -0.7529
  O  O336  1  0.051900  0.269000  0.277600  1.0  -0.7553
  O  O337  1  0.095000  0.070900  0.359700  1.0  -0.7269
  O  O338  1  0.061700  0.528000  0.410700  1.0  -0.7186
  O  O339  1  0.936800  0.204100  0.461000  1.0  -0.7255
  O  O340  1  0.077400  0.826100  0.403500  1.0  -0.7269
  O  O341  1  0.618300  0.179400  0.873800  1.0  -0.6757
  O  O342  1  0.653200  0.181600  0.766200  1.0  -0.6486
  O  O343  1  0.412400  0.217600  0.842600  1.0  -0.685
  O  O344  1  0.583600  0.996100  0.793200  1.0  -0.7856
  O  O345  1  0.630100  0.429600  0.754700  1.0  -0.6631
  O  O346  1  0.404500  0.466100  0.864500  1.0  -0.6826
  O  O347  1  0.526600  0.648800  0.664900  1.0  -0.7388
  O  O348  1  0.515400  0.217400  0.891600  1.0  -0.8073
  O  O349  1  0.482000  0.410700  0.803900  1.0  -0.7549
  O  O350  1  0.562300  0.608800  0.781800  1.0  -0.7511
  O  O351  1  0.507900  0.467800  0.916600  1.0  -0.6458
  O  O352  1  0.481400  0.038700  0.814600  1.0  -0.7581
  O  O353  1  0.551900  0.231000  0.777600  1.0  -0.7659
  O  O354  1  0.595000  0.429100  0.859700  1.0  -0.727
  O  O355  1  0.561700  0.972000  0.910700  1.0  -0.7189
  O  O356  1  0.436800  0.295900  0.961000  1.0  -0.7254
  O  O357  1  0.577400  0.673900  0.903500  1.0  -0.7273
  O  O358  1  0.118300  0.679400  0.873800  1.0  -0.6757
  O  O359  1  0.153200  0.681600  0.766200  1.0  -0.6486
  O  O360  1  0.912400  0.717600  0.842600  1.0  -0.685
  O  O361  1  0.083600  0.496100  0.793200  1.0  -0.7856
  O  O362  1  0.130100  0.929600  0.754700  1.0  -0.6631
  O  O363  1  0.904500  0.966100  0.864500  1.0  -0.6826
  O  O364  1  0.026600  0.148800  0.664900  1.0  -0.7388
  O  O365  1  0.015400  0.717400  0.891600  1.0  -0.8073
  O  O366  1  0.982000  0.910700  0.803900  1.0  -0.7549
  O  O367  1  0.062300  0.108800  0.781800  1.0  -0.7511
  O  O368  1  0.007900  0.967800  0.916600  1.0  -0.6458
  O  O369  1  0.981400  0.538700  0.814600  1.0  -0.7581
  O  O370  1  0.051900  0.731000  0.777600  1.0  -0.7659
  O  O371  1  0.095000  0.929100  0.859700  1.0  -0.727
  O  O372  1  0.061700  0.472000  0.910700  1.0  -0.7189
  O  O373  1  0.936800  0.795900  0.961000  1.0  -0.7254
  O  O374  1  0.077400  0.173900  0.903500  1.0  -0.7273
  O  O375  1  0.381700  0.179400  0.626200  1.0  -0.6771
  O  O376  1  0.346800  0.181600  0.733800  1.0  -0.6572
  O  O377  1  0.587600  0.217600  0.657400  1.0  -0.6803
  O  O378  1  0.416400  0.996100  0.706800  1.0  -0.7852
  O  O379  1  0.369900  0.429600  0.745300  1.0  -0.6667
  O  O380  1  0.595500  0.466100  0.635500  1.0  -0.6669
  O  O381  1  0.473400  0.648800  0.835100  1.0  -0.745
  O  O382  1  0.484600  0.217400  0.608400  1.0  -0.807
  O  O383  1  0.518000  0.410700  0.696100  1.0  -0.7674
  O  O384  1  0.437700  0.608800  0.718200  1.0  -0.7532
  O  O385  1  0.492100  0.467800  0.583400  1.0  -0.6463
  O  O386  1  0.518600  0.038700  0.685400  1.0  -0.7514
  O  O387  1  0.448100  0.231000  0.722400  1.0  -0.7558
  O  O388  1  0.405000  0.429100  0.640300  1.0  -0.7273
  O  O389  1  0.438300  0.972000  0.589300  1.0  -0.7216
  O  O390  1  0.563200  0.295900  0.539000  1.0  -0.7258
  O  O391  1  0.422600  0.673900  0.596500  1.0  -0.7286
  O  O392  1  0.881700  0.679400  0.626200  1.0  -0.6771
  O  O393  1  0.846800  0.681600  0.733800  1.0  -0.6572
  O  O394  1  0.087600  0.717600  0.657400  1.0  -0.6803
  O  O395  1  0.916400  0.496100  0.706800  1.0  -0.7852
  O  O396  1  0.869900  0.929600  0.745300  1.0  -0.6667
  O  O397  1  0.095500  0.966100  0.635500  1.0  -0.6669
  O  O398  1  0.973400  0.148800  0.835100  1.0  -0.745
  O  O399  1  0.984600  0.717400  0.608400  1.0  -0.807
  O  O400  1  0.018000  0.910700  0.696100  1.0  -0.7674
  O  O401  1  0.937700  0.108800  0.718200  1.0  -0.7532
  O  O402  1  0.992100  0.967800  0.583400  1.0  -0.6463
  O  O403  1  0.018600  0.538700  0.685400  1.0  -0.7514
  O  O404  1  0.948100  0.731000  0.722400  1.0  -0.7558
  O  O405  1  0.905000  0.929100  0.640300  1.0  -0.7273
  O  O406  1  0.938300  0.472000  0.589300  1.0  -0.7216
  O  O407  1  0.063200  0.795900  0.539000  1.0  -0.7258
  O  O408  1  0.922600  0.173900  0.596500  1.0  -0.7286
