# generated using pymatgen
data_ZnH6(CO)8
_symmetry_space_group_name_H-M   'P 1'
_cell_length_a   8.94000000
_cell_length_b   12.48000000
_cell_length_c   14.02000000
_cell_angle_alpha   90.00000000
_cell_angle_beta   90.00000000
_cell_angle_gamma   91.73000000
_symmetry_Int_Tables_number   1
_chemical_formula_structural   ZnH6(CO)8
_chemical_formula_sum   'Zn4 H24 C32 O32'
_cell_volume   1563.51523297
_cell_formula_units_Z   4
loop_
 _symmetry_equiv_pos_site_id
 _symmetry_equiv_pos_as_xyz
  1  'x, y, z'
loop_
 _atom_site_type_symbol
 _atom_site_label
 _atom_site_symmetry_multiplicity
 _atom_site_fract_x
 _atom_site_fract_y
 _atom_site_fract_z
 _atom_site_occupancy
 _atom_site_charge
  Zn  Zn1  1  0.750000  0.250000  0.326330  1.0  1.0016
  Zn  Zn2  1  0.750000  0.250000  0.838740  1.0  1.0238
  Zn  Zn3  1  0.250000  0.750000  0.673670  1.0  1.0016
  Zn  Zn4  1  0.250000  0.750000  0.161260  1.0  1.0239
  H  H5  1  0.441000  0.464600  0.152500  1.0  0.1603
  H  H6  1  0.451100  0.355700  0.093900  1.0  0.1614
  H  H7  1  0.622200  0.546800  0.055600  1.0  0.1199
  H  H8  1  0.025800  0.497600  0.662200  1.0  0.1471
  H  H9  1  0.064800  0.380700  0.624700  1.0  0.1529
  H  H10  1  0.849100  0.508700  0.532600  1.0  0.127
  H  H11  1  0.059000  0.035400  0.152500  1.0  0.1597
  H  H12  1  0.048900  0.144300  0.093900  1.0  0.1607
  H  H13  1  0.877800  0.953200  0.055600  1.0  0.1205
  H  H14  1  0.474200  0.002400  0.662200  1.0  0.1481
  H  H15  1  0.435200  0.119300  0.624700  1.0  0.1549
  H  H16  1  0.650900  0.991300  0.532600  1.0  0.1252
  H  H17  1  0.559000  0.535400  0.847500  1.0  0.1596
  H  H18  1  0.548900  0.644300  0.906100  1.0  0.1603
  H  H19  1  0.377800  0.453200  0.944400  1.0  0.12
  H  H20  1  0.974200  0.502400  0.337800  1.0  0.144
  H  H21  1  0.935200  0.619300  0.375300  1.0  0.155
  H  H22  1  0.150900  0.491300  0.467400  1.0  0.1245
  H  H23  1  0.941000  0.964600  0.847500  1.0  0.1605
  H  H24  1  0.951100  0.855700  0.906100  1.0  0.1607
  H  H25  1  0.122200  0.046800  0.944400  1.0  0.1201
  H  H26  1  0.525800  0.997600  0.337800  1.0  0.1444
  H  H27  1  0.564800  0.880700  0.375300  1.0  0.1525
  H  H28  1  0.349100  0.008700  0.467400  1.0  0.1261
  C  C29  1  0.624300  0.378300  0.188300  1.0  0.6642
  C  C30  1  0.510500  0.418500  0.117500  1.0  -0.3272
  C  C31  1  0.568200  0.481000  0.031300  1.0  -0.0917
  C  C32  1  0.681200  0.416800  0.973300  1.0  0.6063
  C  C33  1  0.853900  0.384900  0.687200  1.0  0.6597
  C  C34  1  0.984600  0.433600  0.628400  1.0  -0.3217
  C  C35  1  0.941600  0.465800  0.527700  1.0  -0.108
  C  C36  1  0.904200  0.370500  0.467200  1.0  0.6263
  C  C37  1  0.875700  0.121700  0.188300  1.0  0.664
  C  C38  1  0.989500  0.081500  0.117500  1.0  -0.3292
  C  C39  1  0.931800  0.019000  0.031300  1.0  -0.0931
  C  C40  1  0.818800  0.083200  0.973300  1.0  0.6084
  C  C41  1  0.646100  0.115100  0.687200  1.0  0.66
  C  C42  1  0.515400  0.066400  0.628400  1.0  -0.3224
  C  C43  1  0.558400  0.034200  0.527700  1.0  -0.1077
  C  C44  1  0.595800  0.129500  0.467200  1.0  0.6245
  C  C45  1  0.375700  0.621700  0.811700  1.0  0.6653
  C  C46  1  0.489500  0.581500  0.882500  1.0  -0.3283
  C  C47  1  0.431800  0.519000  0.968700  1.0  -0.0934
  C  C48  1  0.318800  0.583200  0.026700  1.0  0.6083
  C  C49  1  0.146100  0.615100  0.312800  1.0  0.6595
  C  C50  1  0.015400  0.566400  0.371600  1.0  -0.3204
  C  C51  1  0.058400  0.534200  0.472300  1.0  -0.1073
  C  C52  1  0.095800  0.629500  0.532800  1.0  0.6241
  C  C53  1  0.124300  0.878300  0.811700  1.0  0.6651
  C  C54  1  0.010500  0.918500  0.882500  1.0  -0.3268
  C  C55  1  0.068200  0.981000  0.968700  1.0  -0.0918
  C  C56  1  0.181200  0.916800  0.026700  1.0  0.6074
  C  C57  1  0.353900  0.884900  0.312800  1.0  0.6606
  C  C58  1  0.484600  0.933600  0.371600  1.0  -0.3212
  C  C59  1  0.441600  0.965800  0.472300  1.0  -0.1081
  C  C60  1  0.404200  0.870500  0.532800  1.0  0.6261
  O  O61  1  0.584800  0.303100  0.245400  1.0  -0.5246
  O  O62  1  0.814200  0.439400  0.973700  1.0  -0.3433
  O  O63  1  0.622700  0.336600  0.922300  1.0  -0.542
  O  O64  1  0.899600  0.335300  0.769200  1.0  -0.5192
  O  O65  1  0.726600  0.393200  0.668300  1.0  -0.3867
  O  O66  1  0.784500  0.372000  0.414600  1.0  -0.512
  O  O67  1  0.988800  0.293400  0.462500  1.0  -0.3823
  O  O68  1  0.755000  0.425200  0.193400  1.0  -0.3846
  O  O69  1  0.915200  0.196900  0.245400  1.0  -0.5246
  O  O70  1  0.685800  0.060600  0.973700  1.0  -0.338
  O  O71  1  0.877300  0.163400  0.922300  1.0  -0.5423
  O  O72  1  0.600400  0.164700  0.769200  1.0  -0.5203
  O  O73  1  0.773400  0.106800  0.668300  1.0  -0.3911
  O  O74  1  0.715500  0.128000  0.414600  1.0  -0.5102
  O  O75  1  0.511200  0.206600  0.462500  1.0  -0.3719
  O  O76  1  0.745000  0.074800  0.193400  1.0  -0.3818
  O  O77  1  0.415200  0.696900  0.754600  1.0  -0.526
  O  O78  1  0.185800  0.560600  0.026300  1.0  -0.3382
  O  O79  1  0.377300  0.663400  0.077700  1.0  -0.5412
  O  O80  1  0.100400  0.664700  0.230800  1.0  -0.5207
  O  O81  1  0.273400  0.606800  0.331700  1.0  -0.3915
  O  O82  1  0.215500  0.628000  0.585400  1.0  -0.509
  O  O83  1  0.011200  0.706600  0.537500  1.0  -0.3709
  O  O84  1  0.245000  0.574800  0.806600  1.0  -0.3818
  O  O85  1  0.084800  0.803100  0.754600  1.0  -0.5267
  O  O86  1  0.314200  0.939400  0.026300  1.0  -0.3428
  O  O87  1  0.122700  0.836600  0.077700  1.0  -0.5408
  O  O88  1  0.399600  0.835300  0.230800  1.0  -0.5203
  O  O89  1  0.226600  0.893200  0.331700  1.0  -0.387
  O  O90  1  0.284500  0.872000  0.585400  1.0  -0.5114
  O  O91  1  0.488800  0.793400  0.537500  1.0  -0.3797
  O  O92  1  0.255000  0.925200  0.806600  1.0  -0.3842
