# generated using pymatgen
data_ZnH4(C2O)4
_symmetry_space_group_name_H-M   'P 1'
_cell_length_a   9.72600000
_cell_length_b   9.91100000
_cell_length_c   10.45000000
_cell_angle_alpha   99.72000000
_cell_angle_beta   111.11000000
_cell_angle_gamma   108.42000000
_symmetry_Int_Tables_number   1
_chemical_formula_structural   ZnH4(C2O)4
_chemical_formula_sum   'Zn3 H12 C24 O12'
_cell_volume   844.89534289
_cell_formula_units_Z   3
loop_
 _symmetry_equiv_pos_site_id
 _symmetry_equiv_pos_as_xyz
  1  'x, y, z'
loop_
 _atom_site_type_symbol
 _atom_site_label
 _atom_site_symmetry_multiplicity
 _atom_site_fract_x
 _atom_site_fract_y
 _atom_site_fract_z
 _atom_site_occupancy
 _atom_site_charge
  Zn  Zn1  1  0.427200  0.602600  0.789300  1.0  1.1019
  Zn  Zn2  1  0.572800  0.397400  0.210700  1.0  1.104
  Zn  Zn3  1  0.500000  0.500000  0.500000  1.0  1.1163
  H  H4  1  0.167400  0.052000  0.388700  1.0  0.0914
  H  H5  1  0.027100  0.187800  0.683000  1.0  0.0948
  H  H6  1  0.847600  0.576700  0.096800  1.0  0.0971
  H  H7  1  0.930800  0.452600  0.756000  1.0  0.1049
  H  H8  1  0.354300  0.743100  0.401400  1.0  0.1007
  H  H9  1  0.669200  0.106400  0.744000  1.0  0.1035
  H  H10  1  0.832600  0.948000  0.611300  1.0  0.091
  H  H11  1  0.972900  0.812200  0.317000  1.0  0.0948
  H  H12  1  0.152400  0.423300  0.903200  1.0  0.0968
  H  H13  1  0.069200  0.547400  0.244000  1.0  0.1051
  H  H14  1  0.645700  0.256900  0.598600  1.0  0.1008
  H  H15  1  0.330800  0.893600  0.256000  1.0  0.1032
  C  C16  1  0.246300  0.301500  0.591200  1.0  0.7203
  C  C17  1  0.119000  0.145200  0.545100  1.0  -0.1277
  C  C18  1  0.100400  0.031500  0.434200  1.0  -0.0389
  C  C19  1  0.017100  0.112500  0.609300  1.0  -0.0402
  C  C20  1  0.712800  0.527500  0.810600  1.0  0.7131
  C  C21  1  0.862100  0.514300  0.909500  1.0  -0.1241
  C  C22  1  0.908200  0.545000  0.057400  1.0  -0.0585
  C  C23  1  0.957900  0.470900  0.854100  1.0  -0.0556
  C  C24  1  0.527500  0.811500  0.681300  1.0  0.6895
  C  C25  1  0.516200  0.910000  0.587500  1.0  -0.1179
  C  C26  1  0.413500  0.846500  0.441400  1.0  -0.04
  C  C27  1  0.601100  0.063200  0.645300  1.0  -0.0366
  C  C28  1  0.753700  0.698500  0.408800  1.0  0.7209
  C  C29  1  0.881000  0.854800  0.454900  1.0  -0.1282
  C  C30  1  0.899600  0.968500  0.565800  1.0  -0.0384
  C  C31  1  0.982900  0.887500  0.390700  1.0  -0.0388
  C  C32  1  0.287200  0.472500  0.189400  1.0  0.713
  C  C33  1  0.137900  0.485700  0.090500  1.0  -0.1242
  C  C34  1  0.091800  0.455000  0.942600  1.0  -0.0582
  C  C35  1  0.042100  0.529100  0.145900  1.0  -0.0562
  C  C36  1  0.472500  0.188500  0.318700  1.0  0.6876
  C  C37  1  0.483800  0.090000  0.412500  1.0  -0.1198
  C  C38  1  0.586500  0.153500  0.558600  1.0  -0.0409
  C  C39  1  0.398900  0.936800  0.354700  1.0  -0.0368
  O  O40  1  0.331700  0.326700  0.525900  1.0  -0.6098
  O  O41  1  0.258300  0.396400  0.697300  1.0  -0.611
  O  O42  1  0.691800  0.524200  0.685400  1.0  -0.603
  O  O43  1  0.617900  0.541000  0.864900  1.0  -0.6466
  O  O44  1  0.455600  0.669000  0.621500  1.0  -0.6809
  O  O45  1  0.597000  0.866500  0.815800  1.0  -0.5796
  O  O46  1  0.668300  0.673300  0.474100  1.0  -0.6103
  O  O47  1  0.741700  0.603600  0.302700  1.0  -0.6107
  O  O48  1  0.308200  0.475800  0.314600  1.0  -0.6023
  O  O49  1  0.382100  0.459000  0.135100  1.0  -0.6458
  O  O50  1  0.544400  0.331000  0.378500  1.0  -0.6807
  O  O51  1  0.403000  0.133500  0.184200  1.0  -0.589
