# generated using pymatgen
data_Ag7H8C26N2(OF)12
_symmetry_space_group_name_H-M   'P 1'
_cell_length_a   11.69360000
_cell_length_b   11.69360000
_cell_length_c   28.69930000
_cell_angle_alpha   90.00000000
_cell_angle_beta   90.00000000
_cell_angle_gamma   120.00000000
_symmetry_Int_Tables_number   1
_chemical_formula_structural   Ag7H8C26N2(OF)12
_chemical_formula_sum   'Ag21 H24 C78 N6 O36 F36'
_cell_volume   3398.58709243
_cell_formula_units_Z   3
loop_
 _symmetry_equiv_pos_site_id
 _symmetry_equiv_pos_as_xyz
  1  'x, y, z'
loop_
 _atom_site_type_symbol
 _atom_site_label
 _atom_site_symmetry_multiplicity
 _atom_site_fract_x
 _atom_site_fract_y
 _atom_site_fract_z
 _atom_site_occupancy
 _atom_site_charge
  Ag  Ag1  1  0.733610  0.713740  0.395940  1.0  0.4668
  Ag  Ag2  1  0.528140  0.786250  0.383830  1.0  0.2183
  Ag  Ag3  1  0.500190  0.487450  0.378090  1.0  0.4131
  Ag  Ag4  1  0.286260  0.019870  0.062610  1.0  0.4682
  Ag  Ag5  1  0.213750  0.741890  0.050500  1.0  0.2163
  Ag  Ag6  1  0.512550  0.012740  0.044760  1.0  0.4136
  Ag  Ag7  1  0.980130  0.266390  0.729270  1.0  0.4678
  Ag  Ag8  1  0.258110  0.471860  0.717160  1.0  0.2152
  Ag  Ag9  1  0.987260  0.499810  0.711420  1.0  0.412
  Ag  Ag10  1  0.713740  0.733610  0.604060  1.0  0.4693
  Ag  Ag11  1  0.786250  0.528140  0.616170  1.0  0.2165
  Ag  Ag12  1  0.487450  0.500190  0.621910  1.0  0.4142
  Ag  Ag13  1  0.019870  0.286260  0.937390  1.0  0.4683
  Ag  Ag14  1  0.741890  0.213750  0.949500  1.0  0.2168
  Ag  Ag15  1  0.012740  0.512550  0.955240  1.0  0.4129
  Ag  Ag16  1  0.266390  0.980130  0.270730  1.0  0.4696
  Ag  Ag17  1  0.471860  0.258110  0.282840  1.0  0.2173
  Ag  Ag18  1  0.499810  0.987260  0.288580  1.0  0.4131
  Ag  Ag19  1  0.720690  0.720690  0.500000  1.0  0.4924
  Ag  Ag20  1  0.279310  0.000000  0.166670  1.0  0.4952
  Ag  Ag21  1  0.000000  0.279310  0.833330  1.0  0.4924
  H  H22  1  0.521300  0.832100  0.522400  1.0  0.1276
  H  H23  1  0.396900  0.821000  0.587000  1.0  0.1335
  H  H24  1  0.151700  0.434800  0.562900  1.0  0.1239
  H  H25  1  0.276100  0.445900  0.498200  1.0  0.1376
  H  H26  1  0.167900  0.689200  0.189070  1.0  0.1279
  H  H27  1  0.179000  0.575900  0.253670  1.0  0.1345
  H  H28  1  0.565200  0.716900  0.229570  1.0  0.1224
  H  H29  1  0.554100  0.830200  0.164870  1.0  0.1372
  H  H30  1  0.310800  0.478700  0.855730  1.0  0.127
  H  H31  1  0.424100  0.603100  0.920330  1.0  0.1331
  H  H32  1  0.283100  0.848300  0.896230  1.0  0.1227
  H  H33  1  0.169800  0.723900  0.831530  1.0  0.1369
  H  H34  1  0.832100  0.521300  0.477600  1.0  0.1268
  H  H35  1  0.821000  0.396900  0.413000  1.0  0.1334
  H  H36  1  0.434800  0.151700  0.437100  1.0  0.1219
  H  H37  1  0.445900  0.276100  0.501800  1.0  0.137
  H  H38  1  0.689200  0.167900  0.810930  1.0  0.1272
  H  H39  1  0.575900  0.179000  0.746330  1.0  0.1332
  H  H40  1  0.716900  0.565200  0.770430  1.0  0.1241
  H  H41  1  0.830200  0.554100  0.835130  1.0  0.1384
  H  H42  1  0.478700  0.310800  0.144270  1.0  0.1275
  H  H43  1  0.603100  0.424100  0.079670  1.0  0.1347
  H  H44  1  0.848300  0.283100  0.103770  1.0  0.1226
  H  H45  1  0.723900  0.169800  0.168470  1.0  0.137
  C  C46  1  0.548800  0.638900  0.431900  1.0  -0.1891
  C  C47  1  0.489100  0.644900  0.465100  1.0  0.1099
  C  C48  1  0.411000  0.640100  0.503930  1.0  1e-04
  C  C49  1  0.447200  0.752400  0.530500  1.0  -0.1304
  C  C50  1  0.372600  0.745800  0.569200  1.0  -0.0128
  C  C51  1  0.261900  0.626800  0.581350  1.0  -0.0009
  C  C52  1  0.225700  0.514400  0.554700  1.0  -0.0654
  C  C53  1  0.300300  0.521100  0.516000  1.0  -0.086
  C  C54  1  0.782200  0.246700  0.647700  1.0  0.6504
  C  C55  1  0.695700  0.174000  0.603300  1.0  0.3781
  C  C56  1  0.775700  0.202800  0.555400  1.0  0.1398
  C  C57  1  0.878200  0.154500  0.547700  1.0  0.3224
  C  C58  1  0.822300  0.001200  0.546900  1.0  0.6508
  C  C59  1  0.361100  0.909900  0.098570  1.0  -0.189
  C  C60  1  0.355100  0.844200  0.131770  1.0  0.1117
  C  C61  1  0.359900  0.770900  0.170600  1.0  -0.0011
  C  C62  1  0.247600  0.694800  0.197170  1.0  -0.1307
  C  C63  1  0.254200  0.626800  0.235870  1.0  -0.0106
  C  C64  1  0.373200  0.635100  0.248020  1.0  0.0002
  C  C65  1  0.485600  0.711300  0.221370  1.0  -0.0629
  C  C66  1  0.478900  0.779200  0.182670  1.0  -0.0846
  C  C67  1  0.753300  0.535500  0.314370  1.0  0.6498
  C  C68  1  0.826000  0.521700  0.269970  1.0  0.3781
  C  C69  1  0.797200  0.572900  0.222070  1.0  0.1404
  C  C70  1  0.845500  0.723700  0.214370  1.0  0.3238
  C  C71  1  0.998800  0.821100  0.213570  1.0  0.648
  C  C72  1  0.090100  0.451200  0.765230  1.0  -0.1903
  C  C73  1  0.155800  0.510900  0.798430  1.0  0.1101
  C  C74  1  0.229100  0.589000  0.837260  1.0  -0.0046
  C  C75  1  0.305200  0.552800  0.863830  1.0  -0.1285
  C  C76  1  0.373200  0.627400  0.902530  1.0  -0.0094
  C  C77  1  0.364900  0.738100  0.914680  1.0  -0.0012
  C  C78  1  0.288700  0.774300  0.888030  1.0  -0.0617
  C  C79  1  0.220800  0.699700  0.849330  1.0  -0.0848
  C  C80  1  0.464500  0.217800  0.981030  1.0  0.651
  C  C81  1  0.478300  0.304300  0.936630  1.0  0.379
  C  C82  1  0.427100  0.224300  0.888730  1.0  0.1405
  C  C83  1  0.276300  0.121800  0.881030  1.0  0.3263
  C  C84  1  0.178900  0.177700  0.880230  1.0  0.6485
  C  C85  1  0.638900  0.548800  0.568100  1.0  -0.2005
  C  C86  1  0.644900  0.489100  0.534900  1.0  0.1107
  C  C87  1  0.640100  0.411000  0.496070  1.0  -0.0043
  C  C88  1  0.752400  0.447200  0.469500  1.0  -0.1272
  C  C89  1  0.745800  0.372600  0.430800  1.0  -0.0104
  C  C90  1  0.626800  0.261900  0.418650  1.0  -0.0018
  C  C91  1  0.514400  0.225700  0.445300  1.0  -0.0609
  C  C92  1  0.521100  0.300300  0.484000  1.0  -0.0852
  C  C93  1  0.246700  0.782200  0.352300  1.0  0.6534
  C  C94  1  0.174000  0.695700  0.396700  1.0  0.3794
  C  C95  1  0.202800  0.775700  0.444600  1.0  0.1403
  C  C96  1  0.154500  0.878200  0.452300  1.0  0.3264
  C  C97  1  0.001200  0.822300  0.453100  1.0  0.6488
  C  C98  1  0.909900  0.361100  0.901430  1.0  -0.199
  C  C99  1  0.844200  0.355100  0.868230  1.0  0.1103
  C  C100  1  0.770900  0.359900  0.829400  1.0  -0.0013
  C  C101  1  0.694800  0.247600  0.802830  1.0  -0.1305
  C  C102  1  0.626800  0.254200  0.764130  1.0  -0.0132
  C  C103  1  0.635100  0.373200  0.751980  1.0  -0.0016
  C  C104  1  0.711300  0.485600  0.778630  1.0  -0.0648
  C  C105  1  0.779200  0.478900  0.817330  1.0  -0.086
  C  C106  1  0.535500  0.753300  0.685630  1.0  0.6526
  C  C107  1  0.521700  0.826000  0.730030  1.0  0.3775
  C  C108  1  0.572900  0.797200  0.777930  1.0  0.1397
  C  C109  1  0.723700  0.845500  0.785630  1.0  0.3228
  C  C110  1  0.821100  0.998800  0.786430  1.0  0.6497
  C  C111  1  0.451200  0.090100  0.234770  1.0  -0.1988
  C  C112  1  0.510900  0.155800  0.201570  1.0  0.1118
  C  C113  1  0.589000  0.229100  0.162740  1.0  -0.0027
  C  C114  1  0.552800  0.305200  0.136170  1.0  -0.1306
  C  C115  1  0.627400  0.373200  0.097470  1.0  -0.0119
  C  C116  1  0.738100  0.364900  0.085320  1.0  -0.0013
  C  C117  1  0.774300  0.288700  0.111970  1.0  -0.0619
  C  C118  1  0.699700  0.220800  0.150670  1.0  -0.0838
  C  C119  1  0.217800  0.464500  0.018970  1.0  0.6526
  C  C120  1  0.304300  0.478300  0.063370  1.0  0.3775
  C  C121  1  0.224300  0.427100  0.111270  1.0  0.1416
  C  C122  1  0.121800  0.276300  0.118970  1.0  0.3254
  C  C123  1  0.177700  0.178900  0.119770  1.0  0.6464
  N  N124  1  0.183800  0.616600  0.622500  1.0  0.6301
  N  N125  1  0.383400  0.567200  0.289170  1.0  0.6288
  N  N126  1  0.432800  0.816200  0.955830  1.0  0.6289
  N  N127  1  0.616600  0.183800  0.377500  1.0  0.6297
  N  N128  1  0.567200  0.383400  0.710830  1.0  0.631
  N  N129  1  0.816200  0.432800  0.044170  1.0  0.6297
  O  O130  1  0.213800  0.709300  0.645100  1.0  -0.348
  O  O131  1  0.091100  0.506900  0.631600  1.0  -0.5733
  O  O132  1  0.820500  0.183300  0.669720  1.0  -0.5552
  O  O133  1  0.807700  0.361600  0.654600  1.0  -0.5865
  O  O134  1  0.831400  0.952400  0.583530  1.0  -0.5621
  O  O135  1  0.767100  0.941300  0.510500  1.0  -0.6167
  O  O136  1  0.290700  0.504500  0.311770  1.0  -0.3465
  O  O137  1  0.493100  0.584200  0.298270  1.0  -0.5724
  O  O138  1  0.816700  0.637200  0.336390  1.0  -0.5529
  O  O139  1  0.638400  0.446100  0.321270  1.0  -0.5905
  O  O140  1  0.047600  0.879000  0.250200  1.0  -0.5623
  O  O141  1  0.058700  0.825800  0.177170  1.0  -0.6155
  O  O142  1  0.495500  0.786200  0.978430  1.0  -0.3469
  O  O143  1  0.415800  0.908900  0.964930  1.0  -0.571
  O  O144  1  0.362800  0.179500  0.003050  1.0  -0.5539
  O  O145  1  0.553900  0.192300  0.987930  1.0  -0.5894
  O  O146  1  0.121000  0.168600  0.916860  1.0  -0.5607
  O  O147  1  0.174200  0.232900  0.843830  1.0  -0.6105
  O  O148  1  0.709300  0.213800  0.354900  1.0  -0.3451
  O  O149  1  0.506900  0.091100  0.368400  1.0  -0.5715
  O  O150  1  0.183300  0.820500  0.330280  1.0  -0.5544
  O  O151  1  0.361600  0.807700  0.345400  1.0  -0.5886
  O  O152  1  0.952400  0.831400  0.416470  1.0  -0.5593
  O  O153  1  0.941300  0.767100  0.489500  1.0  -0.6114
  O  O154  1  0.504500  0.290700  0.688230  1.0  -0.3469
  O  O155  1  0.584200  0.493100  0.701730  1.0  -0.5725
  O  O156  1  0.637200  0.816700  0.663610  1.0  -0.5559
  O  O157  1  0.446100  0.638400  0.678730  1.0  -0.587
  O  O158  1  0.879000  0.047600  0.749800  1.0  -0.5619
  O  O159  1  0.825800  0.058700  0.822830  1.0  -0.6162
  O  O160  1  0.786200  0.495500  0.021570  1.0  -0.3466
  O  O161  1  0.908900  0.415800  0.035070  1.0  -0.5724
  O  O162  1  0.179500  0.362800  0.996950  1.0  -0.5535
  O  O163  1  0.192300  0.553900  0.012070  1.0  -0.59
  O  O164  1  0.168600  0.121000  0.083140  1.0  -0.5629
  O  O165  1  0.232900  0.174200  0.156170  1.0  -0.6163
  F  F166  1  0.637400  0.048500  0.607400  1.0  -0.1766
  F  F167  1  0.612900  0.216800  0.595700  1.0  -0.1682
  F  F168  1  0.843500  0.336400  0.548800  1.0  -0.1626
  F  F169  1  0.683500  0.147600  0.520600  1.0  -0.1977
  F  F170  1  0.935500  0.198800  0.506600  1.0  -0.1494
  F  F171  1  0.966900  0.211000  0.580500  1.0  -0.1722
  F  F172  1  0.951500  0.588900  0.274070  1.0  -0.1736
  F  F173  1  0.783200  0.396100  0.262370  1.0  -0.1693
  F  F174  1  0.663600  0.507100  0.215470  1.0  -0.1604
  F  F175  1  0.852400  0.535900  0.187270  1.0  -0.1991
  F  F176  1  0.801200  0.736700  0.173270  1.0  -0.149
  F  F177  1  0.789000  0.755900  0.247170  1.0  -0.1727
  F  F178  1  0.411100  0.362600  0.940730  1.0  -0.1735
  F  F179  1  0.603900  0.387100  0.929030  1.0  -0.1669
  F  F180  1  0.492900  0.156500  0.882130  1.0  -0.1615
  F  F181  1  0.464100  0.316500  0.853930  1.0  -0.1992
  F  F182  1  0.263300  0.064500  0.839930  1.0  -0.1506
  F  F183  1  0.244100  0.033100  0.913830  1.0  -0.1751
  F  F184  1  0.048500  0.637400  0.392600  1.0  -0.1744
  F  F185  1  0.216800  0.612900  0.404300  1.0  -0.167
  F  F186  1  0.336400  0.843500  0.451200  1.0  -0.1614
  F  F187  1  0.147600  0.683500  0.479400  1.0  -0.1999
  F  F188  1  0.198800  0.935500  0.493400  1.0  -0.1512
  F  F189  1  0.211000  0.966900  0.419500  1.0  -0.1735
  F  F190  1  0.588900  0.951500  0.725930  1.0  -0.1784
  F  F191  1  0.396100  0.783200  0.737630  1.0  -0.1679
  F  F192  1  0.507100  0.663600  0.784530  1.0  -0.1625
  F  F193  1  0.535900  0.852400  0.812730  1.0  -0.1987
  F  F194  1  0.736700  0.801200  0.826730  1.0  -0.1507
  F  F195  1  0.755900  0.789000  0.752830  1.0  -0.1701
  F  F196  1  0.362600  0.411100  0.059270  1.0  -0.1725
  F  F197  1  0.387100  0.603900  0.070970  1.0  -0.167
  F  F198  1  0.156500  0.492900  0.117870  1.0  -0.1595
  F  F199  1  0.316500  0.464100  0.146070  1.0  -0.1993
  F  F200  1  0.064500  0.263300  0.160070  1.0  -0.1501
  F  F201  1  0.033100  0.244100  0.086170  1.0  -0.172
