# generated using pymatgen
data_Zn3P2H6(C8O7)2
_symmetry_space_group_name_H-M   'P 1'
_cell_length_a   17.39090000
_cell_length_b   17.39090000
_cell_length_c   17.39090000
_cell_angle_alpha   63.52840000
_cell_angle_beta   83.77160000
_cell_angle_gamma   116.47200000
_symmetry_Int_Tables_number   1
_chemical_formula_structural   Zn3P2H6(C8O7)2
_chemical_formula_sum   'Zn12 P8 H24 C64 O56'
_cell_volume   3892.63565733
_cell_formula_units_Z   4
loop_
 _symmetry_equiv_pos_site_id
 _symmetry_equiv_pos_as_xyz
  1  'x, y, z'
loop_
 _atom_site_type_symbol
 _atom_site_label
 _atom_site_symmetry_multiplicity
 _atom_site_fract_x
 _atom_site_fract_y
 _atom_site_fract_z
 _atom_site_occupancy
 _atom_site_charge
  Zn  Zn1  1  0.552790  0.055630  0.941820  1.0  1.0684
  Zn  Zn2  1  0.002550  0.944370  0.502840  1.0  1.0709
  Zn  Zn3  1  0.502840  0.505390  0.552790  1.0  1.0681
  Zn  Zn4  1  0.941820  0.494610  0.002550  1.0  1.0697
  Zn  Zn5  1  0.247450  0.994610  0.308180  1.0  1.0682
  Zn  Zn6  1  0.697210  0.005390  0.747160  1.0  1.0697
  Zn  Zn7  1  0.308180  0.555630  0.697210  1.0  1.0708
  Zn  Zn8  1  0.747160  0.444370  0.247450  1.0  1.0684
  Zn  Zn9  1  0.625000  0.882070  0.992930  1.0  1.0901
  Zn  Zn10  1  0.125000  0.117930  0.257070  1.0  1.0871
  Zn  Zn11  1  0.257070  0.382070  0.625000  1.0  1.0891
  Zn  Zn12  1  0.992930  0.617930  0.125000  1.0  1.0892
  P  P13  1  0.496240  0.904860  0.883400  1.0  1.5609
  P  P14  1  0.211740  0.095140  0.408620  1.0  1.5631
  P  P15  1  0.408620  0.620360  0.496240  1.0  1.5646
  P  P16  1  0.883400  0.379640  0.211740  1.0  1.5634
  P  P17  1  0.038260  0.879640  0.366600  1.0  1.5644
  P  P18  1  0.753760  0.120360  0.841380  1.0  1.5635
  P  P19  1  0.366600  0.404860  0.753760  1.0  1.5631
  P  P20  1  0.841380  0.595140  0.038260  1.0  1.5606
  H  H21  1  0.464800  0.807600  0.786800  1.0  0.1112
  H  H22  1  0.188000  0.634400  0.862400  1.0  0.1094
  H  H23  1  0.297900  0.804300  0.967600  1.0  0.1154
  H  H24  1  0.405600  0.192400  0.342800  1.0  0.112
  H  H25  1  0.503200  0.365600  0.446400  1.0  0.1085
  H  H26  1  0.228100  0.195700  0.506400  1.0  0.1156
  H  H27  1  0.342800  0.748400  0.464800  1.0  0.112
  H  H28  1  0.446400  0.949600  0.188000  1.0  0.1096
  H  H29  1  0.506400  0.734500  0.297900  1.0  0.1146
  H  H30  1  0.786800  0.251600  0.405600  1.0  0.111
  H  H31  1  0.862400  0.050400  0.503200  1.0  0.1095
  H  H32  1  0.967600  0.265500  0.228100  1.0  0.1156
  H  H33  1  0.844400  0.751600  0.463200  1.0  0.112
  H  H34  1  0.746800  0.550400  0.387600  1.0  0.1092
  H  H35  1  0.021900  0.765500  0.282400  1.0  0.1149
  H  H36  1  0.785200  0.248400  0.907200  1.0  0.1111
  H  H37  1  0.062000  0.449600  0.803600  1.0  0.1088
  H  H38  1  0.952100  0.234500  0.743600  1.0  0.1157
  H  H39  1  0.463200  0.307600  0.785200  1.0  0.1117
  H  H40  1  0.387600  0.134400  0.062000  1.0  0.1088
  H  H41  1  0.282400  0.304300  0.952100  1.0  0.1155
  H  H42  1  0.907200  0.692400  0.844400  1.0  0.1113
  H  H43  1  0.803600  0.865600  0.746800  1.0  0.1094
  H  H44  1  0.743600  0.695700  0.021900  1.0  0.1155
  C  C45  1  0.395200  0.818800  0.878200  1.0  -0.1586
  C  C46  1  0.405600  0.784300  0.821300  1.0  0.0394
  C  C47  1  0.327100  0.714300  0.815600  1.0  -0.1359
  C  C48  1  0.239500  0.679500  0.866600  1.0  0.04
  C  C49  1  0.228100  0.711800  0.924100  1.0  -0.1319
  C  C50  1  0.306500  0.782400  0.929300  1.0  0.0228
  C  C51  1  0.342900  0.676300  0.756600  1.0  0.6663
  C  C52  1  0.130800  0.667300  0.984300  1.0  0.7094
  C  C53  1  0.303000  0.181200  0.423600  1.0  -0.1589
  C  C54  1  0.394400  0.215700  0.378700  1.0  0.0383
  C  C55  1  0.470100  0.285700  0.387200  1.0  -0.1341
  C  C56  1  0.453900  0.320500  0.440000  1.0  0.0402
  C  C57  1  0.364100  0.288200  0.483700  1.0  -0.1336
  C  C58  1  0.288300  0.217600  0.475900  1.0  0.0218
  C  C59  1  0.567100  0.323700  0.333400  1.0  0.6649
  C  C60  1  0.348400  0.332700  0.536500  1.0  0.7118
  C  C61  1  0.423600  0.726600  0.395200  1.0  -0.1577
  C  C62  1  0.378700  0.773100  0.405600  1.0  0.0377
  C  C63  1  0.387200  0.857300  0.327100  1.0  -0.1366
  C  C64  1  0.440000  0.893900  0.239500  1.0  0.0431
  C  C65  1  0.483700  0.847800  0.228100  1.0  -0.1333
  C  C66  1  0.475900  0.764200  0.306500  1.0  0.0236
  C  C67  1  0.333400  0.900500  0.342900  1.0  0.6677
  C  C68  1  0.536500  0.884900  0.130800  1.0  0.7112
  C  C69  1  0.878200  0.273400  0.303000  1.0  -0.1597
  C  C70  1  0.821300  0.226900  0.394400  1.0  0.0376
  C  C71  1  0.815600  0.142700  0.470100  1.0  -0.1375
  C  C72  1  0.866600  0.106100  0.453900  1.0  0.0435
  C  C73  1  0.924100  0.152200  0.364100  1.0  -0.1326
  C  C74  1  0.929300  0.235800  0.288300  1.0  0.0223
  C  C75  1  0.756600  0.099500  0.567100  1.0  0.6668
  C  C76  1  0.984300  0.115100  0.348400  1.0  0.7102
  C  C77  1  0.947000  0.773400  0.371800  1.0  -0.1571
  C  C78  1  0.855600  0.726900  0.428700  1.0  0.0369
  C  C79  1  0.779900  0.642700  0.434400  1.0  -0.1368
  C  C80  1  0.796100  0.606100  0.383400  1.0  0.0433
  C  C81  1  0.885900  0.652200  0.325900  1.0  -0.1335
  C  C82  1  0.961700  0.735800  0.320700  1.0  0.0239
  C  C83  1  0.682900  0.599500  0.493400  1.0  0.6678
  C  C84  1  0.901600  0.615100  0.265700  1.0  0.7111
  C  C85  1  0.854800  0.226600  0.826400  1.0  -0.1603
  C  C86  1  0.844400  0.273100  0.871300  1.0  0.0382
  C  C87  1  0.922900  0.357300  0.862800  1.0  -0.1374
  C  C88  1  0.010500  0.393900  0.810000  1.0  0.0431
  C  C89  1  0.021900  0.347800  0.766300  1.0  -0.1325
  C  C90  1  0.943500  0.264200  0.774100  1.0  0.0225
  C  C91  1  0.907100  0.400500  0.916600  1.0  0.6667
  C  C92  1  0.119200  0.384900  0.713500  1.0  0.7102
  C  C93  1  0.371800  0.318800  0.854800  1.0  -0.1587
  C  C94  1  0.428700  0.284300  0.844400  1.0  0.0384
  C  C95  1  0.434400  0.214300  0.922900  1.0  -0.134
  C  C96  1  0.383400  0.179500  0.010500  1.0  0.0407
  C  C97  1  0.325900  0.211800  0.021900  1.0  -0.1338
  C  C98  1  0.320700  0.282400  0.943500  1.0  0.0221
  C  C99  1  0.493400  0.176300  0.907100  1.0  0.6648
  C  C100  1  0.265700  0.167300  0.119200  1.0  0.7118
  C  C101  1  0.826400  0.681200  0.947000  1.0  -0.1588
  C  C102  1  0.871300  0.715700  0.855600  1.0  0.0394
  C  C103  1  0.862800  0.785700  0.779900  1.0  -0.1359
  C  C104  1  0.810000  0.820500  0.796100  1.0  0.0399
  C  C105  1  0.766300  0.788200  0.885900  1.0  -0.1318
  C  C106  1  0.774100  0.717600  0.961700  1.0  0.0225
  C  C107  1  0.916600  0.823700  0.682900  1.0  0.6662
  C  C108  1  0.713500  0.832700  0.901600  1.0  0.7096
  O  O109  1  0.472100  0.967400  0.906700  1.0  -0.745
  O  O110  1  0.518300  0.839900  0.957800  1.0  -0.7394
  O  O111  1  0.573200  0.971600  0.788000  1.0  -0.7428
  O  O112  1  0.272300  0.614300  0.754200  1.0  -0.5671
  O  O113  1  0.421900  0.702600  0.718700  1.0  -0.5208
  O  O114  1  0.065800  0.613100  0.970700  1.0  -0.6573
  O  O115  1  0.122730  0.693100  0.041170  1.0  -0.5864
  O  O116  1  0.125900  0.032600  0.495300  1.0  -0.748
  O  O117  1  0.202300  0.160100  0.321600  1.0  -0.7387
  O  O118  1  0.240400  0.028400  0.398400  1.0  -0.7416
  O  O119  1  0.631500  0.385700  0.342000  1.0  -0.5677
  O  O120  1  0.578700  0.297400  0.280700  1.0  -0.5191
  O  O121  1  0.416200  0.386900  0.547300  1.0  -0.6584
  O  O122  1  0.265730  0.306900  0.570370  1.0  -0.5893
  O  O123  1  0.495300  0.621200  0.472100  1.0  -0.7474
  O  O124  1  0.321600  0.523900  0.518300  1.0  -0.7398
  O  O125  1  0.398400  0.638800  0.573200  1.0  -0.7415
  O  O126  1  0.342000  0.973500  0.272300  1.0  -0.5704
  O  O127  1  0.280700  0.859400  0.421900  1.0  -0.5227
  O  O128  1  0.547300  0.963500  0.065800  1.0  -0.6616
  O  O129  1  0.570370  0.836100  0.122730  1.0  -0.5869
  O  O130  1  0.906700  0.378800  0.125900  1.0  -0.7479
  O  O131  1  0.957800  0.476100  0.202300  1.0  -0.7395
  O  O132  1  0.788000  0.361200  0.240400  1.0  -0.7429
  O  O133  1  0.754200  0.026500  0.631500  1.0  -0.5671
  O  O134  1  0.718700  0.140600  0.578700  1.0  -0.5242
  O  O135  1  0.970700  0.036500  0.416200  1.0  -0.6593
  O  O136  1  0.041170  0.163900  0.265730  1.0  -0.5881
  O  O137  1  0.124100  0.878800  0.343300  1.0  -0.7472
  O  O138  1  0.047700  0.976100  0.292200  1.0  -0.7391
  O  O139  1  0.009600  0.861200  0.462000  1.0  -0.7418
  O  O140  1  0.618500  0.526500  0.495800  1.0  -0.5688
  O  O141  1  0.671300  0.640600  0.531300  1.0  -0.5232
  O  O142  1  0.833800  0.536500  0.279300  1.0  -0.6587
  O  O143  1  0.984270  0.663900  0.208830  1.0  -0.5867
  O  O144  1  0.777900  0.121200  0.754700  1.0  -0.7481
  O  O145  1  0.731700  0.023900  0.928400  1.0  -0.7391
  O  O146  1  0.676800  0.138800  0.851600  1.0  -0.743
  O  O147  1  0.977700  0.473500  0.908000  1.0  -0.5693
  O  O148  1  0.828100  0.359400  0.969300  1.0  -0.5236
  O  O149  1  0.184200  0.463500  0.702700  1.0  -0.6625
  O  O150  1  0.127270  0.336100  0.679630  1.0  -0.5877
  O  O151  1  0.343300  0.467400  0.777900  1.0  -0.7475
  O  O152  1  0.292200  0.339900  0.731700  1.0  -0.7386
  O  O153  1  0.462000  0.471600  0.676800  1.0  -0.7406
  O  O154  1  0.495800  0.114300  0.977700  1.0  -0.5678
  O  O155  1  0.531300  0.202600  0.828100  1.0  -0.5191
  O  O156  1  0.279300  0.113100  0.184200  1.0  -0.6592
  O  O157  1  0.208830  0.193100  0.127270  1.0  -0.5874
  O  O158  1  0.754700  0.532600  0.124100  1.0  -0.745
  O  O159  1  0.928400  0.660100  0.047700  1.0  -0.7393
  O  O160  1  0.851600  0.528400  0.009600  1.0  -0.743
  O  O161  1  0.908000  0.885700  0.618500  1.0  -0.5674
  O  O162  1  0.969300  0.797400  0.671300  1.0  -0.5211
  O  O163  1  0.702700  0.886900  0.833800  1.0  -0.6571
  O  O164  1  0.679630  0.806900  0.984270  1.0  -0.5854
