# generated using pymatgen
data_Ag(C2N)6
_symmetry_space_group_name_H-M   'P 1'
_cell_length_a   12.46300000
_cell_length_b   12.46300000
_cell_length_c   12.46300000
_cell_angle_alpha   90.00000000
_cell_angle_beta   90.00000000
_cell_angle_gamma   90.00000000
_symmetry_Int_Tables_number   1
_chemical_formula_structural   Ag(C2N)6
_chemical_formula_sum   'Ag4 C48 N24'
_cell_volume   1935.83253685
_cell_formula_units_Z   4
loop_
 _symmetry_equiv_pos_site_id
 _symmetry_equiv_pos_as_xyz
  1  'x, y, z'
loop_
 _atom_site_type_symbol
 _atom_site_label
 _atom_site_symmetry_multiplicity
 _atom_site_fract_x
 _atom_site_fract_y
 _atom_site_fract_z
 _atom_site_occupancy
 _atom_site_charge
  Ag  Ag1  1  0.387700  0.112300  0.887700  1.0  0.4046
  Ag  Ag2  1  0.112300  0.887700  0.387700  1.0  0.4049
  Ag  Ag3  1  0.612300  0.612300  0.612300  1.0  0.4051
  Ag  Ag4  1  0.887700  0.387700  0.112300  1.0  0.4055
  C  C5  1  0.690100  0.319200  0.950700  1.0  0.1702
  C  C6  1  0.602300  0.266600  0.906300  1.0  0.1678
  C  C7  1  0.608700  0.136100  0.048600  1.0  0.0503
  C  C8  1  0.696500  0.188700  0.092900  1.0  0.0845
  C  C9  1  0.809900  0.680800  0.450700  1.0  0.1699
  C  C10  1  0.897700  0.733400  0.406300  1.0  0.1682
  C  C11  1  0.891300  0.863900  0.548600  1.0  0.0506
  C  C12  1  0.803500  0.811300  0.592900  1.0  0.0867
  C  C13  1  0.309900  0.819200  0.549300  1.0  0.1699
  C  C14  1  0.397700  0.766600  0.593700  1.0  0.168
  C  C15  1  0.391300  0.636100  0.451400  1.0  0.0499
  C  C16  1  0.303500  0.688700  0.407100  1.0  0.0816
  C  C17  1  0.190100  0.180800  0.049300  1.0  0.1702
  C  C18  1  0.102300  0.233400  0.093700  1.0  0.169
  C  C19  1  0.108700  0.363900  0.951400  1.0  0.048
  C  C20  1  0.196500  0.311300  0.907100  1.0  0.079
  C  C21  1  0.950700  0.690100  0.319200  1.0  0.1703
  C  C22  1  0.906300  0.602300  0.266600  1.0  0.1669
  C  C23  1  0.048600  0.608700  0.136100  1.0  0.0447
  C  C24  1  0.092900  0.696500  0.188700  1.0  0.084
  C  C25  1  0.450700  0.809900  0.680800  1.0  0.1701
  C  C26  1  0.406300  0.897700  0.733400  1.0  0.1658
  C  C27  1  0.548600  0.891300  0.863900  1.0  0.0449
  C  C28  1  0.592900  0.803500  0.811300  1.0  0.0842
  C  C29  1  0.549300  0.309900  0.819200  1.0  0.171
  C  C30  1  0.593700  0.397700  0.766600  1.0  0.1673
  C  C31  1  0.451400  0.391300  0.636100  1.0  0.047
  C  C32  1  0.407100  0.303500  0.688700  1.0  0.0863
  C  C33  1  0.049300  0.190100  0.180800  1.0  0.1711
  C  C34  1  0.093700  0.102300  0.233400  1.0  0.1655
  C  C35  1  0.951400  0.108700  0.363900  1.0  0.045
  C  C36  1  0.907100  0.196500  0.311300  1.0  0.0869
  C  C37  1  0.319200  0.950700  0.690100  1.0  0.1713
  C  C38  1  0.266600  0.906300  0.602300  1.0  0.1669
  C  C39  1  0.136100  0.048600  0.608700  1.0  0.0501
  C  C40  1  0.188700  0.092900  0.696500  1.0  0.0862
  C  C41  1  0.680800  0.450700  0.809900  1.0  0.1716
  C  C42  1  0.733400  0.406300  0.897700  1.0  0.1661
  C  C43  1  0.863900  0.548600  0.891300  1.0  0.0478
  C  C44  1  0.811300  0.592900  0.803500  1.0  0.0836
  C  C45  1  0.819200  0.549300  0.309900  1.0  0.1715
  C  C46  1  0.766600  0.593700  0.397700  1.0  0.1669
  C  C47  1  0.636100  0.451400  0.391300  1.0  0.0496
  C  C48  1  0.688700  0.407100  0.303500  1.0  0.084
  C  C49  1  0.180800  0.049300  0.190100  1.0  0.1706
  C  C50  1  0.233400  0.093700  0.102300  1.0  0.1661
  C  C51  1  0.363900  0.951400  0.108700  1.0  0.0475
  C  C52  1  0.311300  0.907100  0.196500  1.0  0.0839
  N  N53  1  0.561600  0.175000  0.955300  1.0  -0.2956
  N  N54  1  0.280300  0.044000  0.737200  1.0  -0.311
  N  N55  1  0.938400  0.825000  0.455300  1.0  -0.2981
  N  N56  1  0.219700  0.956000  0.237200  1.0  -0.3093
  N  N57  1  0.438400  0.675000  0.544700  1.0  -0.2966
  N  N58  1  0.719700  0.544000  0.762800  1.0  -0.3114
  N  N59  1  0.061600  0.325000  0.044700  1.0  -0.297
  N  N60  1  0.780300  0.456000  0.262800  1.0  -0.3105
  N  N61  1  0.955300  0.561600  0.175000  1.0  -0.2962
  N  N62  1  0.737200  0.280300  0.044000  1.0  -0.3085
  N  N63  1  0.455300  0.938400  0.825000  1.0  -0.2953
  N  N64  1  0.237200  0.219700  0.956000  1.0  -0.3068
  N  N65  1  0.544700  0.438400  0.675000  1.0  -0.2957
  N  N66  1  0.762800  0.719700  0.544000  1.0  -0.3074
  N  N67  1  0.044700  0.061600  0.325000  1.0  -0.2969
  N  N68  1  0.262800  0.780300  0.456000  1.0  -0.3071
  N  N69  1  0.175000  0.955300  0.561600  1.0  -0.2947
  N  N70  1  0.044000  0.737200  0.280300  1.0  -0.3088
  N  N71  1  0.825000  0.455300  0.938400  1.0  -0.2953
  N  N72  1  0.956000  0.237200  0.219700  1.0  -0.3105
  N  N73  1  0.675000  0.544700  0.438400  1.0  -0.294
  N  N74  1  0.544000  0.762800  0.719700  1.0  -0.3081
  N  N75  1  0.325000  0.044700  0.061600  1.0  -0.2959
  N  N76  1  0.456000  0.262800  0.780300  1.0  -0.3079
