# generated using pymatgen
data_AgH6C12N6ClO4
_symmetry_space_group_name_H-M   'P 1'
_cell_length_a   12.36200000
_cell_length_b   12.65200000
_cell_length_c   12.65200000
_cell_angle_alpha   90.00000000
_cell_angle_beta   90.00000000
_cell_angle_gamma   90.00000000
_symmetry_Int_Tables_number   1
_chemical_formula_structural   AgH6C12N6ClO4
_chemical_formula_sum   'Ag4 H24 C48 N24 Cl4 O16'
_cell_volume   1978.82371165
_cell_formula_units_Z   4
loop_
 _symmetry_equiv_pos_site_id
 _symmetry_equiv_pos_as_xyz
  1  'x, y, z'
loop_
 _atom_site_type_symbol
 _atom_site_label
 _atom_site_symmetry_multiplicity
 _atom_site_fract_x
 _atom_site_fract_y
 _atom_site_fract_z
 _atom_site_occupancy
 _atom_site_charge
  Ag  Ag1  1  0.000000  0.129120  0.129120  1.0  0.428
  Ag  Ag2  1  0.500000  0.870880  0.870880  1.0  0.4281
  Ag  Ag3  1  0.250000  0.370880  0.629120  1.0  0.4276
  Ag  Ag4  1  0.750000  0.629120  0.370880  1.0  0.4284
  H  H5  1  0.971100  0.330400  0.957500  1.0  0.1143
  H  H6  1  0.177100  0.920200  0.159000  1.0  0.1252
  H  H7  1  0.037300  0.400100  0.803900  1.0  0.1436
  H  H8  1  0.471100  0.669600  0.042500  1.0  0.1146
  H  H9  1  0.677100  0.079800  0.841000  1.0  0.1251
  H  H10  1  0.537300  0.599900  0.196100  1.0  0.1434
  H  H11  1  0.221100  0.542500  0.830400  1.0  0.1152
  H  H12  1  0.427100  0.341000  0.420200  1.0  0.1249
  H  H13  1  0.287300  0.696100  0.900100  1.0  0.1455
  H  H14  1  0.721100  0.457500  0.169600  1.0  0.1146
  H  H15  1  0.927100  0.659000  0.579800  1.0  0.1247
  H  H16  1  0.787300  0.303900  0.099900  1.0  0.1461
  H  H17  1  0.278900  0.169600  0.457500  1.0  0.1141
  H  H18  1  0.072900  0.579800  0.659000  1.0  0.1251
  H  H19  1  0.212700  0.099900  0.303900  1.0  0.1432
  H  H20  1  0.778900  0.830400  0.542500  1.0  0.1141
  H  H21  1  0.572900  0.420200  0.341000  1.0  0.1253
  H  H22  1  0.712700  0.900100  0.696100  1.0  0.1429
  H  H23  1  0.028900  0.957500  0.330400  1.0  0.1148
  H  H24  1  0.822900  0.159000  0.920200  1.0  0.1244
  H  H25  1  0.962700  0.803900  0.400100  1.0  0.1453
  H  H26  1  0.528900  0.042500  0.669600  1.0  0.1145
  H  H27  1  0.322900  0.841000  0.079800  1.0  0.1255
  H  H28  1  0.462700  0.196100  0.599900  1.0  0.1447
  C  C29  1  0.030300  0.297900  0.925900  1.0  0.2024
  C  C30  1  0.158300  0.170400  0.923400  1.0  0.1463
  C  C31  1  0.204900  0.076600  0.970900  1.0  0.1654
  C  C32  1  0.205900  0.950700  0.098400  1.0  0.1771
  C  C33  1  0.071500  0.341800  0.833600  1.0  0.1589
  C  C34  1  0.202200  0.213800  0.833500  1.0  0.1855
  C  C35  1  0.530300  0.702100  0.074100  1.0  0.2026
  C  C36  1  0.658300  0.829600  0.076600  1.0  0.1444
  C  C37  1  0.704900  0.923400  0.029100  1.0  0.1654
  C  C38  1  0.705900  0.049300  0.901600  1.0  0.1766
  C  C39  1  0.571500  0.658200  0.166400  1.0  0.1594
  C  C40  1  0.702200  0.786200  0.166500  1.0  0.1862
  C  C41  1  0.280300  0.574100  0.797900  1.0  0.2006
  C  C42  1  0.408300  0.576600  0.670400  1.0  0.1443
  C  C43  1  0.454900  0.529100  0.576600  1.0  0.1651
  C  C44  1  0.455900  0.401600  0.450700  1.0  0.1765
  C  C45  1  0.321500  0.666400  0.841800  1.0  0.1551
  C  C46  1  0.452200  0.666500  0.713800  1.0  0.1851
  C  C47  1  0.780300  0.425900  0.202100  1.0  0.2004
  C  C48  1  0.908300  0.423400  0.329600  1.0  0.1443
  C  C49  1  0.954900  0.470900  0.423400  1.0  0.1656
  C  C50  1  0.955900  0.598400  0.549300  1.0  0.1758
  C  C51  1  0.821500  0.333600  0.158200  1.0  0.1543
  C  C52  1  0.952200  0.333500  0.286200  1.0  0.1854
  C  C53  1  0.219700  0.202100  0.425900  1.0  0.2024
  C  C54  1  0.091700  0.329600  0.423400  1.0  0.1427
  C  C55  1  0.045100  0.423400  0.470900  1.0  0.1649
  C  C56  1  0.044100  0.549300  0.598400  1.0  0.1775
  C  C57  1  0.178500  0.158200  0.333600  1.0  0.1587
  C  C58  1  0.047800  0.286200  0.333500  1.0  0.186
  C  C59  1  0.719700  0.797900  0.574100  1.0  0.2022
  C  C60  1  0.591700  0.670400  0.576600  1.0  0.1422
  C  C61  1  0.545100  0.576600  0.529100  1.0  0.1651
  C  C62  1  0.544100  0.450700  0.401600  1.0  0.1782
  C  C63  1  0.678500  0.841800  0.666400  1.0  0.1595
  C  C64  1  0.547800  0.713800  0.666500  1.0  0.1868
  C  C65  1  0.969700  0.925900  0.297900  1.0  0.1998
  C  C66  1  0.841700  0.923400  0.170400  1.0  0.1414
  C  C67  1  0.795100  0.970900  0.076600  1.0  0.165
  C  C68  1  0.794100  0.098400  0.950700  1.0  0.1774
  C  C69  1  0.928500  0.833600  0.341800  1.0  0.1556
  C  C70  1  0.797800  0.833500  0.213800  1.0  0.186
  C  C71  1  0.469700  0.074100  0.702100  1.0  0.1996
  C  C72  1  0.341700  0.076600  0.829600  1.0  0.1417
  C  C73  1  0.295100  0.029100  0.923400  1.0  0.1649
  C  C74  1  0.294100  0.901600  0.049300  1.0  0.1777
  C  C75  1  0.428500  0.166400  0.658200  1.0  0.1552
  C  C76  1  0.297800  0.166500  0.786200  1.0  0.186
  N  N77  1  0.070200  0.213800  0.970500  1.0  -0.2893
  N  N78  1  0.162300  0.038300  0.061900  1.0  -0.3181
  N  N79  1  0.159800  0.301600  0.786400  1.0  -0.3545
  N  N80  1  0.570200  0.786200  0.029500  1.0  -0.2879
  N  N81  1  0.662300  0.961700  0.938100  1.0  -0.3181
  N  N82  1  0.659800  0.698400  0.213600  1.0  -0.3528
  N  N83  1  0.320200  0.529500  0.713800  1.0  -0.2831
  N  N84  1  0.412300  0.438100  0.538300  1.0  -0.3172
  N  N85  1  0.409800  0.713600  0.801600  1.0  -0.3523
  N  N86  1  0.820200  0.470500  0.286200  1.0  -0.2852
  N  N87  1  0.912300  0.561900  0.461700  1.0  -0.3172
  N  N88  1  0.909800  0.286400  0.198400  1.0  -0.3509
  N  N89  1  0.179800  0.286200  0.470500  1.0  -0.289
  N  N90  1  0.087700  0.461700  0.561900  1.0  -0.3166
  N  N91  1  0.090200  0.198400  0.286400  1.0  -0.3519
  N  N92  1  0.679800  0.713800  0.529500  1.0  -0.2895
  N  N93  1  0.587700  0.538300  0.438100  1.0  -0.3166
  N  N94  1  0.590200  0.801600  0.713600  1.0  -0.3511
  N  N95  1  0.929800  0.970500  0.213800  1.0  -0.2852
  N  N96  1  0.837700  0.061900  0.038300  1.0  -0.3169
  N  N97  1  0.840200  0.786400  0.301600  1.0  -0.349
  N  N98  1  0.429800  0.029500  0.786200  1.0  -0.2839
  N  N99  1  0.337700  0.938100  0.961700  1.0  -0.3163
  N  N100  1  0.340200  0.213600  0.698400  1.0  -0.3493
  Cl  Cl101  1  0.000000  0.845800  0.845800  1.0  0.779
  Cl  Cl102  1  0.500000  0.154200  0.154200  1.0  0.7793
  Cl  Cl103  1  0.250000  0.654200  0.345800  1.0  0.7796
  Cl  Cl104  1  0.750000  0.345800  0.654200  1.0  0.7791
  O  O105  1  0.037300  0.738000  0.813000  1.0  -0.533
  O  O106  1  0.996000  0.828000  0.958000  1.0  -0.5289
  O  O107  1  0.962700  0.813000  0.738000  1.0  -0.5355
  O  O108  1  0.004000  0.958000  0.828000  1.0  -0.5267
  O  O109  1  0.537300  0.262000  0.187000  1.0  -0.532
  O  O110  1  0.496000  0.172000  0.042000  1.0  -0.5298
  O  O111  1  0.462700  0.187000  0.262000  1.0  -0.5366
  O  O112  1  0.504000  0.042000  0.172000  1.0  -0.5272
  O  O113  1  0.287300  0.687000  0.238000  1.0  -0.5358
  O  O114  1  0.246000  0.542000  0.328000  1.0  -0.5291
  O  O115  1  0.212700  0.762000  0.313000  1.0  -0.5304
  O  O116  1  0.254000  0.672000  0.458000  1.0  -0.5284
  O  O117  1  0.787300  0.313000  0.762000  1.0  -0.5377
  O  O118  1  0.746000  0.458000  0.672000  1.0  -0.524
  O  O119  1  0.712700  0.238000  0.687000  1.0  -0.5325
  O  O120  1  0.754000  0.328000  0.542000  1.0  -0.5297
