# generated using pymatgen
data_VC8O5
_symmetry_space_group_name_H-M   'P 1'
_cell_length_a   6.71070000
_cell_length_b   18.74310000
_cell_length_c   10.28090000
_cell_angle_alpha   90.00000000
_cell_angle_beta   90.00000000
_cell_angle_gamma   90.00000000
_symmetry_Int_Tables_number   1
_chemical_formula_structural   VC8O5
_chemical_formula_sum   'V4 C32 O20'
_cell_volume   1293.12462302
_cell_formula_units_Z   4
loop_
 _symmetry_equiv_pos_site_id
 _symmetry_equiv_pos_as_xyz
  1  'x, y, z'
loop_
 _atom_site_type_symbol
 _atom_site_label
 _atom_site_symmetry_multiplicity
 _atom_site_fract_x
 _atom_site_fract_y
 _atom_site_fract_z
 _atom_site_occupancy
 _atom_site_charge
  V  V1  1  0.250000  0.750000  0.250000  1.0  2.0389
  V  V2  1  0.750000  0.750000  0.250000  1.0  2.0389
  V  V3  1  0.750000  0.250000  0.750000  1.0  2.0389
  V  V4  1  0.250000  0.250000  0.750000  1.0  2.0389
  C  C5  1  0.804000  0.963800  0.026000  1.0  0.031
  C  C6  1  0.304000  0.463800  0.526000  1.0  0.031
  C  C7  1  0.196000  0.536200  0.026000  1.0  0.0322
  C  C8  1  0.696000  0.036200  0.526000  1.0  0.0322
  C  C9  1  0.196000  0.463800  0.974000  1.0  0.0318
  C  C10  1  0.696000  0.963800  0.474000  1.0  0.0318
  C  C11  1  0.804000  0.036200  0.974000  1.0  0.0313
  C  C12  1  0.304000  0.536200  0.474000  1.0  0.0313
  C  C13  1  0.196000  0.036200  0.974000  1.0  0.0317
  C  C14  1  0.696000  0.536200  0.474000  1.0  0.0317
  C  C15  1  0.804000  0.463800  0.974000  1.0  0.0306
  C  C16  1  0.304000  0.963800  0.474000  1.0  0.0306
  C  C17  1  0.804000  0.536200  0.026000  1.0  0.032
  C  C18  1  0.304000  0.036200  0.526000  1.0  0.032
  C  C19  1  0.196000  0.963800  0.026000  1.0  0.0322
  C  C20  1  0.696000  0.463800  0.526000  1.0  0.0322
  C  C21  1  0.000000  0.940000  0.043000  1.0  0.0241
  C  C22  1  0.000000  0.870800  0.117000  1.0  0.5323
  C  C23  1  0.500000  0.440000  0.543000  1.0  0.0241
  C  C24  1  0.500000  0.370800  0.617000  1.0  0.5323
  C  C25  1  0.000000  0.560000  0.043000  1.0  0.0244
  C  C26  1  0.000000  0.629200  0.117000  1.0  0.5326
  C  C27  1  0.500000  0.060000  0.543000  1.0  0.0244
  C  C28  1  0.500000  0.129200  0.617000  1.0  0.5326
  C  C29  1  0.000000  0.440000  0.957000  1.0  0.0234
  C  C30  1  0.000000  0.370800  0.883000  1.0  0.5333
  C  C31  1  0.500000  0.940000  0.457000  1.0  0.0234
  C  C32  1  0.500000  0.870800  0.383000  1.0  0.5333
  C  C33  1  0.000000  0.060000  0.957000  1.0  0.0239
  C  C34  1  0.000000  0.129200  0.883000  1.0  0.5333
  C  C35  1  0.500000  0.560000  0.457000  1.0  0.0239
  C  C36  1  0.500000  0.629200  0.383000  1.0  0.5333
  O  O37  1  0.156200  0.832500  0.158000  1.0  -0.6022
  O  O38  1  0.656200  0.332500  0.658000  1.0  -0.6022
  O  O39  1  0.843800  0.667500  0.158000  1.0  -0.6034
  O  O40  1  0.343800  0.167500  0.658000  1.0  -0.6034
  O  O41  1  0.843800  0.332500  0.842000  1.0  -0.6029
  O  O42  1  0.343800  0.832500  0.342000  1.0  -0.6029
  O  O43  1  0.156200  0.167500  0.842000  1.0  -0.6013
  O  O44  1  0.656200  0.667500  0.342000  1.0  -0.6013
  O  O45  1  0.843800  0.167500  0.842000  1.0  -0.6026
  O  O46  1  0.343800  0.667500  0.342000  1.0  -0.6026
  O  O47  1  0.156200  0.332500  0.842000  1.0  -0.6018
  O  O48  1  0.656200  0.832500  0.342000  1.0  -0.6018
  O  O49  1  0.156200  0.667500  0.158000  1.0  -0.6043
  O  O50  1  0.656200  0.167500  0.658000  1.0  -0.6043
  O  O51  1  0.843800  0.832500  0.158000  1.0  -0.6058
  O  O52  1  0.343800  0.332500  0.658000  1.0  -0.6058
  O  O53  1  0.000000  0.750000  0.306970  1.0  -0.8676
  O  O54  1  0.500000  0.250000  0.806970  1.0  -0.8676
  O  O55  1  0.000000  0.250000  0.693030  1.0  -0.8662
  O  O56  1  0.500000  0.750000  0.193030  1.0  -0.8662
