# generated using pymatgen
data_BaFe(CN)6
_symmetry_space_group_name_H-M   'P 1'
_cell_length_a   7.37440000
_cell_length_b   7.37440000
_cell_length_c   45.75800000
_cell_angle_alpha   90.00000000
_cell_angle_beta   90.00000000
_cell_angle_gamma   120.00000000
_symmetry_Int_Tables_number   1
_chemical_formula_structural   BaFe(CN)6
_chemical_formula_sum   'Ba6 Fe6 C36 N36'
_cell_volume   2155.01872062
_cell_formula_units_Z   6
loop_
 _symmetry_equiv_pos_site_id
 _symmetry_equiv_pos_as_xyz
  1  'x, y, z'
loop_
 _atom_site_type_symbol
 _atom_site_label
 _atom_site_symmetry_multiplicity
 _atom_site_fract_x
 _atom_site_fract_y
 _atom_site_fract_z
 _atom_site_occupancy
 _atom_site_charge
  Ba  Ba1  1  0.666667  0.333333  0.083330  1.0  1.706
  Ba  Ba2  1  0.000000  0.000000  0.750000  1.0  1.7058
  Ba  Ba3  1  0.333333  0.666667  0.416670  1.0  1.7047
  Ba  Ba4  1  0.333333  0.666667  0.916670  1.0  1.7047
  Ba  Ba5  1  0.000000  0.000000  0.250000  1.0  1.706
  Ba  Ba6  1  0.666667  0.333333  0.583330  1.0  1.706
  Fe  Fe7  1  0.333333  0.666667  0.166670  1.0  -0.3777
  Fe  Fe8  1  0.000000  0.000000  0.500000  1.0  -0.3814
  Fe  Fe9  1  0.666667  0.333333  0.333333  1.0  -0.3783
  Fe  Fe10  1  0.333333  0.666667  0.666667  1.0  -0.3777
  Fe  Fe11  1  0.666667  0.333333  0.833330  1.0  -0.3783
  Fe  Fe12  1  0.000000  0.000000  0.000000  1.0  -0.3814
  C  C13  1  0.514900  0.900700  0.142770  1.0  0.2768
  C  C14  1  0.181570  0.234030  0.476100  1.0  0.2768
  C  C15  1  0.848230  0.567370  0.809440  1.0  0.2848
  C  C16  1  0.099300  0.614200  0.142770  1.0  0.2783
  C  C17  1  0.765970  0.947530  0.476100  1.0  0.2783
  C  C18  1  0.432630  0.280870  0.809440  1.0  0.2853
  C  C19  1  0.385800  0.485100  0.142770  1.0  0.2858
  C  C20  1  0.052470  0.818430  0.476100  1.0  0.286
  C  C21  1  0.719130  0.151770  0.809440  1.0  0.2761
  C  C22  1  0.900700  0.514900  0.357230  1.0  0.2752
  C  C23  1  0.567370  0.848230  0.690560  1.0  0.2835
  C  C24  1  0.234030  0.181570  0.023900  1.0  0.2754
  C  C25  1  0.614200  0.099300  0.357230  1.0  0.2782
  C  C26  1  0.280870  0.432630  0.690560  1.0  0.2851
  C  C27  1  0.947530  0.765970  0.023900  1.0  0.2782
  C  C28  1  0.485100  0.385800  0.357230  1.0  0.2846
  C  C29  1  0.151770  0.719130  0.690560  1.0  0.2752
  C  C30  1  0.818430  0.052470  0.023900  1.0  0.2846
  C  C31  1  0.485100  0.099300  0.857230  1.0  0.2763
  C  C32  1  0.151770  0.432630  0.190560  1.0  0.2849
  C  C33  1  0.818430  0.765970  0.523900  1.0  0.2763
  C  C34  1  0.900700  0.385800  0.857230  1.0  0.2789
  C  C35  1  0.567370  0.719130  0.190560  1.0  0.286
  C  C36  1  0.234030  0.052470  0.523900  1.0  0.2789
  C  C37  1  0.614200  0.514900  0.857230  1.0  0.2837
  C  C38  1  0.280870  0.848230  0.190560  1.0  0.2742
  C  C39  1  0.947530  0.181570  0.523900  1.0  0.2837
  C  C40  1  0.099300  0.485100  0.642770  1.0  0.2764
  C  C41  1  0.765970  0.818430  0.976100  1.0  0.2764
  C  C42  1  0.432630  0.151770  0.309440  1.0  0.2843
  C  C43  1  0.385800  0.900700  0.642770  1.0  0.2781
  C  C44  1  0.052470  0.234030  0.976100  1.0  0.2781
  C  C45  1  0.719130  0.567370  0.309440  1.0  0.2851
  C  C46  1  0.514900  0.614200  0.642770  1.0  0.287
  C  C47  1  0.181570  0.947530  0.976100  1.0  0.2873
  C  C48  1  0.848230  0.280870  0.309440  1.0  0.2767
  N  N49  1  0.627700  0.041100  0.128490  1.0  -0.5132
  N  N50  1  0.294370  0.374430  0.461820  1.0  -0.5137
  N  N51  1  0.961030  0.707770  0.795160  1.0  -0.49
  N  N52  1  0.958900  0.586600  0.128490  1.0  -0.4838
  N  N53  1  0.625570  0.919930  0.461820  1.0  -0.4982
  N  N54  1  0.292230  0.253270  0.795160  1.0  -0.4811
  N  N55  1  0.413400  0.372300  0.128490  1.0  -0.4995
  N  N56  1  0.080070  0.705630  0.461820  1.0  -0.5097
  N  N57  1  0.746730  0.038970  0.795160  1.0  -0.5245
  N  N58  1  0.041100  0.627700  0.371510  1.0  -0.5134
  N  N59  1  0.707770  0.961030  0.704840  1.0  -0.4907
  N  N60  1  0.374430  0.294370  0.038180  1.0  -0.5136
  N  N61  1  0.586600  0.958900  0.371510  1.0  -0.487
  N  N62  1  0.253270  0.292230  0.704840  1.0  -0.4846
  N  N63  1  0.919930  0.625570  0.038180  1.0  -0.5015
  N  N64  1  0.372300  0.413400  0.371510  1.0  -0.4961
  N  N65  1  0.038970  0.746730  0.704840  1.0  -0.52
  N  N66  1  0.705630  0.080070  0.038180  1.0  -0.5056
  N  N67  1  0.372300  0.958900  0.871510  1.0  -0.5091
  N  N68  1  0.038970  0.292230  0.204840  1.0  -0.4867
  N  N69  1  0.705630  0.625570  0.538180  1.0  -0.5092
  N  N70  1  0.041100  0.413400  0.871510  1.0  -0.4858
  N  N71  1  0.707770  0.746730  0.204840  1.0  -0.4832
  N  N72  1  0.374430  0.080070  0.538180  1.0  -0.5003
  N  N73  1  0.586600  0.627700  0.871510  1.0  -0.5022
  N  N74  1  0.253270  0.961030  0.204840  1.0  -0.5266
  N  N75  1  0.919930  0.294370  0.538180  1.0  -0.5128
  N  N76  1  0.958900  0.372300  0.628490  1.0  -0.5091
  N  N77  1  0.625570  0.705630  0.961820  1.0  -0.5093
  N  N78  1  0.292230  0.038970  0.295160  1.0  -0.4874
  N  N79  1  0.413400  0.041100  0.628490  1.0  -0.4917
  N  N80  1  0.080070  0.374430  0.961820  1.0  -0.5058
  N  N81  1  0.746730  0.707770  0.295160  1.0  -0.488
  N  N82  1  0.627700  0.586600  0.628490  1.0  -0.497
  N  N83  1  0.294370  0.919930  0.961820  1.0  -0.5069
  N  N84  1  0.961030  0.253270  0.295160  1.0  -0.5219
