# generated using pymatgen
data_ZnH6C7O4
_symmetry_space_group_name_H-M   'P 1'
_cell_length_a   15.74500000
_cell_length_b   16.90700000
_cell_length_c   18.16700000
_cell_angle_alpha   90.00000000
_cell_angle_beta   90.00000000
_cell_angle_gamma   90.00000000
_symmetry_Int_Tables_number   1
_chemical_formula_structural   ZnH6C7O4
_chemical_formula_sum   'Zn16 H96 C112 O64'
_cell_volume   4836.06838941
_cell_formula_units_Z   16
loop_
 _symmetry_equiv_pos_site_id
 _symmetry_equiv_pos_as_xyz
  1  'x, y, z'
loop_
 _atom_site_type_symbol
 _atom_site_label
 _atom_site_symmetry_multiplicity
 _atom_site_fract_x
 _atom_site_fract_y
 _atom_site_fract_z
 _atom_site_occupancy
 _atom_site_charge
  Zn  Zn1  1  0.434100  0.823100  0.644400  1.0  1.0156
  Zn  Zn2  1  0.479300  0.642100  0.589200  1.0  1.1616
  Zn  Zn3  1  0.065900  0.176900  0.144400  1.0  1.0157
  Zn  Zn4  1  0.020700  0.357900  0.089200  1.0  1.1608
  Zn  Zn5  1  0.565900  0.323100  0.855600  1.0  1.0146
  Zn  Zn6  1  0.520700  0.142100  0.910800  1.0  1.1575
  Zn  Zn7  1  0.934100  0.676900  0.355600  1.0  1.0151
  Zn  Zn8  1  0.979300  0.857900  0.410800  1.0  1.1601
  Zn  Zn9  1  0.565900  0.176900  0.355600  1.0  1.0149
  Zn  Zn10  1  0.520700  0.357900  0.410800  1.0  1.1562
  Zn  Zn11  1  0.934100  0.823100  0.855600  1.0  1.0148
  Zn  Zn12  1  0.979300  0.642100  0.910800  1.0  1.1597
  Zn  Zn13  1  0.434100  0.676900  0.144400  1.0  1.0159
  Zn  Zn14  1  0.479300  0.857900  0.089200  1.0  1.1606
  Zn  Zn15  1  0.065900  0.323100  0.644400  1.0  1.0156
  Zn  Zn16  1  0.020700  0.142100  0.589200  1.0  1.1617
  H  H17  1  0.469400  0.795200  0.368500  1.0  0.1023
  H  H18  1  0.533400  0.721400  0.365400  1.0  0.0998
  H  H19  1  0.595000  0.931800  0.261700  1.0  0.097
  H  H20  1  0.507000  0.923400  0.305400  1.0  0.0969
  H  H21  1  0.732700  0.937100  0.333333  1.0  0.0981
  H  H22  1  0.732100  0.932200  0.421200  1.0  0.0936
  H  H23  1  0.672900  0.727700  0.434800  1.0  0.1025
  H  H24  1  0.696000  0.803400  0.483900  1.0  0.0984
  H  H25  1  0.591900  0.920900  0.490500  1.0  0.1039
  H  H26  1  0.505000  0.916800  0.444500  1.0  0.1121
  H  H27  1  0.697300  0.816700  0.258800  1.0  0.0996
  H  H28  1  0.673900  0.735800  0.300000  1.0  0.1037
  H  H29  1  0.030600  0.204800  0.868500  1.0  0.1025
  H  H30  1  0.966600  0.278600  0.865400  1.0  0.0996
  H  H31  1  0.905000  0.068200  0.761700  1.0  0.0973
  H  H32  1  0.993000  0.076600  0.805400  1.0  0.0976
  H  H33  1  0.767300  0.062900  0.833300  1.0  0.0979
  H  H34  1  0.767900  0.067800  0.921200  1.0  0.0955
  H  H35  1  0.827100  0.272300  0.934800  1.0  0.1019
  H  H36  1  0.804000  0.196600  0.983900  1.0  0.0994
  H  H37  1  0.908100  0.079100  0.990500  1.0  0.105
  H  H38  1  0.995000  0.083200  0.944500  1.0  0.113
  H  H39  1  0.802700  0.183300  0.758800  1.0  0.0997
  H  H40  1  0.826100  0.264200  0.800000  1.0  0.1036
  H  H41  1  0.530600  0.295200  0.131500  1.0  0.1023
  H  H42  1  0.466600  0.221400  0.134600  1.0  0.1002
  H  H43  1  0.405000  0.431800  0.238300  1.0  0.0968
  H  H44  1  0.493000  0.423400  0.194600  1.0  0.0969
  H  H45  1  0.267300  0.437100  0.166700  1.0  0.0983
  H  H46  1  0.267900  0.432200  0.078800  1.0  0.0943
  H  H47  1  0.327100  0.227700  0.065200  1.0  0.1019
  H  H48  1  0.304000  0.303400  0.016100  1.0  0.0986
  H  H49  1  0.408100  0.420900  0.009500  1.0  0.1044
  H  H50  1  0.495000  0.416800  0.055500  1.0  0.1127
  H  H51  1  0.302700  0.316700  0.241200  1.0  0.099
  H  H52  1  0.326100  0.235800  0.200000  1.0  0.1036
  H  H53  1  0.969400  0.704800  0.631500  1.0  0.1021
  H  H54  1  0.033400  0.778600  0.634600  1.0  0.1005
  H  H55  1  0.095000  0.568200  0.738300  1.0  0.0977
  H  H56  1  0.007000  0.576600  0.694600  1.0  0.0979
  H  H57  1  0.232700  0.562900  0.666667  1.0  0.0979
  H  H58  1  0.232100  0.567800  0.578800  1.0  0.0946
  H  H59  1  0.172900  0.772300  0.565200  1.0  0.1016
  H  H60  1  0.196000  0.696600  0.516100  1.0  0.099
  H  H61  1  0.091900  0.579100  0.509500  1.0  0.1043
  H  H62  1  0.005000  0.583200  0.555500  1.0  0.1114
  H  H63  1  0.197300  0.683300  0.741200  1.0  0.0988
  H  H64  1  0.173900  0.764200  0.700000  1.0  0.1036
  H  H65  1  0.530600  0.204800  0.631500  1.0  0.1023
  H  H66  1  0.466600  0.278600  0.634600  1.0  0.0996
  H  H67  1  0.405000  0.068200  0.738300  1.0  0.0977
  H  H68  1  0.493000  0.076600  0.694600  1.0  0.0968
  H  H69  1  0.267300  0.062900  0.666667  1.0  0.099
  H  H70  1  0.267900  0.067800  0.578800  1.0  0.0947
  H  H71  1  0.327100  0.272300  0.565200  1.0  0.1016
  H  H72  1  0.304000  0.196600  0.516100  1.0  0.0987
  H  H73  1  0.408100  0.079100  0.509500  1.0  0.1044
  H  H74  1  0.495000  0.083200  0.555500  1.0  0.1121
  H  H75  1  0.302700  0.183300  0.741200  1.0  0.0999
  H  H76  1  0.326100  0.264200  0.700000  1.0  0.1039
  H  H77  1  0.969400  0.795200  0.131500  1.0  0.1024
  H  H78  1  0.033400  0.721400  0.134600  1.0  0.0996
  H  H79  1  0.095000  0.931800  0.238300  1.0  0.0966
  H  H80  1  0.007000  0.923400  0.194600  1.0  0.0975
  H  H81  1  0.232700  0.937100  0.166700  1.0  0.0978
  H  H82  1  0.232100  0.932200  0.078800  1.0  0.0944
  H  H83  1  0.172900  0.727700  0.065200  1.0  0.1025
  H  H84  1  0.196000  0.803400  0.016100  1.0  0.0992
  H  H85  1  0.091900  0.920900  0.009500  1.0  0.1044
  H  H86  1  0.005000  0.916800  0.055500  1.0  0.1121
  H  H87  1  0.197300  0.816700  0.241200  1.0  0.0984
  H  H88  1  0.173900  0.735800  0.200000  1.0  0.1041
  H  H89  1  0.469400  0.704800  0.868500  1.0  0.1021
  H  H90  1  0.533400  0.778600  0.865400  1.0  0.1005
  H  H91  1  0.595000  0.568200  0.761700  1.0  0.0972
  H  H92  1  0.507000  0.576600  0.805400  1.0  0.0968
  H  H93  1  0.732700  0.562900  0.833300  1.0  0.0973
  H  H94  1  0.732100  0.567800  0.921200  1.0  0.0941
  H  H95  1  0.672900  0.772300  0.934800  1.0  0.1017
  H  H96  1  0.696000  0.696600  0.983900  1.0  0.0981
  H  H97  1  0.591900  0.579100  0.990500  1.0  0.1042
  H  H98  1  0.505000  0.583200  0.944500  1.0  0.1122
  H  H99  1  0.697300  0.683300  0.758800  1.0  0.0997
  H  H100  1  0.673900  0.764200  0.800000  1.0  0.1037
  H  H101  1  0.030600  0.295200  0.368500  1.0  0.1023
  H  H102  1  0.966600  0.221400  0.365400  1.0  0.1005
  H  H103  1  0.905000  0.431800  0.261700  1.0  0.0975
  H  H104  1  0.993000  0.423400  0.305400  1.0  0.0981
  H  H105  1  0.767300  0.437100  0.333333  1.0  0.0984
  H  H106  1  0.767900  0.432200  0.421200  1.0  0.0946
  H  H107  1  0.827100  0.227700  0.434800  1.0  0.1024
  H  H108  1  0.804000  0.303400  0.483900  1.0  0.0994
  H  H109  1  0.908100  0.420900  0.490500  1.0  0.1044
  H  H110  1  0.995000  0.416800  0.444500  1.0  0.1127
  H  H111  1  0.802700  0.316700  0.258800  1.0  0.0995
  H  H112  1  0.826100  0.235800  0.300000  1.0  0.1029
  C  C113  1  0.530300  0.770100  0.505900  1.0  0.7231
  C  C114  1  0.573600  0.809200  0.440300  1.0  0.0087
  C  C115  1  0.530000  0.779800  0.368400  1.0  -0.2142
  C  C116  1  0.575100  0.816900  0.301500  1.0  0.0049
  C  C117  1  0.567600  0.907900  0.305400  1.0  -0.2254
  C  C118  1  0.611400  0.939000  0.376800  1.0  0.0196
  C  C119  1  0.703700  0.912900  0.376000  1.0  -0.2117
  C  C120  1  0.712800  0.823600  0.371800  1.0  0.0114
  C  C121  1  0.667900  0.786000  0.437900  1.0  -0.2027
  C  C122  1  0.565700  0.901400  0.444400  1.0  -0.2114
  C  C123  1  0.668800  0.794100  0.302600  1.0  -0.1951
  C  C124  1  0.532800  0.789900  0.230600  1.0  0.7068
  C  C125  1  0.606400  0.028900  0.381800  1.0  0.6579
  C  C126  1  0.806100  0.799300  0.374100  1.0  0.7252
  C  C127  1  0.969700  0.229900  0.005900  1.0  0.7235
  C  C128  1  0.926400  0.190800  0.940300  1.0  0.01
  C  C129  1  0.970000  0.220200  0.868400  1.0  -0.2153
  C  C130  1  0.924900  0.183100  0.801500  1.0  0.0063
  C  C131  1  0.932400  0.092100  0.805400  1.0  -0.2254
  C  C132  1  0.888600  0.061000  0.876800  1.0  0.0198
  C  C133  1  0.796300  0.087100  0.876000  1.0  -0.2101
  C  C134  1  0.787200  0.176400  0.871800  1.0  0.0109
  C  C135  1  0.832100  0.214000  0.937900  1.0  -0.2024
  C  C136  1  0.934300  0.098600  0.944400  1.0  -0.2111
  C  C137  1  0.831200  0.205900  0.802600  1.0  -0.1953
  C  C138  1  0.967200  0.210100  0.730600  1.0  0.7062
  C  C139  1  0.893600  0.971100  0.881800  1.0  0.6578
  C  C140  1  0.693900  0.200700  0.874100  1.0  0.7233
  C  C141  1  0.469700  0.270100  0.994100  1.0  0.7229
  C  C142  1  0.426400  0.309200  0.059700  1.0  0.0074
  C  C143  1  0.470000  0.279800  0.131600  1.0  -0.2157
  C  C144  1  0.424900  0.316900  0.198500  1.0  0.0069
  C  C145  1  0.432400  0.407900  0.194600  1.0  -0.2252
  C  C146  1  0.388600  0.439000  0.123200  1.0  0.0197
  C  C147  1  0.296300  0.412900  0.124000  1.0  -0.2104
  C  C148  1  0.287200  0.323600  0.128200  1.0  0.0108
  C  C149  1  0.332100  0.286000  0.062100  1.0  -0.2027
  C  C150  1  0.434300  0.401400  0.055600  1.0  -0.2113
  C  C151  1  0.331200  0.294100  0.197400  1.0  -0.1928
  C  C152  1  0.467200  0.289900  0.269400  1.0  0.7068
  C  C153  1  0.393600  0.528900  0.118200  1.0  0.6577
  C  C154  1  0.193900  0.299300  0.125900  1.0  0.7234
  C  C155  1  0.030300  0.729900  0.494100  1.0  0.725
  C  C156  1  0.073600  0.690800  0.559700  1.0  0.0081
  C  C157  1  0.030000  0.720200  0.631600  1.0  -0.2157
  C  C158  1  0.075100  0.683100  0.698500  1.0  0.0074
  C  C159  1  0.067600  0.592100  0.694600  1.0  -0.2249
  C  C160  1  0.111400  0.561000  0.623200  1.0  0.02
  C  C161  1  0.203700  0.587100  0.624000  1.0  -0.2117
  C  C162  1  0.212800  0.676400  0.628200  1.0  0.0109
  C  C163  1  0.167900  0.714000  0.562100  1.0  -0.2028
  C  C164  1  0.065700  0.598600  0.555600  1.0  -0.2107
  C  C165  1  0.168800  0.705900  0.697400  1.0  -0.1942
  C  C166  1  0.032800  0.710100  0.769400  1.0  0.7058
  C  C167  1  0.106400  0.471100  0.618200  1.0  0.6577
  C  C168  1  0.306100  0.700700  0.625900  1.0  0.7255
  C  C169  1  0.469700  0.229900  0.494100  1.0  0.7243
  C  C170  1  0.426400  0.190800  0.559700  1.0  0.0083
  C  C171  1  0.470000  0.220200  0.631600  1.0  -0.2155
  C  C172  1  0.424900  0.183100  0.698500  1.0  0.0078
  C  C173  1  0.432400  0.092100  0.694600  1.0  -0.2252
  C  C174  1  0.388600  0.061000  0.623200  1.0  0.0201
  C  C175  1  0.296300  0.087100  0.624000  1.0  -0.2104
  C  C176  1  0.287200  0.176400  0.628200  1.0  0.0108
  C  C177  1  0.332100  0.214000  0.562100  1.0  -0.2029
  C  C178  1  0.434300  0.098600  0.555600  1.0  -0.2114
  C  C179  1  0.331200  0.205900  0.697400  1.0  -0.1944
  C  C180  1  0.467200  0.210100  0.769400  1.0  0.706
  C  C181  1  0.393600  0.971100  0.618200  1.0  0.6575
  C  C182  1  0.193900  0.200700  0.625900  1.0  0.7235
  C  C183  1  0.030300  0.770100  0.994100  1.0  0.7237
  C  C184  1  0.073600  0.809200  0.059700  1.0  0.0069
  C  C185  1  0.030000  0.779800  0.131600  1.0  -0.2142
  C  C186  1  0.075100  0.816900  0.198500  1.0  0.0068
  C  C187  1  0.067600  0.907900  0.194600  1.0  -0.2253
  C  C188  1  0.111400  0.939000  0.123200  1.0  0.0196
  C  C189  1  0.203700  0.912900  0.124000  1.0  -0.211
  C  C190  1  0.212800  0.823600  0.128200  1.0  0.0112
  C  C191  1  0.167900  0.786000  0.062100  1.0  -0.2031
  C  C192  1  0.065700  0.901400  0.055600  1.0  -0.2107
  C  C193  1  0.168800  0.794100  0.197400  1.0  -0.194
  C  C194  1  0.032800  0.789900  0.269400  1.0  0.7072
  C  C195  1  0.106400  0.028900  0.118200  1.0  0.6579
  C  C196  1  0.306100  0.799300  0.125900  1.0  0.7254
  C  C197  1  0.530300  0.729900  0.005900  1.0  0.723
  C  C198  1  0.573600  0.690800  0.940300  1.0  0.0096
  C  C199  1  0.530000  0.720200  0.868400  1.0  -0.2158
  C  C200  1  0.575100  0.683100  0.801500  1.0  0.0055
  C  C201  1  0.567600  0.592100  0.805400  1.0  -0.2254
  C  C202  1  0.611400  0.561000  0.876800  1.0  0.0198
  C  C203  1  0.703700  0.587100  0.876000  1.0  -0.2116
  C  C204  1  0.712800  0.676400  0.871800  1.0  0.0112
  C  C205  1  0.667900  0.714000  0.937900  1.0  -0.2027
  C  C206  1  0.565700  0.598600  0.944400  1.0  -0.2107
  C  C207  1  0.668800  0.705900  0.802600  1.0  -0.194
  C  C208  1  0.532800  0.710100  0.730600  1.0  0.7075
  C  C209  1  0.606400  0.471100  0.881800  1.0  0.658
  C  C210  1  0.806100  0.700700  0.874100  1.0  0.7253
  C  C211  1  0.969700  0.270100  0.505900  1.0  0.7232
  C  C212  1  0.926400  0.309200  0.440300  1.0  0.0088
  C  C213  1  0.970000  0.279800  0.368400  1.0  -0.2156
  C  C214  1  0.924900  0.316900  0.301500  1.0  0.0058
  C  C215  1  0.932400  0.407900  0.305400  1.0  -0.2252
  C  C216  1  0.888600  0.439000  0.376800  1.0  0.0196
  C  C217  1  0.796300  0.412900  0.376000  1.0  -0.2112
  C  C218  1  0.787200  0.323600  0.371800  1.0  0.0109
  C  C219  1  0.832100  0.286000  0.437900  1.0  -0.2018
  C  C220  1  0.934300  0.401400  0.444400  1.0  -0.2113
  C  C221  1  0.831200  0.294100  0.302600  1.0  -0.1946
  C  C222  1  0.967200  0.289900  0.230600  1.0  0.7056
  C  C223  1  0.893600  0.528900  0.381800  1.0  0.6576
  C  C224  1  0.693900  0.299300  0.374100  1.0  0.7233
  O  O225  1  0.508100  0.813800  0.557900  1.0  -0.6138
  O  O226  1  0.520800  0.697600  0.504000  1.0  -0.6373
  O  O227  1  0.489800  0.728300  0.230500  1.0  -0.5683
  O  O228  1  0.549700  0.830400  0.173900  1.0  -0.6723
  O  O229  1  0.566600  0.066000  0.330100  1.0  -0.6386
  O  O230  1  0.636800  0.064300  0.433800  1.0  -0.598
  O  O231  1  0.859300  0.850200  0.392000  1.0  -0.6785
  O  O232  1  0.822700  0.729500  0.358200  1.0  -0.5832
  O  O233  1  0.991900  0.186200  0.057900  1.0  -0.6135
  O  O234  1  0.979200  0.302400  0.004000  1.0  -0.6351
  O  O235  1  0.010200  0.271700  0.730500  1.0  -0.5682
  O  O236  1  0.950300  0.169600  0.673900  1.0  -0.6715
  O  O237  1  0.933400  0.934000  0.830100  1.0  -0.6369
  O  O238  1  0.863200  0.935700  0.933800  1.0  -0.5964
  O  O239  1  0.640700  0.149800  0.892000  1.0  -0.677
  O  O240  1  0.677300  0.270500  0.858200  1.0  -0.5819
  O  O241  1  0.491900  0.313800  0.942100  1.0  -0.6124
  O  O242  1  0.479200  0.197600  0.996000  1.0  -0.6372
  O  O243  1  0.510200  0.228300  0.269500  1.0  -0.568
  O  O244  1  0.450300  0.330400  0.326100  1.0  -0.6715
  O  O245  1  0.433400  0.566000  0.169900  1.0  -0.6353
  O  O246  1  0.363200  0.564300  0.066200  1.0  -0.598
  O  O247  1  0.140700  0.350200  0.108000  1.0  -0.6767
  O  O248  1  0.177300  0.229500  0.141800  1.0  -0.5823
  O  O249  1  0.008100  0.686200  0.442100  1.0  -0.6126
  O  O250  1  0.020800  0.802400  0.496000  1.0  -0.6364
  O  O251  1  0.989800  0.771700  0.769500  1.0  -0.5687
  O  O252  1  0.049700  0.669600  0.826100  1.0  -0.671
  O  O253  1  0.066600  0.434000  0.669900  1.0  -0.6366
  O  O254  1  0.136800  0.435700  0.566200  1.0  -0.5986
  O  O255  1  0.359300  0.649800  0.608000  1.0  -0.6762
  O  O256  1  0.322700  0.770500  0.641800  1.0  -0.5827
  O  O257  1  0.491900  0.186200  0.442100  1.0  -0.6122
  O  O258  1  0.479200  0.302400  0.496000  1.0  -0.6357
  O  O259  1  0.510200  0.271700  0.769500  1.0  -0.5683
  O  O260  1  0.450300  0.169600  0.826100  1.0  -0.6712
  O  O261  1  0.433400  0.934000  0.669900  1.0  -0.6356
  O  O262  1  0.363200  0.935700  0.566200  1.0  -0.5993
  O  O263  1  0.140700  0.149800  0.608000  1.0  -0.6766
  O  O264  1  0.177300  0.270500  0.641800  1.0  -0.5824
  O  O265  1  0.008100  0.813800  0.942100  1.0  -0.6127
  O  O266  1  0.020800  0.697600  0.996000  1.0  -0.6373
  O  O267  1  0.989800  0.728300  0.269500  1.0  -0.5682
  O  O268  1  0.049700  0.830400  0.326100  1.0  -0.6713
  O  O269  1  0.066600  0.066000  0.169900  1.0  -0.6365
  O  O270  1  0.136800  0.064300  0.066200  1.0  -0.598
  O  O271  1  0.359300  0.850200  0.108000  1.0  -0.6774
  O  O272  1  0.322700  0.729500  0.141800  1.0  -0.5829
  O  O273  1  0.508100  0.686200  0.057900  1.0  -0.6137
  O  O274  1  0.520800  0.802400  0.004000  1.0  -0.636
  O  O275  1  0.489800  0.771700  0.730500  1.0  -0.5686
  O  O276  1  0.549700  0.669600  0.673900  1.0  -0.6723
  O  O277  1  0.566600  0.434000  0.830100  1.0  -0.6369
  O  O278  1  0.636800  0.435700  0.933800  1.0  -0.5977
  O  O279  1  0.859300  0.649800  0.892000  1.0  -0.6741
  O  O280  1  0.822700  0.770500  0.858200  1.0  -0.5824
  O  O281  1  0.991900  0.313800  0.557900  1.0  -0.6135
  O  O282  1  0.979200  0.197600  0.504000  1.0  -0.6368
  O  O283  1  0.010200  0.228300  0.230500  1.0  -0.568
  O  O284  1  0.950300  0.330400  0.173900  1.0  -0.6712
  O  O285  1  0.933400  0.566000  0.330100  1.0  -0.6385
  O  O286  1  0.863200  0.564300  0.433800  1.0  -0.5965
  O  O287  1  0.640700  0.350200  0.392000  1.0  -0.6778
  O  O288  1  0.677300  0.229500  0.358200  1.0  -0.5829
