# generated using pymatgen
data_Ni2H14C14O9
_symmetry_space_group_name_H-M   'P 1'
_cell_length_a   10.06560000
_cell_length_b   11.16250000
_cell_length_c   19.20110000
_cell_angle_alpha   90.00000000
_cell_angle_beta   90.00000000
_cell_angle_gamma   90.00000000
_symmetry_Int_Tables_number   1
_chemical_formula_structural   Ni2H14C14O9
_chemical_formula_sum   'Ni8 H56 C56 O36'
_cell_volume   2157.38298499
_cell_formula_units_Z   4
loop_
 _symmetry_equiv_pos_site_id
 _symmetry_equiv_pos_as_xyz
  1  'x, y, z'
loop_
 _atom_site_type_symbol
 _atom_site_label
 _atom_site_symmetry_multiplicity
 _atom_site_fract_x
 _atom_site_fract_y
 _atom_site_fract_z
 _atom_site_occupancy
 _atom_site_charge
  Ni  Ni1  1  0.963210  0.129710  0.521060  1.0  0.8106
  Ni  Ni2  1  0.751620  0.015020  0.398200  1.0  1.0171
  Ni  Ni3  1  0.536790  0.870290  0.021060  1.0  0.8117
  Ni  Ni4  1  0.748380  0.984980  0.898200  1.0  1.0166
  Ni  Ni5  1  0.036790  0.629710  0.978940  1.0  0.8107
  Ni  Ni6  1  0.248380  0.515020  0.101800  1.0  1.0163
  Ni  Ni7  1  0.463210  0.370290  0.478940  1.0  0.8135
  Ni  Ni8  1  0.251620  0.484980  0.601800  1.0  1.0176
  H  H9  1  0.663800  0.707300  0.527000  1.0  0.1063
  H  H10  1  0.573400  0.776700  0.578500  1.0  0.1019
  H  H11  1  0.791600  0.528600  0.568600  1.0  0.0943
  H  H12  1  0.777200  0.484800  0.644800  1.0  0.0975
  H  H13  1  0.974600  0.791700  0.600800  1.0  0.1092
  H  H14  1  0.913600  0.715500  0.541300  1.0  0.105
  H  H15  1  0.674100  0.899100  0.674600  1.0  0.1059
  H  H16  1  0.827200  0.901700  0.683800  1.0  0.1024
  H  H17  1  0.628400  0.595400  0.727700  1.0  0.1064
  H  H18  1  0.548900  0.705900  0.702100  1.0  0.1084
  H  H19  1  0.948300  0.723400  0.725800  1.0  0.1054
  H  H20  1  0.872400  0.605700  0.742000  1.0  0.0981
  H  H21  1  0.750500  0.201700  0.484000  1.0  0.4625
  H  H22  1  0.828600  0.215000  0.422900  1.0  0.4455
  H  H23  1  0.836200  0.292700  0.027000  1.0  0.1061
  H  H24  1  0.926600  0.223300  0.078500  1.0  0.1019
  H  H25  1  0.708400  0.471400  0.068600  1.0  0.0954
  H  H26  1  0.722800  0.515200  0.144800  1.0  0.0972
  H  H27  1  0.525400  0.208300  0.100800  1.0  0.109
  H  H28  1  0.586400  0.284500  0.041300  1.0  0.1058
  H  H29  1  0.825900  0.100900  0.174600  1.0  0.1087
  H  H30  1  0.672800  0.098300  0.183800  1.0  0.1039
  H  H31  1  0.871600  0.404600  0.227700  1.0  0.105
  H  H32  1  0.951100  0.294100  0.202100  1.0  0.1083
  H  H33  1  0.551700  0.276600  0.225800  1.0  0.1059
  H  H34  1  0.627600  0.394300  0.242000  1.0  0.0987
  H  H35  1  0.749500  0.798300  0.984000  1.0  0.4638
  H  H36  1  0.671400  0.785000  0.922900  1.0  0.4473
  H  H37  1  0.336200  0.207300  0.973000  1.0  0.1063
  H  H38  1  0.426600  0.276700  0.921500  1.0  0.1019
  H  H39  1  0.208400  0.028600  0.931400  1.0  0.0957
  H  H40  1  0.222800  0.984800  0.855200  1.0  0.0965
  H  H41  1  0.025400  0.291700  0.899200  1.0  0.1094
  H  H42  1  0.086400  0.215500  0.958700  1.0  0.1051
  H  H43  1  0.325900  0.399100  0.825400  1.0  0.1083
  H  H44  1  0.172800  0.401700  0.816200  1.0  0.1031
  H  H45  1  0.371600  0.095400  0.772300  1.0  0.1055
  H  H46  1  0.451100  0.205900  0.797900  1.0  0.1087
  H  H47  1  0.051700  0.223400  0.774200  1.0  0.1044
  H  H48  1  0.127600  0.105700  0.758000  1.0  0.0981
  H  H49  1  0.249500  0.701700  0.016000  1.0  0.4626
  H  H50  1  0.171400  0.715000  0.077100  1.0  0.4472
  H  H51  1  0.163800  0.792700  0.473000  1.0  0.106
  H  H52  1  0.073400  0.723300  0.421500  1.0  0.1018
  H  H53  1  0.291600  0.971400  0.431400  1.0  0.0951
  H  H54  1  0.277200  0.015200  0.355200  1.0  0.098
  H  H55  1  0.474600  0.708300  0.399200  1.0  0.1093
  H  H56  1  0.413600  0.784500  0.458700  1.0  0.1048
  H  H57  1  0.174100  0.600900  0.325400  1.0  0.1067
  H  H58  1  0.327200  0.598300  0.316200  1.0  0.1029
  H  H59  1  0.128400  0.904600  0.272300  1.0  0.1049
  H  H60  1  0.048900  0.794100  0.297900  1.0  0.1078
  H  H61  1  0.448300  0.776600  0.274200  1.0  0.1058
  H  H62  1  0.372400  0.894300  0.258000  1.0  0.0984
  H  H63  1  0.250500  0.298300  0.516000  1.0  0.4626
  H  H64  1  0.328600  0.285000  0.577100  1.0  0.4477
  C  C65  1  0.786700  0.920600  0.543900  1.0  0.6701
  C  C66  1  0.771100  0.813000  0.594000  1.0  0.0121
  C  C67  1  0.653700  0.732700  0.573900  1.0  -0.1975
  C  C68  1  0.648400  0.621700  0.621900  1.0  0.0069
  C  C69  1  0.780200  0.553200  0.615500  1.0  -0.1979
  C  C70  1  0.898000  0.631600  0.636800  1.0  0.025
  C  C71  1  0.902200  0.741700  0.588000  1.0  -0.1987
  C  C72  1  0.753500  0.853700  0.670500  1.0  -0.2071
  C  C73  1  0.745300  0.744700  0.718400  1.0  0.0412
  C  C74  1  0.630100  0.663300  0.697900  1.0  -0.2031
  C  C75  1  0.876300  0.673600  0.712200  1.0  -0.2011
  C  C76  1  0.532400  0.543600  0.596700  1.0  0.674
  C  C77  1  0.031300  0.570100  0.627400  1.0  0.6255
  C  C78  1  0.732100  0.787600  0.794300  1.0  0.6579
  C  C79  1  0.713300  0.079400  0.043900  1.0  0.6699
  C  C80  1  0.728900  0.187000  0.094000  1.0  0.0117
  C  C81  1  0.846300  0.267300  0.073900  1.0  -0.1971
  C  C82  1  0.851600  0.378300  0.121900  1.0  0.008
  C  C83  1  0.719800  0.446800  0.115500  1.0  -0.199
  C  C84  1  0.602000  0.368400  0.136800  1.0  0.0259
  C  C85  1  0.597800  0.258300  0.088000  1.0  -0.2005
  C  C86  1  0.746500  0.146300  0.170500  1.0  -0.206
  C  C87  1  0.754700  0.255300  0.218400  1.0  0.0394
  C  C88  1  0.869900  0.336700  0.197900  1.0  -0.204
  C  C89  1  0.623700  0.326400  0.212200  1.0  -0.2005
  C  C90  1  0.967600  0.456400  0.096700  1.0  0.6719
  C  C91  1  0.468700  0.429900  0.127400  1.0  0.6253
  C  C92  1  0.767900  0.212400  0.294300  1.0  0.6586
  C  C93  1  0.213300  0.420600  0.956100  1.0  0.6701
  C  C94  1  0.228900  0.313000  0.906000  1.0  0.0133
  C  C95  1  0.346300  0.232700  0.926100  1.0  -0.1977
  C  C96  1  0.351600  0.121700  0.878100  1.0  0.0072
  C  C97  1  0.219800  0.053200  0.884500  1.0  -0.1984
  C  C98  1  0.102000  0.131600  0.863200  1.0  0.025
  C  C99  1  0.097800  0.241700  0.912000  1.0  -0.1992
  C  C100  1  0.246500  0.353700  0.829500  1.0  -0.2067
  C  C101  1  0.254700  0.244700  0.781600  1.0  0.0346
  C  C102  1  0.369900  0.163300  0.802100  1.0  -0.2036
  C  C103  1  0.123700  0.173600  0.787800  1.0  -0.199
  C  C104  1  0.467600  0.043600  0.903300  1.0  0.6723
  C  C105  1  0.968700  0.070100  0.872600  1.0  0.625
  C  C106  1  0.267900  0.287600  0.705700  1.0  0.6581
  C  C107  1  0.286700  0.579400  0.456100  1.0  0.6708
  C  C108  1  0.271100  0.687000  0.406000  1.0  0.0118
  C  C109  1  0.153700  0.767300  0.426100  1.0  -0.1985
  C  C110  1  0.148400  0.878300  0.378100  1.0  0.0075
  C  C111  1  0.280200  0.946800  0.384500  1.0  -0.1991
  C  C112  1  0.398000  0.868400  0.363200  1.0  0.0257
  C  C113  1  0.402200  0.758300  0.412000  1.0  -0.1983
  C  C114  1  0.253500  0.646300  0.329500  1.0  -0.2065
  C  C115  1  0.245300  0.755300  0.281600  1.0  0.0346
  C  C116  1  0.130100  0.836700  0.302100  1.0  -0.2008
  C  C117  1  0.376300  0.826400  0.287800  1.0  -0.1998
  C  C118  1  0.032400  0.956400  0.403300  1.0  0.6733
  C  C119  1  0.531300  0.929900  0.372600  1.0  0.6259
  C  C120  1  0.232100  0.712400  0.205700  1.0  0.6587
  O  O121  1  0.835300  0.015600  0.569670  1.0  -0.6006
  O  O122  1  0.756800  0.903900  0.481580  1.0  -0.5669
  O  O123  1  0.430500  0.537900  0.632470  1.0  -0.5416
  O  O124  1  0.549800  0.494800  0.537910  1.0  -0.6175
  O  O125  1  0.042000  0.475800  0.591200  1.0  -0.5824
  O  O126  1  0.134700  0.617100  0.652790  1.0  -0.5215
  O  O127  1  0.687200  0.712400  0.839190  1.0  -0.6561
  O  O128  1  0.766900  0.889400  0.808630  1.0  -0.5429
  O  O129  1  0.806600  0.168800  0.452790  1.0  -0.8527
  O  O130  1  0.664700  0.984400  0.069670  1.0  -0.6017
  O  O131  1  0.743200  0.096100  0.981580  1.0  -0.568
  O  O132  1  0.069500  0.462100  0.132470  1.0  -0.5407
  O  O133  1  0.950200  0.505200  0.037910  1.0  -0.6182
  O  O134  1  0.458000  0.524200  0.091200  1.0  -0.5819
  O  O135  1  0.365300  0.382900  0.152790  1.0  -0.5246
  O  O136  1  0.812800  0.287600  0.339190  1.0  -0.6552
  O  O137  1  0.733100  0.110600  0.308630  1.0  -0.5432
  O  O138  1  0.693400  0.831200  0.952790  1.0  -0.8522
  O  O139  1  0.164700  0.515600  0.930330  1.0  -0.6024
  O  O140  1  0.243200  0.403900  0.018420  1.0  -0.5666
  O  O141  1  0.569500  0.037900  0.867530  1.0  -0.5415
  O  O142  1  0.450200  0.994800  0.962090  1.0  -0.6184
  O  O143  1  0.958000  0.975800  0.908800  1.0  -0.5829
  O  O144  1  0.865300  0.117100  0.847210  1.0  -0.5263
  O  O145  1  0.312800  0.212400  0.660810  1.0  -0.6553
  O  O146  1  0.233100  0.389400  0.691370  1.0  -0.5435
  O  O147  1  0.193400  0.668800  0.047210  1.0  -0.8535
  O  O148  1  0.335300  0.484400  0.430330  1.0  -0.601
  O  O149  1  0.256800  0.596100  0.518420  1.0  -0.5664
  O  O150  1  0.930500  0.962100  0.367530  1.0  -0.5422
  O  O151  1  0.049800  0.005200  0.462090  1.0  -0.6189
  O  O152  1  0.542000  0.024200  0.408800  1.0  -0.5811
  O  O153  1  0.634700  0.882900  0.347210  1.0  -0.5224
  O  O154  1  0.187200  0.787600  0.160810  1.0  -0.6554
  O  O155  1  0.266900  0.610600  0.191370  1.0  -0.5435
  O  O156  1  0.306600  0.331200  0.547210  1.0  -0.8525
