# generated using pymatgen
data_ZnH25C24NO6
_symmetry_space_group_name_H-M   'P 1'
_cell_length_a   9.95180000
_cell_length_b   11.57610000
_cell_length_c   15.55620000
_cell_angle_alpha   72.37700000
_cell_angle_beta   83.16500000
_cell_angle_gamma   84.32600000
_symmetry_Int_Tables_number   1
_chemical_formula_structural   ZnH25C24NO6
_chemical_formula_sum   'Zn2 H50 C48 N2 O12'
_cell_volume   1692.13379261
_cell_formula_units_Z   2
loop_
 _symmetry_equiv_pos_site_id
 _symmetry_equiv_pos_as_xyz
  1  'x, y, z'
loop_
 _atom_site_type_symbol
 _atom_site_label
 _atom_site_symmetry_multiplicity
 _atom_site_fract_x
 _atom_site_fract_y
 _atom_site_fract_z
 _atom_site_occupancy
 _atom_site_charge
  Zn  Zn1  1  0.585400  0.907300  0.112200  1.0  0.9852
  Zn  Zn2  1  0.414600  0.092700  0.887800  1.0  0.983
  H  H3  1  0.759100  0.614700  0.023200  1.0  0.0933
  H  H4  1  0.766800  0.412500  0.990400  1.0  0.0955
  H  H5  1  0.110000  0.750700  0.039000  1.0  0.0977
  H  H6  1  0.516400  0.283500  0.127800  1.0  0.1184
  H  H7  1  0.465700  0.467500  0.176800  1.0  0.1304
  H  H8  1  0.566100  0.321100  0.858200  1.0  0.0969
  H  H9  1  0.749700  0.704200  0.434600  1.0  0.1001
  H  H10  1  0.714400  0.548100  0.567300  1.0  0.1249
  H  H11  1  0.421500  0.624100  0.337600  1.0  0.1045
  H  H12  1  0.240900  0.385300  0.976800  1.0  0.0934
  H  H13  1  0.233200  0.587500  0.009600  1.0  0.0952
  H  H14  1  0.890000  0.249300  0.961000  1.0  0.0976
  H  H15  1  0.483600  0.716500  0.872200  1.0  0.1188
  H  H16  1  0.534300  0.532500  0.823200  1.0  0.1302
  H  H17  1  0.433900  0.678900  0.141800  1.0  0.0965
  H  H18  1  0.250300  0.295800  0.565400  1.0  0.0993
  H  H19  1  0.285600  0.451900  0.432700  1.0  0.1248
  H  H20  1  0.578500  0.375900  0.662400  1.0  0.1063
  H  H21  1  0.951000  0.908000  0.197000  1.0  0.2461
  H  H22  1  0.795000  0.175900  0.235100  1.0  0.1094
  H  H23  1  0.915300  0.169100  0.158400  1.0  0.1111
  H  H24  1  0.786100  0.091100  0.171900  1.0  0.1055
  H  H25  1  0.975300  0.052700  0.301900  1.0  0.072
  H  H26  1  0.847100  0.974200  0.314300  1.0  0.0789
  H  H27  1  0.284500  0.081200  0.142400  1.0  0.1191
  H  H28  1  0.172800  0.108100  0.218200  1.0  0.1001
  H  H29  1  0.260800  0.981000  0.238600  1.0  0.0968
  H  H30  1  0.068700  0.057500  0.107700  1.0  0.0782
  H  H31  1  0.157100  0.930900  0.127500  1.0  0.088
  H  H32  1  0.108300  0.854300  0.336700  1.0  0.0757
  H  H33  1  0.974700  0.786600  0.339100  1.0  0.0838
  H  H34  1  0.168700  0.664900  0.313200  1.0  0.1131
  H  H35  1  0.082700  0.701400  0.227200  1.0  0.1093
  H  H36  1  0.216100  0.769800  0.224000  1.0  0.0977
  H  H37  1  0.049000  0.092000  0.803000  1.0  0.2498
  H  H38  1  0.205000  0.824100  0.764900  1.0  0.1078
  H  H39  1  0.084700  0.830900  0.841600  1.0  0.1116
  H  H40  1  0.213900  0.908900  0.828100  1.0  0.1072
  H  H41  1  0.024700  0.947300  0.698100  1.0  0.0741
  H  H42  1  0.152900  0.025800  0.685700  1.0  0.0801
  H  H43  1  0.715500  0.918800  0.857600  1.0  0.1178
  H  H44  1  0.827200  0.891900  0.781800  1.0  0.1009
  H  H45  1  0.739200  0.019000  0.761400  1.0  0.097
  H  H46  1  0.931300  0.942500  0.892300  1.0  0.0778
  H  H47  1  0.842900  0.069100  0.872500  1.0  0.0869
  H  H48  1  0.891700  0.145700  0.663300  1.0  0.0763
  H  H49  1  0.025300  0.213400  0.660900  1.0  0.0836
  H  H50  1  0.831300  0.335100  0.686800  1.0  0.112
  H  H51  1  0.917300  0.298600  0.772800  1.0  0.1085
  H  H52  1  0.783900  0.230200  0.776000  1.0  0.0934
  C  C53  1  0.842900  0.802400  0.061600  1.0  0.6377
  C  C54  1  0.920000  0.697700  0.035000  1.0  -0.1322
  C  C55  1  0.855300  0.608100  0.020700  1.0  -0.0941
  C  C56  1  0.928000  0.503900  0.002100  1.0  0.0466
  C  C57  1  0.863000  0.408500  0.987700  1.0  -0.1108
  C  C58  1  0.064000  0.687900  0.029900  1.0  -0.0431
  C  C59  1  0.569300  0.146400  0.015800  1.0  0.652
  C  C60  1  0.545400  0.282900  0.997700  1.0  -0.0366
  C  C61  1  0.519500  0.333400  0.066700  1.0  -0.1393
  C  C62  1  0.496100  0.466700  0.045800  1.0  0.0102
  C  C63  1  0.470100  0.517000  0.115600  1.0  -0.1582
  C  C64  1  0.549500  0.357900  0.905700  1.0  -0.0343
  C  C65  1  0.614800  0.778500  0.285700  1.0  0.6784
  C  C66  1  0.588900  0.679000  0.372900  1.0  -0.1224
  C  C67  1  0.675500  0.655200  0.442400  1.0  -0.0353
  C  C68  1  0.654800  0.562500  0.521200  1.0  -0.1123
  C  C69  1  0.544300  0.488100  0.534200  1.0  0.047
  C  C70  1  0.480200  0.608300  0.384300  1.0  -0.1065
  C  C71  1  0.157100  0.197600  0.938400  1.0  0.6388
  C  C72  1  0.080000  0.302300  0.965000  1.0  -0.1328
  C  C73  1  0.144700  0.391900  0.979300  1.0  -0.0891
  C  C74  1  0.072000  0.496100  0.997900  1.0  0.0461
  C  C75  1  0.137000  0.591500  0.012300  1.0  -0.1128
  C  C76  1  0.936000  0.312100  0.970100  1.0  -0.0418
  C  C77  1  0.430700  0.853600  0.984200  1.0  0.6534
  C  C78  1  0.454600  0.717100  0.002300  1.0  -0.0321
  C  C79  1  0.480500  0.666667  0.933300  1.0  -0.1407
  C  C80  1  0.503900  0.533300  0.954200  1.0  0.0114
  C  C81  1  0.529900  0.483000  0.884400  1.0  -0.1617
  C  C82  1  0.450500  0.642100  0.094300  1.0  -0.0343
  C  C83  1  0.385200  0.221500  0.714300  1.0  0.6776
  C  C84  1  0.411100  0.321000  0.627100  1.0  -0.123
  C  C85  1  0.324500  0.344800  0.557600  1.0  -0.0347
  C  C86  1  0.345200  0.437500  0.478800  1.0  -0.1066
  C  C87  1  0.455700  0.511900  0.465800  1.0  0.0472
  C  C88  1  0.519800  0.391700  0.615700  1.0  -0.107
  C  C89  1  0.847300  0.122800  0.203000  1.0  -0.3294
  C  C90  1  0.916600  0.019600  0.269200  1.0  -0.0372
  C  C91  1  0.216600  0.045200  0.191900  1.0  -0.3059
  C  C92  1  0.111400  0.992200  0.155700  1.0  -0.0481
  C  C93  1  0.052900  0.825700  0.299300  1.0  -0.0444
  C  C94  1  0.137500  0.732300  0.262700  1.0  -0.347
  C  C95  1  0.152700  0.877200  0.797000  1.0  -0.3286
  C  C96  1  0.083400  0.980400  0.730800  1.0  -0.038
  C  C97  1  0.783400  0.954800  0.808100  1.0  -0.3061
  C  C98  1  0.888600  0.007800  0.844300  1.0  -0.0476
  C  C99  1  0.947100  0.174300  0.700700  1.0  -0.0448
  C  C100  1  0.862500  0.267700  0.737300  1.0  -0.3477
  N  N101  1  0.001300  0.933000  0.226900  1.0  0.0696
  N  N102  1  0.998700  0.067000  0.773100  1.0  0.0706
  O  O103  1  0.713300  0.809400  0.056100  1.0  -0.6112
  O  O104  1  0.902700  0.872500  0.086900  1.0  -0.5657
  O  O105  1  0.579000  0.081400  0.097500  1.0  -0.6035
  O  O106  1  0.580300  0.104900  0.950100  1.0  -0.5859
  O  O107  1  0.521800  0.806500  0.232500  1.0  -0.6029
  O  O108  1  0.725800  0.826300  0.270600  1.0  -0.5749
  O  O109  1  0.286700  0.190600  0.943900  1.0  -0.6097
  O  O110  1  0.097300  0.127500  0.913100  1.0  -0.5644
  O  O111  1  0.421000  0.918600  0.902500  1.0  -0.6027
  O  O112  1  0.419700  0.895100  0.049900  1.0  -0.5847
  O  O113  1  0.478200  0.193500  0.767500  1.0  -0.6021
  O  O114  1  0.274200  0.173700  0.729400  1.0  -0.5741
