# generated using pymatgen
data_Zn3H32C54O13
_symmetry_space_group_name_H-M   'P 1'
_cell_length_a   17.15800000
_cell_length_b   21.59100000
_cell_length_c   25.30800000
_cell_angle_alpha   90.00000000
_cell_angle_beta   90.00000000
_cell_angle_gamma   90.00000000
_symmetry_Int_Tables_number   1
_chemical_formula_structural   Zn3H32C54O13
_chemical_formula_sum   'Zn12 H128 C216 O52'
_cell_volume   9375.56063042
_cell_formula_units_Z   4
loop_
 _symmetry_equiv_pos_site_id
 _symmetry_equiv_pos_as_xyz
  1  'x, y, z'
loop_
 _atom_site_type_symbol
 _atom_site_label
 _atom_site_symmetry_multiplicity
 _atom_site_fract_x
 _atom_site_fract_y
 _atom_site_fract_z
 _atom_site_occupancy
 _atom_site_charge
  Zn  Zn1  1  0.495000  0.665000  0.613100  1.0  1.0656
  Zn  Zn2  1  0.005000  0.335000  0.113100  1.0  1.0651
  Zn  Zn3  1  0.495000  0.835000  0.613100  1.0  1.0653
  Zn  Zn4  1  0.005000  0.165000  0.113100  1.0  1.0654
  Zn  Zn5  1  0.383200  0.750000  0.682900  1.0  0.9904
  Zn  Zn6  1  0.116800  0.250000  0.182900  1.0  0.9899
  Zn  Zn7  1  0.505000  0.165000  0.386900  1.0  1.0654
  Zn  Zn8  1  0.995000  0.835000  0.886900  1.0  1.0654
  Zn  Zn9  1  0.505000  0.335000  0.386900  1.0  1.0651
  Zn  Zn10  1  0.995000  0.665000  0.886900  1.0  1.0657
  Zn  Zn11  1  0.616800  0.250000  0.317100  1.0  0.9914
  Zn  Zn12  1  0.883200  0.750000  0.817100  1.0  0.992
  H  H13  1  0.965800  0.434900  0.033300  1.0  0.4032
  H  H14  1  0.390500  0.628600  0.812200  1.0  0.1181
  H  H15  1  0.401300  0.562300  0.883700  1.0  0.0862
  H  H16  1  0.572000  0.468100  0.808500  1.0  0.12
  H  H17  1  0.556000  0.532200  0.735500  1.0  0.1077
  H  H18  1  0.382400  0.459200  0.917900  1.0  0.1064
  H  H19  1  0.520500  0.374100  0.025100  1.0  0.1008
  H  H20  1  0.616400  0.464000  0.901100  1.0  0.1087
  H  H21  1  0.296400  0.393400  0.944900  1.0  0.0966
  H  H22  1  0.184600  0.363200  0.988900  1.0  0.1121
  H  H23  1  0.306800  0.361800  0.125400  1.0  0.1073
  H  H24  1  0.417700  0.394500  0.079700  1.0  0.119
  H  H25  1  0.641900  0.326700  0.022100  1.0  0.0922
  H  H26  1  0.774100  0.315500  0.060700  1.0  0.1076
  H  H27  1  0.826000  0.483500  0.008000  1.0  0.1014
  H  H28  1  0.704200  0.494000  0.970800  1.0  0.0861
  H  H29  1  0.534200  0.565100  0.533300  1.0  0.4042
  H  H30  1  0.109500  0.371400  0.312200  1.0  0.1178
  H  H31  1  0.098700  0.437700  0.383700  1.0  0.086
  H  H32  1  0.928000  0.531900  0.308500  1.0  0.1216
  H  H33  1  0.944000  0.467800  0.235500  1.0  0.1076
  H  H34  1  0.117600  0.540800  0.417900  1.0  0.1062
  H  H35  1  0.979500  0.625900  0.525100  1.0  0.1001
  H  H36  1  0.883600  0.536000  0.401100  1.0  0.1092
  H  H37  1  0.203600  0.606600  0.444900  1.0  0.0967
  H  H38  1  0.315400  0.636800  0.488900  1.0  0.1129
  H  H39  1  0.193200  0.638200  0.625400  1.0  0.1068
  H  H40  1  0.082300  0.605500  0.579700  1.0  0.119
  H  H41  1  0.858100  0.673300  0.522100  1.0  0.0919
  H  H42  1  0.725900  0.684500  0.560700  1.0  0.1078
  H  H43  1  0.674000  0.516500  0.508000  1.0  0.1009
  H  H44  1  0.795800  0.506000  0.470800  1.0  0.0857
  H  H45  1  0.965800  0.065100  0.033300  1.0  0.4038
  H  H46  1  0.390500  0.871400  0.812200  1.0  0.1175
  H  H47  1  0.401300  0.937700  0.883700  1.0  0.0864
  H  H48  1  0.572000  0.031900  0.808500  1.0  0.1207
  H  H49  1  0.556000  0.967800  0.735500  1.0  0.1078
  H  H50  1  0.382400  0.040800  0.917900  1.0  0.1056
  H  H51  1  0.520500  0.125900  0.025100  1.0  0.1004
  H  H52  1  0.616400  0.036000  0.901100  1.0  0.1091
  H  H53  1  0.296400  0.106600  0.944900  1.0  0.0958
  H  H54  1  0.184600  0.136800  0.988900  1.0  0.1121
  H  H55  1  0.306800  0.138200  0.125400  1.0  0.1069
  H  H56  1  0.417700  0.105500  0.079700  1.0  0.1188
  H  H57  1  0.641900  0.173300  0.022100  1.0  0.0921
  H  H58  1  0.774100  0.184500  0.060700  1.0  0.1076
  H  H59  1  0.826000  0.016500  0.008000  1.0  0.1012
  H  H60  1  0.704200  0.006000  0.970800  1.0  0.0862
  H  H61  1  0.534200  0.934900  0.533300  1.0  0.4039
  H  H62  1  0.109500  0.128600  0.312200  1.0  0.1181
  H  H63  1  0.098700  0.062300  0.383700  1.0  0.0861
  H  H64  1  0.928000  0.968100  0.308500  1.0  0.1205
  H  H65  1  0.944000  0.032200  0.235500  1.0  0.1076
  H  H66  1  0.117600  0.959200  0.417900  1.0  0.1068
  H  H67  1  0.979500  0.874100  0.525100  1.0  0.1008
  H  H68  1  0.883600  0.964000  0.401100  1.0  0.1091
  H  H69  1  0.203600  0.893400  0.444900  1.0  0.0974
  H  H70  1  0.315400  0.863200  0.488900  1.0  0.1127
  H  H71  1  0.193200  0.861800  0.625400  1.0  0.1071
  H  H72  1  0.082300  0.894500  0.579700  1.0  0.1184
  H  H73  1  0.858100  0.826700  0.522100  1.0  0.0926
  H  H74  1  0.725900  0.815500  0.560700  1.0  0.1079
  H  H75  1  0.674000  0.983500  0.508000  1.0  0.1013
  H  H76  1  0.795800  0.994000  0.470800  1.0  0.0859
  H  H77  1  0.034200  0.934900  0.966700  1.0  0.4042
  H  H78  1  0.609500  0.128600  0.187800  1.0  0.118
  H  H79  1  0.598700  0.062300  0.116300  1.0  0.0879
  H  H80  1  0.428000  0.968100  0.191500  1.0  0.1207
  H  H81  1  0.444000  0.032200  0.264500  1.0  0.1079
  H  H82  1  0.617600  0.959200  0.082100  1.0  0.1071
  H  H83  1  0.479500  0.874100  0.974900  1.0  0.1005
  H  H84  1  0.383600  0.964000  0.098900  1.0  0.1089
  H  H85  1  0.703600  0.893400  0.055100  1.0  0.0958
  H  H86  1  0.815400  0.863200  0.011100  1.0  0.1117
  H  H87  1  0.693200  0.861800  0.874600  1.0  0.1073
  H  H88  1  0.582300  0.894500  0.920300  1.0  0.1184
  H  H89  1  0.358100  0.826700  0.977900  1.0  0.0922
  H  H90  1  0.225900  0.815500  0.939300  1.0  0.1075
  H  H91  1  0.174000  0.983500  0.992000  1.0  0.1012
  H  H92  1  0.295800  0.994000  0.029200  1.0  0.0863
  H  H93  1  0.465800  0.065100  0.466700  1.0  0.4041
  H  H94  1  0.890500  0.871400  0.687800  1.0  0.1173
  H  H95  1  0.901300  0.937700  0.616300  1.0  0.088
  H  H96  1  0.072000  0.031900  0.691500  1.0  0.1209
  H  H97  1  0.056000  0.967800  0.764500  1.0  0.1078
  H  H98  1  0.882400  0.040800  0.582100  1.0  0.1066
  H  H99  1  0.020500  0.125900  0.474900  1.0  0.0999
  H  H100  1  0.116400  0.036000  0.598900  1.0  0.1082
  H  H101  1  0.796400  0.106600  0.555100  1.0  0.096
  H  H102  1  0.684600  0.136800  0.511100  1.0  0.1124
  H  H103  1  0.806800  0.138200  0.374600  1.0  0.1071
  H  H104  1  0.917700  0.105500  0.420300  1.0  0.1179
  H  H105  1  0.141900  0.173300  0.477900  1.0  0.0918
  H  H106  1  0.274100  0.184500  0.439300  1.0  0.1077
  H  H107  1  0.326000  0.016500  0.492000  1.0  0.1011
  H  H108  1  0.204200  0.006000  0.529200  1.0  0.0856
  H  H109  1  0.034200  0.565100  0.966700  1.0  0.4042
  H  H110  1  0.609500  0.371400  0.187800  1.0  0.1177
  H  H111  1  0.598700  0.437700  0.116300  1.0  0.0879
  H  H112  1  0.428000  0.531900  0.191500  1.0  0.1217
  H  H113  1  0.444000  0.467800  0.264500  1.0  0.1079
  H  H114  1  0.617600  0.540800  0.082100  1.0  0.1066
  H  H115  1  0.479500  0.625900  0.974900  1.0  0.0997
  H  H116  1  0.383600  0.536000  0.098900  1.0  0.109
  H  H117  1  0.703600  0.606600  0.055100  1.0  0.0951
  H  H118  1  0.815400  0.636800  0.011100  1.0  0.1117
  H  H119  1  0.693200  0.638200  0.874600  1.0  0.1074
  H  H120  1  0.582300  0.605500  0.920300  1.0  0.1187
  H  H121  1  0.358100  0.673300  0.977900  1.0  0.0917
  H  H122  1  0.225900  0.684500  0.939300  1.0  0.1078
  H  H123  1  0.174000  0.516500  0.992000  1.0  0.1011
  H  H124  1  0.295800  0.506000  0.029200  1.0  0.086
  H  H125  1  0.465800  0.434900  0.466700  1.0  0.4037
  H  H126  1  0.890500  0.628600  0.687800  1.0  0.1181
  H  H127  1  0.901300  0.562300  0.616300  1.0  0.0879
  H  H128  1  0.072000  0.468100  0.691500  1.0  0.1205
  H  H129  1  0.056000  0.532200  0.764500  1.0  0.1075
  H  H130  1  0.882400  0.459200  0.582100  1.0  0.1071
  H  H131  1  0.020500  0.374100  0.474900  1.0  0.1005
  H  H132  1  0.116400  0.464000  0.598900  1.0  0.1079
  H  H133  1  0.796400  0.393400  0.555100  1.0  0.0969
  H  H134  1  0.684600  0.363200  0.511100  1.0  0.1125
  H  H135  1  0.806800  0.361800  0.374600  1.0  0.1071
  H  H136  1  0.917700  0.394500  0.420300  1.0  0.1181
  H  H137  1  0.141900  0.326700  0.477900  1.0  0.0917
  H  H138  1  0.274100  0.315500  0.439300  1.0  0.1074
  H  H139  1  0.326000  0.483500  0.492000  1.0  0.101
  H  H140  1  0.204200  0.494000  0.529200  1.0  0.0857
  C  C141  1  0.462800  0.631600  0.721800  1.0  0.714
  C  C142  1  0.472800  0.587200  0.768100  1.0  -0.1275
  C  C143  1  0.427300  0.595800  0.811400  1.0  -0.0701
  C  C144  1  0.434700  0.556700  0.854200  1.0  -0.1551
  C  C145  1  0.488200  0.510500  0.855500  1.0  0.0796
  C  C146  1  0.534900  0.500800  0.809400  1.0  -0.1282
  C  C147  1  0.525800  0.538900  0.766500  1.0  -0.0517
  C  C148  1  0.498900  0.470100  0.903200  1.0  0.0188
  C  C149  1  0.432700  0.449100  0.930900  1.0  -0.1363
  C  C150  1  0.439400  0.413900  0.976800  1.0  0.0425
  C  C151  1  0.514600  0.399200  0.994500  1.0  -0.1126
  C  C152  1  0.580600  0.420200  0.968500  1.0  0.0355
  C  C153  1  0.571600  0.453200  0.921200  1.0  -0.1251
  C  C154  1  0.367300  0.393000  0.006100  1.0  0.0575
  C  C155  1  0.299100  0.386000  0.981900  1.0  -0.1107
  C  C156  1  0.231900  0.368400  0.008000  1.0  -0.1419
  C  C157  1  0.233400  0.358500  0.061000  1.0  -0.1
  C  C158  1  0.304500  0.368000  0.088300  1.0  -0.0558
  C  C159  1  0.370700  0.386400  0.061200  1.0  -0.1178
  C  C160  1  0.162100  0.338300  0.091600  1.0  0.6947
  C  C161  1  0.661600  0.407700  0.988900  1.0  0.0799
  C  C162  1  0.679600  0.358300  0.017000  1.0  -0.1042
  C  C163  1  0.760200  0.351500  0.041300  1.0  -0.0709
  C  C164  1  0.810800  0.397900  0.034500  1.0  -0.1036
  C  C165  1  0.790100  0.450100  0.010000  1.0  -0.0939
  C  C166  1  0.717400  0.456100  0.987700  1.0  -0.1443
  C  C167  1  0.893800  0.393800  0.061200  1.0  0.6045
  C  C168  1  0.037200  0.368400  0.221800  1.0  0.7138
  C  C169  1  0.027200  0.412800  0.268100  1.0  -0.129
  C  C170  1  0.072700  0.404200  0.311400  1.0  -0.0684
  C  C171  1  0.065300  0.443300  0.354200  1.0  -0.1535
  C  C172  1  0.011800  0.489500  0.355500  1.0  0.0811
  C  C173  1  0.965100  0.499200  0.309400  1.0  -0.1296
  C  C174  1  0.974200  0.461100  0.266500  1.0  -0.0512
  C  C175  1  0.001100  0.529900  0.403200  1.0  0.0175
  C  C176  1  0.067300  0.550900  0.430900  1.0  -0.1321
  C  C177  1  0.060600  0.586100  0.476800  1.0  0.0433
  C  C178  1  0.985400  0.600800  0.494500  1.0  -0.1133
  C  C179  1  0.919400  0.579800  0.468500  1.0  0.0366
  C  C180  1  0.928400  0.546800  0.421200  1.0  -0.1261
  C  C181  1  0.132700  0.607000  0.506100  1.0  0.0576
  C  C182  1  0.200900  0.614000  0.481900  1.0  -0.111
  C  C183  1  0.268100  0.631600  0.508000  1.0  -0.1408
  C  C184  1  0.266600  0.641500  0.561000  1.0  -0.1007
  C  C185  1  0.195500  0.632000  0.588300  1.0  -0.0549
  C  C186  1  0.129300  0.613600  0.561200  1.0  -0.1195
  C  C187  1  0.337900  0.661700  0.591600  1.0  0.6937
  C  C188  1  0.838400  0.592300  0.488900  1.0  0.0795
  C  C189  1  0.820400  0.641700  0.517000  1.0  -0.1029
  C  C190  1  0.739800  0.648500  0.541300  1.0  -0.0718
  C  C191  1  0.689200  0.602100  0.534500  1.0  -0.0995
  C  C192  1  0.709900  0.549900  0.510000  1.0  -0.094
  C  C193  1  0.782600  0.543900  0.487700  1.0  -0.1429
  C  C194  1  0.606200  0.606200  0.561200  1.0  0.6075
  C  C195  1  0.462800  0.868400  0.721800  1.0  0.7137
  C  C196  1  0.472800  0.912800  0.768100  1.0  -0.1287
  C  C197  1  0.427300  0.904200  0.811400  1.0  -0.0693
  C  C198  1  0.434700  0.943300  0.854200  1.0  -0.1548
  C  C199  1  0.488200  0.989500  0.855500  1.0  0.0801
  C  C200  1  0.534900  0.999200  0.809400  1.0  -0.1292
  C  C201  1  0.525800  0.961100  0.766500  1.0  -0.0519
  C  C202  1  0.498900  0.029900  0.903200  1.0  0.0175
  C  C203  1  0.432700  0.050900  0.930900  1.0  -0.1355
  C  C204  1  0.439400  0.086100  0.976800  1.0  0.0431
  C  C205  1  0.514600  0.100800  0.994500  1.0  -0.1129
  C  C206  1  0.580600  0.079800  0.968500  1.0  0.0375
  C  C207  1  0.571600  0.046800  0.921200  1.0  -0.1249
  C  C208  1  0.367300  0.107000  0.006100  1.0  0.057
  C  C209  1  0.299100  0.114000  0.981900  1.0  -0.1109
  C  C210  1  0.231900  0.131600  0.008000  1.0  -0.1418
  C  C211  1  0.233400  0.141500  0.061000  1.0  -0.0992
  C  C212  1  0.304500  0.132000  0.088300  1.0  -0.0551
  C  C213  1  0.370700  0.113600  0.061200  1.0  -0.1182
  C  C214  1  0.162100  0.161700  0.091600  1.0  0.6947
  C  C215  1  0.661600  0.092300  0.988900  1.0  0.0792
  C  C216  1  0.679600  0.141700  0.017000  1.0  -0.1031
  C  C217  1  0.760200  0.148500  0.041300  1.0  -0.0707
  C  C218  1  0.810800  0.102100  0.034500  1.0  -0.1037
  C  C219  1  0.790100  0.049900  0.010000  1.0  -0.0947
  C  C220  1  0.717400  0.043900  0.987700  1.0  -0.1431
  C  C221  1  0.893800  0.106200  0.061200  1.0  0.6046
  C  C222  1  0.037200  0.131600  0.221800  1.0  0.7141
  C  C223  1  0.027200  0.087200  0.268100  1.0  -0.1278
  C  C224  1  0.072700  0.095800  0.311400  1.0  -0.0686
  C  C225  1  0.065300  0.056700  0.354200  1.0  -0.1542
  C  C226  1  0.011800  0.010500  0.355500  1.0  0.0804
  C  C227  1  0.965100  0.000800  0.309400  1.0  -0.1275
  C  C228  1  0.974200  0.038900  0.266500  1.0  -0.0512
  C  C229  1  0.001100  0.970100  0.403200  1.0  0.0191
  C  C230  1  0.067300  0.949100  0.430900  1.0  -0.1332
  C  C231  1  0.060600  0.913900  0.476800  1.0  0.0428
  C  C232  1  0.985400  0.899200  0.494500  1.0  -0.1126
  C  C233  1  0.919400  0.920200  0.468500  1.0  0.0349
  C  C234  1  0.928400  0.953200  0.421200  1.0  -0.1252
  C  C235  1  0.132700  0.893000  0.506100  1.0  0.0584
  C  C236  1  0.200900  0.886000  0.481900  1.0  -0.1114
  C  C237  1  0.268100  0.868400  0.508000  1.0  -0.141
  C  C238  1  0.266600  0.858500  0.561000  1.0  -0.1007
  C  C239  1  0.195500  0.868000  0.588300  1.0  -0.0558
  C  C240  1  0.129300  0.886400  0.561200  1.0  -0.1185
  C  C241  1  0.337900  0.838300  0.591600  1.0  0.6937
  C  C242  1  0.838400  0.907700  0.488900  1.0  0.0804
  C  C243  1  0.820400  0.858300  0.517000  1.0  -0.1038
  C  C244  1  0.739800  0.851500  0.541300  1.0  -0.0716
  C  C245  1  0.689200  0.897900  0.534500  1.0  -0.1003
  C  C246  1  0.709900  0.950100  0.510000  1.0  -0.0938
  C  C247  1  0.782600  0.956100  0.487700  1.0  -0.1447
  C  C248  1  0.606200  0.893800  0.561200  1.0  0.6075
  C  C249  1  0.537200  0.131600  0.278200  1.0  0.7141
  C  C250  1  0.527200  0.087200  0.231900  1.0  -0.1277
  C  C251  1  0.572700  0.095800  0.188600  1.0  -0.069
  C  C252  1  0.565300  0.056700  0.145800  1.0  -0.1545
  C  C253  1  0.511800  0.010500  0.144500  1.0  0.0816
  C  C254  1  0.465100  0.000800  0.190600  1.0  -0.1296
  C  C255  1  0.474200  0.038900  0.233500  1.0  -0.0523
  C  C256  1  0.501100  0.970100  0.096800  1.0  0.019
  C  C257  1  0.567300  0.949100  0.069100  1.0  -0.1306
  C  C258  1  0.560600  0.913900  0.023200  1.0  0.0437
  C  C259  1  0.485400  0.899200  0.005500  1.0  -0.1125
  C  C260  1  0.419400  0.920200  0.031500  1.0  0.0362
  C  C261  1  0.428400  0.953200  0.078800  1.0  -0.1248
  C  C262  1  0.632700  0.893000  0.993900  1.0  0.0584
  C  C263  1  0.700900  0.886000  0.018100  1.0  -0.11
  C  C264  1  0.768100  0.868400  0.992000  1.0  -0.1394
  C  C265  1  0.766600  0.858500  0.939000  1.0  -0.101
  C  C266  1  0.695500  0.868000  0.911700  1.0  -0.0515
  C  C267  1  0.629300  0.886400  0.938800  1.0  -0.1187
  C  C268  1  0.837900  0.838300  0.908400  1.0  0.6935
  C  C269  1  0.338400  0.907700  0.011100  1.0  0.0794
  C  C270  1  0.320400  0.858300  0.983000  1.0  -0.1038
  C  C271  1  0.239800  0.851500  0.958700  1.0  -0.0716
  C  C272  1  0.189200  0.897900  0.965500  1.0  -0.1006
  C  C273  1  0.209900  0.950100  0.990000  1.0  -0.0935
  C  C274  1  0.282600  0.956100  0.012300  1.0  -0.145
  C  C275  1  0.106200  0.893800  0.938800  1.0  0.6083
  C  C276  1  0.962800  0.868400  0.778200  1.0  0.7139
  C  C277  1  0.972800  0.912800  0.731900  1.0  -0.1271
  C  C278  1  0.927300  0.904200  0.688600  1.0  -0.07
  C  C279  1  0.934700  0.943300  0.645800  1.0  -0.1564
  C  C280  1  0.988200  0.989500  0.644500  1.0  0.0801
  C  C281  1  0.034900  0.999200  0.690600  1.0  -0.1292
  C  C282  1  0.025800  0.961100  0.733500  1.0  -0.0518
  C  C283  1  0.998900  0.029900  0.596800  1.0  0.0181
  C  C284  1  0.932700  0.050900  0.569100  1.0  -0.1337
  C  C285  1  0.939400  0.086100  0.523200  1.0  0.0438
  C  C286  1  0.014600  0.100800  0.505500  1.0  -0.1119
  C  C287  1  0.080600  0.079800  0.531500  1.0  0.0379
  C  C288  1  0.071600  0.046800  0.578800  1.0  -0.1228
  C  C289  1  0.867300  0.107000  0.493900  1.0  0.0566
  C  C290  1  0.799100  0.114000  0.518100  1.0  -0.1119
  C  C291  1  0.731900  0.131600  0.492000  1.0  -0.1417
  C  C292  1  0.733400  0.141500  0.439000  1.0  -0.0998
  C  C293  1  0.804500  0.132000  0.411700  1.0  -0.0528
  C  C294  1  0.870700  0.113600  0.438800  1.0  -0.1183
  C  C295  1  0.662100  0.161700  0.408400  1.0  0.6945
  C  C296  1  0.161600  0.092300  0.511100  1.0  0.0782
  C  C297  1  0.179600  0.141700  0.483000  1.0  -0.1032
  C  C298  1  0.260200  0.148500  0.458700  1.0  -0.0717
  C  C299  1  0.310800  0.102100  0.465500  1.0  -0.1039
  C  C300  1  0.290100  0.049900  0.490000  1.0  -0.0942
  C  C301  1  0.217400  0.043900  0.512300  1.0  -0.1433
  C  C302  1  0.393800  0.106200  0.438800  1.0  0.6058
  C  C303  1  0.537200  0.368400  0.278200  1.0  0.714
  C  C304  1  0.527200  0.412800  0.231900  1.0  -0.1275
  C  C305  1  0.572700  0.404200  0.188600  1.0  -0.0694
  C  C306  1  0.565300  0.443300  0.145800  1.0  -0.1542
  C  C307  1  0.511800  0.489500  0.144500  1.0  0.0818
  C  C308  1  0.465100  0.499200  0.190600  1.0  -0.1311
  C  C309  1  0.474200  0.461100  0.233500  1.0  -0.0524
  C  C310  1  0.501100  0.529900  0.096800  1.0  0.0182
  C  C311  1  0.567300  0.550900  0.069100  1.0  -0.1292
  C  C312  1  0.560600  0.586100  0.023200  1.0  0.044
  C  C313  1  0.485400  0.600800  0.005500  1.0  -0.1122
  C  C314  1  0.419400  0.579800  0.031500  1.0  0.0375
  C  C315  1  0.428400  0.546800  0.078800  1.0  -0.1259
  C  C316  1  0.632700  0.607000  0.993900  1.0  0.0571
  C  C317  1  0.700900  0.614000  0.018100  1.0  -0.1113
  C  C318  1  0.768100  0.631600  0.992000  1.0  -0.1398
  C  C319  1  0.766600  0.641500  0.939000  1.0  -0.101
  C  C320  1  0.695500  0.632000  0.911700  1.0  -0.0524
  C  C321  1  0.629300  0.613600  0.938800  1.0  -0.1193
  C  C322  1  0.837900  0.661700  0.908400  1.0  0.6933
  C  C323  1  0.338400  0.592300  0.011100  1.0  0.0789
  C  C324  1  0.320400  0.641700  0.983000  1.0  -0.1031
  C  C325  1  0.239800  0.648500  0.958700  1.0  -0.0725
  C  C326  1  0.189200  0.602100  0.965500  1.0  -0.0998
  C  C327  1  0.209900  0.549900  0.990000  1.0  -0.0933
  C  C328  1  0.282600  0.543900  0.012300  1.0  -0.1436
  C  C329  1  0.106200  0.606200  0.938800  1.0  0.6086
  C  C330  1  0.962800  0.631600  0.778200  1.0  0.7141
  C  C331  1  0.972800  0.587200  0.731900  1.0  -0.1274
  C  C332  1  0.927300  0.595800  0.688600  1.0  -0.0705
  C  C333  1  0.934700  0.556700  0.645800  1.0  -0.1559
  C  C334  1  0.988200  0.510500  0.644500  1.0  0.0802
  C  C335  1  0.034900  0.500800  0.690600  1.0  -0.1298
  C  C336  1  0.025800  0.538900  0.733500  1.0  -0.0519
  C  C337  1  0.998900  0.470100  0.596800  1.0  0.0187
  C  C338  1  0.932700  0.449100  0.569100  1.0  -0.1349
  C  C339  1  0.939400  0.413900  0.523200  1.0  0.0433
  C  C340  1  0.014600  0.399200  0.505500  1.0  -0.1127
  C  C341  1  0.080600  0.420200  0.531500  1.0  0.0361
  C  C342  1  0.071600  0.453200  0.578800  1.0  -0.1226
  C  C343  1  0.867300  0.393000  0.493900  1.0  0.0571
  C  C344  1  0.799100  0.386000  0.518100  1.0  -0.1097
  C  C345  1  0.731900  0.368400  0.492000  1.0  -0.141
  C  C346  1  0.733400  0.358500  0.439000  1.0  -0.1006
  C  C347  1  0.804500  0.368000  0.411700  1.0  -0.052
  C  C348  1  0.870700  0.386400  0.438800  1.0  -0.118
  C  C349  1  0.662100  0.338300  0.408400  1.0  0.6947
  C  C350  1  0.161600  0.407700  0.511100  1.0  0.0788
  C  C351  1  0.179600  0.358300  0.483000  1.0  -0.1043
  C  C352  1  0.260200  0.351500  0.458700  1.0  -0.071
  C  C353  1  0.310800  0.397900  0.465500  1.0  -0.1037
  C  C354  1  0.290100  0.450100  0.490000  1.0  -0.0939
  C  C355  1  0.217400  0.456100  0.512300  1.0  -0.1444
  C  C356  1  0.393800  0.393800  0.438800  1.0  0.6052
  O  O357  1  0.427600  0.681200  0.730000  1.0  -0.6125
  O  O358  1  0.494300  0.614600  0.678100  1.0  -0.5789
  O  O359  1  0.097100  0.347500  0.069100  1.0  -0.594
  O  O360  1  0.170900  0.317600  0.136400  1.0  -0.6115
  O  O361  1  0.906800  0.344400  0.078200  1.0  -0.5503
  O  O362  1  0.938900  0.436100  0.061000  1.0  -0.571
  O  O363  1  0.072400  0.318800  0.230000  1.0  -0.613
  O  O364  1  0.005700  0.385400  0.178100  1.0  -0.5797
  O  O365  1  0.402900  0.652500  0.569100  1.0  -0.5933
  O  O366  1  0.329100  0.682400  0.636400  1.0  -0.6116
  O  O367  1  0.593200  0.655600  0.578200  1.0  -0.5511
  O  O368  1  0.561100  0.563900  0.561000  1.0  -0.5703
  O  O369  1  0.427600  0.818800  0.730000  1.0  -0.6125
  O  O370  1  0.494300  0.885400  0.678100  1.0  -0.5798
  O  O371  1  0.097100  0.152500  0.069100  1.0  -0.5939
  O  O372  1  0.170900  0.182400  0.136400  1.0  -0.611
  O  O373  1  0.906800  0.155600  0.078200  1.0  -0.5515
  O  O374  1  0.938900  0.063900  0.061000  1.0  -0.57
  O  O375  1  0.072400  0.181200  0.230000  1.0  -0.6126
  O  O376  1  0.005700  0.114600  0.178100  1.0  -0.5789
  O  O377  1  0.402900  0.847500  0.569100  1.0  -0.5933
  O  O378  1  0.329100  0.817600  0.636400  1.0  -0.6118
  O  O379  1  0.593200  0.844400  0.578200  1.0  -0.5499
  O  O380  1  0.561100  0.936100  0.561000  1.0  -0.5714
  O  O381  1  0.486800  0.750000  0.641500  1.0  -0.802
  O  O382  1  0.013200  0.250000  0.141500  1.0  -0.8063
  O  O383  1  0.572400  0.181200  0.270000  1.0  -0.6125
  O  O384  1  0.505700  0.114600  0.321900  1.0  -0.5795
  O  O385  1  0.902900  0.847500  0.930900  1.0  -0.5932
  O  O386  1  0.829100  0.817600  0.863600  1.0  -0.6124
  O  O387  1  0.093200  0.844400  0.921800  1.0  -0.5506
  O  O388  1  0.061100  0.936100  0.939000  1.0  -0.5724
  O  O389  1  0.927600  0.818800  0.770000  1.0  -0.6124
  O  O390  1  0.994300  0.885400  0.821900  1.0  -0.58
  O  O391  1  0.597100  0.152500  0.430900  1.0  -0.594
  O  O392  1  0.670900  0.182400  0.363600  1.0  -0.6124
  O  O393  1  0.406800  0.155600  0.421800  1.0  -0.5526
  O  O394  1  0.438900  0.063900  0.439000  1.0  -0.5719
  O  O395  1  0.572400  0.318800  0.270000  1.0  -0.6129
  O  O396  1  0.505700  0.385400  0.321900  1.0  -0.5802
  O  O397  1  0.902900  0.652500  0.930900  1.0  -0.5933
  O  O398  1  0.829100  0.682400  0.863600  1.0  -0.6122
  O  O399  1  0.093200  0.655600  0.921800  1.0  -0.5521
  O  O400  1  0.061100  0.563900  0.939000  1.0  -0.5728
  O  O401  1  0.927600  0.681200  0.770000  1.0  -0.6121
  O  O402  1  0.994300  0.614600  0.821900  1.0  -0.5792
  O  O403  1  0.597100  0.347500  0.430900  1.0  -0.5939
  O  O404  1  0.670900  0.317600  0.363600  1.0  -0.6127
  O  O405  1  0.406800  0.344400  0.421800  1.0  -0.551
  O  O406  1  0.438900  0.436100  0.439000  1.0  -0.571
  O  O407  1  0.513200  0.250000  0.358500  1.0  -0.806
  O  O408  1  0.986800  0.750000  0.858500  1.0  -0.8016
