# generated using pymatgen
data_ZnH10(C4O)5
_symmetry_space_group_name_H-M   'P 1'
_cell_length_a   11.72200000
_cell_length_b   11.72200000
_cell_length_c   23.74000000
_cell_angle_alpha   90.00000000
_cell_angle_beta   90.00000000
_cell_angle_gamma   90.00000000
_symmetry_Int_Tables_number   1
_chemical_formula_structural   ZnH10(C4O)5
_chemical_formula_sum   'Zn4 H40 C80 O20'
_cell_volume   3262.00144216
_cell_formula_units_Z   4
loop_
 _symmetry_equiv_pos_site_id
 _symmetry_equiv_pos_as_xyz
  1  'x, y, z'
loop_
 _atom_site_type_symbol
 _atom_site_label
 _atom_site_symmetry_multiplicity
 _atom_site_fract_x
 _atom_site_fract_y
 _atom_site_fract_z
 _atom_site_occupancy
 _atom_site_charge
  Zn  Zn1  1  0.374300  0.000000  0.000000  1.0  0.4913
  Zn  Zn2  1  0.625700  0.000000  0.000000  1.0  0.4938
  Zn  Zn3  1  0.000000  0.374300  0.500000  1.0  0.5
  Zn  Zn4  1  0.000000  0.625700  0.500000  1.0  0.4975
  H  H5  1  0.328600  0.387900  0.202500  1.0  0.1389
  H  H6  1  0.329900  0.243200  0.129400  1.0  0.1445
  H  H7  1  0.671400  0.612100  0.202500  1.0  0.1391
  H  H8  1  0.670100  0.756800  0.129400  1.0  0.1447
  H  H9  1  0.612100  0.328600  0.702500  1.0  0.1394
  H  H10  1  0.756800  0.329900  0.629400  1.0  0.1445
  H  H11  1  0.387900  0.671400  0.702500  1.0  0.1396
  H  H12  1  0.243200  0.670100  0.629400  1.0  0.1445
  H  H13  1  0.671400  0.387900  0.797500  1.0  0.139
  H  H14  1  0.670100  0.243200  0.870600  1.0  0.1448
  H  H15  1  0.328600  0.612100  0.797500  1.0  0.1387
  H  H16  1  0.329900  0.756800  0.870600  1.0  0.1445
  H  H17  1  0.387900  0.328600  0.297500  1.0  0.1391
  H  H18  1  0.243200  0.329900  0.370600  1.0  0.1441
  H  H19  1  0.612100  0.671400  0.297500  1.0  0.1395
  H  H20  1  0.756800  0.670100  0.370600  1.0  0.1445
  H  H21  1  0.671400  0.612100  0.797500  1.0  0.1387
  H  H22  1  0.670100  0.756800  0.870600  1.0  0.1444
  H  H23  1  0.328600  0.387900  0.797500  1.0  0.139
  H  H24  1  0.329900  0.243200  0.870600  1.0  0.1446
  H  H25  1  0.387900  0.671400  0.297500  1.0  0.1392
  H  H26  1  0.243200  0.670100  0.370600  1.0  0.1442
  H  H27  1  0.612100  0.328600  0.297500  1.0  0.1395
  H  H28  1  0.756800  0.329900  0.370600  1.0  0.1445
  H  H29  1  0.328600  0.612100  0.202500  1.0  0.1391
  H  H30  1  0.329900  0.756800  0.129400  1.0  0.1445
  H  H31  1  0.671400  0.387900  0.202500  1.0  0.139
  H  H32  1  0.670100  0.243200  0.129400  1.0  0.1448
  H  H33  1  0.612100  0.671400  0.702500  1.0  0.1401
  H  H34  1  0.756800  0.670100  0.629400  1.0  0.1448
  H  H35  1  0.387900  0.328600  0.702500  1.0  0.139
  H  H36  1  0.243200  0.329900  0.629400  1.0  0.1443
  H  H37  1  0.143100  0.053300  0.000000  1.0  0.1148
  H  H38  1  0.856900  0.946700  0.000000  1.0  0.1238
  H  H39  1  0.946700  0.143100  0.500000  1.0  0.1168
  H  H40  1  0.053300  0.856900  0.500000  1.0  0.1159
  H  H41  1  0.856900  0.053300  0.000000  1.0  0.1224
  H  H42  1  0.143100  0.946700  0.000000  1.0  0.1171
  H  H43  1  0.053300  0.143100  0.500000  1.0  0.1166
  H  H44  1  0.946700  0.856900  0.500000  1.0  0.116
  C  C45  1  0.398600  0.358800  0.188400  1.0  -0.1521
  C  C46  1  0.399100  0.273500  0.143900  1.0  -0.0571
  C  C47  1  0.601400  0.641200  0.188400  1.0  -0.1497
  C  C48  1  0.600900  0.726500  0.143900  1.0  -0.0564
  C  C49  1  0.641200  0.398600  0.688400  1.0  -0.1508
  C  C50  1  0.726500  0.399100  0.643900  1.0  -0.0576
  C  C51  1  0.358800  0.601400  0.688400  1.0  -0.153
  C  C52  1  0.273500  0.600900  0.643900  1.0  -0.0599
  C  C53  1  0.601400  0.358800  0.811600  1.0  -0.1509
  C  C54  1  0.600900  0.273500  0.856100  1.0  -0.0544
  C  C55  1  0.398600  0.641200  0.811600  1.0  -0.153
  C  C56  1  0.399100  0.726500  0.856100  1.0  -0.0578
  C  C57  1  0.358800  0.398600  0.311600  1.0  -0.1513
  C  C58  1  0.273500  0.399100  0.356100  1.0  -0.0579
  C  C59  1  0.641200  0.601400  0.311600  1.0  -0.153
  C  C60  1  0.726500  0.600900  0.356100  1.0  -0.0579
  C  C61  1  0.601400  0.641200  0.811600  1.0  -0.1513
  C  C62  1  0.600900  0.726500  0.856100  1.0  -0.0554
  C  C63  1  0.398600  0.358800  0.811600  1.0  -0.1518
  C  C64  1  0.399100  0.273500  0.856100  1.0  -0.0571
  C  C65  1  0.358800  0.601400  0.311600  1.0  -0.1535
  C  C66  1  0.273500  0.600900  0.356100  1.0  -0.0598
  C  C67  1  0.641200  0.398600  0.311600  1.0  -0.151
  C  C68  1  0.726500  0.399100  0.356100  1.0  -0.0574
  C  C69  1  0.398600  0.641200  0.188400  1.0  -0.1525
  C  C70  1  0.399100  0.726500  0.143900  1.0  -0.0578
  C  C71  1  0.601400  0.358800  0.188400  1.0  -0.1501
  C  C72  1  0.600900  0.273500  0.143900  1.0  -0.0563
  C  C73  1  0.641200  0.601400  0.688400  1.0  -0.1527
  C  C74  1  0.726500  0.600900  0.643900  1.0  -0.0587
  C  C75  1  0.358800  0.398600  0.688400  1.0  -0.1511
  C  C76  1  0.273500  0.399100  0.643900  1.0  -0.0583
  C  C77  1  0.500000  0.500000  0.250000  1.0  -0.0012
  C  C78  1  0.500000  0.500000  0.750000  1.0  -0.0012
  C  C79  1  0.500000  0.396400  0.209700  1.0  0.0566
  C  C80  1  0.500000  0.239200  0.124100  1.0  -0.0064
  C  C81  1  0.500000  0.150200  0.077400  1.0  0.6189
  C  C82  1  0.500000  0.603600  0.209700  1.0  0.0569
  C  C83  1  0.500000  0.760800  0.124100  1.0  -0.0066
  C  C84  1  0.500000  0.849800  0.077400  1.0  0.6184
  C  C85  1  0.603600  0.500000  0.709700  1.0  0.0573
  C  C86  1  0.760800  0.500000  0.624100  1.0  -0.0093
  C  C87  1  0.849800  0.500000  0.577400  1.0  0.6199
  C  C88  1  0.396400  0.500000  0.709700  1.0  0.0557
  C  C89  1  0.239200  0.500000  0.624100  1.0  -0.0089
  C  C90  1  0.150200  0.500000  0.577400  1.0  0.6215
  C  C91  1  0.500000  0.396400  0.790300  1.0  0.0572
  C  C92  1  0.500000  0.239200  0.875900  1.0  -0.0052
  C  C93  1  0.500000  0.150200  0.922600  1.0  0.6189
  C  C94  1  0.500000  0.603600  0.790300  1.0  0.0562
  C  C95  1  0.500000  0.760800  0.875900  1.0  -0.0053
  C  C96  1  0.500000  0.849800  0.922600  1.0  0.6181
  C  C97  1  0.396400  0.500000  0.290300  1.0  0.0551
  C  C98  1  0.239200  0.500000  0.375900  1.0  -0.0075
  C  C99  1  0.150200  0.500000  0.422600  1.0  0.6215
  C  C100  1  0.603600  0.500000  0.290300  1.0  0.0571
  C  C101  1  0.760800  0.500000  0.375900  1.0  -0.0081
  C  C102  1  0.849800  0.500000  0.422600  1.0  0.6197
  C  C103  1  0.382000  0.120000  0.000000  1.0  0.0443
  C  C104  1  0.248000  0.066000  0.000000  1.0  0.0161
  C  C105  1  0.618000  0.880000  0.000000  1.0  0.0574
  C  C106  1  0.752000  0.934000  0.000000  1.0  0.0193
  C  C107  1  0.880000  0.382000  0.500000  1.0  0.054
  C  C108  1  0.934000  0.248000  0.500000  1.0  0.02
  C  C109  1  0.120000  0.618000  0.500000  1.0  0.0618
  C  C110  1  0.066000  0.752000  0.500000  1.0  0.0256
  C  C111  1  0.618000  0.120000  0.000000  1.0  0.0471
  C  C112  1  0.752000  0.066000  0.000000  1.0  0.0216
  C  C113  1  0.382000  0.880000  0.000000  1.0  0.0533
  C  C114  1  0.248000  0.934000  0.000000  1.0  0.0158
  C  C115  1  0.120000  0.382000  0.500000  1.0  0.0629
  C  C116  1  0.066000  0.248000  0.500000  1.0  0.0235
  C  C117  1  0.880000  0.618000  0.500000  1.0  0.056
  C  C118  1  0.934000  0.752000  0.500000  1.0  0.0208
  C  C119  1  0.500000  0.000000  0.000000  1.0  0.1604
  C  C120  1  0.000000  0.500000  0.500000  1.0  0.1604
  C  C121  1  0.500000  0.000000  0.069000  1.0  -0.0935
  C  C122  1  0.000000  0.500000  0.569000  1.0  -0.0935
  C  C123  1  0.500000  0.000000  0.931000  1.0  -0.09
  C  C124  1  0.000000  0.500000  0.431000  1.0  -0.09
  O  O125  1  0.406500  0.119300  0.059700  1.0  -0.4889
  O  O126  1  0.593500  0.880700  0.059700  1.0  -0.487
  O  O127  1  0.880700  0.406500  0.559700  1.0  -0.4881
  O  O128  1  0.119300  0.593500  0.559700  1.0  -0.4895
  O  O129  1  0.593500  0.119300  0.940300  1.0  -0.4898
  O  O130  1  0.406500  0.880700  0.940300  1.0  -0.4908
  O  O131  1  0.119300  0.406500  0.440300  1.0  -0.4922
  O  O132  1  0.880700  0.593500  0.440300  1.0  -0.4897
  O  O133  1  0.593500  0.880700  0.940300  1.0  -0.4887
  O  O134  1  0.406500  0.119300  0.940300  1.0  -0.4888
  O  O135  1  0.119300  0.593500  0.440300  1.0  -0.4913
  O  O136  1  0.880700  0.406500  0.440300  1.0  -0.4903
  O  O137  1  0.406500  0.880700  0.059700  1.0  -0.4891
  O  O138  1  0.593500  0.119300  0.059700  1.0  -0.4874
  O  O139  1  0.880700  0.593500  0.559700  1.0  -0.4894
  O  O140  1  0.119300  0.406500  0.559700  1.0  -0.4897
  O  O141  1  0.214000  0.000000  0.000000  1.0  -0.5492
  O  O142  1  0.786000  0.000000  0.000000  1.0  -0.5475
  O  O143  1  0.000000  0.214000  0.500000  1.0  -0.5471
  O  O144  1  0.000000  0.786000  0.500000  1.0  -0.5458
