# generated using pymatgen
data_Zn3H6C18O13
_symmetry_space_group_name_H-M   'P 1'
_cell_length_a   20.65710000
_cell_length_b   20.65710000
_cell_length_c   17.84000000
_cell_angle_alpha   90.00000000
_cell_angle_beta   90.00000000
_cell_angle_gamma   90.00000000
_symmetry_Int_Tables_number   1
_chemical_formula_structural   Zn3H6C18O13
_chemical_formula_sum   'Zn24 H48 C144 O104'
_cell_volume   7612.60952251
_cell_formula_units_Z   8
loop_
 _symmetry_equiv_pos_site_id
 _symmetry_equiv_pos_as_xyz
  1  'x, y, z'
loop_
 _atom_site_type_symbol
 _atom_site_label
 _atom_site_symmetry_multiplicity
 _atom_site_fract_x
 _atom_site_fract_y
 _atom_site_fract_z
 _atom_site_occupancy
 _atom_site_charge
  Zn  Zn1  1  0.245250  0.377450  0.000000  1.0  1.0277
  Zn  Zn2  1  0.745250  0.877450  0.500000  1.0  1.0277
  Zn  Zn3  1  0.754750  0.622550  0.000000  1.0  1.0284
  Zn  Zn4  1  0.254750  0.122550  0.500000  1.0  1.0284
  Zn  Zn5  1  0.622550  0.245250  0.000000  1.0  1.0283
  Zn  Zn6  1  0.122550  0.745250  0.500000  1.0  1.0283
  Zn  Zn7  1  0.377450  0.754750  0.000000  1.0  1.0282
  Zn  Zn8  1  0.877450  0.254750  0.500000  1.0  1.0282
  Zn  Zn9  1  0.245250  0.622550  0.500000  1.0  1.0282
  Zn  Zn10  1  0.745250  0.122550  0.000000  1.0  1.0282
  Zn  Zn11  1  0.754750  0.377450  0.500000  1.0  1.0283
  Zn  Zn12  1  0.254750  0.877450  0.000000  1.0  1.0283
  Zn  Zn13  1  0.622550  0.754750  0.500000  1.0  1.0281
  Zn  Zn14  1  0.122550  0.254750  0.000000  1.0  1.0281
  Zn  Zn15  1  0.377450  0.245250  0.500000  1.0  1.0283
  Zn  Zn16  1  0.877450  0.745250  0.000000  1.0  1.0283
  Zn  Zn17  1  0.159710  0.340290  0.145060  1.0  1.0768
  Zn  Zn18  1  0.840290  0.659710  0.145060  1.0  1.0765
  Zn  Zn19  1  0.340290  0.159710  0.645060  1.0  1.0765
  Zn  Zn20  1  0.659710  0.159710  0.145060  1.0  1.0769
  Zn  Zn21  1  0.340290  0.840290  0.145060  1.0  1.076
  Zn  Zn22  1  0.159710  0.659710  0.645060  1.0  1.0769
  Zn  Zn23  1  0.840290  0.340290  0.645060  1.0  1.076
  Zn  Zn24  1  0.659710  0.840290  0.645060  1.0  1.0768
  H  H25  1  0.418400  0.274400  0.066800  1.0  0.1222
  H  H26  1  0.496500  0.193300  0.254500  1.0  0.1342
  H  H27  1  0.323900  0.287000  0.266100  1.0  0.1296
  H  H28  1  0.918400  0.774400  0.566800  1.0  0.1222
  H  H29  1  0.996500  0.693300  0.754500  1.0  0.1342
  H  H30  1  0.823900  0.787000  0.766100  1.0  0.1296
  H  H31  1  0.581600  0.725600  0.066800  1.0  0.1219
  H  H32  1  0.503500  0.806700  0.254500  1.0  0.1344
  H  H33  1  0.676100  0.713000  0.266100  1.0  0.1301
  H  H34  1  0.081600  0.225600  0.566800  1.0  0.1219
  H  H35  1  0.003500  0.306700  0.754500  1.0  0.1344
  H  H36  1  0.176100  0.213000  0.766100  1.0  0.1301
  H  H37  1  0.725600  0.418400  0.066800  1.0  0.122
  H  H38  1  0.806700  0.496500  0.254500  1.0  0.1354
  H  H39  1  0.713000  0.323900  0.266100  1.0  0.1293
  H  H40  1  0.225600  0.918400  0.566800  1.0  0.122
  H  H41  1  0.306700  0.996500  0.754500  1.0  0.1354
  H  H42  1  0.213000  0.823900  0.766100  1.0  0.1293
  H  H43  1  0.274400  0.581600  0.066800  1.0  0.1219
  H  H44  1  0.193300  0.503500  0.254500  1.0  0.1352
  H  H45  1  0.287000  0.676100  0.266100  1.0  0.1282
  H  H46  1  0.774400  0.081600  0.566800  1.0  0.1219
  H  H47  1  0.693300  0.003500  0.754500  1.0  0.1352
  H  H48  1  0.787000  0.176100  0.766100  1.0  0.1282
  H  H49  1  0.418400  0.725600  0.566800  1.0  0.1221
  H  H50  1  0.496500  0.806700  0.754500  1.0  0.1342
  H  H51  1  0.323900  0.713000  0.766100  1.0  0.1301
  H  H52  1  0.918400  0.225600  0.066800  1.0  0.1221
  H  H53  1  0.996500  0.306700  0.254500  1.0  0.1342
  H  H54  1  0.823900  0.213000  0.266100  1.0  0.1301
  H  H55  1  0.581600  0.274400  0.566800  1.0  0.1221
  H  H56  1  0.503500  0.193300  0.754500  1.0  0.1348
  H  H57  1  0.676100  0.287000  0.766100  1.0  0.1297
  H  H58  1  0.081600  0.774400  0.066800  1.0  0.1221
  H  H59  1  0.003500  0.693300  0.254500  1.0  0.1348
  H  H60  1  0.176100  0.787000  0.266100  1.0  0.1297
  H  H61  1  0.725600  0.581600  0.566800  1.0  0.1219
  H  H62  1  0.806700  0.503500  0.754500  1.0  0.1352
  H  H63  1  0.713000  0.676100  0.766100  1.0  0.1291
  H  H64  1  0.225600  0.081600  0.066800  1.0  0.1219
  H  H65  1  0.306700  0.003500  0.254500  1.0  0.1352
  H  H66  1  0.213000  0.176100  0.266100  1.0  0.1291
  H  H67  1  0.274400  0.418400  0.566800  1.0  0.1221
  H  H68  1  0.193300  0.496500  0.754500  1.0  0.1354
  H  H69  1  0.287000  0.323900  0.766100  1.0  0.1285
  H  H70  1  0.774400  0.918400  0.066800  1.0  0.1221
  H  H71  1  0.693300  0.996500  0.254500  1.0  0.1354
  H  H72  1  0.787000  0.823900  0.266100  1.0  0.1285
  C  C73  1  0.362500  0.283600  0.158600  1.0  -0.1476
  C  C74  1  0.416200  0.264600  0.118900  1.0  0.0079
  C  C75  1  0.466800  0.232300  0.153600  1.0  -0.1111
  C  C76  1  0.463600  0.218800  0.230700  1.0  0.0243
  C  C77  1  0.410500  0.240200  0.271700  1.0  -0.0853
  C  C78  1  0.360200  0.272300  0.237600  1.0  0.014
  C  C79  1  0.306100  0.316400  0.121600  1.0  0.7152
  C  C80  1  0.527100  0.211800  0.112300  1.0  0.701
  C  C81  1  0.411100  0.228500  0.356000  1.0  0.6697
  C  C82  1  0.862500  0.783600  0.658600  1.0  -0.1476
  C  C83  1  0.916200  0.764600  0.618900  1.0  0.0079
  C  C84  1  0.966800  0.732300  0.653600  1.0  -0.1111
  C  C85  1  0.963600  0.718800  0.730700  1.0  0.0243
  C  C86  1  0.910500  0.740200  0.771700  1.0  -0.0853
  C  C87  1  0.860200  0.772300  0.737600  1.0  0.014
  C  C88  1  0.806100  0.816400  0.621600  1.0  0.7152
  C  C89  1  0.027100  0.711800  0.612300  1.0  0.701
  C  C90  1  0.911100  0.728500  0.856000  1.0  0.6697
  C  C91  1  0.637500  0.716400  0.158600  1.0  -0.1466
  C  C92  1  0.583800  0.735400  0.118900  1.0  0.0095
  C  C93  1  0.533200  0.767700  0.153600  1.0  -0.1107
  C  C94  1  0.536400  0.781200  0.230700  1.0  0.0232
  C  C95  1  0.589500  0.759800  0.271700  1.0  -0.0856
  C  C96  1  0.639800  0.727700  0.237600  1.0  0.0147
  C  C97  1  0.693900  0.683600  0.121600  1.0  0.7153
  C  C98  1  0.472900  0.788200  0.112300  1.0  0.7022
  C  C99  1  0.588900  0.771500  0.356000  1.0  0.6699
  C  C100  1  0.137500  0.216400  0.658600  1.0  -0.1466
  C  C101  1  0.083800  0.235400  0.618900  1.0  0.0095
  C  C102  1  0.033200  0.267700  0.653600  1.0  -0.1107
  C  C103  1  0.036400  0.281200  0.730700  1.0  0.0232
  C  C104  1  0.089500  0.259800  0.771700  1.0  -0.0856
  C  C105  1  0.139800  0.227700  0.737600  1.0  0.0147
  C  C106  1  0.193900  0.183600  0.621600  1.0  0.7153
  C  C107  1  0.972900  0.288200  0.612300  1.0  0.7022
  C  C108  1  0.088900  0.271500  0.856000  1.0  0.6699
  C  C109  1  0.716400  0.362500  0.158600  1.0  -0.1472
  C  C110  1  0.735400  0.416200  0.118900  1.0  0.0096
  C  C111  1  0.767700  0.466800  0.153600  1.0  -0.1108
  C  C112  1  0.781200  0.463600  0.230700  1.0  0.0238
  C  C113  1  0.759800  0.410500  0.271700  1.0  -0.0858
  C  C114  1  0.727700  0.360200  0.237600  1.0  0.0139
  C  C115  1  0.683600  0.306100  0.121600  1.0  0.7164
  C  C116  1  0.788200  0.527100  0.112300  1.0  0.7033
  C  C117  1  0.771500  0.411100  0.356000  1.0  0.6685
  C  C118  1  0.216400  0.862500  0.658600  1.0  -0.1472
  C  C119  1  0.235400  0.916200  0.618900  1.0  0.0096
  C  C120  1  0.267700  0.966800  0.653600  1.0  -0.1108
  C  C121  1  0.281200  0.963600  0.730700  1.0  0.0238
  C  C122  1  0.259800  0.910500  0.771700  1.0  -0.0858
  C  C123  1  0.227700  0.860200  0.737600  1.0  0.0139
  C  C124  1  0.183600  0.806100  0.621600  1.0  0.7164
  C  C125  1  0.288200  0.027100  0.612300  1.0  0.7033
  C  C126  1  0.271500  0.911100  0.856000  1.0  0.6685
  C  C127  1  0.283600  0.637500  0.158600  1.0  -0.1483
  C  C128  1  0.264600  0.583800  0.118900  1.0  0.0082
  C  C129  1  0.232300  0.533200  0.153600  1.0  -0.1109
  C  C130  1  0.218800  0.536400  0.230700  1.0  0.0231
  C  C131  1  0.240200  0.589500  0.271700  1.0  -0.0854
  C  C132  1  0.272300  0.639800  0.237600  1.0  0.0154
  C  C133  1  0.316400  0.693900  0.121600  1.0  0.7166
  C  C134  1  0.211800  0.472900  0.112300  1.0  0.7033
  C  C135  1  0.228500  0.588900  0.356000  1.0  0.669
  C  C136  1  0.783600  0.137500  0.658600  1.0  -0.1483
  C  C137  1  0.764600  0.083800  0.618900  1.0  0.0082
  C  C138  1  0.732300  0.033200  0.653600  1.0  -0.1109
  C  C139  1  0.718800  0.036400  0.730700  1.0  0.0231
  C  C140  1  0.740200  0.089500  0.771700  1.0  -0.0854
  C  C141  1  0.772300  0.139800  0.737600  1.0  0.0154
  C  C142  1  0.816400  0.193900  0.621600  1.0  0.7166
  C  C143  1  0.711800  0.972900  0.612300  1.0  0.7033
  C  C144  1  0.728500  0.088900  0.856000  1.0  0.669
  C  C145  1  0.362500  0.716400  0.658600  1.0  -0.1477
  C  C146  1  0.416200  0.735400  0.618900  1.0  0.0087
  C  C147  1  0.466800  0.767700  0.653600  1.0  -0.1111
  C  C148  1  0.463600  0.781200  0.730700  1.0  0.0242
  C  C149  1  0.410500  0.759800  0.771700  1.0  -0.0854
  C  C150  1  0.360200  0.727700  0.737600  1.0  0.0147
  C  C151  1  0.306100  0.683600  0.621600  1.0  0.7152
  C  C152  1  0.527100  0.788200  0.612300  1.0  0.7019
  C  C153  1  0.411100  0.771500  0.856000  1.0  0.6699
  C  C154  1  0.862500  0.216400  0.158600  1.0  -0.1477
  C  C155  1  0.916200  0.235400  0.118900  1.0  0.0087
  C  C156  1  0.966800  0.267700  0.153600  1.0  -0.1111
  C  C157  1  0.963600  0.281200  0.230700  1.0  0.0242
  C  C158  1  0.910500  0.259800  0.271700  1.0  -0.0854
  C  C159  1  0.860200  0.227700  0.237600  1.0  0.0147
  C  C160  1  0.806100  0.183600  0.121600  1.0  0.7152
  C  C161  1  0.027100  0.288200  0.112300  1.0  0.7019
  C  C162  1  0.911100  0.271500  0.356000  1.0  0.6699
  C  C163  1  0.637500  0.283600  0.658600  1.0  -0.1475
  C  C164  1  0.583800  0.264600  0.618900  1.0  0.0087
  C  C165  1  0.533200  0.232300  0.653600  1.0  -0.111
  C  C166  1  0.536400  0.218800  0.730700  1.0  0.0234
  C  C167  1  0.589500  0.240200  0.771700  1.0  -0.0857
  C  C168  1  0.639800  0.272300  0.737600  1.0  0.0142
  C  C169  1  0.693900  0.316400  0.621600  1.0  0.7158
  C  C170  1  0.472900  0.211800  0.612300  1.0  0.7015
  C  C171  1  0.588900  0.228500  0.856000  1.0  0.6697
  C  C172  1  0.137500  0.783600  0.158600  1.0  -0.1475
  C  C173  1  0.083800  0.764600  0.118900  1.0  0.0087
  C  C174  1  0.033200  0.732300  0.153600  1.0  -0.111
  C  C175  1  0.036400  0.718800  0.230700  1.0  0.0234
  C  C176  1  0.089500  0.740200  0.271700  1.0  -0.0857
  C  C177  1  0.139800  0.772300  0.237600  1.0  0.0142
  C  C178  1  0.193900  0.816400  0.121600  1.0  0.7158
  C  C179  1  0.972900  0.711800  0.112300  1.0  0.7015
  C  C180  1  0.088900  0.728500  0.356000  1.0  0.6697
  C  C181  1  0.716400  0.637500  0.658600  1.0  -0.1475
  C  C182  1  0.735400  0.583800  0.618900  1.0  0.01
  C  C183  1  0.767700  0.533200  0.653600  1.0  -0.111
  C  C184  1  0.781200  0.536400  0.730700  1.0  0.0243
  C  C185  1  0.759800  0.589500  0.771700  1.0  -0.0861
  C  C186  1  0.727700  0.639800  0.737600  1.0  0.014
  C  C187  1  0.683600  0.693900  0.621600  1.0  0.7167
  C  C188  1  0.788200  0.472900  0.612300  1.0  0.7027
  C  C189  1  0.771500  0.588900  0.856000  1.0  0.6688
  C  C190  1  0.216400  0.137500  0.158600  1.0  -0.1475
  C  C191  1  0.235400  0.083800  0.118900  1.0  0.01
  C  C192  1  0.267700  0.033200  0.153600  1.0  -0.111
  C  C193  1  0.281200  0.036400  0.230700  1.0  0.0243
  C  C194  1  0.259800  0.089500  0.271700  1.0  -0.0861
  C  C195  1  0.227700  0.139800  0.237600  1.0  0.014
  C  C196  1  0.183600  0.193900  0.121600  1.0  0.7167
  C  C197  1  0.288200  0.972900  0.112300  1.0  0.7027
  C  C198  1  0.271500  0.088900  0.356000  1.0  0.6688
  C  C199  1  0.283600  0.362500  0.658600  1.0  -0.1476
  C  C200  1  0.264600  0.416200  0.618900  1.0  0.0077
  C  C201  1  0.232300  0.466800  0.653600  1.0  -0.1106
  C  C202  1  0.218800  0.463600  0.730700  1.0  0.0218
  C  C203  1  0.240200  0.410500  0.771700  1.0  -0.0849
  C  C204  1  0.272300  0.360200  0.737600  1.0  0.0153
  C  C205  1  0.316400  0.306100  0.621600  1.0  0.7163
  C  C206  1  0.211800  0.527100  0.612300  1.0  0.7038
  C  C207  1  0.228500  0.411100  0.856000  1.0  0.6684
  C  C208  1  0.783600  0.862500  0.158600  1.0  -0.1476
  C  C209  1  0.764600  0.916200  0.118900  1.0  0.0077
  C  C210  1  0.732300  0.966800  0.153600  1.0  -0.1106
  C  C211  1  0.718800  0.963600  0.230700  1.0  0.0218
  C  C212  1  0.740200  0.910500  0.271700  1.0  -0.0849
  C  C213  1  0.772300  0.860200  0.237600  1.0  0.0153
  C  C214  1  0.816400  0.806100  0.121600  1.0  0.7163
  C  C215  1  0.711800  0.027100  0.112300  1.0  0.7038
  C  C216  1  0.728500  0.911100  0.356000  1.0  0.6684
  O  O217  1  0.260400  0.336400  0.160700  1.0  -0.5981
  O  O218  1  0.311300  0.323800  0.051400  1.0  -0.5683
  O  O219  1  0.559000  0.167100  0.136900  1.0  -0.5682
  O  O220  1  0.539300  0.246300  0.052900  1.0  -0.5632
  O  O221  1  0.447800  0.189000  0.383600  1.0  -0.4562
  O  O222  1  0.371300  0.264800  0.393500  1.0  -0.5897
  O  O223  1  0.760400  0.836400  0.660700  1.0  -0.5981
  O  O224  1  0.811300  0.823800  0.551400  1.0  -0.5683
  O  O225  1  0.059000  0.667100  0.636900  1.0  -0.5682
  O  O226  1  0.039300  0.746300  0.552900  1.0  -0.5632
  O  O227  1  0.947800  0.689000  0.883600  1.0  -0.4562
  O  O228  1  0.871300  0.764800  0.893500  1.0  -0.5897
  O  O229  1  0.739600  0.663600  0.160700  1.0  -0.5982
  O  O230  1  0.688700  0.676200  0.051400  1.0  -0.5683
  O  O231  1  0.441000  0.832900  0.136900  1.0  -0.5662
  O  O232  1  0.460700  0.753700  0.052900  1.0  -0.5637
  O  O233  1  0.552200  0.811000  0.383600  1.0  -0.4562
  O  O234  1  0.628700  0.735200  0.393500  1.0  -0.5876
  O  O235  1  0.239600  0.163600  0.660700  1.0  -0.5982
  O  O236  1  0.188700  0.176200  0.551400  1.0  -0.5683
  O  O237  1  0.941000  0.332900  0.636900  1.0  -0.5662
  O  O238  1  0.960700  0.253700  0.552900  1.0  -0.5637
  O  O239  1  0.052200  0.311000  0.883600  1.0  -0.4562
  O  O240  1  0.128700  0.235200  0.893500  1.0  -0.5876
  O  O241  1  0.663600  0.260400  0.160700  1.0  -0.5999
  O  O242  1  0.676200  0.311300  0.051400  1.0  -0.5685
  O  O243  1  0.832900  0.559000  0.136900  1.0  -0.5685
  O  O244  1  0.753700  0.539300  0.052900  1.0  -0.5622
  O  O245  1  0.811000  0.447800  0.383600  1.0  -0.4556
  O  O246  1  0.735200  0.371300  0.393500  1.0  -0.5887
  O  O247  1  0.163600  0.760400  0.660700  1.0  -0.5999
  O  O248  1  0.176200  0.811300  0.551400  1.0  -0.5685
  O  O249  1  0.332900  0.059000  0.636900  1.0  -0.5685
  O  O250  1  0.253700  0.039300  0.552900  1.0  -0.5622
  O  O251  1  0.311000  0.947800  0.883600  1.0  -0.4556
  O  O252  1  0.235200  0.871300  0.893500  1.0  -0.5887
  O  O253  1  0.336400  0.739600  0.160700  1.0  -0.6001
  O  O254  1  0.323800  0.688700  0.051400  1.0  -0.5675
  O  O255  1  0.167100  0.441000  0.136900  1.0  -0.5707
  O  O256  1  0.246300  0.460700  0.052900  1.0  -0.5632
  O  O257  1  0.189000  0.552200  0.383600  1.0  -0.4551
  O  O258  1  0.264800  0.628700  0.393500  1.0  -0.5888
  O  O259  1  0.836400  0.239600  0.660700  1.0  -0.6001
  O  O260  1  0.823800  0.188700  0.551400  1.0  -0.5675
  O  O261  1  0.667100  0.941000  0.636900  1.0  -0.5707
  O  O262  1  0.746300  0.960700  0.552900  1.0  -0.5632
  O  O263  1  0.689000  0.052200  0.883600  1.0  -0.4551
  O  O264  1  0.764800  0.128700  0.893500  1.0  -0.5888
  O  O265  1  0.260400  0.663600  0.660700  1.0  -0.5978
  O  O266  1  0.311300  0.676200  0.551400  1.0  -0.5683
  O  O267  1  0.559000  0.832900  0.636900  1.0  -0.5676
  O  O268  1  0.539300  0.753700  0.552900  1.0  -0.5627
  O  O269  1  0.447800  0.811000  0.883600  1.0  -0.4568
  O  O270  1  0.371300  0.735200  0.893500  1.0  -0.5897
  O  O271  1  0.760400  0.163600  0.160700  1.0  -0.5978
  O  O272  1  0.811300  0.176200  0.051400  1.0  -0.5683
  O  O273  1  0.059000  0.332900  0.136900  1.0  -0.5676
  O  O274  1  0.039300  0.253700  0.052900  1.0  -0.5627
  O  O275  1  0.947800  0.311000  0.383600  1.0  -0.4568
  O  O276  1  0.871300  0.235200  0.393500  1.0  -0.5897
  O  O277  1  0.739600  0.336400  0.660700  1.0  -0.5985
  O  O278  1  0.688700  0.323800  0.551400  1.0  -0.5683
  O  O279  1  0.441000  0.167100  0.636900  1.0  -0.5673
  O  O280  1  0.460700  0.246300  0.552900  1.0  -0.5639
  O  O281  1  0.552200  0.189000  0.883600  1.0  -0.4546
  O  O282  1  0.628700  0.264800  0.893500  1.0  -0.588
  O  O283  1  0.239600  0.836400  0.160700  1.0  -0.5985
  O  O284  1  0.188700  0.823800  0.051400  1.0  -0.5683
  O  O285  1  0.941000  0.667100  0.136900  1.0  -0.5673
  O  O286  1  0.960700  0.746300  0.052900  1.0  -0.5639
  O  O287  1  0.052200  0.689000  0.383600  1.0  -0.4546
  O  O288  1  0.128700  0.764800  0.393500  1.0  -0.588
  O  O289  1  0.663600  0.739600  0.660700  1.0  -0.6001
  O  O290  1  0.676200  0.688700  0.551400  1.0  -0.5683
  O  O291  1  0.832900  0.441000  0.636900  1.0  -0.5694
  O  O292  1  0.753700  0.460700  0.552900  1.0  -0.5623
  O  O293  1  0.811000  0.552200  0.883600  1.0  -0.4549
  O  O294  1  0.735200  0.628700  0.893500  1.0  -0.5881
  O  O295  1  0.163600  0.239600  0.160700  1.0  -0.6001
  O  O296  1  0.176200  0.188700  0.051400  1.0  -0.5683
  O  O297  1  0.332900  0.941000  0.136900  1.0  -0.5694
  O  O298  1  0.253700  0.960700  0.052900  1.0  -0.5623
  O  O299  1  0.311000  0.052200  0.383600  1.0  -0.4549
  O  O300  1  0.235200  0.128700  0.393500  1.0  -0.5881
  O  O301  1  0.336400  0.260400  0.660700  1.0  -0.6003
  O  O302  1  0.323800  0.311300  0.551400  1.0  -0.5676
  O  O303  1  0.167100  0.559000  0.636900  1.0  -0.5697
  O  O304  1  0.246300  0.539300  0.552900  1.0  -0.5629
  O  O305  1  0.189000  0.447800  0.883600  1.0  -0.4547
  O  O306  1  0.264800  0.371300  0.893500  1.0  -0.589
  O  O307  1  0.836400  0.760400  0.160700  1.0  -0.6003
  O  O308  1  0.823800  0.811300  0.051400  1.0  -0.5676
  O  O309  1  0.667100  0.059000  0.136900  1.0  -0.5697
  O  O310  1  0.746300  0.039300  0.052900  1.0  -0.5629
  O  O311  1  0.689000  0.947800  0.383600  1.0  -0.4547
  O  O312  1  0.764800  0.871300  0.393500  1.0  -0.589
  O  O313  1  0.162300  0.337700  0.027000  1.0  -0.7998
  O  O314  1  0.837700  0.662300  0.027000  1.0  -0.8011
  O  O315  1  0.337700  0.162300  0.527000  1.0  -0.8011
  O  O316  1  0.662300  0.162300  0.027000  1.0  -0.801
  O  O317  1  0.337700  0.837700  0.027000  1.0  -0.8001
  O  O318  1  0.162300  0.662300  0.527000  1.0  -0.801
  O  O319  1  0.837700  0.337700  0.527000  1.0  -0.8001
  O  O320  1  0.662300  0.837700  0.527000  1.0  -0.7998
