# generated using pymatgen
data_Zn2H21C33(N4O3)2
_symmetry_space_group_name_H-M   'P 1'
_cell_length_a   15.67300000
_cell_length_b   13.78700000
_cell_length_c   18.33100000
_cell_angle_alpha   90.00000000
_cell_angle_beta   90.00000000
_cell_angle_gamma   90.00000000
_symmetry_Int_Tables_number   1
_chemical_formula_structural   Zn2H21C33(N4O3)2
_chemical_formula_sum   'Zn8 H84 C132 N32 O24'
_cell_volume   3961.02940648
_cell_formula_units_Z   4
loop_
 _symmetry_equiv_pos_site_id
 _symmetry_equiv_pos_as_xyz
  1  'x, y, z'
loop_
 _atom_site_type_symbol
 _atom_site_label
 _atom_site_symmetry_multiplicity
 _atom_site_fract_x
 _atom_site_fract_y
 _atom_site_fract_z
 _atom_site_occupancy
 _atom_site_charge
  Zn  Zn1  1  0.327770  0.750000  0.642980  1.0  0.8648
  Zn  Zn2  1  0.241570  0.750000  0.133850  1.0  0.7957
  Zn  Zn3  1  0.827770  0.750000  0.857020  1.0  0.8649
  Zn  Zn4  1  0.741570  0.750000  0.366150  1.0  0.7961
  Zn  Zn5  1  0.172230  0.250000  0.142980  1.0  0.8641
  Zn  Zn6  1  0.258430  0.250000  0.633850  1.0  0.7954
  Zn  Zn7  1  0.672230  0.250000  0.357020  1.0  0.8641
  Zn  Zn8  1  0.758430  0.250000  0.866150  1.0  0.7959
  H  H9  1  0.371700  0.322600  0.491700  1.0  0.1269
  H  H10  1  0.342100  0.576900  0.382800  1.0  0.1183
  H  H11  1  0.324300  0.321900  0.273700  1.0  0.1358
  H  H12  1  0.293700  0.627100  0.500800  1.0  0.0942
  H  H13  1  0.451500  0.562400  0.661600  1.0  0.1014
  H  H14  1  0.459400  0.428600  0.572600  1.0  0.1216
  H  H15  1  0.258600  0.633600  0.285800  1.0  0.0907
  H  H16  1  0.316200  0.546400  0.086000  1.0  0.1055
  H  H17  1  0.358400  0.415800  0.170100  1.0  0.1067
  H  H18  1  0.871700  0.177400  0.008300  1.0  0.1267
  H  H19  1  0.842100  0.923100  0.117200  1.0  0.1185
  H  H20  1  0.824300  0.178100  0.226300  1.0  0.1376
  H  H21  1  0.793700  0.872900  0.999200  1.0  0.0941
  H  H22  1  0.951500  0.937600  0.838400  1.0  0.1023
  H  H23  1  0.959400  0.071400  0.927400  1.0  0.122
  H  H24  1  0.758600  0.866400  0.214200  1.0  0.0903
  H  H25  1  0.816200  0.953600  0.414000  1.0  0.1049
  H  H26  1  0.858400  0.084200  0.329900  1.0  0.1061
  H  H27  1  0.871700  0.322600  0.008300  1.0  0.1284
  H  H28  1  0.842100  0.576900  0.117200  1.0  0.1186
  H  H29  1  0.824300  0.321900  0.226300  1.0  0.1369
  H  H30  1  0.793700  0.627100  0.999200  1.0  0.0939
  H  H31  1  0.951500  0.562400  0.838400  1.0  0.1024
  H  H32  1  0.959400  0.428600  0.927400  1.0  0.1215
  H  H33  1  0.758600  0.633600  0.214200  1.0  0.0906
  H  H34  1  0.816200  0.546400  0.414000  1.0  0.1049
  H  H35  1  0.858400  0.415800  0.329900  1.0  0.1061
  H  H36  1  0.371700  0.177400  0.491700  1.0  0.1281
  H  H37  1  0.342100  0.923100  0.382800  1.0  0.1184
  H  H38  1  0.324300  0.178100  0.273700  1.0  0.1361
  H  H39  1  0.293700  0.872900  0.500800  1.0  0.094
  H  H40  1  0.451500  0.937600  0.661600  1.0  0.1011
  H  H41  1  0.459400  0.071400  0.572600  1.0  0.1217
  H  H42  1  0.258600  0.866400  0.285800  1.0  0.0909
  H  H43  1  0.316200  0.953600  0.086000  1.0  0.1054
  H  H44  1  0.358400  0.084200  0.170100  1.0  0.1063
  H  H45  1  0.040300  0.750000  0.475600  1.0  0.1097
  H  H46  1  0.828100  0.750000  0.602400  1.0  0.0963
  H  H47  1  0.061400  0.750000  0.694800  1.0  0.0958
  H  H48  1  0.540300  0.750000  0.024400  1.0  0.11
  H  H49  1  0.328100  0.750000  0.897600  1.0  0.0962
  H  H50  1  0.561400  0.750000  0.805200  1.0  0.096
  H  H51  1  0.128300  0.677400  0.991700  1.0  0.1267
  H  H52  1  0.157900  0.423100  0.882800  1.0  0.1183
  H  H53  1  0.175700  0.678100  0.773700  1.0  0.1359
  H  H54  1  0.206300  0.372900  0.000800  1.0  0.0953
  H  H55  1  0.048500  0.437600  0.161600  1.0  0.101
  H  H56  1  0.040600  0.571400  0.072600  1.0  0.1215
  H  H57  1  0.241400  0.366400  0.785800  1.0  0.0907
  H  H58  1  0.183800  0.453600  0.586000  1.0  0.1055
  H  H59  1  0.141600  0.584200  0.670100  1.0  0.1068
  H  H60  1  0.628300  0.822600  0.508300  1.0  0.1272
  H  H61  1  0.657900  0.076900  0.617200  1.0  0.1183
  H  H62  1  0.675700  0.821900  0.726300  1.0  0.1369
  H  H63  1  0.706300  0.127100  0.499200  1.0  0.0948
  H  H64  1  0.548500  0.062400  0.338400  1.0  0.1023
  H  H65  1  0.540600  0.928600  0.427400  1.0  0.1212
  H  H66  1  0.741400  0.133600  0.714200  1.0  0.0905
  H  H67  1  0.683800  0.046400  0.914000  1.0  0.1055
  H  H68  1  0.641600  0.915800  0.829900  1.0  0.1064
  H  H69  1  0.628300  0.677400  0.508300  1.0  0.1283
  H  H70  1  0.657900  0.423100  0.617200  1.0  0.1185
  H  H71  1  0.675700  0.678100  0.726300  1.0  0.1377
  H  H72  1  0.706300  0.372900  0.499200  1.0  0.095
  H  H73  1  0.548500  0.437600  0.338400  1.0  0.1025
  H  H74  1  0.540600  0.571400  0.427400  1.0  0.1219
  H  H75  1  0.741400  0.366400  0.714200  1.0  0.0903
  H  H76  1  0.683800  0.453600  0.914000  1.0  0.1055
  H  H77  1  0.641600  0.584200  0.829900  1.0  0.1067
  H  H78  1  0.128300  0.822600  0.991700  1.0  0.1284
  H  H79  1  0.157900  0.076900  0.882800  1.0  0.118
  H  H80  1  0.175700  0.821900  0.773700  1.0  0.1355
  H  H81  1  0.206300  0.127100  0.000800  1.0  0.0952
  H  H82  1  0.048500  0.062400  0.161600  1.0  0.1013
  H  H83  1  0.040600  0.928600  0.072600  1.0  0.1215
  H  H84  1  0.241400  0.133600  0.785800  1.0  0.0905
  H  H85  1  0.183800  0.046400  0.586000  1.0  0.1057
  H  H86  1  0.141600  0.915800  0.670100  1.0  0.1069
  H  H87  1  0.459700  0.250000  0.975600  1.0  0.1097
  H  H88  1  0.671900  0.250000  0.102400  1.0  0.0959
  H  H89  1  0.438600  0.250000  0.194800  1.0  0.0955
  H  H90  1  0.959700  0.250000  0.524400  1.0  0.1099
  H  H91  1  0.171900  0.250000  0.397600  1.0  0.0959
  H  H92  1  0.938600  0.250000  0.305200  1.0  0.0962
  C  C93  1  0.349180  0.303700  0.382440  1.0  0.0063
  C  C94  1  0.361180  0.355900  0.447230  1.0  -0.19
  C  C95  1  0.357600  0.456100  0.446190  1.0  0.1578
  C  C96  1  0.343100  0.508000  0.382680  1.0  -0.2187
  C  C97  1  0.330100  0.455800  0.319000  1.0  0.1066
  C  C98  1  0.333170  0.355800  0.318210  1.0  -0.2132
  C  C99  1  0.334700  0.594400  0.529980  1.0  0.1278
  C  C100  1  0.420400  0.558600  0.617240  1.0  0.0203
  C  C101  1  0.425200  0.485300  0.568750  1.0  -0.1418
  C  C102  1  0.278700  0.595700  0.246080  1.0  0.1207
  C  C103  1  0.310000  0.547500  0.137520  1.0  -0.013
  C  C104  1  0.333400  0.476100  0.183210  1.0  -0.1175
  C  C105  1  0.849180  0.196300  0.117560  1.0  0.0061
  C  C106  1  0.861180  0.144100  0.052770  1.0  -0.1898
  C  C107  1  0.857600  0.043900  0.053810  1.0  0.1582
  C  C108  1  0.843100  0.992000  0.117320  1.0  -0.2179
  C  C109  1  0.830100  0.044200  0.181000  1.0  0.1062
  C  C110  1  0.833170  0.144200  0.181790  1.0  -0.214
  C  C111  1  0.834700  0.905600  0.970020  1.0  0.128
  C  C112  1  0.920400  0.941400  0.882760  1.0  0.0195
  C  C113  1  0.925200  0.014700  0.931250  1.0  -0.1429
  C  C114  1  0.778700  0.904300  0.253920  1.0  0.1216
  C  C115  1  0.810000  0.952500  0.362480  1.0  -0.0117
  C  C116  1  0.833400  0.023900  0.316790  1.0  -0.1181
  C  C117  1  0.849180  0.303700  0.117560  1.0  0.0064
  C  C118  1  0.861180  0.355900  0.052770  1.0  -0.1884
  C  C119  1  0.857600  0.456100  0.053810  1.0  0.1581
  C  C120  1  0.843100  0.508000  0.117320  1.0  -0.2185
  C  C121  1  0.830100  0.455800  0.181000  1.0  0.1062
  C  C122  1  0.833170  0.355800  0.181790  1.0  -0.2092
  C  C123  1  0.834700  0.594400  0.970020  1.0  0.127
  C  C124  1  0.920400  0.558600  0.882760  1.0  0.0201
  C  C125  1  0.925200  0.485300  0.931250  1.0  -0.1432
  C  C126  1  0.778700  0.595700  0.253920  1.0  0.122
  C  C127  1  0.810000  0.547500  0.362480  1.0  -0.0122
  C  C128  1  0.833400  0.476100  0.316790  1.0  -0.1181
  C  C129  1  0.349180  0.196300  0.382440  1.0  0.0057
  C  C130  1  0.361180  0.144100  0.447230  1.0  -0.1887
  C  C131  1  0.357600  0.043900  0.446190  1.0  0.1578
  C  C132  1  0.343100  0.992000  0.382680  1.0  -0.2179
  C  C133  1  0.330100  0.044200  0.319000  1.0  0.1067
  C  C134  1  0.333170  0.144200  0.318210  1.0  -0.2076
  C  C135  1  0.334700  0.905600  0.529980  1.0  0.128
  C  C136  1  0.420400  0.941400  0.617240  1.0  0.0197
  C  C137  1  0.425200  0.014700  0.568750  1.0  -0.1414
  C  C138  1  0.278700  0.904300  0.246080  1.0  0.1218
  C  C139  1  0.310000  0.952500  0.137520  1.0  -0.0131
  C  C140  1  0.333400  0.023900  0.183210  1.0  -0.1178
  C  C141  1  0.065200  0.750000  0.584400  1.0  -0.1203
  C  C142  1  0.014500  0.750000  0.522500  1.0  -0.0121
  C  C143  1  0.926400  0.750000  0.528600  1.0  -0.1516
  C  C144  1  0.888500  0.750000  0.597800  1.0  -0.0114
  C  C145  1  0.939500  0.750000  0.659600  1.0  -0.1495
  C  C146  1  0.026800  0.750000  0.652300  1.0  -0.0844
  C  C147  1  0.161500  0.750000  0.579000  1.0  0.6849
  C  C148  1  0.874100  0.750000  0.459000  1.0  0.6847
  C  C149  1  0.904700  0.750000  0.736000  1.0  0.6503
  C  C150  1  0.565200  0.750000  0.915600  1.0  -0.1216
  C  C151  1  0.514500  0.750000  0.977500  1.0  -0.0119
  C  C152  1  0.426400  0.750000  0.971400  1.0  -0.1513
  C  C153  1  0.388500  0.750000  0.902200  1.0  -0.0116
  C  C154  1  0.439500  0.750000  0.840400  1.0  -0.1496
  C  C155  1  0.526800  0.750000  0.847700  1.0  -0.0843
  C  C156  1  0.661500  0.750000  0.921000  1.0  0.6859
  C  C157  1  0.374100  0.750000  0.041000  1.0  0.6847
  C  C158  1  0.404700  0.750000  0.764000  1.0  0.6502
  C  C159  1  0.150820  0.696300  0.882440  1.0  0.006
  C  C160  1  0.138820  0.644100  0.947230  1.0  -0.19
  C  C161  1  0.142400  0.543900  0.946190  1.0  0.1589
  C  C162  1  0.156900  0.492000  0.882680  1.0  -0.2172
  C  C163  1  0.169900  0.544200  0.819000  1.0  0.1067
  C  C164  1  0.166830  0.644200  0.818210  1.0  -0.2127
  C  C165  1  0.165300  0.405600  0.029980  1.0  0.1283
  C  C166  1  0.079600  0.441400  0.117240  1.0  0.0192
  C  C167  1  0.074800  0.514700  0.068750  1.0  -0.1426
  C  C168  1  0.221300  0.404300  0.746080  1.0  0.1215
  C  C169  1  0.190000  0.452500  0.637520  1.0  -0.0132
  C  C170  1  0.166600  0.523900  0.683210  1.0  -0.1198
  C  C171  1  0.650820  0.803700  0.617560  1.0  0.0068
  C  C172  1  0.638820  0.855900  0.552770  1.0  -0.1894
  C  C173  1  0.642400  0.956100  0.553810  1.0  0.1592
  C  C174  1  0.656900  0.008000  0.617320  1.0  -0.2177
  C  C175  1  0.669900  0.955800  0.681000  1.0  0.1061
  C  C176  1  0.666830  0.855800  0.681790  1.0  -0.2144
  C  C177  1  0.665300  0.094400  0.470020  1.0  0.1277
  C  C178  1  0.579600  0.058600  0.382760  1.0  0.0202
  C  C179  1  0.574800  0.985300  0.431250  1.0  -0.1433
  C  C180  1  0.721300  0.095700  0.753920  1.0  0.1222
  C  C181  1  0.690000  0.047500  0.862480  1.0  -0.0123
  C  C182  1  0.666667  0.976100  0.816790  1.0  -0.1194
  C  C183  1  0.650820  0.696300  0.617560  1.0  0.0064
  C  C184  1  0.638820  0.644100  0.552770  1.0  -0.1884
  C  C185  1  0.642400  0.543900  0.553810  1.0  0.1593
  C  C186  1  0.656900  0.492000  0.617320  1.0  -0.2171
  C  C187  1  0.669900  0.544200  0.681000  1.0  0.1062
  C  C188  1  0.666830  0.644200  0.681790  1.0  -0.2088
  C  C189  1  0.665300  0.405600  0.470020  1.0  0.1284
  C  C190  1  0.579600  0.441400  0.382760  1.0  0.0198
  C  C191  1  0.574800  0.514700  0.431250  1.0  -0.1436
  C  C192  1  0.721300  0.404300  0.753920  1.0  0.121
  C  C193  1  0.690000  0.452500  0.862480  1.0  -0.0119
  C  C194  1  0.666667  0.523900  0.816790  1.0  -0.1196
  C  C195  1  0.150820  0.803700  0.882440  1.0  0.0067
  C  C196  1  0.138820  0.855900  0.947230  1.0  -0.1889
  C  C197  1  0.142400  0.956100  0.946190  1.0  0.1588
  C  C198  1  0.156900  0.008000  0.882680  1.0  -0.218
  C  C199  1  0.169900  0.955800  0.819000  1.0  0.1065
  C  C200  1  0.166830  0.855800  0.818210  1.0  -0.2079
  C  C201  1  0.165300  0.094400  0.029980  1.0  0.1282
  C  C202  1  0.079600  0.058600  0.117240  1.0  0.0197
  C  C203  1  0.074800  0.985300  0.068750  1.0  -0.1421
  C  C204  1  0.221300  0.095700  0.746080  1.0  0.1215
  C  C205  1  0.190000  0.047500  0.637520  1.0  -0.0129
  C  C206  1  0.166600  0.976100  0.683210  1.0  -0.1193
  C  C207  1  0.434800  0.250000  0.084400  1.0  -0.1211
  C  C208  1  0.485500  0.250000  0.022500  1.0  -0.0111
  C  C209  1  0.573600  0.250000  0.028600  1.0  -0.1509
  C  C210  1  0.611500  0.250000  0.097800  1.0  -0.0091
  C  C211  1  0.560500  0.250000  0.159600  1.0  -0.149
  C  C212  1  0.473200  0.250000  0.152300  1.0  -0.0839
  C  C213  1  0.338500  0.250000  0.079000  1.0  0.6845
  C  C214  1  0.625900  0.250000  0.959000  1.0  0.6851
  C  C215  1  0.595300  0.250000  0.236000  1.0  0.6502
  C  C216  1  0.934800  0.250000  0.415600  1.0  -0.1211
  C  C217  1  0.985500  0.250000  0.477500  1.0  -0.013
  C  C218  1  0.073600  0.250000  0.471400  1.0  -0.1509
  C  C219  1  0.111500  0.250000  0.402200  1.0  -0.0093
  C  C220  1  0.060500  0.250000  0.340400  1.0  -0.1486
  C  C221  1  0.973200  0.250000  0.347700  1.0  -0.084
  C  C222  1  0.838500  0.250000  0.421000  1.0  0.6857
  C  C223  1  0.125900  0.250000  0.541000  1.0  0.6846
  C  C224  1  0.095300  0.250000  0.264000  1.0  0.6502
  N  N225  1  0.370850  0.508500  0.512630  1.0  0.0302
  N  N226  1  0.363790  0.626610  0.592510  1.0  -0.3699
  N  N227  1  0.314230  0.507160  0.252760  1.0  0.0384
  N  N228  1  0.275420  0.622540  0.177230  1.0  -0.3437
  N  N229  1  0.870850  0.991500  0.987370  1.0  0.0302
  N  N230  1  0.863790  0.873390  0.907490  1.0  -0.3696
  N  N231  1  0.814230  0.992840  0.247240  1.0  0.0371
  N  N232  1  0.775420  0.877460  0.322770  1.0  -0.3448
  N  N233  1  0.870850  0.508500  0.987370  1.0  0.03
  N  N234  1  0.863790  0.626610  0.907490  1.0  -0.3686
  N  N235  1  0.814230  0.507160  0.247240  1.0  0.0382
  N  N236  1  0.775420  0.622540  0.322770  1.0  -0.3444
  N  N237  1  0.370850  0.991500  0.512630  1.0  0.0304
  N  N238  1  0.363790  0.873390  0.592510  1.0  -0.3699
  N  N239  1  0.314230  0.992840  0.252760  1.0  0.0371
  N  N240  1  0.275420  0.877460  0.177230  1.0  -0.3444
  N  N241  1  0.129150  0.491500  0.012630  1.0  0.0304
  N  N242  1  0.136210  0.373390  0.092510  1.0  -0.3701
  N  N243  1  0.185770  0.492840  0.752760  1.0  0.0374
  N  N244  1  0.224580  0.377460  0.677230  1.0  -0.344
  N  N245  1  0.629150  0.008500  0.487370  1.0  0.0302
  N  N246  1  0.636210  0.126610  0.407490  1.0  -0.3691
  N  N247  1  0.685770  0.007160  0.747240  1.0  0.0385
  N  N248  1  0.724580  0.122540  0.822770  1.0  -0.3447
  N  N249  1  0.629150  0.491500  0.487370  1.0  0.0303
  N  N250  1  0.636210  0.373390  0.407490  1.0  -0.3699
  N  N251  1  0.685770  0.492840  0.747240  1.0  0.0377
  N  N252  1  0.724580  0.377460  0.822770  1.0  -0.3443
  N  N253  1  0.129150  0.008500  0.012630  1.0  0.0302
  N  N254  1  0.136210  0.126610  0.092510  1.0  -0.3703
  N  N255  1  0.185770  0.007160  0.752760  1.0  0.0386
  N  N256  1  0.224580  0.122540  0.677230  1.0  -0.3443
  O  O257  1  0.200600  0.750000  0.639750  1.0  -0.5868
  O  O258  1  0.196800  0.750000  0.518800  1.0  -0.5795
  O  O259  1  0.792200  0.750000  0.465610  1.0  -0.5931
  O  O260  1  0.911000  0.750000  0.400040  1.0  -0.5285
  O  O261  1  0.825400  0.750000  0.746010  1.0  -0.5704
  O  O262  1  0.954800  0.750000  0.788710  1.0  -0.6081
  O  O263  1  0.700600  0.750000  0.860250  1.0  -0.5871
  O  O264  1  0.696800  0.750000  0.981200  1.0  -0.5794
  O  O265  1  0.292200  0.750000  0.034390  1.0  -0.5928
  O  O266  1  0.411000  0.750000  0.099960  1.0  -0.528
  O  O267  1  0.325400  0.750000  0.753990  1.0  -0.5704
  O  O268  1  0.454800  0.750000  0.711290  1.0  -0.6078
  O  O269  1  0.299400  0.250000  0.139750  1.0  -0.5863
  O  O270  1  0.303200  0.250000  0.018800  1.0  -0.5796
  O  O271  1  0.707800  0.250000  0.965610  1.0  -0.5927
  O  O272  1  0.589000  0.250000  0.900040  1.0  -0.5287
  O  O273  1  0.674600  0.250000  0.246010  1.0  -0.5717
  O  O274  1  0.545200  0.250000  0.288710  1.0  -0.6067
  O  O275  1  0.799400  0.250000  0.360250  1.0  -0.5861
  O  O276  1  0.803200  0.250000  0.481200  1.0  -0.5785
  O  O277  1  0.207800  0.250000  0.534390  1.0  -0.5927
  O  O278  1  0.089000  0.250000  0.599960  1.0  -0.5292
  O  O279  1  0.174600  0.250000  0.253990  1.0  -0.5716
  O  O280  1  0.045200  0.250000  0.211290  1.0  -0.6065
