# generated using pymatgen
data_Mn3H11(C3O2)9
_symmetry_space_group_name_H-M   'P 1'
_cell_length_a   9.75300000
_cell_length_b   12.75100000
_cell_length_c   14.17400000
_cell_angle_alpha   90.00000000
_cell_angle_beta   109.41000000
_cell_angle_gamma   90.00000000
_symmetry_Int_Tables_number   1
_chemical_formula_structural   Mn3H11(C3O2)9
_chemical_formula_sum   'Mn6 H22 C54 O36'
_cell_volume   1662.50294306
_cell_formula_units_Z   2
loop_
 _symmetry_equiv_pos_site_id
 _symmetry_equiv_pos_as_xyz
  1  'x, y, z'
loop_
 _atom_site_type_symbol
 _atom_site_label
 _atom_site_symmetry_multiplicity
 _atom_site_fract_x
 _atom_site_fract_y
 _atom_site_fract_z
 _atom_site_occupancy
 _atom_site_charge
  Mn  Mn1  1  0.556740  0.724220  0.148580  1.0  1.1392
  Mn  Mn2  1  0.443260  0.724220  0.351420  1.0  1.1391
  Mn  Mn3  1  0.443260  0.275780  0.851420  1.0  1.1398
  Mn  Mn4  1  0.556740  0.275780  0.648580  1.0  1.1398
  Mn  Mn5  1  0.500000  0.500000  0.000000  1.0  1.244
  Mn  Mn6  1  0.500000  0.500000  0.500000  1.0  1.244
  H  H7  1  0.127900  0.155000  0.123400  1.0  0.1534
  H  H8  1  0.058400  0.695000  0.141300  1.0  0.14
  H  H9  1  0.242800  0.405700  0.127100  1.0  0.1321
  H  H10  1  0.816200  0.425300  0.121700  1.0  0.1349
  H  H11  1  0.521800  0.059900  0.109400  1.0  0.1395
  H  H12  1  0.872100  0.155000  0.376600  1.0  0.1534
  H  H13  1  0.941600  0.695000  0.358700  1.0  0.1398
  H  H14  1  0.757200  0.405700  0.372900  1.0  0.1315
  H  H15  1  0.183800  0.425300  0.378300  1.0  0.1347
  H  H16  1  0.478200  0.059900  0.390600  1.0  0.1403
  H  H17  1  0.872100  0.845000  0.876600  1.0  0.1546
  H  H18  1  0.941600  0.305000  0.858700  1.0  0.1418
  H  H19  1  0.757200  0.594300  0.872900  1.0  0.1311
  H  H20  1  0.183800  0.574700  0.878300  1.0  0.1347
  H  H21  1  0.478200  0.940100  0.890600  1.0  0.1403
  H  H22  1  0.127900  0.845000  0.623400  1.0  0.1543
  H  H23  1  0.058400  0.305000  0.641300  1.0  0.1412
  H  H24  1  0.242800  0.594300  0.627100  1.0  0.1316
  H  H25  1  0.816200  0.574700  0.621700  1.0  0.1345
  H  H26  1  0.521800  0.940100  0.609400  1.0  0.1398
  H  H27  1  0.500000  0.340200  0.250000  1.0  0.1365
  H  H28  1  0.500000  0.659800  0.750000  1.0  0.1365
  C  C29  1  0.919600  0.567900  0.129000  1.0  -0.0997
  C  C30  1  0.050200  0.616900  0.135800  1.0  -0.03
  C  C31  1  0.168800  0.557300  0.135000  1.0  -0.0838
  C  C32  1  0.157800  0.448500  0.128900  1.0  -0.0305
  C  C33  1  0.030000  0.399500  0.125400  1.0  -0.1057
  C  C34  1  0.909400  0.460300  0.124900  1.0  -0.0244
  C  C35  1  0.792700  0.631400  0.130700  1.0  0.69
  C  C36  1  0.307200  0.608100  0.135600  1.0  0.7263
  C  C37  1  0.014300  0.284100  0.119200  1.0  0.684
  C  C38  1  0.512300  0.099200  0.168000  1.0  0.0104
  C  C39  1  0.511100  0.208400  0.168000  1.0  -0.0875
  C  C40  1  0.519700  0.269700  0.079500  1.0  0.7383
  C  C41  1  0.080400  0.567900  0.371000  1.0  -0.0997
  C  C42  1  0.949800  0.616900  0.364200  1.0  -0.0298
  C  C43  1  0.831200  0.557300  0.365000  1.0  -0.0838
  C  C44  1  0.842200  0.448500  0.371100  1.0  -0.0325
  C  C45  1  0.970000  0.399500  0.374600  1.0  -0.1055
  C  C46  1  0.090600  0.460300  0.375100  1.0  -0.0241
  C  C47  1  0.207300  0.631400  0.369300  1.0  0.6897
  C  C48  1  0.692800  0.608100  0.364400  1.0  0.7255
  C  C49  1  0.985700  0.284100  0.380800  1.0  0.6833
  C  C50  1  0.487700  0.099200  0.332000  1.0  0.0093
  C  C51  1  0.488900  0.208400  0.332000  1.0  -0.0879
  C  C52  1  0.480300  0.269700  0.420500  1.0  0.7387
  C  C53  1  0.080400  0.432100  0.871000  1.0  -0.0997
  C  C54  1  0.949800  0.383100  0.864200  1.0  -0.031
  C  C55  1  0.831200  0.442700  0.865000  1.0  -0.0842
  C  C56  1  0.842200  0.551500  0.871100  1.0  -0.0326
  C  C57  1  0.970000  0.600500  0.874600  1.0  -0.1056
  C  C58  1  0.090600  0.539700  0.875100  1.0  -0.0245
  C  C59  1  0.207300  0.368600  0.869300  1.0  0.6895
  C  C60  1  0.692800  0.391900  0.864400  1.0  0.7258
  C  C61  1  0.985700  0.715900  0.880800  1.0  0.6817
  C  C62  1  0.487700  0.900800  0.832000  1.0  0.0094
  C  C63  1  0.488900  0.791600  0.832000  1.0  -0.0877
  C  C64  1  0.480300  0.730300  0.920500  1.0  0.7387
  C  C65  1  0.919600  0.432100  0.629000  1.0  -0.0997
  C  C66  1  0.050200  0.383100  0.635800  1.0  -0.0307
  C  C67  1  0.168800  0.442700  0.635000  1.0  -0.0841
  C  C68  1  0.157800  0.551500  0.628900  1.0  -0.0302
  C  C69  1  0.030000  0.600500  0.625400  1.0  -0.1059
  C  C70  1  0.909400  0.539700  0.624900  1.0  -0.0255
  C  C71  1  0.792700  0.368600  0.630700  1.0  0.6904
  C  C72  1  0.307200  0.391900  0.635600  1.0  0.7258
  C  C73  1  0.014300  0.715900  0.619200  1.0  0.6824
  C  C74  1  0.512300  0.900800  0.668000  1.0  0.0111
  C  C75  1  0.511100  0.791600  0.668000  1.0  -0.0872
  C  C76  1  0.519700  0.730300  0.579500  1.0  0.739
  C  C77  1  0.500000  0.045100  0.250000  1.0  -0.0789
  C  C78  1  0.500000  0.261700  0.250000  1.0  -0.0337
  C  C79  1  0.500000  0.927800  0.250000  1.0  0.7334
  C  C80  1  0.500000  0.954900  0.750000  1.0  -0.077
  C  C81  1  0.500000  0.738300  0.750000  1.0  -0.0342
  C  C82  1  0.500000  0.072200  0.750000  1.0  0.7344
  O  O83  1  0.671600  0.585200  0.117300  1.0  -0.643
  O  O84  1  0.803400  0.728200  0.148000  1.0  -0.5586
  O  O85  1  0.350800  0.692100  0.185200  1.0  -0.6426
  O  O86  1  0.376800  0.567500  0.086100  1.0  -0.6503
  O  O87  1  0.131100  0.233300  0.120100  1.0  -0.4831
  O  O88  1  0.903000  0.239500  0.114500  1.0  -0.4704
  O  O89  1  0.451000  0.882400  0.311200  1.0  -0.5997
  O  O90  1  0.513400  0.219400  0.000700  1.0  -0.5912
  O  O91  1  0.529400  0.366700  0.088800  1.0  -0.5856
  O  O92  1  0.328400  0.585200  0.382700  1.0  -0.6413
  O  O93  1  0.196600  0.728200  0.352000  1.0  -0.5582
  O  O94  1  0.649200  0.692100  0.314800  1.0  -0.642
  O  O95  1  0.623200  0.567500  0.413900  1.0  -0.6484
  O  O96  1  0.868900  0.233300  0.379900  1.0  -0.4836
  O  O97  1  0.097000  0.239500  0.385500  1.0  -0.4698
  O  O98  1  0.549000  0.882400  0.188800  1.0  -0.5993
  O  O99  1  0.486600  0.219400  0.499300  1.0  -0.5907
  O  O100  1  0.470600  0.366700  0.411200  1.0  -0.5856
  O  O101  1  0.328400  0.414800  0.882700  1.0  -0.6406
  O  O102  1  0.196600  0.271800  0.852000  1.0  -0.5641
  O  O103  1  0.649200  0.307900  0.814800  1.0  -0.6434
  O  O104  1  0.623200  0.432500  0.913900  1.0  -0.6489
  O  O105  1  0.868900  0.766700  0.879900  1.0  -0.4844
  O  O106  1  0.097000  0.760500  0.885500  1.0  -0.4702
  O  O107  1  0.549000  0.117600  0.688800  1.0  -0.5991
  O  O108  1  0.486600  0.780600  0.999300  1.0  -0.5903
  O  O109  1  0.470600  0.633300  0.911200  1.0  -0.5856
  O  O110  1  0.671600  0.414800  0.617300  1.0  -0.6418
  O  O111  1  0.803400  0.271800  0.648000  1.0  -0.5644
  O  O112  1  0.350800  0.307900  0.685200  1.0  -0.6443
  O  O113  1  0.376800  0.432500  0.586100  1.0  -0.6512
  O  O114  1  0.131100  0.766700  0.620100  1.0  -0.4841
  O  O115  1  0.903000  0.760500  0.614500  1.0  -0.4702
  O  O116  1  0.451000  0.117600  0.811200  1.0  -0.5989
  O  O117  1  0.513400  0.780600  0.500700  1.0  -0.5912
  O  O118  1  0.529400  0.633300  0.588800  1.0  -0.5858
