# generated using pymatgen
data_Na5Co6H16(C8O11)3
_symmetry_space_group_name_H-M   'P 1'
_cell_length_a   12.26000000
_cell_length_b   12.36600000
_cell_length_c   19.10100000
_cell_angle_alpha   78.18000000
_cell_angle_beta   84.62500000
_cell_angle_gamma   89.51100000
_symmetry_Int_Tables_number   1
_chemical_formula_structural   Na5Co6H16(C8O11)3
_chemical_formula_sum   'Na10 Co12 H32 C48 O66'
_cell_volume   2821.81275637
_cell_formula_units_Z   2
loop_
 _symmetry_equiv_pos_site_id
 _symmetry_equiv_pos_as_xyz
  1  'x, y, z'
loop_
 _atom_site_type_symbol
 _atom_site_label
 _atom_site_symmetry_multiplicity
 _atom_site_fract_x
 _atom_site_fract_y
 _atom_site_fract_z
 _atom_site_occupancy
 _atom_site_charge
  Na  Na1  1  0.224000  0.194500  0.846300  1.0  0.9253
  Na  Na2  1  0.200600  0.918200  0.956900  1.0  0.9292
  Na  Na3  1  0.624000  0.708000  0.404700  1.0  0.904
  Na  Na4  1  0.042000  0.464000  0.581400  1.0  0.9025
  Na  Na5  1  0.776000  0.805500  0.153700  1.0  0.925
  Na  Na6  1  0.799400  0.081800  0.043100  1.0  0.9314
  Na  Na7  1  0.376000  0.292000  0.595300  1.0  0.9043
  Na  Na8  1  0.958000  0.536000  0.418600  1.0  0.9029
  Na  Na9  1  0.000000  0.500000  0.000000  1.0  0.916
  Na  Na10  1  0.500000  0.500000  0.500000  1.0  0.8706
  Co  Co11  1  0.568430  0.742180  0.685670  1.0  1.2143
  Co  Co12  1  0.585060  0.877750  0.809230  1.0  1.1904
  Co  Co13  1  0.785360  0.875710  0.691730  1.0  1.2122
  Co  Co14  1  0.723740  0.659060  0.810770  1.0  1.2099
  Co  Co15  1  0.190190  0.860640  0.576830  1.0  0.9934
  Co  Co16  1  0.373380  0.766920  0.078740  1.0  1.0207
  Co  Co17  1  0.431570  0.257820  0.314330  1.0  1.2092
  Co  Co18  1  0.414940  0.122250  0.190770  1.0  1.1751
  Co  Co19  1  0.214640  0.124290  0.308270  1.0  1.2198
  Co  Co20  1  0.276260  0.340940  0.189230  1.0  1.2116
  Co  Co21  1  0.809810  0.139360  0.423170  1.0  0.9933
  Co  Co22  1  0.626620  0.233080  0.921260  1.0  1.0217
  H  H23  1  0.307400  0.678600  0.867300  1.0  0.1447
  H  H24  1  0.364000  0.780800  0.810400  1.0  0.1511
  H  H25  1  0.539900  0.615700  0.931800  1.0  0.1465
  H  H26  1  0.433300  0.541200  0.932700  1.0  0.1541
  H  H27  1  0.941300  0.757700  0.821000  1.0  0.1447
  H  H28  1  0.974800  0.819900  0.881800  1.0  0.1434
  H  H29  1  0.825500  0.920000  0.944100  1.0  0.1595
  H  H30  1  0.721300  0.845100  0.940100  1.0  0.154
  H  H31  1  0.616600  0.168600  0.629000  1.0  0.1343
  H  H32  1  0.689700  0.100700  0.688200  1.0  0.1461
  H  H33  1  0.502200  0.059000  0.564000  1.0  0.1444
  H  H34  1  0.579100  0.954200  0.562700  1.0  0.1452
  H  H35  1  0.812700  0.762000  0.564500  1.0  0.1575
  H  H36  1  0.890800  0.658700  0.560200  1.0  0.1203
  H  H37  1  0.774600  0.496200  0.625900  1.0  0.1301
  H  H38  1  0.680500  0.517600  0.685700  1.0  0.1476
  H  H39  1  0.692600  0.321400  0.132700  1.0  0.1358
  H  H40  1  0.636000  0.219200  0.189600  1.0  0.1523
  H  H41  1  0.460100  0.384300  0.068200  1.0  0.1453
  H  H42  1  0.566700  0.458800  0.067300  1.0  0.1513
  H  H43  1  0.058700  0.242300  0.179000  1.0  0.1456
  H  H44  1  0.025200  0.180100  0.118200  1.0  0.1464
  H  H45  1  0.174500  0.080000  0.055900  1.0  0.1593
  H  H46  1  0.278700  0.154900  0.059900  1.0  0.1439
  H  H47  1  0.383400  0.831400  0.371000  1.0  0.1196
  H  H48  1  0.310300  0.899300  0.311800  1.0  0.1454
  H  H49  1  0.497800  0.941000  0.436000  1.0  0.1457
  H  H50  1  0.420900  0.045800  0.437300  1.0  0.1454
  H  H51  1  0.187300  0.238000  0.435500  1.0  0.1596
  H  H52  1  0.109200  0.341300  0.439800  1.0  0.1154
  H  H53  1  0.225400  0.503800  0.374100  1.0  0.1306
  H  H54  1  0.319500  0.482400  0.314300  1.0  0.1464
  C  C55  1  0.402700  0.778200  0.915700  1.0  0.7405
  C  C56  1  0.375700  0.723000  0.853200  1.0  -0.4363
  C  C57  1  0.472000  0.647000  0.834400  1.0  0.3091
  C  C58  1  0.501300  0.571900  0.903600  1.0  -0.4319
  C  C59  1  0.574300  0.477200  0.887900  1.0  0.7708
  C  C60  1  0.428200  0.576400  0.782900  1.0  0.6164
  C  C61  1  0.864800  0.687800  0.923200  1.0  0.7321
  C  C62  1  0.912800  0.785800  0.864100  1.0  -0.4325
  C  C63  1  0.825200  0.874500  0.843100  1.0  0.3311
  C  C64  1  0.768600  0.907200  0.913100  1.0  -0.4728
  C  C65  1  0.701200  0.008300  0.896600  1.0  0.794
  C  C66  1  0.883600  0.973800  0.795700  1.0  0.5826
  C  C67  1  0.740900  0.076300  0.583000  1.0  0.7385
  C  C68  1  0.653300  0.097300  0.644500  1.0  -0.4223
  C  C69  1  0.568800  0.003100  0.661200  1.0  0.3258
  C  C70  1  0.521600  0.986200  0.592100  1.0  -0.4166
  C  C71  1  0.419300  0.909800  0.606500  1.0  0.7477
  C  C72  1  0.472700  0.035800  0.710200  1.0  0.6006
  C  C73  1  0.958400  0.773800  0.607500  1.0  0.7844
  C  C74  1  0.863500  0.710000  0.591300  1.0  -0.4264
  C  C75  1  0.800100  0.643000  0.660900  1.0  0.2972
  C  C76  1  0.727900  0.553400  0.642500  1.0  -0.3999
  C  C77  1  0.655700  0.608900  0.581800  1.0  0.729
  C  C78  1  0.884100  0.579100  0.711200  1.0  0.6292
  C  C79  1  0.597300  0.221800  0.084300  1.0  0.7416
  C  C80  1  0.624300  0.277000  0.146800  1.0  -0.4379
  C  C81  1  0.528000  0.353000  0.165600  1.0  0.3191
  C  C82  1  0.498700  0.428100  0.096400  1.0  -0.4003
  C  C83  1  0.425700  0.522800  0.112100  1.0  0.7732
  C  C84  1  0.571800  0.423600  0.217100  1.0  0.5894
  C  C85  1  0.135200  0.312200  0.076800  1.0  0.734
  C  C86  1  0.087200  0.214200  0.135900  1.0  -0.4319
  C  C87  1  0.174800  0.125500  0.156900  1.0  0.3286
  C  C88  1  0.231400  0.092800  0.086900  1.0  -0.4718
  C  C89  1  0.298800  0.991700  0.103400  1.0  0.7927
  C  C90  1  0.116400  0.026200  0.204300  1.0  0.582
  C  C91  1  0.259100  0.923700  0.417000  1.0  0.7384
  C  C92  1  0.346700  0.902700  0.355500  1.0  -0.4193
  C  C93  1  0.431200  0.996900  0.338800  1.0  0.3248
  C  C94  1  0.478400  0.013800  0.407900  1.0  -0.4235
  C  C95  1  0.580700  0.090200  0.393500  1.0  0.7474
  C  C96  1  0.527300  0.964200  0.289800  1.0  0.5993
  C  C97  1  0.041600  0.226200  0.392500  1.0  0.7852
  C  C98  1  0.136500  0.290000  0.408700  1.0  -0.4099
  C  C99  1  0.199900  0.357000  0.339100  1.0  0.2966
  C  C100  1  0.272100  0.446600  0.357500  1.0  -0.4
  C  C101  1  0.344300  0.391100  0.418200  1.0  0.7302
  C  C102  1  0.115900  0.420900  0.288800  1.0  0.6407
  O  O103  1  0.560600  0.712700  0.798500  1.0  -0.7792
  O  O104  1  0.615800  0.903000  0.697000  1.0  -0.7902
  O  O105  1  0.735300  0.714500  0.697500  1.0  -0.7861
  O  O106  1  0.428800  0.815300  0.646000  1.0  -0.6048
  O  O107  1  0.599700  0.691400  0.588400  1.0  -0.5684
  O  O108  1  0.468100  0.600600  0.717200  1.0  -0.5574
  O  O109  1  0.745500  0.829700  0.804700  1.0  -0.772
  O  O110  1  0.459500  0.983700  0.774800  1.0  -0.5248
  O  O111  1  0.488800  0.832400  0.907900  1.0  -0.5699
  O  O112  1  0.640400  0.017100  0.845700  1.0  -0.6019
  O  O113  1  0.941400  0.824800  0.658200  1.0  -0.5991
  O  O114  1  0.792200  0.987900  0.592500  1.0  -0.5889
  O  O115  1  0.871400  0.992600  0.728800  1.0  -0.5535
  O  O116  1  0.864500  0.581900  0.778100  1.0  -0.561
  O  O117  1  0.658800  0.500800  0.844400  1.0  -0.5989
  O  O118  1  0.782300  0.637900  0.911100  1.0  -0.5943
  O  O119  1  0.049100  0.772900  0.570800  1.0  -0.6276
  O  O120  1  0.749600  0.152600  0.527000  1.0  -0.591
  O  O121  1  0.335500  0.947800  0.578800  1.0  -0.5925
  O  O122  1  0.336900  0.760400  0.972000  1.0  -0.6717
  O  O123  1  0.549600  0.379700  0.921300  1.0  -0.6171
  O  O124  1  0.707200  0.081200  0.934300  1.0  -0.6967
  O  O125  1  0.936000  0.037200  0.823800  1.0  -0.5315
  O  O126  1  0.358300  0.504800  0.807200  1.0  -0.5003
  O  O127  1  0.904800  0.670900  0.983100  1.0  -0.6988
  O  O128  1  0.655500  0.561500  0.528500  1.0  -0.7038
  O  O129  1  0.415200  0.119000  0.684300  1.0  -0.6541
  O  O130  1  0.964500  0.534500  0.685300  1.0  -0.6545
  O  O131  1  0.080400  0.072500  0.919000  1.0  -0.5594
  O  O132  1  0.338700  0.043200  0.890100  1.0  -0.5229
  O  O133  1  0.582800  0.525600  0.380300  1.0  -0.3195
  O  O134  1  0.453400  0.698700  0.482300  1.0  -0.3945
  O  O135  1  0.204500  0.364300  0.643500  1.0  -0.6394
  O  O136  1  0.439400  0.287300  0.201500  1.0  -0.7781
  O  O137  1  0.384200  0.097000  0.303000  1.0  -0.7906
  O  O138  1  0.264700  0.285500  0.302500  1.0  -0.7858
  O  O139  1  0.571200  0.184700  0.354000  1.0  -0.6045
  O  O140  1  0.400300  0.308600  0.411600  1.0  -0.5697
  O  O141  1  0.531900  0.399400  0.282800  1.0  -0.5404
  O  O142  1  0.254500  0.170300  0.195300  1.0  -0.7718
  O  O143  1  0.540500  0.016300  0.225200  1.0  -0.5257
  O  O144  1  0.511200  0.167600  0.092100  1.0  -0.5661
  O  O145  1  0.359600  0.982900  0.154300  1.0  -0.6006
  O  O146  1  0.058600  0.175200  0.341800  1.0  -0.5992
  O  O147  1  0.207800  0.012100  0.407500  1.0  -0.5889
  O  O148  1  0.128600  0.007400  0.271200  1.0  -0.5477
  O  O149  1  0.135500  0.418100  0.221900  1.0  -0.562
  O  O150  1  0.341200  0.499200  0.155600  1.0  -0.5987
  O  O151  1  0.217700  0.362100  0.088900  1.0  -0.5948
  O  O152  1  0.950900  0.227100  0.429200  1.0  -0.6276
  O  O153  1  0.250400  0.847400  0.473000  1.0  -0.589
  O  O154  1  0.664500  0.052200  0.421200  1.0  -0.5936
  O  O155  1  0.663100  0.239600  0.028000  1.0  -0.6716
  O  O156  1  0.450400  0.620300  0.078700  1.0  -0.6175
  O  O157  1  0.292800  0.918800  0.065700  1.0  -0.6968
  O  O158  1  0.064000  0.962800  0.176200  1.0  -0.5142
  O  O159  1  0.641700  0.495200  0.192800  1.0  -0.4995
  O  O160  1  0.095200  0.329100  0.016900  1.0  -0.7066
  O  O161  1  0.344500  0.438500  0.471500  1.0  -0.7032
  O  O162  1  0.584800  0.881000  0.315700  1.0  -0.6557
  O  O163  1  0.035500  0.465500  0.314700  1.0  -0.6547
  O  O164  1  0.919600  0.927500  0.081000  1.0  -0.5609
  O  O165  1  0.661300  0.956800  0.109900  1.0  -0.5213
  O  O166  1  0.417200  0.474400  0.619700  1.0  -0.3175
  O  O167  1  0.546600  0.301300  0.517700  1.0  -0.3942
  O  O168  1  0.795500  0.635700  0.356500  1.0  -0.6393
