# generated using pymatgen
data_Gd2Ni3H24(C4O5)6
_symmetry_space_group_name_H-M   'P 1'
_cell_length_a   14.38130000
_cell_length_b   14.38130000
_cell_length_c   15.76990000
_cell_angle_alpha   90.00000000
_cell_angle_beta   90.00000000
_cell_angle_gamma   120.00000000
_symmetry_Int_Tables_number   1
_chemical_formula_structural   Gd2Ni3H24(C4O5)6
_chemical_formula_sum   'Gd4 Ni6 H48 C48 O60'
_cell_volume   2824.59289905
_cell_formula_units_Z   2
loop_
 _symmetry_equiv_pos_site_id
 _symmetry_equiv_pos_as_xyz
  1  'x, y, z'
loop_
 _atom_site_type_symbol
 _atom_site_label
 _atom_site_symmetry_multiplicity
 _atom_site_fract_x
 _atom_site_fract_y
 _atom_site_fract_z
 _atom_site_occupancy
 _atom_site_charge
  Gd  Gd1  1  0.666667  0.333333  0.250000  1.0  2.0966
  Gd  Gd2  1  0.333333  0.666667  0.250000  1.0  2.0966
  Gd  Gd3  1  0.333333  0.666667  0.750000  1.0  2.0966
  Gd  Gd4  1  0.666667  0.333333  0.750000  1.0  2.0966
  Ni  Ni5  1  0.000000  0.500000  0.000000  1.0  0.768
  Ni  Ni6  1  0.500000  0.500000  0.000000  1.0  0.768
  Ni  Ni7  1  0.500000  0.000000  0.000000  1.0  0.768
  Ni  Ni8  1  0.500000  0.000000  0.500000  1.0  0.768
  Ni  Ni9  1  0.500000  0.500000  0.500000  1.0  0.768
  Ni  Ni10  1  0.000000  0.500000  0.500000  1.0  0.768
  H  H11  1  0.828700  0.192700  0.155800  1.0  0.1096
  H  H12  1  0.915500  0.273300  0.222900  1.0  0.0898
  H  H13  1  0.807300  0.636000  0.155800  1.0  0.1104
  H  H14  1  0.726700  0.642200  0.222900  1.0  0.0906
  H  H15  1  0.364000  0.171300  0.155800  1.0  0.1087
  H  H16  1  0.357800  0.084500  0.222900  1.0  0.0896
  H  H17  1  0.171300  0.807300  0.155800  1.0  0.1096
  H  H18  1  0.084500  0.726700  0.222900  1.0  0.091
  H  H19  1  0.192700  0.364000  0.155800  1.0  0.1103
  H  H20  1  0.273300  0.357800  0.222900  1.0  0.0905
  H  H21  1  0.636000  0.828700  0.155800  1.0  0.1079
  H  H22  1  0.642200  0.915500  0.222900  1.0  0.0899
  H  H23  1  0.192700  0.828700  0.344200  1.0  0.1083
  H  H24  1  0.273300  0.915500  0.277100  1.0  0.0895
  H  H25  1  0.636000  0.807300  0.344200  1.0  0.1089
  H  H26  1  0.642200  0.726700  0.277100  1.0  0.0899
  H  H27  1  0.171300  0.364000  0.344200  1.0  0.1107
  H  H28  1  0.084500  0.357800  0.277100  1.0  0.0911
  H  H29  1  0.807300  0.171300  0.344200  1.0  0.1075
  H  H30  1  0.726700  0.084500  0.277100  1.0  0.0905
  H  H31  1  0.364000  0.192700  0.344200  1.0  0.1096
  H  H32  1  0.357800  0.273300  0.277100  1.0  0.0903
  H  H33  1  0.828700  0.636000  0.344200  1.0  0.1104
  H  H34  1  0.915500  0.642200  0.277100  1.0  0.0898
  H  H35  1  0.171300  0.807300  0.844200  1.0  0.1093
  H  H36  1  0.084500  0.726700  0.777100  1.0  0.0908
  H  H37  1  0.192700  0.364000  0.844200  1.0  0.1105
  H  H38  1  0.273300  0.357800  0.777100  1.0  0.0903
  H  H39  1  0.636000  0.828700  0.844200  1.0  0.1072
  H  H40  1  0.642200  0.915500  0.777100  1.0  0.0899
  H  H41  1  0.828700  0.192700  0.844200  1.0  0.1096
  H  H42  1  0.915500  0.273300  0.777100  1.0  0.0896
  H  H43  1  0.807300  0.636000  0.844200  1.0  0.1105
  H  H44  1  0.726700  0.642200  0.777100  1.0  0.0907
  H  H45  1  0.364000  0.171300  0.844200  1.0  0.1085
  H  H46  1  0.357800  0.084500  0.777100  1.0  0.0899
  H  H47  1  0.807300  0.171300  0.655800  1.0  0.1079
  H  H48  1  0.726700  0.084500  0.722900  1.0  0.0902
  H  H49  1  0.364000  0.192700  0.655800  1.0  0.1092
  H  H50  1  0.357800  0.273300  0.722900  1.0  0.0904
  H  H51  1  0.828700  0.636000  0.655800  1.0  0.1107
  H  H52  1  0.915500  0.642200  0.722900  1.0  0.09
  H  H53  1  0.192700  0.828700  0.655800  1.0  0.1085
  H  H54  1  0.273300  0.915500  0.722900  1.0  0.0893
  H  H55  1  0.636000  0.807300  0.655800  1.0  0.1095
  H  H56  1  0.642200  0.726700  0.722900  1.0  0.0901
  H  H57  1  0.171300  0.364000  0.655800  1.0  0.1103
  H  H58  1  0.084500  0.357800  0.722900  1.0  0.0907
  C  C59  1  0.868500  0.348700  0.138000  1.0  0.7265
  C  C60  1  0.849000  0.256400  0.191800  1.0  -0.0271
  C  C61  1  0.651300  0.519800  0.138000  1.0  0.7271
  C  C62  1  0.743600  0.592600  0.191800  1.0  -0.0265
  C  C63  1  0.480200  0.131500  0.138000  1.0  0.7269
  C  C64  1  0.407400  0.151000  0.191800  1.0  -0.0255
  C  C65  1  0.131500  0.651300  0.138000  1.0  0.7267
  C  C66  1  0.151000  0.743600  0.191800  1.0  -0.0266
  C  C67  1  0.348700  0.480200  0.138000  1.0  0.7273
  C  C68  1  0.256400  0.407400  0.191800  1.0  -0.026
  C  C69  1  0.519800  0.868500  0.138000  1.0  0.7281
  C  C70  1  0.592600  0.849000  0.191800  1.0  -0.0267
  C  C71  1  0.348700  0.868500  0.362000  1.0  0.7259
  C  C72  1  0.256400  0.849000  0.308200  1.0  -0.0254
  C  C73  1  0.519800  0.651300  0.362000  1.0  0.7255
  C  C74  1  0.592600  0.743600  0.308200  1.0  -0.0264
  C  C75  1  0.131500  0.480200  0.362000  1.0  0.7262
  C  C76  1  0.151000  0.407400  0.308200  1.0  -0.0253
  C  C77  1  0.651300  0.131500  0.362000  1.0  0.7264
  C  C78  1  0.743600  0.151000  0.308200  1.0  -0.0264
  C  C79  1  0.480200  0.348700  0.362000  1.0  0.7251
  C  C80  1  0.407400  0.256400  0.308200  1.0  -0.0256
  C  C81  1  0.868500  0.519800  0.362000  1.0  0.7261
  C  C82  1  0.849000  0.592600  0.308200  1.0  -0.0257
  C  C83  1  0.131500  0.651300  0.862000  1.0  0.7254
  C  C84  1  0.151000  0.743600  0.808200  1.0  -0.0254
  C  C85  1  0.348700  0.480200  0.862000  1.0  0.7264
  C  C86  1  0.256400  0.407400  0.808200  1.0  -0.0255
  C  C87  1  0.519800  0.868500  0.862000  1.0  0.7266
  C  C88  1  0.592600  0.849000  0.808200  1.0  -0.0259
  C  C89  1  0.868500  0.348700  0.862000  1.0  0.7254
  C  C90  1  0.849000  0.256400  0.808200  1.0  -0.027
  C  C91  1  0.651300  0.519800  0.862000  1.0  0.7261
  C  C92  1  0.743600  0.592600  0.808200  1.0  -0.0254
  C  C93  1  0.480200  0.131500  0.862000  1.0  0.7258
  C  C94  1  0.407400  0.151000  0.808200  1.0  -0.0256
  C  C95  1  0.651300  0.131500  0.638000  1.0  0.7275
  C  C96  1  0.743600  0.151000  0.691800  1.0  -0.0266
  C  C97  1  0.480200  0.348700  0.638000  1.0  0.7269
  C  C98  1  0.407400  0.256400  0.691800  1.0  -0.0255
  C  C99  1  0.868500  0.519800  0.638000  1.0  0.7267
  C  C100  1  0.849000  0.592600  0.691800  1.0  -0.0269
  C  C101  1  0.348700  0.868500  0.638000  1.0  0.7273
  C  C102  1  0.256400  0.849000  0.691800  1.0  -0.0258
  C  C103  1  0.519800  0.651300  0.638000  1.0  0.7265
  C  C104  1  0.592600  0.743600  0.691800  1.0  -0.0279
  C  C105  1  0.131500  0.480200  0.638000  1.0  0.7274
  C  C106  1  0.151000  0.407400  0.691800  1.0  -0.0259
  O  O107  1  0.945800  0.382300  0.088900  1.0  -0.6176
  O  O108  1  0.805400  0.385800  0.145900  1.0  -0.6562
  O  O109  1  0.617700  0.563500  0.088900  1.0  -0.6174
  O  O110  1  0.614200  0.419600  0.145900  1.0  -0.6569
  O  O111  1  0.436500  0.054200  0.088900  1.0  -0.6187
  O  O112  1  0.580400  0.194600  0.145900  1.0  -0.6554
  O  O113  1  0.054200  0.617700  0.088900  1.0  -0.6172
  O  O114  1  0.194600  0.614200  0.145900  1.0  -0.6566
  O  O115  1  0.382300  0.436500  0.088900  1.0  -0.618
  O  O116  1  0.385800  0.580400  0.145900  1.0  -0.6571
  O  O117  1  0.563500  0.945800  0.088900  1.0  -0.6181
  O  O118  1  0.419600  0.805400  0.145900  1.0  -0.6558
  O  O119  1  0.382300  0.945800  0.411100  1.0  -0.6193
  O  O120  1  0.385800  0.805400  0.354100  1.0  -0.6548
  O  O121  1  0.563500  0.617700  0.411100  1.0  -0.6181
  O  O122  1  0.419600  0.614200  0.354100  1.0  -0.6557
  O  O123  1  0.054200  0.436500  0.411100  1.0  -0.6176
  O  O124  1  0.194600  0.580400  0.354100  1.0  -0.6569
  O  O125  1  0.617700  0.054200  0.411100  1.0  -0.618
  O  O126  1  0.614200  0.194600  0.354100  1.0  -0.6554
  O  O127  1  0.436500  0.382300  0.411100  1.0  -0.6181
  O  O128  1  0.580400  0.385800  0.354100  1.0  -0.6559
  O  O129  1  0.945800  0.563500  0.411100  1.0  -0.6185
  O  O130  1  0.805400  0.419600  0.354100  1.0  -0.657
  O  O131  1  0.054200  0.617700  0.911100  1.0  -0.6189
  O  O132  1  0.194600  0.614200  0.854100  1.0  -0.6559
  O  O133  1  0.382300  0.436500  0.911100  1.0  -0.6189
  O  O134  1  0.385800  0.580400  0.854100  1.0  -0.6563
  O  O135  1  0.563500  0.945800  0.911100  1.0  -0.6192
  O  O136  1  0.419600  0.805400  0.854100  1.0  -0.6555
  O  O137  1  0.945800  0.382300  0.911100  1.0  -0.6185
  O  O138  1  0.805400  0.385800  0.854100  1.0  -0.6558
  O  O139  1  0.617700  0.563500  0.911100  1.0  -0.618
  O  O140  1  0.614200  0.419600  0.854100  1.0  -0.6574
  O  O141  1  0.436500  0.054200  0.911100  1.0  -0.6199
  O  O142  1  0.580400  0.194600  0.854100  1.0  -0.6546
  O  O143  1  0.617700  0.054200  0.588900  1.0  -0.619
  O  O144  1  0.614200  0.194600  0.645900  1.0  -0.6555
  O  O145  1  0.436500  0.382300  0.588900  1.0  -0.6177
  O  O146  1  0.580400  0.385800  0.645900  1.0  -0.657
  O  O147  1  0.945800  0.563500  0.588900  1.0  -0.619
  O  O148  1  0.805400  0.419600  0.645900  1.0  -0.657
  O  O149  1  0.382300  0.945800  0.588900  1.0  -0.6193
  O  O150  1  0.385800  0.805400  0.645900  1.0  -0.6555
  O  O151  1  0.563500  0.617700  0.588900  1.0  -0.6187
  O  O152  1  0.419600  0.614200  0.645900  1.0  -0.6559
  O  O153  1  0.054200  0.436500  0.588900  1.0  -0.6181
  O  O154  1  0.194600  0.580400  0.645900  1.0  -0.6572
  O  O155  1  0.765900  0.234100  0.250000  1.0  -0.3323
  O  O156  1  0.765900  0.531800  0.250000  1.0  -0.3344
  O  O157  1  0.468200  0.234100  0.250000  1.0  -0.3334
  O  O158  1  0.234100  0.765900  0.250000  1.0  -0.3338
  O  O159  1  0.234100  0.468200  0.250000  1.0  -0.3346
  O  O160  1  0.531800  0.765900  0.250000  1.0  -0.3327
  O  O161  1  0.234100  0.765900  0.750000  1.0  -0.3338
  O  O162  1  0.234100  0.468200  0.750000  1.0  -0.3346
  O  O163  1  0.531800  0.765900  0.750000  1.0  -0.3327
  O  O164  1  0.765900  0.234100  0.750000  1.0  -0.3323
  O  O165  1  0.765900  0.531800  0.750000  1.0  -0.3344
  O  O166  1  0.468200  0.234100  0.750000  1.0  -0.3334
