# generated using pymatgen
data_CdH6(C3S)3
_symmetry_space_group_name_H-M   'P 1'
_cell_length_a   11.49550000
_cell_length_b   10.67560000
_cell_length_c   8.70190000
_cell_angle_alpha   58.52300000
_cell_angle_beta   106.49800000
_cell_angle_gamma   110.98100000
_symmetry_Int_Tables_number   1
_chemical_formula_structural   CdH6(C3S)3
_chemical_formula_sum   'Cd2 H12 C18 S6'
_cell_volume   844.04627527
_cell_formula_units_Z   2
loop_
 _symmetry_equiv_pos_site_id
 _symmetry_equiv_pos_as_xyz
  1  'x, y, z'
loop_
 _atom_site_type_symbol
 _atom_site_label
 _atom_site_symmetry_multiplicity
 _atom_site_fract_x
 _atom_site_fract_y
 _atom_site_fract_z
 _atom_site_occupancy
 _atom_site_charge
  Cd  Cd1  1  0.155690  0.116610  0.976450  1.0  0.9269
  Cd  Cd2  1  0.844310  0.883390  0.023550  1.0  0.9257
  H  H3  1  0.184360  0.930130  0.682760  1.0  0.1012
  H  H4  1  0.839590  0.985740  0.631760  1.0  0.1043
  H  H5  1  0.549940  0.919950  0.314210  1.0  0.1098
  H  H6  1  0.327670  0.106500  0.838260  1.0  0.1027
  H  H7  1  0.976770  0.240950  0.601190  1.0  0.1005
  H  H8  1  0.193520  0.650130  0.567900  1.0  0.1147
  H  H9  1  0.815640  0.069870  0.317240  1.0  0.1018
  H  H10  1  0.160410  0.014260  0.368240  1.0  0.1054
  H  H11  1  0.450060  0.080050  0.685790  1.0  0.1104
  H  H12  1  0.672330  0.893500  0.161740  1.0  0.1045
  H  H13  1  0.023230  0.759050  0.398810  1.0  0.0983
  H  H14  1  0.806480  0.349870  0.432100  1.0  0.1143
  C  C15  1  0.013790  0.951560  0.681080  1.0  0.0332
  C  C16  1  0.106150  0.959770  0.605220  1.0  -0.1016
  C  C17  1  0.907650  0.991790  0.575860  1.0  -0.0669
  C  C18  1  0.528750  0.953910  0.180900  1.0  -0.0867
  C  C19  1  0.400780  0.061320  0.906880  1.0  -0.0831
  C  C20  1  0.429540  0.015230  0.087780  1.0  -0.0361
  C  C21  1  0.986630  0.350860  0.558260  1.0  -0.0803
  C  C22  1  0.098040  0.437290  0.597350  1.0  -0.0364
  C  C23  1  0.111410  0.586430  0.539090  1.0  -0.1061
  C  C24  1  0.986210  0.048440  0.318920  1.0  0.0328
  C  C25  1  0.893850  0.040230  0.394780  1.0  -0.1021
  C  C26  1  0.092350  0.008210  0.424140  1.0  -0.0669
  C  C27  1  0.471250  0.046090  0.819100  1.0  -0.0857
  C  C28  1  0.599220  0.938680  0.093120  1.0  -0.0826
  C  C29  1  0.570460  0.984770  0.912220  1.0  -0.0396
  C  C30  1  0.013370  0.649140  0.441740  1.0  -0.0839
  C  C31  1  0.901960  0.562710  0.402650  1.0  -0.0354
  C  C32  1  0.888590  0.413570  0.460910  1.0  -0.103
  S  S33  1  0.033080  0.883840  0.934260  1.0  -0.3643
  S  S34  1  0.335170  0.035620  0.205340  1.0  -0.3011
  S  S35  1  0.225880  0.355530  0.724290  1.0  -0.3273
  S  S36  1  0.966920  0.116160  0.065740  1.0  -0.3656
  S  S37  1  0.664830  0.964380  0.794660  1.0  -0.3005
  S  S38  1  0.774120  0.644470  0.275710  1.0  -0.3312
