# generated using pymatgen
data_Mg3H8C24(SO4)4
_symmetry_space_group_name_H-M   'P 1'
_cell_length_a   9.66150000
_cell_length_b   10.49000000
_cell_length_c   11.94040000
_cell_angle_alpha   110.29500000
_cell_angle_beta   91.87500000
_cell_angle_gamma   114.86000000
_symmetry_Int_Tables_number   1
_chemical_formula_structural   Mg3H8C24(SO4)4
_chemical_formula_sum   'Mg3 H8 C24 S4 O16'
_cell_volume   1006.92965388
_cell_formula_units_Z   1
loop_
 _symmetry_equiv_pos_site_id
 _symmetry_equiv_pos_as_xyz
  1  'x, y, z'
loop_
 _atom_site_type_symbol
 _atom_site_label
 _atom_site_symmetry_multiplicity
 _atom_site_fract_x
 _atom_site_fract_y
 _atom_site_fract_z
 _atom_site_occupancy
 _atom_site_charge
  Mg  Mg1  1  0.528620  0.084360  0.326610  1.0  1.5235
  Mg  Mg2  1  0.471380  0.915640  0.673390  1.0  1.5237
  Mg  Mg3  1  0.500000  0.000000  0.000000  1.0  1.5767
  H  H4  1  0.720400  0.807700  0.992600  1.0  0.1156
  H  H5  1  0.953300  0.774300  0.957100  1.0  0.1251
  H  H6  1  0.518500  0.699500  0.153900  1.0  0.111
  H  H7  1  0.566400  0.476700  0.071000  1.0  0.1143
  H  H8  1  0.279600  0.192300  0.007400  1.0  0.1165
  H  H9  1  0.046700  0.225700  0.042900  1.0  0.1251
  H  H10  1  0.481500  0.300500  0.846100  1.0  0.1111
  H  H11  1  0.433600  0.523300  0.929000  1.0  0.1143
  C  C12  1  0.462700  0.794300  0.392400  1.0  0.7656
  C  C13  1  0.563600  0.306600  0.210100  1.0  0.761
  C  C14  1  0.727500  0.026500  0.217200  1.0  0.6543
  C  C15  1  0.838100  0.974300  0.160900  1.0  -0.2019
  C  C16  1  0.070900  0.938400  0.126600  1.0  -0.1861
  C  C17  1  0.234800  0.959300  0.141700  1.0  0.7134
  C  C18  1  0.814600  0.863800  0.049300  1.0  -0.0438
  C  C19  1  0.948800  0.843900  0.028900  1.0  -0.0767
  C  C20  1  0.546000  0.447400  0.230700  1.0  -0.2179
  C  C21  1  0.496300  0.669700  0.312800  1.0  -0.1927
  C  C22  1  0.520300  0.641100  0.196900  1.0  -0.0607
  C  C23  1  0.548400  0.512700  0.149100  1.0  -0.0509
  C  C24  1  0.537300  0.205700  0.607600  1.0  0.773
  C  C25  1  0.436400  0.693400  0.789900  1.0  0.7587
  C  C26  1  0.272500  0.973500  0.782800  1.0  0.6613
  C  C27  1  0.161900  0.025700  0.839100  1.0  -0.2032
  C  C28  1  0.929100  0.061600  0.873400  1.0  -0.1926
  C  C29  1  0.765200  0.040700  0.858300  1.0  0.7111
  C  C30  1  0.185400  0.136200  0.950700  1.0  -0.0442
  C  C31  1  0.051200  0.156100  0.971100  1.0  -0.0761
  C  C32  1  0.454000  0.552600  0.769300  1.0  -0.2245
  C  C33  1  0.503700  0.330300  0.687200  1.0  -0.1968
  C  C34  1  0.479700  0.358900  0.803100  1.0  -0.06
  C  C35  1  0.451600  0.487300  0.850900  1.0  -0.0501
  S  S36  1  0.023890  0.053010  0.243330  1.0  0.1746
  S  S37  1  0.509720  0.541850  0.365690  1.0  0.1709
  S  S38  1  0.976110  0.946990  0.756670  1.0  0.1759
  S  S39  1  0.490280  0.458150  0.634310  1.0  0.1757
  O  O40  1  0.455400  0.884100  0.350150  1.0  -0.6654
  O  O41  1  0.761700  0.107200  0.330260  1.0  -0.5627
  O  O42  1  0.440500  0.794100  0.495450  1.0  -0.6597
  O  O43  1  0.592000  0.285000  0.303180  1.0  -0.6149
  O  O44  1  0.306800  0.015600  0.250450  1.0  -0.5996
  O  O45  1  0.284800  0.920800  0.047350  1.0  -0.6004
  O  O46  1  0.597430  0.985600  0.154100  1.0  -0.6576
  O  O47  1  0.546400  0.221900  0.101220  1.0  -0.6254
  O  O48  1  0.544600  0.115900  0.649850  1.0  -0.6694
  O  O49  1  0.238300  0.892800  0.669740  1.0  -0.5636
  O  O50  1  0.559500  0.205900  0.504550  1.0  -0.6603
  O  O51  1  0.408000  0.715000  0.696820  1.0  -0.6117
  O  O52  1  0.693200  0.984400  0.749550  1.0  -0.5981
  O  O53  1  0.715200  0.079200  0.952650  1.0  -0.6012
  O  O54  1  0.402570  0.014400  0.845900  1.0  -0.6573
  O  O55  1  0.453600  0.778100  0.898780  1.0  -0.6268
