# generated using pymatgen
data_MgH2C6SO4
_symmetry_space_group_name_H-M   'P 1'
_cell_length_a   10.04830000
_cell_length_b   13.49690000
_cell_length_c   16.73460000
_cell_angle_alpha   90.00000000
_cell_angle_beta   93.68300000
_cell_angle_gamma   90.00000000
_symmetry_Int_Tables_number   1
_chemical_formula_structural   MgH2C6SO4
_chemical_formula_sum   'Mg8 H16 C48 S8 O32'
_cell_volume   2264.87424098
_cell_formula_units_Z   8
loop_
 _symmetry_equiv_pos_site_id
 _symmetry_equiv_pos_as_xyz
  1  'x, y, z'
loop_
 _atom_site_type_symbol
 _atom_site_label
 _atom_site_symmetry_multiplicity
 _atom_site_fract_x
 _atom_site_fract_y
 _atom_site_fract_z
 _atom_site_occupancy
 _atom_site_charge
  Mg  Mg1  1  0.407750  0.343780  0.025700  1.0  1.5986
  Mg  Mg2  1  0.529300  0.102890  0.051250  1.0  1.5354
  Mg  Mg3  1  0.092250  0.843780  0.474300  1.0  1.5994
  Mg  Mg4  1  0.970700  0.602890  0.448750  1.0  1.5354
  Mg  Mg5  1  0.592250  0.656220  0.974300  1.0  1.5995
  Mg  Mg6  1  0.470700  0.897110  0.948750  1.0  1.5358
  Mg  Mg7  1  0.907750  0.156220  0.525700  1.0  1.5986
  Mg  Mg8  1  0.029300  0.397110  0.551250  1.0  1.5347
  H  H9  1  0.310200  0.809200  0.262600  1.0  0.0947
  H  H10  1  0.406100  0.751500  0.140700  1.0  0.0918
  H  H11  1  0.638900  0.452000  0.189000  1.0  0.0792
  H  H12  1  0.767200  0.507500  0.309600  1.0  0.0894
  H  H13  1  0.189800  0.309200  0.237400  1.0  0.0941
  H  H14  1  0.093900  0.251500  0.359300  1.0  0.0889
  H  H15  1  0.861100  0.952000  0.311000  1.0  0.0788
  H  H16  1  0.732800  0.007500  0.190400  1.0  0.0899
  H  H17  1  0.689800  0.190800  0.737400  1.0  0.0934
  H  H18  1  0.593900  0.248500  0.859300  1.0  0.091
  H  H19  1  0.361100  0.548000  0.811000  1.0  0.0791
  H  H20  1  0.232800  0.492500  0.690400  1.0  0.089
  H  H21  1  0.810200  0.690800  0.762600  1.0  0.0941
  H  H22  1  0.906100  0.748500  0.640700  1.0  0.0893
  H  H23  1  0.138900  0.048000  0.689000  1.0  0.0789
  H  H24  1  0.267200  0.992500  0.809600  1.0  0.0887
  C  C25  1  0.199200  0.677400  0.368140  1.0  0.6916
  C  C26  1  0.271900  0.667600  0.293430  1.0  -0.2211
  C  C27  1  0.370900  0.609420  0.171390  1.0  -0.2293
  C  C28  1  0.418200  0.549350  0.103650  1.0  0.7381
  C  C29  1  0.623000  0.251100  0.148970  1.0  0.7146
  C  C30  1  0.684200  0.309700  0.216970  1.0  -0.22
  C  C31  1  0.811400  0.363940  0.339090  1.0  -0.2246
  C  C32  1  0.891400  0.370130  0.415200  1.0  0.6576
  C  C33  1  0.316100  0.742700  0.248550  1.0  -0.0739
  C  C34  1  0.372000  0.709300  0.178330  1.0  -0.0689
  C  C35  1  0.683300  0.409300  0.225330  1.0  -0.0855
  C  C36  1  0.756800  0.441300  0.295010  1.0  -0.076
  C  C37  1  0.300800  0.177400  0.131860  1.0  0.6907
  C  C38  1  0.228100  0.167600  0.206570  1.0  -0.2226
  C  C39  1  0.129100  0.109420  0.328610  1.0  -0.2283
  C  C40  1  0.081800  0.049350  0.396350  1.0  0.7401
  C  C41  1  0.877000  0.751100  0.351030  1.0  0.7147
  C  C42  1  0.815800  0.809700  0.283030  1.0  -0.22
  C  C43  1  0.688600  0.863940  0.160910  1.0  -0.2247
  C  C44  1  0.608600  0.870130  0.084800  1.0  0.6579
  C  C45  1  0.183900  0.242700  0.251450  1.0  -0.0738
  C  C46  1  0.128000  0.209300  0.321670  1.0  -0.0697
  C  C47  1  0.816700  0.909300  0.274670  1.0  -0.0851
  C  C48  1  0.743200  0.941300  0.204990  1.0  -0.0762
  C  C49  1  0.800800  0.322600  0.631860  1.0  0.6907
  C  C50  1  0.728100  0.332400  0.706570  1.0  -0.2218
  C  C51  1  0.629100  0.390580  0.828610  1.0  -0.2286
  C  C52  1  0.581800  0.450650  0.896350  1.0  0.7399
  C  C53  1  0.377000  0.748900  0.851030  1.0  0.7145
  C  C54  1  0.315800  0.690300  0.783030  1.0  -0.2198
  C  C55  1  0.188600  0.636060  0.660910  1.0  -0.2249
  C  C56  1  0.108600  0.629870  0.584800  1.0  0.6583
  C  C57  1  0.683900  0.257300  0.751450  1.0  -0.0717
  C  C58  1  0.628000  0.290700  0.821670  1.0  -0.0699
  C  C59  1  0.316700  0.590700  0.774670  1.0  -0.0851
  C  C60  1  0.243200  0.558700  0.704990  1.0  -0.0769
  C  C61  1  0.699200  0.822600  0.868140  1.0  0.6912
  C  C62  1  0.771900  0.832400  0.793430  1.0  -0.222
  C  C63  1  0.870900  0.890580  0.671390  1.0  -0.2297
  C  C64  1  0.918200  0.950650  0.603650  1.0  0.7381
  C  C65  1  0.123000  0.248900  0.648970  1.0  0.7141
  C  C66  1  0.184200  0.190300  0.716970  1.0  -0.2203
  C  C67  1  0.311400  0.136060  0.839090  1.0  -0.2249
  C  C68  1  0.391400  0.129870  0.915200  1.0  0.6579
  C  C69  1  0.816100  0.757300  0.748550  1.0  -0.0716
  C  C70  1  0.872000  0.790700  0.678330  1.0  -0.0696
  C  C71  1  0.183300  0.090700  0.725330  1.0  -0.0855
  C  C72  1  0.256800  0.058700  0.795010  1.0  -0.0766
  S  S73  1  0.298540  0.554610  0.250080  1.0  0.141
  S  S74  1  0.772070  0.252030  0.294800  1.0  0.1368
  S  S75  1  0.201460  0.054610  0.249920  1.0  0.1422
  S  S76  1  0.727930  0.752030  0.205200  1.0  0.1365
  S  S77  1  0.701460  0.445390  0.749920  1.0  0.1407
  S  S78  1  0.227930  0.747970  0.705200  1.0  0.1361
  S  S79  1  0.798540  0.945390  0.750080  1.0  0.141
  S  S80  1  0.272070  0.247970  0.794800  1.0  0.1366
  O  O81  1  0.386400  0.460660  0.101480  1.0  -0.645
  O  O82  1  0.920620  0.295010  0.456280  1.0  -0.7045
  O  O83  1  0.622600  0.158870  0.154950  1.0  -0.6218
  O  O84  1  0.933070  0.454510  0.438820  1.0  -0.7374
  O  O85  1  0.143690  0.600590  0.393290  1.0  -0.6197
  O  O86  1  0.199000  0.761290  0.398610  1.0  -0.6573
  O  O87  1  0.484500  0.592480  0.055430  1.0  -0.7025
  O  O88  1  0.577000  0.296800  0.088530  1.0  -0.68
  O  O89  1  0.113600  0.960660  0.398520  1.0  -0.6453
  O  O90  1  0.579380  0.795010  0.043720  1.0  -0.7039
  O  O91  1  0.877400  0.658870  0.345050  1.0  -0.6221
  O  O92  1  0.566930  0.954510  0.061180  1.0  -0.7356
  O  O93  1  0.356310  0.100590  0.106710  1.0  -0.6202
  O  O94  1  0.301000  0.261290  0.101390  1.0  -0.6589
  O  O95  1  0.015500  0.092480  0.444570  1.0  -0.6999
  O  O96  1  0.923000  0.796800  0.411470  1.0  -0.6817
  O  O97  1  0.613600  0.539340  0.898520  1.0  -0.6446
  O  O98  1  0.079380  0.704990  0.543720  1.0  -0.7042
  O  O99  1  0.377400  0.841130  0.845050  1.0  -0.6222
  O  O100  1  0.066930  0.545490  0.561180  1.0  -0.7346
  O  O101  1  0.856310  0.399410  0.606710  1.0  -0.6199
  O  O102  1  0.801000  0.238710  0.601390  1.0  -0.6593
  O  O103  1  0.515500  0.407520  0.944570  1.0  -0.6996
  O  O104  1  0.423000  0.703200  0.911470  1.0  -0.6823
  O  O105  1  0.886400  0.039340  0.601480  1.0  -0.6463
  O  O106  1  0.420620  0.204990  0.956280  1.0  -0.7047
  O  O107  1  0.122600  0.341130  0.654950  1.0  -0.6221
  O  O108  1  0.433070  0.045490  0.938820  1.0  -0.7357
  O  O109  1  0.643690  0.899410  0.893290  1.0  -0.6186
  O  O110  1  0.699000  0.738710  0.898610  1.0  -0.6566
  O  O111  1  0.984500  0.907520  0.555430  1.0  -0.7028
  O  O112  1  0.077000  0.203200  0.588530  1.0  -0.6801
