# generated using pymatgen
data_ZnH8C12SNO4
_symmetry_space_group_name_H-M   'P 1'
_cell_length_a   34.68100000
_cell_length_b   15.36780000
_cell_length_c   13.71410000
_cell_angle_alpha   90.00000000
_cell_angle_beta   112.16900000
_cell_angle_gamma   90.00000000
_symmetry_Int_Tables_number   1
_chemical_formula_structural   ZnH8C12SNO4
_chemical_formula_sum   'Zn16 H128 C192 S16 N16 O64'
_cell_volume   6768.87864134
_cell_formula_units_Z   16
loop_
 _symmetry_equiv_pos_site_id
 _symmetry_equiv_pos_as_xyz
  1  'x, y, z'
loop_
 _atom_site_type_symbol
 _atom_site_label
 _atom_site_symmetry_multiplicity
 _atom_site_fract_x
 _atom_site_fract_y
 _atom_site_fract_z
 _atom_site_occupancy
 _atom_site_charge
  Zn  Zn1  1  0.111970  0.220690  0.065840  1.0  0.9341
  Zn  Zn2  1  0.201460  0.279790  0.144870  1.0  0.9393
  Zn  Zn3  1  0.611970  0.720690  0.065840  1.0  0.9341
  Zn  Zn4  1  0.701460  0.779790  0.144870  1.0  0.9393
  Zn  Zn5  1  0.111970  0.779310  0.565840  1.0  0.9342
  Zn  Zn6  1  0.201460  0.720210  0.644870  1.0  0.9395
  Zn  Zn7  1  0.611970  0.279310  0.565840  1.0  0.9342
  Zn  Zn8  1  0.701460  0.220210  0.644870  1.0  0.9395
  Zn  Zn9  1  0.888030  0.220690  0.434160  1.0  0.9346
  Zn  Zn10  1  0.798540  0.279790  0.355130  1.0  0.9387
  Zn  Zn11  1  0.388030  0.720690  0.434160  1.0  0.9346
  Zn  Zn12  1  0.298540  0.779790  0.355130  1.0  0.9387
  Zn  Zn13  1  0.888030  0.779310  0.934160  1.0  0.9349
  Zn  Zn14  1  0.798540  0.720210  0.855130  1.0  0.9386
  Zn  Zn15  1  0.388030  0.279310  0.934160  1.0  0.9349
  Zn  Zn16  1  0.298540  0.220210  0.855130  1.0  0.9386
  H  H17  1  0.065600  0.456100  0.196300  1.0  0.1187
  H  H18  1  0.068100  0.581400  0.308400  1.0  0.1106
  H  H19  1  0.280100  0.221800  0.130300  1.0  0.0783
  H  H20  1  0.350300  0.244100  0.205600  1.0  0.1081
  H  H21  1  0.330200  0.429400  0.381500  1.0  0.1117
  H  H22  1  0.260500  0.402100  0.304500  1.0  0.0788
  H  H23  1  0.399700  0.413000  0.376600  1.0  0.1017
  H  H24  1  0.404200  0.319300  0.424100  1.0  0.1209
  H  H25  1  0.415900  0.368600  0.243700  1.0  0.098
  H  H26  1  0.410600  0.270500  0.267000  1.0  0.098
  H  H27  1  0.244000  0.064000  0.378300  1.0  0.1201
  H  H28  1  0.246200  0.941000  0.489800  1.0  0.114
  H  H29  1  0.552900  0.420500  0.453000  1.0  0.07
  H  H30  1  0.484400  0.438300  0.352200  1.0  0.0971
  H  H31  1  0.466100  0.194100  0.400800  1.0  0.104
  H  H32  1  0.535600  0.178200  0.495700  1.0  0.1105
  H  H33  1  0.565600  0.956100  0.196300  1.0  0.1187
  H  H34  1  0.568100  0.081400  0.308400  1.0  0.1106
  H  H35  1  0.780100  0.721800  0.130300  1.0  0.0783
  H  H36  1  0.850300  0.744100  0.205600  1.0  0.1081
  H  H37  1  0.830200  0.929400  0.381500  1.0  0.1117
  H  H38  1  0.760500  0.902100  0.304500  1.0  0.0788
  H  H39  1  0.899700  0.913000  0.376600  1.0  0.1017
  H  H40  1  0.904200  0.819300  0.424100  1.0  0.1209
  H  H41  1  0.915900  0.868600  0.243700  1.0  0.098
  H  H42  1  0.910600  0.770500  0.267000  1.0  0.098
  H  H43  1  0.744000  0.564000  0.378300  1.0  0.1201
  H  H44  1  0.746200  0.441000  0.489800  1.0  0.114
  H  H45  1  0.052900  0.920500  0.453000  1.0  0.07
  H  H46  1  0.984400  0.938300  0.352200  1.0  0.0971
  H  H47  1  0.966100  0.694100  0.400800  1.0  0.104
  H  H48  1  0.035600  0.678200  0.495700  1.0  0.1105
  H  H49  1  0.065600  0.543900  0.696300  1.0  0.1167
  H  H50  1  0.068100  0.418600  0.808400  1.0  0.1105
  H  H51  1  0.280100  0.778200  0.630300  1.0  0.0782
  H  H52  1  0.350300  0.755900  0.705600  1.0  0.1089
  H  H53  1  0.330200  0.570600  0.881500  1.0  0.1124
  H  H54  1  0.260500  0.597900  0.804500  1.0  0.079
  H  H55  1  0.399700  0.587000  0.876600  1.0  0.1023
  H  H56  1  0.404200  0.680700  0.924100  1.0  0.1201
  H  H57  1  0.415900  0.631400  0.743700  1.0  0.0984
  H  H58  1  0.410600  0.729500  0.767000  1.0  0.0997
  H  H59  1  0.244000  0.936000  0.878300  1.0  0.1198
  H  H60  1  0.246200  0.059000  0.989800  1.0  0.1138
  H  H61  1  0.552900  0.579500  0.953000  1.0  0.071
  H  H62  1  0.484400  0.561700  0.852200  1.0  0.0981
  H  H63  1  0.466100  0.805900  0.900800  1.0  0.1045
  H  H64  1  0.535600  0.821800  0.995700  1.0  0.1109
  H  H65  1  0.565600  0.043900  0.696300  1.0  0.1167
  H  H66  1  0.568100  0.918600  0.808400  1.0  0.1105
  H  H67  1  0.780100  0.278200  0.630300  1.0  0.0782
  H  H68  1  0.850300  0.255900  0.705600  1.0  0.1089
  H  H69  1  0.830200  0.070600  0.881500  1.0  0.1124
  H  H70  1  0.760500  0.097900  0.804500  1.0  0.079
  H  H71  1  0.899700  0.087000  0.876600  1.0  0.1023
  H  H72  1  0.904200  0.180700  0.924100  1.0  0.1201
  H  H73  1  0.915900  0.131400  0.743700  1.0  0.0984
  H  H74  1  0.910600  0.229500  0.767000  1.0  0.0997
  H  H75  1  0.744000  0.436000  0.878300  1.0  0.1198
  H  H76  1  0.746200  0.559000  0.989800  1.0  0.1138
  H  H77  1  0.052900  0.079500  0.953000  1.0  0.071
  H  H78  1  0.984400  0.061700  0.852200  1.0  0.0981
  H  H79  1  0.966100  0.305900  0.900800  1.0  0.1045
  H  H80  1  0.035600  0.321800  0.995700  1.0  0.1109
  H  H81  1  0.934400  0.456100  0.303700  1.0  0.1187
  H  H82  1  0.931900  0.581400  0.191600  1.0  0.1112
  H  H83  1  0.719900  0.221800  0.369700  1.0  0.0783
  H  H84  1  0.649700  0.244100  0.294400  1.0  0.1068
  H  H85  1  0.669800  0.429400  0.118500  1.0  0.1118
  H  H86  1  0.739500  0.402100  0.195500  1.0  0.0773
  H  H87  1  0.600300  0.413000  0.123400  1.0  0.1021
  H  H88  1  0.595800  0.319300  0.075900  1.0  0.12
  H  H89  1  0.584100  0.368600  0.256300  1.0  0.0994
  H  H90  1  0.589400  0.270500  0.233000  1.0  0.0976
  H  H91  1  0.756000  0.064000  0.121700  1.0  0.1199
  H  H92  1  0.753800  0.941000  0.010200  1.0  0.1144
  H  H93  1  0.447100  0.420500  0.047000  1.0  0.0702
  H  H94  1  0.515600  0.438300  0.147800  1.0  0.0972
  H  H95  1  0.533900  0.194100  0.099200  1.0  0.1047
  H  H96  1  0.464400  0.178200  0.004300  1.0  0.1113
  H  H97  1  0.434400  0.956100  0.303700  1.0  0.1187
  H  H98  1  0.431900  0.081400  0.191600  1.0  0.1112
  H  H99  1  0.219900  0.721800  0.369700  1.0  0.0783
  H  H100  1  0.149700  0.744100  0.294400  1.0  0.1068
  H  H101  1  0.169800  0.929400  0.118500  1.0  0.1118
  H  H102  1  0.239500  0.902100  0.195500  1.0  0.0773
  H  H103  1  0.100300  0.913000  0.123400  1.0  0.1021
  H  H104  1  0.095800  0.819300  0.075900  1.0  0.12
  H  H105  1  0.084100  0.868600  0.256300  1.0  0.0994
  H  H106  1  0.089400  0.770500  0.233000  1.0  0.0976
  H  H107  1  0.256000  0.564000  0.121700  1.0  0.1199
  H  H108  1  0.253800  0.441000  0.010200  1.0  0.1144
  H  H109  1  0.947100  0.920500  0.047000  1.0  0.0702
  H  H110  1  0.015600  0.938300  0.147800  1.0  0.0972
  H  H111  1  0.033900  0.694100  0.099200  1.0  0.1047
  H  H112  1  0.964400  0.678200  0.004300  1.0  0.1117
  H  H113  1  0.934400  0.543900  0.803700  1.0  0.1184
  H  H114  1  0.931900  0.418600  0.691600  1.0  0.1113
  H  H115  1  0.719900  0.778200  0.869700  1.0  0.0781
  H  H116  1  0.649700  0.755900  0.794400  1.0  0.1077
  H  H117  1  0.669800  0.570600  0.618500  1.0  0.1117
  H  H118  1  0.739500  0.597900  0.695500  1.0  0.0777
  H  H119  1  0.600300  0.587000  0.623400  1.0  0.101
  H  H120  1  0.595800  0.680700  0.575900  1.0  0.1204
  H  H121  1  0.584100  0.631400  0.756300  1.0  0.1004
  H  H122  1  0.589400  0.729500  0.733000  1.0  0.0974
  H  H123  1  0.756000  0.936000  0.621700  1.0  0.1199
  H  H124  1  0.753800  0.059000  0.510200  1.0  0.1141
  H  H125  1  0.447100  0.579500  0.547000  1.0  0.0708
  H  H126  1  0.515600  0.561700  0.647800  1.0  0.0984
  H  H127  1  0.533900  0.805900  0.599200  1.0  0.1049
  H  H128  1  0.464400  0.821800  0.504300  1.0  0.1122
  H  H129  1  0.434400  0.043900  0.803700  1.0  0.1172
  H  H130  1  0.431900  0.918600  0.691600  1.0  0.1113
  H  H131  1  0.219900  0.278200  0.869700  1.0  0.0781
  H  H132  1  0.149700  0.255900  0.794400  1.0  0.1077
  H  H133  1  0.169800  0.070600  0.618500  1.0  0.1117
  H  H134  1  0.239500  0.097900  0.695500  1.0  0.0777
  H  H135  1  0.100300  0.087000  0.623400  1.0  0.101
  H  H136  1  0.095800  0.180700  0.575900  1.0  0.1204
  H  H137  1  0.084100  0.131400  0.756300  1.0  0.1004
  H  H138  1  0.089400  0.229500  0.733000  1.0  0.0974
  H  H139  1  0.256000  0.436000  0.621700  1.0  0.1199
  H  H140  1  0.253800  0.559000  0.510200  1.0  0.1141
  H  H141  1  0.947100  0.079500  0.547000  1.0  0.0708
  H  H142  1  0.015600  0.061700  0.647800  1.0  0.0984
  H  H143  1  0.033900  0.305900  0.599200  1.0  0.1049
  H  H144  1  0.964400  0.321800  0.504300  1.0  0.1121
  C  C145  1  0.139900  0.378200  0.201300  1.0  0.7291
  C  C146  1  0.129540  0.452200  0.254400  1.0  -0.1891
  C  C147  1  0.090200  0.481200  0.242200  1.0  -0.0636
  C  C148  1  0.091600  0.553200  0.307300  1.0  -0.0453
  C  C149  1  0.131500  0.576900  0.368700  1.0  -0.2052
  C  C150  1  0.144200  0.644700  0.451600  1.0  0.6939
  C  C151  1  0.290200  0.263800  0.182600  1.0  0.174
  C  C152  1  0.332600  0.277100  0.227600  1.0  -0.2288
  C  C153  1  0.348700  0.338200  0.304200  1.0  0.0963
  C  C154  1  0.320700  0.385700  0.331100  1.0  -0.2201
  C  C155  1  0.278700  0.369300  0.284100  1.0  0.175
  C  C156  1  0.394800  0.351800  0.358700  1.0  -0.2415
  C  C157  1  0.420100  0.326600  0.299600  1.0  -0.1836
  C  C158  1  0.169000  0.144600  0.258000  1.0  0.7277
  C  C159  1  0.181400  0.074600  0.338300  1.0  -0.1813
  C  C160  1  0.173700  0.877200  0.508000  1.0  0.7188
  C  C161  1  0.184030  0.950600  0.452300  1.0  -0.1859
  C  C162  1  0.220600  0.041600  0.387200  1.0  -0.0861
  C  C163  1  0.221900  0.971100  0.451400  1.0  -0.0649
  C  C164  1  0.535100  0.373400  0.444400  1.0  0.1719
  C  C165  1  0.493600  0.384400  0.383100  1.0  -0.1681
  C  C166  1  0.466600  0.320900  0.367000  1.0  0.1177
  C  C167  1  0.483500  0.242100  0.411200  1.0  -0.1048
  C  C168  1  0.524900  0.232700  0.469700  1.0  0.1119
  C  C169  1  0.639900  0.878200  0.201300  1.0  0.7291
  C  C170  1  0.629540  0.952200  0.254400  1.0  -0.1891
  C  C171  1  0.590200  0.981200  0.242200  1.0  -0.0636
  C  C172  1  0.591600  0.053200  0.307300  1.0  -0.0453
  C  C173  1  0.631500  0.076900  0.368700  1.0  -0.2052
  C  C174  1  0.644200  0.144700  0.451600  1.0  0.6939
  C  C175  1  0.790200  0.763800  0.182600  1.0  0.174
  C  C176  1  0.832600  0.777100  0.227600  1.0  -0.2288
  C  C177  1  0.848700  0.838200  0.304200  1.0  0.0963
  C  C178  1  0.820700  0.885700  0.331100  1.0  -0.2201
  C  C179  1  0.778700  0.869300  0.284100  1.0  0.175
  C  C180  1  0.894800  0.851800  0.358700  1.0  -0.2415
  C  C181  1  0.920100  0.826600  0.299600  1.0  -0.1836
  C  C182  1  0.669000  0.644600  0.258000  1.0  0.7277
  C  C183  1  0.681400  0.574600  0.338300  1.0  -0.183
  C  C184  1  0.673700  0.377200  0.508000  1.0  0.7188
  C  C185  1  0.684030  0.450600  0.452300  1.0  -0.1859
  C  C186  1  0.720600  0.541600  0.387200  1.0  -0.0861
  C  C187  1  0.721900  0.471100  0.451400  1.0  -0.0649
  C  C188  1  0.035100  0.873400  0.444400  1.0  0.1719
  C  C189  1  0.993600  0.884400  0.383100  1.0  -0.1681
  C  C190  1  0.966600  0.820900  0.367000  1.0  0.1177
  C  C191  1  0.983500  0.742100  0.411200  1.0  -0.1048
  C  C192  1  0.024900  0.732700  0.469700  1.0  0.1119
  C  C193  1  0.139900  0.621800  0.701300  1.0  0.7298
  C  C194  1  0.129540  0.547800  0.754400  1.0  -0.1904
  C  C195  1  0.090200  0.518800  0.742200  1.0  -0.0627
  C  C196  1  0.091600  0.446800  0.807300  1.0  -0.0458
  C  C197  1  0.131500  0.423100  0.868700  1.0  -0.2047
  C  C198  1  0.144200  0.355300  0.951600  1.0  0.6956
  C  C199  1  0.290200  0.736200  0.682600  1.0  0.1739
  C  C200  1  0.332600  0.722900  0.727600  1.0  -0.228
  C  C201  1  0.348700  0.661800  0.804200  1.0  0.0959
  C  C202  1  0.320700  0.614300  0.831100  1.0  -0.22
  C  C203  1  0.278700  0.630700  0.784100  1.0  0.1747
  C  C204  1  0.394800  0.648200  0.858700  1.0  -0.2412
  C  C205  1  0.420100  0.673400  0.799600  1.0  -0.1835
  C  C206  1  0.169000  0.855400  0.758000  1.0  0.7268
  C  C207  1  0.181400  0.925400  0.838300  1.0  -0.1835
  C  C208  1  0.173700  0.122800  0.008000  1.0  0.7199
  C  C209  1  0.184030  0.049400  0.952300  1.0  -0.186
  C  C210  1  0.220600  0.958400  0.887200  1.0  -0.0859
  C  C211  1  0.221900  0.028900  0.951400  1.0  -0.0647
  C  C212  1  0.535100  0.626600  0.944400  1.0  0.1718
  C  C213  1  0.493600  0.615600  0.883100  1.0  -0.1673
  C  C214  1  0.466600  0.679100  0.867000  1.0  0.1175
  C  C215  1  0.483500  0.757900  0.911200  1.0  -0.1036
  C  C216  1  0.524900  0.767300  0.969700  1.0  0.1102
  C  C217  1  0.639900  0.121800  0.701300  1.0  0.7298
  C  C218  1  0.629540  0.047800  0.754400  1.0  -0.1898
  C  C219  1  0.590200  0.018800  0.742200  1.0  -0.0627
  C  C220  1  0.591600  0.946800  0.807300  1.0  -0.0462
  C  C221  1  0.631500  0.923100  0.868700  1.0  -0.2053
  C  C222  1  0.644200  0.855300  0.951600  1.0  0.6956
  C  C223  1  0.790200  0.236200  0.682600  1.0  0.1739
  C  C224  1  0.832600  0.222900  0.727600  1.0  -0.228
  C  C225  1  0.848700  0.161800  0.804200  1.0  0.0959
  C  C226  1  0.820700  0.114300  0.831100  1.0  -0.22
  C  C227  1  0.778700  0.130700  0.784100  1.0  0.1747
  C  C228  1  0.894800  0.148200  0.858700  1.0  -0.2412
  C  C229  1  0.920100  0.173400  0.799600  1.0  -0.1835
  C  C230  1  0.669000  0.355400  0.758000  1.0  0.7268
  C  C231  1  0.681400  0.425400  0.838300  1.0  -0.1835
  C  C232  1  0.673700  0.622800  0.008000  1.0  0.7199
  C  C233  1  0.684030  0.549400  0.952300  1.0  -0.186
  C  C234  1  0.720600  0.458400  0.887200  1.0  -0.0861
  C  C235  1  0.721900  0.528900  0.951400  1.0  -0.0647
  C  C236  1  0.035100  0.126600  0.944400  1.0  0.1718
  C  C237  1  0.993600  0.115600  0.883100  1.0  -0.1673
  C  C238  1  0.966600  0.179100  0.867000  1.0  0.1175
  C  C239  1  0.983500  0.257900  0.911200  1.0  -0.1036
  C  C240  1  0.024900  0.267300  0.969700  1.0  0.1102
  C  C241  1  0.860100  0.378200  0.298700  1.0  0.7293
  C  C242  1  0.870460  0.452200  0.245600  1.0  -0.1859
  C  C243  1  0.909800  0.481200  0.257800  1.0  -0.064
  C  C244  1  0.908400  0.553200  0.192700  1.0  -0.0451
  C  C245  1  0.868500  0.576900  0.131300  1.0  -0.2061
  C  C246  1  0.855800  0.644700  0.048400  1.0  0.6956
  C  C247  1  0.709800  0.263800  0.317400  1.0  0.1774
  C  C248  1  0.667400  0.277100  0.272400  1.0  -0.2296
  C  C249  1  0.651300  0.338200  0.195800  1.0  0.0913
  C  C250  1  0.679300  0.385700  0.168900  1.0  -0.2187
  C  C251  1  0.721300  0.369300  0.215900  1.0  0.1726
  C  C252  1  0.605200  0.351800  0.141300  1.0  -0.2409
  C  C253  1  0.579900  0.326600  0.200400  1.0  -0.1851
  C  C254  1  0.831000  0.144600  0.242000  1.0  0.7289
  C  C255  1  0.818600  0.074600  0.161700  1.0  -0.1838
  C  C256  1  0.826300  0.877200  0.992000  1.0  0.7189
  C  C257  1  0.815970  0.950600  0.047700  1.0  -0.1861
  C  C258  1  0.779400  0.041600  0.112800  1.0  -0.0884
  C  C259  1  0.778100  0.971100  0.048600  1.0  -0.0651
  C  C260  1  0.464900  0.373400  0.055600  1.0  0.1719
  C  C261  1  0.506400  0.384400  0.116900  1.0  -0.1672
  C  C262  1  0.533400  0.320900  0.133000  1.0  0.1163
  C  C263  1  0.516500  0.242100  0.088800  1.0  -0.1066
  C  C264  1  0.475100  0.232700  0.030300  1.0  0.1111
  C  C265  1  0.360100  0.878200  0.298700  1.0  0.7293
  C  C266  1  0.370460  0.952200  0.245600  1.0  -0.1859
  C  C267  1  0.409800  0.981200  0.257800  1.0  -0.064
  C  C268  1  0.408400  0.053200  0.192700  1.0  -0.0451
  C  C269  1  0.368500  0.076900  0.131300  1.0  -0.2061
  C  C270  1  0.355800  0.144700  0.048400  1.0  0.6956
  C  C271  1  0.209800  0.763800  0.317400  1.0  0.1774
  C  C272  1  0.167400  0.777100  0.272400  1.0  -0.2296
  C  C273  1  0.151300  0.838200  0.195800  1.0  0.0913
  C  C274  1  0.179300  0.885700  0.168900  1.0  -0.2187
  C  C275  1  0.221300  0.869300  0.215900  1.0  0.1726
  C  C276  1  0.105200  0.851800  0.141300  1.0  -0.2409
  C  C277  1  0.079900  0.826600  0.200400  1.0  -0.1851
  C  C278  1  0.331000  0.644600  0.242000  1.0  0.7289
  C  C279  1  0.318600  0.574600  0.161700  1.0  -0.1839
  C  C280  1  0.326300  0.377200  0.992000  1.0  0.7189
  C  C281  1  0.315970  0.450600  0.047700  1.0  -0.1862
  C  C282  1  0.279400  0.541600  0.112800  1.0  -0.0884
  C  C283  1  0.278100  0.471100  0.048600  1.0  -0.0651
  C  C284  1  0.964900  0.873400  0.055600  1.0  0.1719
  C  C285  1  0.006400  0.884400  0.116900  1.0  -0.1672
  C  C286  1  0.033400  0.820900  0.133000  1.0  0.1163
  C  C287  1  0.016500  0.742100  0.088800  1.0  -0.1066
  C  C288  1  0.975100  0.732700  0.030300  1.0  0.1111
  C  C289  1  0.860100  0.621800  0.798700  1.0  0.7294
  C  C290  1  0.870460  0.547800  0.745600  1.0  -0.19
  C  C291  1  0.909800  0.518800  0.757800  1.0  -0.0628
  C  C292  1  0.908400  0.446800  0.692700  1.0  -0.045
  C  C293  1  0.868500  0.423100  0.631300  1.0  -0.2059
  C  C294  1  0.855800  0.355300  0.548400  1.0  0.695
  C  C295  1  0.709800  0.736200  0.817400  1.0  0.1784
  C  C296  1  0.667400  0.722900  0.772400  1.0  -0.2229
  C  C297  1  0.651300  0.661800  0.695800  1.0  0.0917
  C  C298  1  0.679300  0.614300  0.668900  1.0  -0.2217
  C  C299  1  0.721300  0.630700  0.715900  1.0  0.1734
  C  C300  1  0.605200  0.648200  0.641300  1.0  -0.241
  C  C301  1  0.579900  0.673400  0.700400  1.0  -0.1853
  C  C302  1  0.831000  0.855400  0.742000  1.0  0.728
  C  C303  1  0.818600  0.925400  0.661700  1.0  -0.1825
  C  C304  1  0.826300  0.122800  0.492000  1.0  0.7193
  C  C305  1  0.815970  0.049400  0.547700  1.0  -0.1863
  C  C306  1  0.779400  0.958400  0.612800  1.0  -0.0879
  C  C307  1  0.778100  0.028900  0.548600  1.0  -0.0653
  C  C308  1  0.464900  0.626600  0.555600  1.0  0.1715
  C  C309  1  0.506400  0.615600  0.616900  1.0  -0.1667
  C  C310  1  0.533400  0.679100  0.633000  1.0  0.1163
  C  C311  1  0.516500  0.757900  0.588800  1.0  -0.1045
  C  C312  1  0.475100  0.767300  0.530300  1.0  0.1105
  C  C313  1  0.360100  0.121800  0.798700  1.0  0.7294
  C  C314  1  0.370460  0.047800  0.745600  1.0  -0.1907
  C  C315  1  0.409800  0.018800  0.757800  1.0  -0.0628
  C  C316  1  0.408400  0.946800  0.692700  1.0  -0.0445
  C  C317  1  0.368500  0.923100  0.631300  1.0  -0.2058
  C  C318  1  0.355800  0.855300  0.548400  1.0  0.695
  C  C319  1  0.209800  0.236200  0.817400  1.0  0.1784
  C  C320  1  0.167400  0.222900  0.772400  1.0  -0.2229
  C  C321  1  0.151300  0.161800  0.695800  1.0  0.0917
  C  C322  1  0.179300  0.114300  0.668900  1.0  -0.2217
  C  C323  1  0.221300  0.130700  0.715900  1.0  0.1734
  C  C324  1  0.105200  0.148200  0.641300  1.0  -0.241
  C  C325  1  0.079900  0.173400  0.700400  1.0  -0.1853
  C  C326  1  0.331000  0.355400  0.742000  1.0  0.728
  C  C327  1  0.318600  0.425400  0.661700  1.0  -0.1826
  C  C328  1  0.326300  0.622800  0.492000  1.0  0.7193
  C  C329  1  0.315970  0.549400  0.547700  1.0  -0.1863
  C  C330  1  0.279400  0.458400  0.612800  1.0  -0.0883
  C  C331  1  0.278100  0.528900  0.548600  1.0  -0.0653
  C  C332  1  0.964900  0.126600  0.555600  1.0  0.1715
  C  C333  1  0.006400  0.115600  0.616900  1.0  -0.1667
  C  C334  1  0.033400  0.179100  0.633000  1.0  0.1163
  C  C335  1  0.016500  0.257900  0.588800  1.0  -0.1045
  C  C336  1  0.975100  0.267300  0.530300  1.0  0.1105
  S  S337  1  0.167370  0.512490  0.345550  1.0  0.1478
  S  S338  1  0.145700  0.017950  0.371870  1.0  0.1359
  S  S339  1  0.667370  0.012490  0.345550  1.0  0.1478
  S  S340  1  0.645700  0.517950  0.371870  1.0  0.1359
  S  S341  1  0.167370  0.487510  0.845550  1.0  0.1473
  S  S342  1  0.145700  0.982050  0.871870  1.0  0.1366
  S  S343  1  0.667370  0.987510  0.845550  1.0  0.1473
  S  S344  1  0.645700  0.482050  0.871870  1.0  0.1366
  S  S345  1  0.832630  0.512490  0.154450  1.0  0.149
  S  S346  1  0.854300  0.017950  0.128130  1.0  0.1314
  S  S347  1  0.332630  0.012490  0.154450  1.0  0.149
  S  S348  1  0.354300  0.517950  0.128130  1.0  0.1314
  S  S349  1  0.832630  0.487510  0.654450  1.0  0.1492
  S  S350  1  0.854300  0.982050  0.628130  1.0  0.1316
  S  S351  1  0.332630  0.987510  0.654450  1.0  0.1492
  S  S352  1  0.354300  0.482050  0.628130  1.0  0.1316
  N  N353  1  0.262890  0.308500  0.210600  1.0  -0.3289
  N  N354  1  0.550490  0.302200  0.489800  1.0  -0.3043
  N  N355  1  0.762890  0.808500  0.210600  1.0  -0.3289
  N  N356  1  0.050490  0.802200  0.489800  1.0  -0.3044
  N  N357  1  0.262890  0.691500  0.710600  1.0  -0.3284
  N  N358  1  0.550490  0.697800  0.989800  1.0  -0.3057
  N  N359  1  0.762890  0.191500  0.710600  1.0  -0.3284
  N  N360  1  0.050490  0.197800  0.989800  1.0  -0.3057
  N  N361  1  0.737110  0.308500  0.289400  1.0  -0.3277
  N  N362  1  0.449510  0.302200  0.010200  1.0  -0.301
  N  N363  1  0.237110  0.808500  0.289400  1.0  -0.3277
  N  N364  1  0.949510  0.802200  0.010200  1.0  -0.301
  N  N365  1  0.737110  0.691500  0.789400  1.0  -0.3281
  N  N366  1  0.449510  0.697800  0.510200  1.0  -0.3012
  N  N367  1  0.237110  0.191500  0.789400  1.0  -0.3281
  N  N368  1  0.949510  0.197800  0.510200  1.0  -0.3012
  O  O369  1  0.177430  0.369100  0.214900  1.0  -0.5924
  O  O370  1  0.110710  0.330300  0.146900  1.0  -0.5852
  O  O371  1  0.181680  0.644100  0.513000  1.0  -0.575
  O  O372  1  0.116730  0.695800  0.452600  1.0  -0.5875
  O  O373  1  0.197760  0.189000  0.250200  1.0  -0.5996
  O  O374  1  0.130680  0.152500  0.202600  1.0  -0.6031
  O  O375  1  0.201890  0.824100  0.553700  1.0  -0.5822
  O  O376  1  0.136760  0.874700  0.505200  1.0  -0.5877
  O  O377  1  0.677430  0.869100  0.214900  1.0  -0.5924
  O  O378  1  0.610710  0.830300  0.146900  1.0  -0.5852
  O  O379  1  0.681680  0.144100  0.513000  1.0  -0.575
  O  O380  1  0.616730  0.195800  0.452600  1.0  -0.5875
  O  O381  1  0.697760  0.689000  0.250200  1.0  -0.5996
  O  O382  1  0.630680  0.652500  0.202600  1.0  -0.6031
  O  O383  1  0.701890  0.324100  0.553700  1.0  -0.5822
  O  O384  1  0.636760  0.374700  0.505200  1.0  -0.5877
  O  O385  1  0.177430  0.630900  0.714900  1.0  -0.5916
  O  O386  1  0.110710  0.669700  0.646900  1.0  -0.5851
  O  O387  1  0.181680  0.355900  0.013000  1.0  -0.5745
  O  O388  1  0.116730  0.304200  0.952600  1.0  -0.5868
  O  O389  1  0.197760  0.811000  0.750200  1.0  -0.5986
  O  O390  1  0.130680  0.847500  0.702600  1.0  -0.6025
  O  O391  1  0.201890  0.175900  0.053700  1.0  -0.5821
  O  O392  1  0.136760  0.125300  0.005200  1.0  -0.5889
  O  O393  1  0.677430  0.130900  0.714900  1.0  -0.5918
  O  O394  1  0.610710  0.169700  0.646900  1.0  -0.5851
  O  O395  1  0.681680  0.855900  0.013000  1.0  -0.5745
  O  O396  1  0.616730  0.804200  0.952600  1.0  -0.5868
  O  O397  1  0.697760  0.311000  0.750200  1.0  -0.5986
  O  O398  1  0.630680  0.347500  0.702600  1.0  -0.6025
  O  O399  1  0.701890  0.675900  0.053700  1.0  -0.5821
  O  O400  1  0.636760  0.625300  0.005200  1.0  -0.5888
  O  O401  1  0.822570  0.369100  0.285100  1.0  -0.5914
  O  O402  1  0.889290  0.330300  0.353100  1.0  -0.5855
  O  O403  1  0.818320  0.644100  0.987000  1.0  -0.5752
  O  O404  1  0.883270  0.695800  0.047400  1.0  -0.5878
  O  O405  1  0.802240  0.189000  0.249800  1.0  -0.6
  O  O406  1  0.869320  0.152500  0.297400  1.0  -0.6023
  O  O407  1  0.798110  0.824100  0.946300  1.0  -0.5827
  O  O408  1  0.863240  0.874700  0.994800  1.0  -0.5872
  O  O409  1  0.322570  0.869100  0.285100  1.0  -0.5914
  O  O410  1  0.389290  0.830300  0.353100  1.0  -0.5855
  O  O411  1  0.318320  0.144100  0.987000  1.0  -0.5752
  O  O412  1  0.383270  0.195800  0.047400  1.0  -0.5878
  O  O413  1  0.302240  0.689000  0.249800  1.0  -0.6
  O  O414  1  0.369320  0.652500  0.297400  1.0  -0.6023
  O  O415  1  0.298110  0.324100  0.946300  1.0  -0.5827
  O  O416  1  0.363240  0.374700  0.994800  1.0  -0.5872
  O  O417  1  0.822570  0.630900  0.785100  1.0  -0.5923
  O  O418  1  0.889290  0.669700  0.853100  1.0  -0.5855
  O  O419  1  0.818320  0.355900  0.487000  1.0  -0.5746
  O  O420  1  0.883270  0.304200  0.547400  1.0  -0.5869
  O  O421  1  0.802240  0.811000  0.749800  1.0  -0.6006
  O  O422  1  0.869320  0.847500  0.797400  1.0  -0.6024
  O  O423  1  0.798110  0.175900  0.446300  1.0  -0.5827
  O  O424  1  0.863240  0.125300  0.494800  1.0  -0.5886
  O  O425  1  0.322570  0.130900  0.785100  1.0  -0.5927
  O  O426  1  0.389290  0.169700  0.853100  1.0  -0.5855
  O  O427  1  0.318320  0.855900  0.487000  1.0  -0.5746
  O  O428  1  0.383270  0.804200  0.547400  1.0  -0.5869
  O  O429  1  0.302240  0.311000  0.749800  1.0  -0.6006
  O  O430  1  0.369320  0.347500  0.797400  1.0  -0.6024
  O  O431  1  0.298110  0.675900  0.446300  1.0  -0.5827
  O  O432  1  0.363240  0.625300  0.494800  1.0  -0.5884
