# generated using pymatgen
data_InH4C12(SO4)2
_symmetry_space_group_name_H-M   'P 1'
_cell_length_a   13.56420000
_cell_length_b   13.56420000
_cell_length_c   15.64250000
_cell_angle_alpha   90.00000000
_cell_angle_beta   90.00000000
_cell_angle_gamma   90.00000000
_symmetry_Int_Tables_number   1
_chemical_formula_structural   InH4C12(SO4)2
_chemical_formula_sum   'In4 H16 C48 S8 O32'
_cell_volume   2878.02480725
_cell_formula_units_Z   4
loop_
 _symmetry_equiv_pos_site_id
 _symmetry_equiv_pos_as_xyz
  1  'x, y, z'
loop_
 _atom_site_type_symbol
 _atom_site_label
 _atom_site_symmetry_multiplicity
 _atom_site_fract_x
 _atom_site_fract_y
 _atom_site_fract_z
 _atom_site_occupancy
 _atom_site_charge
  In  In1  1  0.500000  0.076600  0.000000  1.0  1.51
  In  In2  1  0.500000  0.923400  0.500000  1.0  1.51
  In  In3  1  0.923400  0.500000  0.750000  1.0  1.509
  In  In4  1  0.076600  0.500000  0.250000  1.0  1.5074
  H  H5  1  0.659800  0.742100  0.681800  1.0  0.1214
  H  H6  1  0.570900  0.884500  0.739800  1.0  0.1377
  H  H7  1  0.340200  0.257900  0.181800  1.0  0.1219
  H  H8  1  0.429100  0.115500  0.239800  1.0  0.1374
  H  H9  1  0.257900  0.659800  0.431800  1.0  0.1221
  H  H10  1  0.115500  0.570900  0.489800  1.0  0.1383
  H  H11  1  0.742100  0.340200  0.931800  1.0  0.122
  H  H12  1  0.884500  0.429100  0.989800  1.0  0.1378
  H  H13  1  0.340200  0.742100  0.318200  1.0  0.1223
  H  H14  1  0.429100  0.884500  0.260200  1.0  0.1376
  H  H15  1  0.659800  0.257900  0.818200  1.0  0.122
  H  H16  1  0.570900  0.115500  0.760200  1.0  0.1379
  H  H17  1  0.742100  0.659800  0.568200  1.0  0.1227
  H  H18  1  0.884500  0.570900  0.510200  1.0  0.1384
  H  H19  1  0.257900  0.340200  0.068200  1.0  0.1222
  H  H20  1  0.115500  0.429100  0.010200  1.0  0.1385
  C  C21  1  0.798900  0.644500  0.782400  1.0  0.7114
  C  C22  1  0.593800  0.942100  0.910000  1.0  0.7126
  C  C23  1  0.636800  0.864800  0.854300  1.0  -0.1667
  C  C24  1  0.730900  0.727000  0.794900  1.0  -0.18
  C  C25  1  0.667800  0.765800  0.737200  1.0  -0.0443
  C  C26  1  0.615500  0.847100  0.771300  1.0  -0.0269
  C  C27  1  0.201100  0.355500  0.282400  1.0  0.7104
  C  C28  1  0.406200  0.057900  0.410000  1.0  0.7115
  C  C29  1  0.363200  0.135200  0.354300  1.0  -0.1676
  C  C30  1  0.269100  0.273000  0.294900  1.0  -0.181
  C  C31  1  0.332200  0.234200  0.237200  1.0  -0.0453
  C  C32  1  0.384500  0.152900  0.271300  1.0  -0.0276
  C  C33  1  0.355500  0.798900  0.532400  1.0  0.7115
  C  C34  1  0.057900  0.593800  0.660000  1.0  0.7143
  C  C35  1  0.135200  0.636800  0.604300  1.0  -0.1661
  C  C36  1  0.273000  0.730900  0.544900  1.0  -0.1808
  C  C37  1  0.234200  0.667800  0.487200  1.0  -0.0464
  C  C38  1  0.152900  0.615500  0.521300  1.0  -0.0274
  C  C39  1  0.644500  0.201100  0.032400  1.0  0.712
  C  C40  1  0.942100  0.406200  0.160000  1.0  0.7115
  C  C41  1  0.864800  0.363200  0.104300  1.0  -0.1673
  C  C42  1  0.727000  0.269100  0.044900  1.0  -0.1809
  C  C43  1  0.765800  0.332200  0.987200  1.0  -0.0459
  C  C44  1  0.847100  0.384500  0.021300  1.0  -0.0273
  C  C45  1  0.201100  0.644500  0.217600  1.0  0.7102
  C  C46  1  0.406200  0.942100  0.090000  1.0  0.7104
  C  C47  1  0.363200  0.864800  0.145700  1.0  -0.1705
  C  C48  1  0.269100  0.727000  0.205100  1.0  -0.1804
  C  C49  1  0.332200  0.765800  0.262800  1.0  -0.0461
  C  C50  1  0.384500  0.847100  0.228700  1.0  -0.0275
  C  C51  1  0.798900  0.355500  0.717600  1.0  0.7102
  C  C52  1  0.593800  0.057900  0.590000  1.0  0.7124
  C  C53  1  0.636800  0.135200  0.645700  1.0  -0.1701
  C  C54  1  0.730900  0.273000  0.705100  1.0  -0.1803
  C  C55  1  0.667800  0.234200  0.762800  1.0  -0.0461
  C  C56  1  0.615500  0.152900  0.728700  1.0  -0.0264
  C  C57  1  0.644500  0.798900  0.467600  1.0  0.7106
  C  C58  1  0.942100  0.593800  0.340000  1.0  0.7115
  C  C59  1  0.864800  0.636800  0.395700  1.0  -0.1701
  C  C60  1  0.727000  0.730900  0.455100  1.0  -0.1803
  C  C61  1  0.765800  0.667800  0.512800  1.0  -0.0472
  C  C62  1  0.847100  0.615500  0.478700  1.0  -0.0268
  C  C63  1  0.355500  0.201100  0.967600  1.0  0.7106
  C  C64  1  0.057900  0.406200  0.840000  1.0  0.7135
  C  C65  1  0.135200  0.363200  0.895700  1.0  -0.1705
  C  C66  1  0.273000  0.269100  0.955100  1.0  -0.1813
  C  C67  1  0.234200  0.332200  0.012800  1.0  -0.0477
  C  C68  1  0.152900  0.384500  0.978700  1.0  -0.0266
  S  S69  1  0.723600  0.784700  0.892100  1.0  0.1926
  S  S70  1  0.276400  0.215300  0.392100  1.0  0.1932
  S  S71  1  0.215300  0.723600  0.642100  1.0  0.1951
  S  S72  1  0.784700  0.276400  0.142100  1.0  0.1954
  S  S73  1  0.276400  0.784700  0.107900  1.0  0.1942
  S  S74  1  0.723600  0.215300  0.607900  1.0  0.1918
  S  S75  1  0.784700  0.723600  0.357900  1.0  0.1943
  S  S76  1  0.215300  0.276400  0.857900  1.0  0.1958
  O  O77  1  0.621000  0.951300  0.985500  1.0  -0.5359
  O  O78  1  0.527200  0.997000  0.878600  1.0  -0.5551
  O  O79  1  0.807400  0.606600  0.708500  1.0  -0.5517
  O  O80  1  0.852300  0.614300  0.842200  1.0  -0.5686
  O  O81  1  0.379000  0.048700  0.485500  1.0  -0.5357
  O  O82  1  0.472800  0.003000  0.378600  1.0  -0.5562
  O  O83  1  0.192600  0.393400  0.208500  1.0  -0.5512
  O  O84  1  0.147700  0.385700  0.342200  1.0  -0.5675
  O  O85  1  0.048700  0.621000  0.735500  1.0  -0.5359
  O  O86  1  0.003000  0.527200  0.628600  1.0  -0.5563
  O  O87  1  0.393400  0.807400  0.458500  1.0  -0.5509
  O  O88  1  0.385700  0.852300  0.592200  1.0  -0.5718
  O  O89  1  0.951300  0.379000  0.235500  1.0  -0.5367
  O  O90  1  0.997000  0.472800  0.128600  1.0  -0.5566
  O  O91  1  0.606600  0.192600  0.958500  1.0  -0.5513
  O  O92  1  0.614300  0.147700  0.092200  1.0  -0.5725
  O  O93  1  0.379000  0.951300  0.014500  1.0  -0.5327
  O  O94  1  0.472800  0.997000  0.121400  1.0  -0.5557
  O  O95  1  0.192600  0.606600  0.291500  1.0  -0.5519
  O  O96  1  0.147700  0.614300  0.157800  1.0  -0.5625
  O  O97  1  0.621000  0.048700  0.514500  1.0  -0.5336
  O  O98  1  0.527200  0.003000  0.621400  1.0  -0.5547
  O  O99  1  0.807400  0.393400  0.791500  1.0  -0.5518
  O  O100  1  0.852300  0.385700  0.657800  1.0  -0.5626
  O  O101  1  0.951300  0.621000  0.264500  1.0  -0.5349
  O  O102  1  0.997000  0.527200  0.371400  1.0  -0.5555
  O  O103  1  0.606600  0.807400  0.541500  1.0  -0.5514
  O  O104  1  0.614300  0.852300  0.407800  1.0  -0.5659
  O  O105  1  0.048700  0.379000  0.764500  1.0  -0.5337
  O  O106  1  0.003000  0.472800  0.871400  1.0  -0.556
  O  O107  1  0.393400  0.192600  0.041500  1.0  -0.5514
  O  O108  1  0.385700  0.147700  0.907800  1.0  -0.5665
