# generated using pymatgen
data_CoH16C26(SN5)2
_symmetry_space_group_name_H-M   'P 1'
_cell_length_a   26.40500000
_cell_length_b   26.40500000
_cell_length_c   36.63100000
_cell_angle_alpha   90.00000000
_cell_angle_beta   90.00000000
_cell_angle_gamma   90.00000000
_symmetry_Int_Tables_number   1
_chemical_formula_structural   CoH16C26(SN5)2
_chemical_formula_sum   'Co12 H192 C312 S24 N120'
_cell_volume   25540.01325978
_cell_formula_units_Z   12
loop_
 _symmetry_equiv_pos_site_id
 _symmetry_equiv_pos_as_xyz
  1  'x, y, z'
loop_
 _atom_site_type_symbol
 _atom_site_label
 _atom_site_symmetry_multiplicity
 _atom_site_fract_x
 _atom_site_fract_y
 _atom_site_fract_z
 _atom_site_occupancy
 _atom_site_charge
  Co  Co1  1  0.701650  0.701650  0.237030  1.0  0.7199
  Co  Co2  1  0.298350  0.298350  0.237030  1.0  0.719
  Co  Co3  1  0.798350  0.201650  0.737030  1.0  0.7191
  Co  Co4  1  0.201650  0.798350  0.737030  1.0  0.7198
  Co  Co5  1  0.798350  0.201650  0.262970  1.0  0.7185
  Co  Co6  1  0.201650  0.798350  0.262970  1.0  0.7193
  Co  Co7  1  0.701650  0.701650  0.762970  1.0  0.7193
  Co  Co8  1  0.298350  0.298350  0.762970  1.0  0.7185
  Co  Co9  1  0.000000  0.500000  0.000000  1.0  0.6498
  Co  Co10  1  0.000000  0.500000  0.500000  1.0  0.6498
  Co  Co11  1  0.500000  0.000000  0.500000  1.0  0.6498
  Co  Co12  1  0.500000  0.000000  0.000000  1.0  0.6498
  H  H13  1  0.700600  0.585200  0.747000  1.0  0.0938
  H  H14  1  0.728300  0.510100  0.771100  1.0  0.1168
  H  H15  1  0.766100  0.581900  0.862500  1.0  0.115
  H  H16  1  0.739200  0.657000  0.837500  1.0  0.0905
  H  H17  1  0.972800  0.422100  0.940400  1.0  0.082
  H  H18  1  0.917800  0.405200  0.893200  1.0  0.1282
  H  H19  1  0.901100  0.544600  0.968000  1.0  0.0919
  H  H20  1  0.845400  0.534300  0.918900  1.0  0.1167
  H  H21  1  0.853100  0.326200  0.837500  1.0  0.125
  H  H22  1  0.774600  0.393300  0.758600  1.0  0.1165
  H  H23  1  0.765500  0.310800  0.729800  1.0  0.0939
  H  H24  1  0.850300  0.252700  0.804900  1.0  0.0865
  H  H25  1  0.299400  0.414800  0.747000  1.0  0.093
  H  H26  1  0.271700  0.489900  0.771100  1.0  0.1178
  H  H27  1  0.233900  0.418100  0.862500  1.0  0.1151
  H  H28  1  0.260800  0.343000  0.837500  1.0  0.09
  H  H29  1  0.027200  0.577900  0.940400  1.0  0.0822
  H  H30  1  0.082200  0.594800  0.893200  1.0  0.1289
  H  H31  1  0.098900  0.455400  0.968000  1.0  0.0917
  H  H32  1  0.154600  0.465700  0.918900  1.0  0.1163
  H  H33  1  0.146900  0.673800  0.837500  1.0  0.125
  H  H34  1  0.225400  0.606700  0.758600  1.0  0.1161
  H  H35  1  0.234500  0.689200  0.729800  1.0  0.0939
  H  H36  1  0.149700  0.747300  0.804900  1.0  0.086
  H  H37  1  0.914800  0.200600  0.247000  1.0  0.0928
  H  H38  1  0.989900  0.228300  0.271100  1.0  0.1172
  H  H39  1  0.918100  0.266100  0.362500  1.0  0.115
  H  H40  1  0.843000  0.239200  0.337500  1.0  0.0914
  H  H41  1  0.077900  0.472800  0.440400  1.0  0.0807
  H  H42  1  0.094800  0.417800  0.393200  1.0  0.1283
  H  H43  1  0.955400  0.401100  0.468000  1.0  0.0927
  H  H44  1  0.965700  0.345400  0.418900  1.0  0.1164
  H  H45  1  0.173800  0.353100  0.337500  1.0  0.1247
  H  H46  1  0.106700  0.274600  0.258600  1.0  0.1157
  H  H47  1  0.189200  0.265500  0.229800  1.0  0.0928
  H  H48  1  0.247300  0.350300  0.304900  1.0  0.0877
  H  H49  1  0.085200  0.799400  0.247000  1.0  0.0922
  H  H50  1  0.010100  0.771700  0.271100  1.0  0.117
  H  H51  1  0.081900  0.733900  0.362500  1.0  0.1147
  H  H52  1  0.157000  0.760800  0.337500  1.0  0.0916
  H  H53  1  0.922100  0.527200  0.440400  1.0  0.0798
  H  H54  1  0.905200  0.582200  0.393200  1.0  0.1288
  H  H55  1  0.044600  0.598900  0.468000  1.0  0.0934
  H  H56  1  0.034300  0.654600  0.418900  1.0  0.1164
  H  H57  1  0.826200  0.646900  0.337500  1.0  0.1249
  H  H58  1  0.893300  0.725400  0.258600  1.0  0.1156
  H  H59  1  0.810800  0.734500  0.229800  1.0  0.0937
  H  H60  1  0.752700  0.649700  0.304900  1.0  0.0879
  H  H61  1  0.799400  0.085200  0.753000  1.0  0.0941
  H  H62  1  0.771700  0.010100  0.728900  1.0  0.1172
  H  H63  1  0.733900  0.081900  0.637500  1.0  0.1148
  H  H64  1  0.760800  0.157000  0.662500  1.0  0.0893
  H  H65  1  0.527200  0.922100  0.559600  1.0  0.0814
  H  H66  1  0.582200  0.905200  0.606800  1.0  0.1291
  H  H67  1  0.598900  0.044600  0.532000  1.0  0.0918
  H  H68  1  0.654600  0.034300  0.581100  1.0  0.1163
  H  H69  1  0.646900  0.826200  0.662500  1.0  0.1252
  H  H70  1  0.725400  0.893300  0.741400  1.0  0.1163
  H  H71  1  0.734500  0.810800  0.770200  1.0  0.0943
  H  H72  1  0.649700  0.752700  0.695100  1.0  0.087
  H  H73  1  0.200600  0.914800  0.753000  1.0  0.0942
  H  H74  1  0.228300  0.989900  0.728900  1.0  0.117
  H  H75  1  0.266100  0.918100  0.637500  1.0  0.1148
  H  H76  1  0.239200  0.843000  0.662500  1.0  0.0895
  H  H77  1  0.472800  0.077900  0.559600  1.0  0.0819
  H  H78  1  0.417800  0.094800  0.606800  1.0  0.1284
  H  H79  1  0.401100  0.955400  0.532000  1.0  0.0911
  H  H80  1  0.345400  0.965700  0.581100  1.0  0.1158
  H  H81  1  0.353100  0.173800  0.662500  1.0  0.1249
  H  H82  1  0.274600  0.106700  0.741400  1.0  0.1165
  H  H83  1  0.265500  0.189200  0.770200  1.0  0.0936
  H  H84  1  0.350300  0.247300  0.695100  1.0  0.0876
  H  H85  1  0.585200  0.700600  0.253000  1.0  0.0939
  H  H86  1  0.510100  0.728300  0.228900  1.0  0.1171
  H  H87  1  0.581900  0.766100  0.137500  1.0  0.1149
  H  H88  1  0.657000  0.739200  0.162500  1.0  0.0907
  H  H89  1  0.422100  0.972800  0.059600  1.0  0.0802
  H  H90  1  0.405200  0.917800  0.106800  1.0  0.1287
  H  H91  1  0.544600  0.901100  0.032000  1.0  0.093
  H  H92  1  0.534300  0.845400  0.081100  1.0  0.1167
  H  H93  1  0.326200  0.853100  0.162500  1.0  0.1248
  H  H94  1  0.393300  0.774600  0.241400  1.0  0.1156
  H  H95  1  0.310800  0.765500  0.270200  1.0  0.092
  H  H96  1  0.252700  0.850300  0.195100  1.0  0.0893
  H  H97  1  0.414800  0.299400  0.253000  1.0  0.0942
  H  H98  1  0.489900  0.271700  0.228900  1.0  0.117
  H  H99  1  0.418100  0.233900  0.137500  1.0  0.1148
  H  H100  1  0.343000  0.260800  0.162500  1.0  0.0907
  H  H101  1  0.577900  0.027200  0.059600  1.0  0.0807
  H  H102  1  0.594800  0.082200  0.106800  1.0  0.1284
  H  H103  1  0.455400  0.098900  0.032000  1.0  0.0924
  H  H104  1  0.465700  0.154600  0.081100  1.0  0.117
  H  H105  1  0.673800  0.146900  0.162500  1.0  0.1246
  H  H106  1  0.606700  0.225400  0.241400  1.0  0.1158
  H  H107  1  0.689200  0.234500  0.270200  1.0  0.0928
  H  H108  1  0.747300  0.149700  0.195100  1.0  0.0881
  H  H109  1  0.299400  0.414800  0.253000  1.0  0.0946
  H  H110  1  0.271700  0.489900  0.228900  1.0  0.1175
  H  H111  1  0.233900  0.418100  0.137500  1.0  0.1153
  H  H112  1  0.260800  0.343000  0.162500  1.0  0.0893
  H  H113  1  0.027200  0.577900  0.059600  1.0  0.0824
  H  H114  1  0.082200  0.594800  0.106800  1.0  0.1287
  H  H115  1  0.098900  0.455400  0.032000  1.0  0.0913
  H  H116  1  0.154600  0.465700  0.081100  1.0  0.1163
  H  H117  1  0.146900  0.673800  0.162500  1.0  0.1251
  H  H118  1  0.225400  0.606700  0.241400  1.0  0.1165
  H  H119  1  0.234500  0.689200  0.270200  1.0  0.0937
  H  H120  1  0.149700  0.747300  0.195100  1.0  0.0873
  H  H121  1  0.700600  0.585200  0.253000  1.0  0.0946
  H  H122  1  0.728300  0.510100  0.228900  1.0  0.117
  H  H123  1  0.766100  0.581900  0.137500  1.0  0.1149
  H  H124  1  0.739200  0.657000  0.162500  1.0  0.0898
  H  H125  1  0.972800  0.422100  0.059600  1.0  0.0819
  H  H126  1  0.917800  0.405200  0.106800  1.0  0.1287
  H  H127  1  0.901100  0.544600  0.032000  1.0  0.0917
  H  H128  1  0.845400  0.534300  0.081100  1.0  0.1167
  H  H129  1  0.853100  0.326200  0.162500  1.0  0.125
  H  H130  1  0.774600  0.393300  0.241400  1.0  0.1163
  H  H131  1  0.765500  0.310800  0.270200  1.0  0.094
  H  H132  1  0.850300  0.252700  0.195100  1.0  0.0879
  H  H133  1  0.085200  0.799400  0.753000  1.0  0.0929
  H  H134  1  0.010100  0.771700  0.728900  1.0  0.1169
  H  H135  1  0.081900  0.733900  0.637500  1.0  0.1145
  H  H136  1  0.157000  0.760800  0.662500  1.0  0.0906
  H  H137  1  0.922100  0.527200  0.559600  1.0  0.0802
  H  H138  1  0.905200  0.582200  0.606800  1.0  0.1292
  H  H139  1  0.044600  0.598900  0.532000  1.0  0.0934
  H  H140  1  0.034300  0.654600  0.581100  1.0  0.1166
  H  H141  1  0.826200  0.646900  0.662500  1.0  0.1247
  H  H142  1  0.893300  0.725400  0.741400  1.0  0.1157
  H  H143  1  0.810800  0.734500  0.770200  1.0  0.0927
  H  H144  1  0.752700  0.649700  0.695100  1.0  0.0889
  H  H145  1  0.914800  0.200600  0.753000  1.0  0.0931
  H  H146  1  0.989900  0.228300  0.728900  1.0  0.117
  H  H147  1  0.918100  0.266100  0.637500  1.0  0.1146
  H  H148  1  0.843000  0.239200  0.662500  1.0  0.0908
  H  H149  1  0.077900  0.472800  0.559600  1.0  0.0806
  H  H150  1  0.094800  0.417800  0.606800  1.0  0.1284
  H  H151  1  0.955400  0.401100  0.532000  1.0  0.0921
  H  H152  1  0.965700  0.345400  0.581100  1.0  0.1161
  H  H153  1  0.173800  0.353100  0.662500  1.0  0.1247
  H  H154  1  0.106700  0.274600  0.741400  1.0  0.1161
  H  H155  1  0.189200  0.265500  0.770200  1.0  0.0929
  H  H156  1  0.247300  0.350300  0.695100  1.0  0.088
  H  H157  1  0.200600  0.914800  0.247000  1.0  0.0932
  H  H158  1  0.228300  0.989900  0.271100  1.0  0.1171
  H  H159  1  0.266100  0.918100  0.362500  1.0  0.1155
  H  H160  1  0.239200  0.843000  0.337500  1.0  0.0903
  H  H161  1  0.472800  0.077900  0.440400  1.0  0.0821
  H  H162  1  0.417800  0.094800  0.393200  1.0  0.1284
  H  H163  1  0.401100  0.955400  0.468000  1.0  0.092
  H  H164  1  0.345400  0.965700  0.418900  1.0  0.1161
  H  H165  1  0.353100  0.173800  0.337500  1.0  0.1247
  H  H166  1  0.274600  0.106700  0.258600  1.0  0.1162
  H  H167  1  0.265500  0.189200  0.229800  1.0  0.0937
  H  H168  1  0.350300  0.247300  0.304900  1.0  0.0863
  H  H169  1  0.799400  0.085200  0.247000  1.0  0.0935
  H  H170  1  0.771700  0.010100  0.271100  1.0  0.1173
  H  H171  1  0.733900  0.081900  0.362500  1.0  0.1148
  H  H172  1  0.760800  0.157000  0.337500  1.0  0.0899
  H  H173  1  0.527200  0.922100  0.440400  1.0  0.0815
  H  H174  1  0.582200  0.905200  0.393200  1.0  0.1287
  H  H175  1  0.598900  0.044600  0.468000  1.0  0.0918
  H  H176  1  0.654600  0.034300  0.418900  1.0  0.1161
  H  H177  1  0.646900  0.826200  0.337500  1.0  0.1252
  H  H178  1  0.725400  0.893300  0.258600  1.0  0.1163
  H  H179  1  0.734500  0.810800  0.229800  1.0  0.0943
  H  H180  1  0.649700  0.752700  0.304900  1.0  0.0866
  H  H181  1  0.414800  0.299400  0.747000  1.0  0.0933
  H  H182  1  0.489900  0.271700  0.771100  1.0  0.1172
  H  H183  1  0.418100  0.233900  0.862500  1.0  0.1149
  H  H184  1  0.343000  0.260800  0.837500  1.0  0.0915
  H  H185  1  0.577900  0.027200  0.940400  1.0  0.0805
  H  H186  1  0.594800  0.082200  0.893200  1.0  0.1282
  H  H187  1  0.455400  0.098900  0.968000  1.0  0.0926
  H  H188  1  0.465700  0.154600  0.918900  1.0  0.1169
  H  H189  1  0.673800  0.146900  0.837500  1.0  0.1246
  H  H190  1  0.606700  0.225400  0.758600  1.0  0.1157
  H  H191  1  0.689200  0.234500  0.729800  1.0  0.0927
  H  H192  1  0.747300  0.149700  0.804900  1.0  0.0876
  H  H193  1  0.585200  0.700600  0.747000  1.0  0.0929
  H  H194  1  0.510100  0.728300  0.771100  1.0  0.1172
  H  H195  1  0.581900  0.766100  0.862500  1.0  0.1148
  H  H196  1  0.657000  0.739200  0.837500  1.0  0.0914
  H  H197  1  0.422100  0.972800  0.940400  1.0  0.0801
  H  H198  1  0.405200  0.917800  0.893200  1.0  0.1287
  H  H199  1  0.544600  0.901100  0.968000  1.0  0.0936
  H  H200  1  0.534300  0.845400  0.918900  1.0  0.1169
  H  H201  1  0.326200  0.853100  0.837500  1.0  0.1248
  H  H202  1  0.393300  0.774600  0.758600  1.0  0.1155
  H  H203  1  0.310800  0.765500  0.729800  1.0  0.0931
  H  H204  1  0.252700  0.850300  0.804900  1.0  0.0878
  C  C205  1  0.756600  0.540150  0.816990  1.0  -0.0443
  C  C206  1  0.786500  0.494940  0.830170  1.0  0.2201
  C  C207  1  0.876880  0.469040  0.900140  1.0  -0.1041
  C  C208  1  0.811900  0.415460  0.822430  1.0  0.3326
  C  C209  1  0.842250  0.462800  0.868860  1.0  0.3064
  C  C210  1  0.714780  0.585400  0.770830  1.0  0.1728
  C  C211  1  0.732670  0.540670  0.784450  1.0  -0.1209
  C  C212  1  0.754850  0.582840  0.837820  1.0  -0.1371
  C  C213  1  0.737000  0.626980  0.823260  1.0  0.1554
  C  C214  1  0.946600  0.445950  0.935730  1.0  0.1892
  C  C215  1  0.914150  0.435190  0.907260  1.0  -0.1424
  C  C216  1  0.905990  0.517010  0.951710  1.0  0.1489
  C  C217  1  0.871800  0.510460  0.922800  1.0  -0.1169
  C  C218  1  0.809610  0.366670  0.802400  1.0  -0.0961
  C  C219  1  0.834500  0.324670  0.815350  1.0  -0.1332
  C  C220  1  0.787800  0.363800  0.770000  1.0  -0.0848
  C  C221  1  0.784200  0.313650  0.751820  1.0  0.1535
  C  C222  1  0.831900  0.280950  0.795900  1.0  0.1724
  C  C223  1  0.243400  0.459850  0.816990  1.0  -0.0431
  C  C224  1  0.213500  0.505060  0.830170  1.0  0.2212
  C  C225  1  0.123120  0.530960  0.900140  1.0  -0.1033
  C  C226  1  0.188100  0.584540  0.822430  1.0  0.3321
  C  C227  1  0.157750  0.537200  0.868860  1.0  0.3059
  C  C228  1  0.285220  0.414600  0.770830  1.0  0.1723
  C  C229  1  0.267330  0.459330  0.784450  1.0  -0.1203
  C  C230  1  0.245150  0.417160  0.837820  1.0  -0.1371
  C  C231  1  0.263000  0.373020  0.823260  1.0  0.1551
  C  C232  1  0.053400  0.554050  0.935730  1.0  0.1882
  C  C233  1  0.085850  0.564810  0.907260  1.0  -0.1398
  C  C234  1  0.094010  0.482990  0.951710  1.0  0.1484
  C  C235  1  0.128200  0.489540  0.922800  1.0  -0.1153
  C  C236  1  0.190390  0.633330  0.802400  1.0  -0.0957
  C  C237  1  0.165500  0.675330  0.815350  1.0  -0.1382
  C  C238  1  0.212200  0.636200  0.770000  1.0  -0.0831
  C  C239  1  0.215800  0.686350  0.751820  1.0  0.1588
  C  C240  1  0.168100  0.719050  0.795900  1.0  0.1717
  C  C241  1  0.959850  0.256600  0.316990  1.0  -0.0477
  C  C242  1  0.005060  0.286500  0.330170  1.0  0.2206
  C  C243  1  0.030960  0.376880  0.400140  1.0  -0.1021
  C  C244  1  0.084540  0.311900  0.322430  1.0  0.3322
  C  C245  1  0.037200  0.342250  0.368860  1.0  0.3067
  C  C246  1  0.914600  0.214780  0.270830  1.0  0.173
  C  C247  1  0.959330  0.232670  0.284450  1.0  -0.1169
  C  C248  1  0.917160  0.254850  0.337820  1.0  -0.1357
  C  C249  1  0.873020  0.237000  0.323260  1.0  0.1557
  C  C250  1  0.054050  0.446600  0.435730  1.0  0.1903
  C  C251  1  0.064810  0.414150  0.407260  1.0  -0.1379
  C  C252  1  0.982990  0.405990  0.451710  1.0  0.1486
  C  C253  1  0.989540  0.371800  0.422800  1.0  -0.1175
  C  C254  1  0.133330  0.309610  0.302400  1.0  -0.0971
  C  C255  1  0.175330  0.334500  0.315350  1.0  -0.1329
  C  C256  1  0.136200  0.287800  0.270000  1.0  -0.0834
  C  C257  1  0.186350  0.284200  0.251820  1.0  0.1607
  C  C258  1  0.219050  0.331900  0.295900  1.0  0.1729
  C  C259  1  0.040150  0.743400  0.316990  1.0  -0.0479
  C  C260  1  0.994940  0.713500  0.330170  1.0  0.2207
  C  C261  1  0.969040  0.623120  0.400140  1.0  -0.1021
  C  C262  1  0.915460  0.688100  0.322430  1.0  0.3318
  C  C263  1  0.962800  0.657750  0.368860  1.0  0.3067
  C  C264  1  0.085400  0.785220  0.270830  1.0  0.1747
  C  C265  1  0.040670  0.767330  0.284450  1.0  -0.1189
  C  C266  1  0.082840  0.745150  0.337820  1.0  -0.1343
  C  C267  1  0.126980  0.763000  0.323260  1.0  0.1549
  C  C268  1  0.945950  0.553400  0.435730  1.0  0.1887
  C  C269  1  0.935190  0.585850  0.407260  1.0  -0.1374
  C  C270  1  0.017010  0.594010  0.451710  1.0  0.1477
  C  C271  1  0.010460  0.628200  0.422800  1.0  -0.1172
  C  C272  1  0.866670  0.690390  0.302400  1.0  -0.0973
  C  C273  1  0.824670  0.665500  0.315350  1.0  -0.1308
  C  C274  1  0.863800  0.712200  0.270000  1.0  -0.083
  C  C275  1  0.813650  0.715800  0.251820  1.0  0.1594
  C  C276  1  0.780950  0.668100  0.295900  1.0  0.1731
  C  C277  1  0.743400  0.040150  0.683010  1.0  -0.048
  C  C278  1  0.713500  0.994940  0.669830  1.0  0.2209
  C  C279  1  0.623120  0.969040  0.599860  1.0  -0.1028
  C  C280  1  0.688100  0.915460  0.677570  1.0  0.3321
  C  C281  1  0.657750  0.962800  0.631140  1.0  0.3058
  C  C282  1  0.785220  0.085400  0.729170  1.0  0.1722
  C  C283  1  0.767330  0.040670  0.715550  1.0  -0.1208
  C  C284  1  0.745150  0.082840  0.662180  1.0  -0.139
  C  C285  1  0.763000  0.126980  0.676740  1.0  0.1545
  C  C286  1  0.553400  0.945950  0.564270  1.0  0.1896
  C  C287  1  0.585850  0.935190  0.592740  1.0  -0.1432
  C  C288  1  0.594010  0.017010  0.548290  1.0  0.1479
  C  C289  1  0.628200  0.010460  0.577200  1.0  -0.1163
  C  C290  1  0.690390  0.866670  0.697600  1.0  -0.0965
  C  C291  1  0.665500  0.824670  0.684650  1.0  -0.1338
  C  C292  1  0.712200  0.863800  0.730000  1.0  -0.0833
  C  C293  1  0.715800  0.813650  0.748180  1.0  0.1529
  C  C294  1  0.668100  0.780950  0.704100  1.0  0.1725
  C  C295  1  0.256600  0.959850  0.683010  1.0  -0.0475
  C  C296  1  0.286500  0.005060  0.669830  1.0  0.2198
  C  C297  1  0.376880  0.030960  0.599860  1.0  -0.1034
  C  C298  1  0.311900  0.084540  0.677570  1.0  0.332
  C  C299  1  0.342250  0.037200  0.631140  1.0  0.3064
  C  C300  1  0.214780  0.914600  0.729170  1.0  0.1722
  C  C301  1  0.232670  0.959330  0.715550  1.0  -0.1215
  C  C302  1  0.254850  0.917160  0.662180  1.0  -0.1366
  C  C303  1  0.237000  0.873020  0.676740  1.0  0.1556
  C  C304  1  0.446600  0.054050  0.564270  1.0  0.1891
  C  C305  1  0.414150  0.064810  0.592740  1.0  -0.1419
  C  C306  1  0.405990  0.982990  0.548290  1.0  0.1494
  C  C307  1  0.371800  0.989540  0.577200  1.0  -0.1164
  C  C308  1  0.309610  0.133330  0.697600  1.0  -0.0963
  C  C309  1  0.334500  0.175330  0.684650  1.0  -0.1388
  C  C310  1  0.287800  0.136200  0.730000  1.0  -0.0821
  C  C311  1  0.284200  0.186350  0.748180  1.0  0.1605
  C  C312  1  0.331900  0.219050  0.704100  1.0  0.1715
  C  C313  1  0.540150  0.756600  0.183010  1.0  -0.0448
  C  C314  1  0.494940  0.786500  0.169830  1.0  0.2207
  C  C315  1  0.469040  0.876880  0.099860  1.0  -0.1011
  C  C316  1  0.415460  0.811900  0.177570  1.0  0.3315
  C  C317  1  0.462800  0.842250  0.131140  1.0  0.3066
  C  C318  1  0.585400  0.714780  0.229170  1.0  0.1745
  C  C319  1  0.540670  0.732670  0.215550  1.0  -0.1184
  C  C320  1  0.582840  0.754850  0.162180  1.0  -0.1374
  C  C321  1  0.626980  0.737000  0.176740  1.0  0.155
  C  C322  1  0.445950  0.946600  0.064270  1.0  0.189
  C  C323  1  0.435190  0.914150  0.092740  1.0  -0.1385
  C  C324  1  0.517010  0.905990  0.048290  1.0  0.1472
  C  C325  1  0.510460  0.871800  0.077200  1.0  -0.117
  C  C326  1  0.366670  0.809610  0.197600  1.0  -0.0976
  C  C327  1  0.324670  0.834500  0.184650  1.0  -0.1332
  C  C328  1  0.363800  0.787800  0.230000  1.0  -0.0823
  C  C329  1  0.313650  0.784200  0.248180  1.0  0.1581
  C  C330  1  0.280950  0.831900  0.204100  1.0  0.1742
  C  C331  1  0.459850  0.243400  0.183010  1.0  -0.0437
  C  C332  1  0.505060  0.213500  0.169830  1.0  0.2202
  C  C333  1  0.530960  0.123120  0.099860  1.0  -0.1018
  C  C334  1  0.584540  0.188100  0.177570  1.0  0.3318
  C  C335  1  0.537200  0.157750  0.131140  1.0  0.3068
  C  C336  1  0.414600  0.285220  0.229170  1.0  0.1732
  C  C337  1  0.459330  0.267330  0.215550  1.0  -0.1183
  C  C338  1  0.417160  0.245150  0.162180  1.0  -0.1376
  C  C339  1  0.373020  0.263000  0.176740  1.0  0.1557
  C  C340  1  0.554050  0.053400  0.064270  1.0  0.1906
  C  C341  1  0.564810  0.085850  0.092740  1.0  -0.1386
  C  C342  1  0.482990  0.094010  0.048290  1.0  0.1483
  C  C343  1  0.489540  0.128200  0.077200  1.0  -0.1176
  C  C344  1  0.633330  0.190390  0.197600  1.0  -0.0976
  C  C345  1  0.675330  0.165500  0.184650  1.0  -0.1374
  C  C346  1  0.636200  0.212200  0.230000  1.0  -0.0835
  C  C347  1  0.686350  0.215800  0.248180  1.0  0.1611
  C  C348  1  0.719050  0.168100  0.204100  1.0  0.1727
  C  C349  1  0.243400  0.459850  0.183010  1.0  -0.0434
  C  C350  1  0.213500  0.505060  0.169830  1.0  0.221
  C  C351  1  0.123120  0.530960  0.099860  1.0  -0.103
  C  C352  1  0.188100  0.584540  0.177570  1.0  0.3318
  C  C353  1  0.157750  0.537200  0.131140  1.0  0.3058
  C  C354  1  0.285220  0.414600  0.229170  1.0  0.1716
  C  C355  1  0.267330  0.459330  0.215550  1.0  -0.1201
  C  C356  1  0.245150  0.417160  0.162180  1.0  -0.1378
  C  C357  1  0.263000  0.373020  0.176740  1.0  0.1554
  C  C358  1  0.053400  0.554050  0.064270  1.0  0.1891
  C  C359  1  0.085850  0.564810  0.092740  1.0  -0.1404
  C  C360  1  0.094010  0.482990  0.048290  1.0  0.1482
  C  C361  1  0.128200  0.489540  0.077200  1.0  -0.1155
  C  C362  1  0.190390  0.633330  0.197600  1.0  -0.0964
  C  C363  1  0.165500  0.675330  0.184650  1.0  -0.1386
  C  C364  1  0.212200  0.636200  0.230000  1.0  -0.0828
  C  C365  1  0.215800  0.686350  0.248180  1.0  0.1594
  C  C366  1  0.168100  0.719050  0.204100  1.0  0.1726
  C  C367  1  0.756600  0.540150  0.183010  1.0  -0.0447
  C  C368  1  0.786500  0.494940  0.169830  1.0  0.2198
  C  C369  1  0.876880  0.469040  0.099860  1.0  -0.1034
  C  C370  1  0.811900  0.415460  0.177570  1.0  0.3323
  C  C371  1  0.842250  0.462800  0.131140  1.0  0.3064
  C  C372  1  0.714780  0.585400  0.229170  1.0  0.1729
  C  C373  1  0.732670  0.540670  0.215550  1.0  -0.1208
  C  C374  1  0.754850  0.582840  0.162180  1.0  -0.1381
  C  C375  1  0.737000  0.626980  0.176740  1.0  0.1551
  C  C376  1  0.946600  0.445950  0.064270  1.0  0.1894
  C  C377  1  0.914150  0.435190  0.092740  1.0  -0.1435
  C  C378  1  0.905990  0.517010  0.048290  1.0  0.1493
  C  C379  1  0.871800  0.510460  0.077200  1.0  -0.1172
  C  C380  1  0.809610  0.366670  0.197600  1.0  -0.0964
  C  C381  1  0.834500  0.324670  0.184650  1.0  -0.1341
  C  C382  1  0.787800  0.363800  0.230000  1.0  -0.0843
  C  C383  1  0.784200  0.313650  0.248180  1.0  0.1535
  C  C384  1  0.831900  0.280950  0.204100  1.0  0.1711
  C  C385  1  0.040150  0.743400  0.683010  1.0  -0.0484
  C  C386  1  0.994940  0.713500  0.669830  1.0  0.2205
  C  C387  1  0.969040  0.623120  0.599860  1.0  -0.1017
  C  C388  1  0.915460  0.688100  0.677570  1.0  0.3315
  C  C389  1  0.962800  0.657750  0.631140  1.0  0.3066
  C  C390  1  0.085400  0.785220  0.729170  1.0  0.1738
  C  C391  1  0.040670  0.767330  0.715550  1.0  -0.1188
  C  C392  1  0.082840  0.745150  0.662180  1.0  -0.1378
  C  C393  1  0.126980  0.763000  0.676740  1.0  0.1546
  C  C394  1  0.945950  0.553400  0.564270  1.0  0.189
  C  C395  1  0.935190  0.585850  0.592740  1.0  -0.1393
  C  C396  1  0.017010  0.594010  0.548290  1.0  0.1477
  C  C397  1  0.010460  0.628200  0.577200  1.0  -0.1172
  C  C398  1  0.866670  0.690390  0.697600  1.0  -0.0974
  C  C399  1  0.824670  0.665500  0.684650  1.0  -0.1332
  C  C400  1  0.863800  0.712200  0.730000  1.0  -0.082
  C  C401  1  0.813650  0.715800  0.748180  1.0  0.1595
  C  C402  1  0.780950  0.668100  0.704100  1.0  0.1732
  C  C403  1  0.959850  0.256600  0.683010  1.0  -0.0473
  C  C404  1  0.005060  0.286500  0.669830  1.0  0.2203
  C  C405  1  0.030960  0.376880  0.599860  1.0  -0.1013
  C  C406  1  0.084540  0.311900  0.677570  1.0  0.3318
  C  C407  1  0.037200  0.342250  0.631140  1.0  0.3067
  C  C408  1  0.914600  0.214780  0.729170  1.0  0.1738
  C  C409  1  0.959330  0.232670  0.715550  1.0  -0.1189
  C  C410  1  0.917160  0.254850  0.662180  1.0  -0.1365
  C  C411  1  0.873020  0.237000  0.676740  1.0  0.1558
  C  C412  1  0.054050  0.446600  0.564270  1.0  0.1903
  C  C413  1  0.064810  0.414150  0.592740  1.0  -0.1388
  C  C414  1  0.982990  0.405990  0.548290  1.0  0.1483
  C  C415  1  0.989540  0.371800  0.577200  1.0  -0.118
  C  C416  1  0.133330  0.309610  0.697600  1.0  -0.0979
  C  C417  1  0.175330  0.334500  0.684650  1.0  -0.1369
  C  C418  1  0.136200  0.287800  0.730000  1.0  -0.0831
  C  C419  1  0.186350  0.284200  0.748180  1.0  0.1618
  C  C420  1  0.219050  0.331900  0.704100  1.0  0.1736
  C  C421  1  0.256600  0.959850  0.316990  1.0  -0.0475
  C  C422  1  0.286500  0.005060  0.330170  1.0  0.2201
  C  C423  1  0.376880  0.030960  0.400140  1.0  -0.104
  C  C424  1  0.311900  0.084540  0.322430  1.0  0.3323
  C  C425  1  0.342250  0.037200  0.368860  1.0  0.3064
  C  C426  1  0.214780  0.914600  0.270830  1.0  0.1731
  C  C427  1  0.232670  0.959330  0.284450  1.0  -0.12
  C  C428  1  0.254850  0.917160  0.337820  1.0  -0.1347
  C  C429  1  0.237000  0.873020  0.323260  1.0  0.156
  C  C430  1  0.446600  0.054050  0.435730  1.0  0.1885
  C  C431  1  0.414150  0.064810  0.407260  1.0  -0.1409
  C  C432  1  0.405990  0.982990  0.451710  1.0  0.1493
  C  C433  1  0.371800  0.989540  0.422800  1.0  -0.1159
  C  C434  1  0.309610  0.133330  0.302400  1.0  -0.0954
  C  C435  1  0.334500  0.175330  0.315350  1.0  -0.1337
  C  C436  1  0.287800  0.136200  0.270000  1.0  -0.0834
  C  C437  1  0.284200  0.186350  0.251820  1.0  0.1597
  C  C438  1  0.331900  0.219050  0.295900  1.0  0.1722
  C  C439  1  0.743400  0.040150  0.316990  1.0  -0.0479
  C  C440  1  0.713500  0.994940  0.330170  1.0  0.2212
  C  C441  1  0.623120  0.969040  0.400140  1.0  -0.1032
  C  C442  1  0.688100  0.915460  0.322430  1.0  0.3324
  C  C443  1  0.657750  0.962800  0.368860  1.0  0.3058
  C  C444  1  0.785220  0.085400  0.270830  1.0  0.1718
  C  C445  1  0.767330  0.040670  0.284450  1.0  -0.1217
  C  C446  1  0.745150  0.082840  0.337820  1.0  -0.1355
  C  C447  1  0.763000  0.126980  0.323260  1.0  0.1548
  C  C448  1  0.553400  0.945950  0.435730  1.0  0.1888
  C  C449  1  0.585850  0.935190  0.407260  1.0  -0.1413
  C  C450  1  0.594010  0.017010  0.451710  1.0  0.1479
  C  C451  1  0.628200  0.010460  0.422800  1.0  -0.1162
  C  C452  1  0.690390  0.866670  0.302400  1.0  -0.0964
  C  C453  1  0.665500  0.824670  0.315350  1.0  -0.1323
  C  C454  1  0.712200  0.863800  0.270000  1.0  -0.085
  C  C455  1  0.715800  0.813650  0.251820  1.0  0.1529
  C  C456  1  0.668100  0.780950  0.295900  1.0  0.1721
  C  C457  1  0.459850  0.243400  0.816990  1.0  -0.0438
  C  C458  1  0.505060  0.213500  0.830170  1.0  0.2205
  C  C459  1  0.530960  0.123120  0.900140  1.0  -0.1021
  C  C460  1  0.584540  0.188100  0.822430  1.0  0.3322
  C  C461  1  0.537200  0.157750  0.868860  1.0  0.3067
  C  C462  1  0.414600  0.285220  0.770830  1.0  0.1741
  C  C463  1  0.459330  0.267330  0.784450  1.0  -0.1172
  C  C464  1  0.417160  0.245150  0.837820  1.0  -0.1364
  C  C465  1  0.373020  0.263000  0.823260  1.0  0.1552
  C  C466  1  0.554050  0.053400  0.935730  1.0  0.1902
  C  C467  1  0.564810  0.085850  0.907260  1.0  -0.1385
  C  C468  1  0.482990  0.094010  0.951710  1.0  0.1486
  C  C469  1  0.489540  0.128200  0.922800  1.0  -0.1173
  C  C470  1  0.633330  0.190390  0.802400  1.0  -0.097
  C  C471  1  0.675330  0.165500  0.815350  1.0  -0.1321
  C  C472  1  0.636200  0.212200  0.770000  1.0  -0.0831
  C  C473  1  0.686350  0.215800  0.751820  1.0  0.1612
  C  C474  1  0.719050  0.168100  0.795900  1.0  0.1727
  C  C475  1  0.540150  0.756600  0.816990  1.0  -0.0444
  C  C476  1  0.494940  0.786500  0.830170  1.0  0.2209
  C  C477  1  0.469040  0.876880  0.900140  1.0  -0.102
  C  C478  1  0.415460  0.811900  0.822430  1.0  0.3318
  C  C479  1  0.462800  0.842250  0.868860  1.0  0.3066
  C  C480  1  0.585400  0.714780  0.770830  1.0  0.1738
  C  C481  1  0.540670  0.732670  0.784450  1.0  -0.1182
  C  C482  1  0.582840  0.754850  0.837820  1.0  -0.1366
  C  C483  1  0.626980  0.737000  0.823260  1.0  0.1547
  C  C484  1  0.445950  0.946600  0.935730  1.0  0.1887
  C  C485  1  0.435190  0.914150  0.907260  1.0  -0.137
  C  C486  1  0.517010  0.905990  0.951710  1.0  0.1471
  C  C487  1  0.510460  0.871800  0.922800  1.0  -0.1178
  C  C488  1  0.366670  0.809610  0.802400  1.0  -0.0973
  C  C489  1  0.324670  0.834500  0.815350  1.0  -0.1328
  C  C490  1  0.363800  0.787800  0.770000  1.0  -0.0833
  C  C491  1  0.313650  0.784200  0.751820  1.0  0.1569
  C  C492  1  0.280950  0.831900  0.795900  1.0  0.1735
  C  C493  1  0.760300  0.760300  0.173100  1.0  0.2338
  C  C494  1  0.648600  0.648600  0.303800  1.0  0.2645
  C  C495  1  0.239700  0.239700  0.173100  1.0  0.2324
  C  C496  1  0.351400  0.351400  0.303800  1.0  0.2673
  C  C497  1  0.739700  0.260300  0.673100  1.0  0.2336
  C  C498  1  0.851400  0.148600  0.803800  1.0  0.2659
  C  C499  1  0.260300  0.739700  0.673100  1.0  0.2333
  C  C500  1  0.148600  0.851400  0.803800  1.0  0.2658
  C  C501  1  0.739700  0.260300  0.326900  1.0  0.234
  C  C502  1  0.851400  0.148600  0.196200  1.0  0.2625
  C  C503  1  0.260300  0.739700  0.326900  1.0  0.2346
  C  C504  1  0.148600  0.851400  0.196200  1.0  0.2634
  C  C505  1  0.760300  0.760300  0.826900  1.0  0.2348
  C  C506  1  0.648600  0.648600  0.696200  1.0  0.2616
  C  C507  1  0.239700  0.239700  0.826900  1.0  0.233
  C  C508  1  0.351400  0.351400  0.696200  1.0  0.2643
  C  C509  1  0.977400  0.620100  0.000000  1.0  0.2427
  C  C510  1  0.022600  0.379900  0.000000  1.0  0.2378
  C  C511  1  0.879900  0.477400  0.500000  1.0  0.2401
  C  C512  1  0.120100  0.522600  0.500000  1.0  0.241
  C  C513  1  0.522600  0.120100  0.500000  1.0  0.2429
  C  C514  1  0.477400  0.879900  0.500000  1.0  0.2373
  C  C515  1  0.620100  0.977400  0.000000  1.0  0.2406
  C  C516  1  0.379900  0.022600  0.000000  1.0  0.2405
  S  S517  1  0.792290  0.792290  0.143290  1.0  -0.2007
  S  S518  1  0.622300  0.622300  0.337680  1.0  -0.2033
  S  S519  1  0.207710  0.207710  0.143290  1.0  -0.2007
  S  S520  1  0.377700  0.377700  0.337680  1.0  -0.2043
  S  S521  1  0.707710  0.292290  0.643290  1.0  -0.2008
  S  S522  1  0.877700  0.122300  0.837680  1.0  -0.212
  S  S523  1  0.292290  0.707710  0.643290  1.0  -0.2006
  S  S524  1  0.122300  0.877700  0.837680  1.0  -0.2113
  S  S525  1  0.707710  0.292290  0.356710  1.0  -0.1999
  S  S526  1  0.877700  0.122300  0.162320  1.0  -0.2107
  S  S527  1  0.292290  0.707710  0.356710  1.0  -0.2019
  S  S528  1  0.122300  0.877700  0.162320  1.0  -0.212
  S  S529  1  0.792290  0.792290  0.856710  1.0  -0.1999
  S  S530  1  0.622300  0.622300  0.662320  1.0  -0.2036
  S  S531  1  0.207710  0.207710  0.856710  1.0  -0.2012
  S  S532  1  0.377700  0.377700  0.662320  1.0  -0.2047
  S  S533  1  0.972400  0.680070  0.000000  1.0  -0.1873
  S  S534  1  0.027600  0.319930  0.000000  1.0  -0.1871
  S  S535  1  0.819930  0.472400  0.500000  1.0  -0.1846
  S  S536  1  0.180070  0.527600  0.500000  1.0  -0.1828
  S  S537  1  0.527600  0.180070  0.500000  1.0  -0.1871
  S  S538  1  0.472400  0.819930  0.500000  1.0  -0.1871
  S  S539  1  0.680070  0.972400  0.000000  1.0  -0.1829
  S  S540  1  0.319930  0.027600  0.000000  1.0  -0.1845
  N  N541  1  0.843370  0.418090  0.851270  1.0  -0.4674
  N  N542  1  0.715830  0.630070  0.789020  1.0  -0.3444
  N  N543  1  0.813280  0.500760  0.860330  1.0  -0.4279
  N  N544  1  0.945030  0.485990  0.957110  1.0  -0.3046
  N  N545  1  0.783740  0.452210  0.809920  1.0  -0.2843
  N  N546  1  0.805400  0.274510  0.764880  1.0  -0.3131
  N  N547  1  0.156630  0.581910  0.851270  1.0  -0.4654
  N  N548  1  0.284170  0.369930  0.789020  1.0  -0.3439
  N  N549  1  0.186720  0.499240  0.860330  1.0  -0.4384
  N  N550  1  0.054970  0.514010  0.957110  1.0  -0.3075
  N  N551  1  0.216260  0.547790  0.809920  1.0  -0.2825
  N  N552  1  0.194600  0.725490  0.764880  1.0  -0.3146
  N  N553  1  0.081910  0.343370  0.351270  1.0  -0.4684
  N  N554  1  0.869930  0.215830  0.289020  1.0  -0.3438
  N  N555  1  0.999240  0.313280  0.360330  1.0  -0.4354
  N  N556  1  0.014010  0.445030  0.457110  1.0  -0.3109
  N  N557  1  0.047790  0.283740  0.309920  1.0  -0.2843
  N  N558  1  0.225490  0.305400  0.264880  1.0  -0.3085
  N  N559  1  0.918090  0.656630  0.351270  1.0  -0.4666
  N  N560  1  0.130070  0.784170  0.289020  1.0  -0.3443
  N  N561  1  0.000760  0.686720  0.360330  1.0  -0.4249
  N  N562  1  0.985990  0.554970  0.457110  1.0  -0.3096
  N  N563  1  0.952210  0.716260  0.309920  1.0  -0.2809
  N  N564  1  0.774510  0.694600  0.264880  1.0  -0.3097
  N  N565  1  0.656630  0.918090  0.648730  1.0  -0.4656
  N  N566  1  0.784170  0.130070  0.710980  1.0  -0.345
  N  N567  1  0.686720  0.000760  0.639670  1.0  -0.4261
  N  N568  1  0.554970  0.985990  0.542890  1.0  -0.3076
  N  N569  1  0.716260  0.952210  0.690080  1.0  -0.2788
  N  N570  1  0.694600  0.774510  0.735120  1.0  -0.3146
  N  N571  1  0.343370  0.081910  0.648730  1.0  -0.4675
  N  N572  1  0.215830  0.869930  0.710980  1.0  -0.3455
  N  N573  1  0.313280  0.999240  0.639670  1.0  -0.4359
  N  N574  1  0.445030  0.014010  0.542890  1.0  -0.3054
  N  N575  1  0.283740  0.047790  0.690080  1.0  -0.2824
  N  N576  1  0.305400  0.225490  0.735120  1.0  -0.3159
  N  N577  1  0.418090  0.843370  0.148730  1.0  -0.4672
  N  N578  1  0.630070  0.715830  0.210980  1.0  -0.3455
  N  N579  1  0.500760  0.813280  0.139670  1.0  -0.431
  N  N580  1  0.485990  0.945030  0.042890  1.0  -0.3092
  N  N581  1  0.452210  0.783740  0.190080  1.0  -0.2814
  N  N582  1  0.274510  0.805400  0.235120  1.0  -0.3103
  N  N583  1  0.581910  0.156630  0.148730  1.0  -0.469
  N  N584  1  0.369930  0.284170  0.210980  1.0  -0.3449
  N  N585  1  0.499240  0.186720  0.139670  1.0  -0.4383
  N  N586  1  0.514010  0.054970  0.042890  1.0  -0.3087
  N  N587  1  0.547790  0.216260  0.190080  1.0  -0.2763
  N  N588  1  0.725490  0.194600  0.235120  1.0  -0.3092
  N  N589  1  0.156630  0.581910  0.148730  1.0  -0.4657
  N  N590  1  0.284170  0.369930  0.210980  1.0  -0.3452
  N  N591  1  0.186720  0.499240  0.139670  1.0  -0.4387
  N  N592  1  0.054970  0.514010  0.042890  1.0  -0.3077
  N  N593  1  0.216260  0.547790  0.190080  1.0  -0.279
  N  N594  1  0.194600  0.725490  0.235120  1.0  -0.3156
  N  N595  1  0.843370  0.418090  0.148730  1.0  -0.468
  N  N596  1  0.715830  0.630070  0.210980  1.0  -0.3454
  N  N597  1  0.813280  0.500760  0.139670  1.0  -0.4306
  N  N598  1  0.945030  0.485990  0.042890  1.0  -0.3053
  N  N599  1  0.783740  0.452210  0.190080  1.0  -0.2814
  N  N600  1  0.805400  0.274510  0.235120  1.0  -0.3143
  N  N601  1  0.918090  0.656630  0.648730  1.0  -0.4667
  N  N602  1  0.130070  0.784170  0.710980  1.0  -0.3457
  N  N603  1  0.000760  0.686720  0.639670  1.0  -0.4278
  N  N604  1  0.985990  0.554970  0.542890  1.0  -0.31
  N  N605  1  0.952210  0.716260  0.690080  1.0  -0.2779
  N  N606  1  0.774510  0.694600  0.735120  1.0  -0.3103
  N  N607  1  0.081910  0.343370  0.648730  1.0  -0.4686
  N  N608  1  0.869930  0.215830  0.710980  1.0  -0.3448
  N  N609  1  0.999240  0.313280  0.639670  1.0  -0.4358
  N  N610  1  0.014010  0.445030  0.542890  1.0  -0.3087
  N  N611  1  0.047790  0.283740  0.690080  1.0  -0.2817
  N  N612  1  0.225490  0.305400  0.735120  1.0  -0.3094
  N  N613  1  0.343370  0.081910  0.351270  1.0  -0.4673
  N  N614  1  0.215830  0.869930  0.289020  1.0  -0.3445
  N  N615  1  0.313280  0.999240  0.360330  1.0  -0.4352
  N  N616  1  0.445030  0.014010  0.457110  1.0  -0.3069
  N  N617  1  0.283740  0.047790  0.309920  1.0  -0.2844
  N  N618  1  0.305400  0.225490  0.264880  1.0  -0.3148
  N  N619  1  0.656630  0.918090  0.351270  1.0  -0.4653
  N  N620  1  0.784170  0.130070  0.289020  1.0  -0.3439
  N  N621  1  0.686720  0.000760  0.360330  1.0  -0.4235
  N  N622  1  0.554970  0.985990  0.457110  1.0  -0.3073
  N  N623  1  0.716260  0.952210  0.309920  1.0  -0.2823
  N  N624  1  0.694600  0.774510  0.264880  1.0  -0.3133
  N  N625  1  0.581910  0.156630  0.851270  1.0  -0.4681
  N  N626  1  0.369930  0.284170  0.789020  1.0  -0.3436
  N  N627  1  0.499240  0.186720  0.860330  1.0  -0.4392
  N  N628  1  0.514010  0.054970  0.957110  1.0  -0.3088
  N  N629  1  0.547790  0.216260  0.809920  1.0  -0.2804
  N  N630  1  0.725490  0.194600  0.764880  1.0  -0.3084
  N  N631  1  0.418090  0.843370  0.851270  1.0  -0.467
  N  N632  1  0.630070  0.715830  0.789020  1.0  -0.3443
  N  N633  1  0.500760  0.813280  0.860330  1.0  -0.4277
  N  N634  1  0.485990  0.945030  0.957110  1.0  -0.3092
  N  N635  1  0.452210  0.783740  0.809920  1.0  -0.2847
  N  N636  1  0.274510  0.805400  0.764880  1.0  -0.3096
  N  N637  1  0.666400  0.666400  0.279380  1.0  -0.3918
  N  N638  1  0.737700  0.737700  0.194800  1.0  -0.4307
  N  N639  1  0.333600  0.333600  0.279380  1.0  -0.3894
  N  N640  1  0.262300  0.262300  0.194800  1.0  -0.4301
  N  N641  1  0.833600  0.166400  0.779380  1.0  -0.3897
  N  N642  1  0.762300  0.237700  0.694800  1.0  -0.4307
  N  N643  1  0.166400  0.833600  0.779380  1.0  -0.3919
  N  N644  1  0.237700  0.762300  0.694800  1.0  -0.4299
  N  N645  1  0.833600  0.166400  0.220620  1.0  -0.3894
  N  N646  1  0.762300  0.237700  0.305200  1.0  -0.4318
  N  N647  1  0.166400  0.833600  0.220620  1.0  -0.3904
  N  N648  1  0.237700  0.762300  0.305200  1.0  -0.4287
  N  N649  1  0.666400  0.666400  0.720620  1.0  -0.3904
  N  N650  1  0.737700  0.737700  0.805200  1.0  -0.43
  N  N651  1  0.333600  0.333600  0.720620  1.0  -0.3893
  N  N652  1  0.262300  0.262300  0.805200  1.0  -0.4305
  N  N653  1  0.980270  0.575570  0.000000  1.0  -0.3516
  N  N654  1  0.019730  0.424430  0.000000  1.0  -0.3547
  N  N655  1  0.924430  0.480270  0.500000  1.0  -0.3451
  N  N656  1  0.075570  0.519730  0.500000  1.0  -0.3447
  N  N657  1  0.519730  0.075570  0.500000  1.0  -0.3508
  N  N658  1  0.480270  0.924430  0.500000  1.0  -0.3553
  N  N659  1  0.575570  0.980270  0.000000  1.0  -0.344
  N  N660  1  0.424430  0.019730  0.000000  1.0  -0.3454
