# generated using pymatgen
data_CaCd2H12(C2O)12
_symmetry_space_group_name_H-M   'P 1'
_cell_length_a   24.93400000
_cell_length_b   13.22750000
_cell_length_c   16.23400000
_cell_angle_alpha   90.00000000
_cell_angle_beta   127.52000000
_cell_angle_gamma   90.00000000
_symmetry_Int_Tables_number   1
_chemical_formula_structural   CaCd2H12(C2O)12
_chemical_formula_sum   'Ca4 Cd8 H48 C96 O48'
_cell_volume   4246.64106228
_cell_formula_units_Z   4
loop_
 _symmetry_equiv_pos_site_id
 _symmetry_equiv_pos_as_xyz
  1  'x, y, z'
loop_
 _atom_site_type_symbol
 _atom_site_label
 _atom_site_symmetry_multiplicity
 _atom_site_fract_x
 _atom_site_fract_y
 _atom_site_fract_z
 _atom_site_occupancy
 _atom_site_charge
  Ca  Ca1  1  0.000000  0.289590  0.250000  1.0  1.5534
  Ca  Ca2  1  0.500000  0.789590  0.250000  1.0  1.5534
  Ca  Ca3  1  0.000000  0.710410  0.750000  1.0  1.5529
  Ca  Ca4  1  0.500000  0.210410  0.750000  1.0  1.5529
  Cd  Cd5  1  0.171450  0.200280  0.382570  1.0  1.098
  Cd  Cd6  1  0.671450  0.700280  0.382570  1.0  1.098
  Cd  Cd7  1  0.828550  0.200280  0.117430  1.0  1.0957
  Cd  Cd8  1  0.328550  0.700280  0.117430  1.0  1.0957
  Cd  Cd9  1  0.828550  0.799720  0.617430  1.0  1.0981
  Cd  Cd10  1  0.328550  0.299720  0.617430  1.0  1.0981
  Cd  Cd11  1  0.171450  0.799720  0.882570  1.0  1.0951
  Cd  Cd12  1  0.671450  0.299720  0.882570  1.0  1.0951
  H  H13  1  0.048600  0.371300  0.495400  1.0  0.13
  H  H14  1  0.036500  0.502000  0.580500  1.0  0.1193
  H  H15  1  0.236000  0.531200  0.774200  1.0  0.1149
  H  H16  1  0.244400  0.418700  0.673500  1.0  0.1073
  H  H17  1  0.946100  0.087700  0.053400  1.0  0.1148
  H  H18  1  0.115800  0.004700  0.099200  1.0  0.1147
  H  H19  1  0.548600  0.871300  0.495400  1.0  0.13
  H  H20  1  0.536500  0.002000  0.580500  1.0  0.1193
  H  H21  1  0.736000  0.031200  0.774200  1.0  0.1149
  H  H22  1  0.744400  0.918700  0.673500  1.0  0.1073
  H  H23  1  0.446100  0.587700  0.053400  1.0  0.1148
  H  H24  1  0.615800  0.504700  0.099200  1.0  0.115
  H  H25  1  0.951400  0.371300  0.004600  1.0  0.1297
  H  H26  1  0.963500  0.502000  0.919500  1.0  0.1182
  H  H27  1  0.764000  0.531200  0.725800  1.0  0.1152
  H  H28  1  0.755600  0.418700  0.826500  1.0  0.1072
  H  H29  1  0.053900  0.087700  0.446600  1.0  0.1147
  H  H30  1  0.884200  0.004700  0.400800  1.0  0.115
  H  H31  1  0.451400  0.871300  0.004600  1.0  0.1297
  H  H32  1  0.463500  0.002000  0.919500  1.0  0.1182
  H  H33  1  0.264000  0.031200  0.725800  1.0  0.1152
  H  H34  1  0.255600  0.918700  0.826500  1.0  0.1072
  H  H35  1  0.553900  0.587700  0.446600  1.0  0.1147
  H  H36  1  0.384200  0.504700  0.400800  1.0  0.1155
  H  H37  1  0.951400  0.628700  0.504600  1.0  0.1298
  H  H38  1  0.963500  0.498000  0.419500  1.0  0.1169
  H  H39  1  0.764000  0.468800  0.225800  1.0  0.1153
  H  H40  1  0.755600  0.581300  0.326500  1.0  0.107
  H  H41  1  0.053900  0.912300  0.946600  1.0  0.1145
  H  H42  1  0.884200  0.995300  0.900800  1.0  0.1142
  H  H43  1  0.451400  0.128700  0.504600  1.0  0.1298
  H  H44  1  0.463500  0.998000  0.419500  1.0  0.1169
  H  H45  1  0.264000  0.968800  0.225800  1.0  0.1153
  H  H46  1  0.255600  0.081300  0.326500  1.0  0.107
  H  H47  1  0.553900  0.412300  0.946600  1.0  0.1145
  H  H48  1  0.384200  0.495300  0.900800  1.0  0.1143
  H  H49  1  0.048600  0.628700  0.995400  1.0  0.1299
  H  H50  1  0.036500  0.498000  0.080500  1.0  0.1177
  H  H51  1  0.236000  0.468800  0.274200  1.0  0.1151
  H  H52  1  0.244400  0.581300  0.173500  1.0  0.1073
  H  H53  1  0.946100  0.912300  0.553400  1.0  0.1147
  H  H54  1  0.115800  0.995300  0.599200  1.0  0.1137
  H  H55  1  0.548600  0.128700  0.995400  1.0  0.1299
  H  H56  1  0.536500  0.998000  0.080500  1.0  0.1177
  H  H57  1  0.736000  0.968800  0.274200  1.0  0.1151
  H  H58  1  0.744400  0.081300  0.173500  1.0  0.1073
  H  H59  1  0.446100  0.412300  0.553400  1.0  0.1147
  H  H60  1  0.615800  0.495300  0.599200  1.0  0.1138
  C  C61  1  0.146900  0.395200  0.567200  1.0  -0.1011
  C  C62  1  0.085700  0.410100  0.545500  1.0  -0.1919
  C  C63  1  0.079300  0.486200  0.600500  1.0  -0.1096
  C  C64  1  0.135600  0.538100  0.684100  1.0  -0.1053
  C  C65  1  0.196700  0.506300  0.713300  1.0  -0.038
  C  C66  1  0.201800  0.436600  0.653200  1.0  -0.0563
  C  C67  1  0.153100  0.323900  0.502700  1.0  0.7096
  C  C68  1  0.127900  0.614900  0.743400  1.0  0.7436
  C  C69  1  0.077800  0.106100  0.195800  1.0  0.7448
  C  C70  1  0.037600  0.051600  0.094800  1.0  -0.1321
  C  C71  1  0.968300  0.051700  0.033100  1.0  -0.0478
  C  C72  1  0.068900  0.002200  0.060000  1.0  -0.0325
  C  C73  1  0.646900  0.895200  0.567200  1.0  -0.1011
  C  C74  1  0.585700  0.910100  0.545500  1.0  -0.1919
  C  C75  1  0.579300  0.986200  0.600500  1.0  -0.1096
  C  C76  1  0.635600  0.038100  0.684100  1.0  -0.1053
  C  C77  1  0.696700  0.006300  0.713300  1.0  -0.038
  C  C78  1  0.701800  0.936600  0.653200  1.0  -0.0563
  C  C79  1  0.653100  0.823900  0.502700  1.0  0.7096
  C  C80  1  0.627900  0.114900  0.743400  1.0  0.7436
  C  C81  1  0.577800  0.606100  0.195800  1.0  0.7448
  C  C82  1  0.537600  0.551600  0.094800  1.0  -0.1321
  C  C83  1  0.468300  0.551700  0.033100  1.0  -0.0478
  C  C84  1  0.568900  0.502200  0.060000  1.0  -0.0325
  C  C85  1  0.853100  0.395200  0.932800  1.0  -0.1016
  C  C86  1  0.914300  0.410100  0.954500  1.0  -0.1923
  C  C87  1  0.920700  0.486200  0.899500  1.0  -0.1089
  C  C88  1  0.864400  0.538100  0.815900  1.0  -0.1045
  C  C89  1  0.803300  0.506300  0.786700  1.0  -0.0378
  C  C90  1  0.798200  0.436600  0.846800  1.0  -0.0578
  C  C91  1  0.846900  0.323900  0.997300  1.0  0.7081
  C  C92  1  0.872100  0.614900  0.756600  1.0  0.7441
  C  C93  1  0.922200  0.106100  0.304200  1.0  0.7448
  C  C94  1  0.962400  0.051600  0.405200  1.0  -0.1321
  C  C95  1  0.031700  0.051700  0.466900  1.0  -0.0488
  C  C96  1  0.931100  0.002200  0.440000  1.0  -0.0332
  C  C97  1  0.353100  0.895200  0.932800  1.0  -0.1016
  C  C98  1  0.414300  0.910100  0.954500  1.0  -0.1923
  C  C99  1  0.420700  0.986200  0.899500  1.0  -0.1089
  C  C100  1  0.364400  0.038100  0.815900  1.0  -0.1045
  C  C101  1  0.303300  0.006300  0.786700  1.0  -0.0378
  C  C102  1  0.298200  0.936600  0.846800  1.0  -0.0578
  C  C103  1  0.346900  0.823900  0.997300  1.0  0.7081
  C  C104  1  0.372100  0.114900  0.756600  1.0  0.7441
  C  C105  1  0.422200  0.606100  0.304200  1.0  0.7448
  C  C106  1  0.462400  0.551600  0.405200  1.0  -0.1321
  C  C107  1  0.531700  0.551700  0.466900  1.0  -0.0488
  C  C108  1  0.431100  0.502200  0.440000  1.0  -0.0332
  C  C109  1  0.853100  0.604800  0.432800  1.0  -0.1017
  C  C110  1  0.914300  0.589900  0.454500  1.0  -0.191
  C  C111  1  0.920700  0.513800  0.399500  1.0  -0.1097
  C  C112  1  0.864400  0.461900  0.315900  1.0  -0.1031
  C  C113  1  0.803300  0.493700  0.286700  1.0  -0.0375
  C  C114  1  0.798200  0.563400  0.346800  1.0  -0.0575
  C  C115  1  0.846900  0.676100  0.497300  1.0  0.708
  C  C116  1  0.872100  0.385100  0.256600  1.0  0.7445
  C  C117  1  0.922200  0.893900  0.804200  1.0  0.745
  C  C118  1  0.962400  0.948400  0.905200  1.0  -0.1325
  C  C119  1  0.031700  0.948300  0.966900  1.0  -0.0462
  C  C120  1  0.931100  0.997800  0.940000  1.0  -0.0333
  C  C121  1  0.353100  0.104800  0.432800  1.0  -0.1017
  C  C122  1  0.414300  0.089900  0.454500  1.0  -0.191
  C  C123  1  0.420700  0.013800  0.399500  1.0  -0.1097
  C  C124  1  0.364400  0.961900  0.315900  1.0  -0.1031
  C  C125  1  0.303300  0.993700  0.286700  1.0  -0.0375
  C  C126  1  0.298200  0.063400  0.346800  1.0  -0.0575
  C  C127  1  0.346900  0.176100  0.497300  1.0  0.708
  C  C128  1  0.372100  0.885100  0.256600  1.0  0.7445
  C  C129  1  0.422200  0.393900  0.804200  1.0  0.745
  C  C130  1  0.462400  0.448400  0.905200  1.0  -0.1325
  C  C131  1  0.531700  0.448300  0.966900  1.0  -0.0462
  C  C132  1  0.431100  0.497800  0.940000  1.0  -0.0333
  C  C133  1  0.146900  0.604800  0.067200  1.0  -0.1008
  C  C134  1  0.085700  0.589900  0.045500  1.0  -0.1911
  C  C135  1  0.079300  0.513800  0.100500  1.0  -0.1111
  C  C136  1  0.135600  0.461900  0.184100  1.0  -0.1037
  C  C137  1  0.196700  0.493700  0.213300  1.0  -0.0376
  C  C138  1  0.201800  0.563400  0.153200  1.0  -0.0561
  C  C139  1  0.153100  0.676100  0.002700  1.0  0.7099
  C  C140  1  0.127900  0.385100  0.243400  1.0  0.7441
  C  C141  1  0.077800  0.893900  0.695800  1.0  0.7448
  C  C142  1  0.037600  0.948400  0.594800  1.0  -0.1321
  C  C143  1  0.968300  0.948300  0.533100  1.0  -0.0445
  C  C144  1  0.068900  0.997800  0.560000  1.0  -0.0327
  C  C145  1  0.646900  0.104800  0.067200  1.0  -0.1008
  C  C146  1  0.585700  0.089900  0.045500  1.0  -0.1911
  C  C147  1  0.579300  0.013800  0.100500  1.0  -0.1111
  C  C148  1  0.635600  0.961900  0.184100  1.0  -0.1037
  C  C149  1  0.696700  0.993700  0.213300  1.0  -0.0376
  C  C150  1  0.701800  0.063400  0.153200  1.0  -0.0561
  C  C151  1  0.653100  0.176100  0.002700  1.0  0.7099
  C  C152  1  0.627900  0.885100  0.243400  1.0  0.7441
  C  C153  1  0.577800  0.393900  0.695800  1.0  0.7448
  C  C154  1  0.537600  0.448400  0.594800  1.0  -0.1321
  C  C155  1  0.468300  0.448300  0.533100  1.0  -0.0445
  C  C156  1  0.568900  0.497800  0.560000  1.0  -0.0327
  O  O157  1  0.100060  0.286300  0.421700  1.0  -0.7124
  O  O158  1  0.210670  0.299000  0.530800  1.0  -0.7154
  O  O159  1  0.180560  0.653100  0.820000  1.0  -0.5826
  O  O160  1  0.069800  0.638100  0.709800  1.0  -0.6726
  O  O161  1  0.142100  0.103700  0.249200  1.0  -0.595
  O  O162  1  0.049680  0.149700  0.226800  1.0  -0.6777
  O  O163  1  0.600060  0.786300  0.421700  1.0  -0.7124
  O  O164  1  0.710670  0.799000  0.530800  1.0  -0.7154
  O  O165  1  0.680560  0.153100  0.820000  1.0  -0.5826
  O  O166  1  0.569800  0.138100  0.709800  1.0  -0.6726
  O  O167  1  0.642100  0.603700  0.249200  1.0  -0.595
  O  O168  1  0.549680  0.649700  0.226800  1.0  -0.6777
  O  O169  1  0.899940  0.286300  0.078300  1.0  -0.7127
  O  O170  1  0.789330  0.299000  0.969200  1.0  -0.7173
  O  O171  1  0.819440  0.653100  0.680000  1.0  -0.5825
  O  O172  1  0.930200  0.638100  0.790200  1.0  -0.6726
  O  O173  1  0.857900  0.103700  0.250800  1.0  -0.5957
  O  O174  1  0.950320  0.149700  0.273200  1.0  -0.6758
  O  O175  1  0.399940  0.786300  0.078300  1.0  -0.7127
  O  O176  1  0.289330  0.799000  0.969200  1.0  -0.7173
  O  O177  1  0.319440  0.153100  0.680000  1.0  -0.5825
  O  O178  1  0.430200  0.138100  0.790200  1.0  -0.6726
  O  O179  1  0.357900  0.603700  0.250800  1.0  -0.5957
  O  O180  1  0.450320  0.649700  0.273200  1.0  -0.6758
  O  O181  1  0.899940  0.713700  0.578300  1.0  -0.7122
  O  O182  1  0.789330  0.701000  0.469200  1.0  -0.7172
  O  O183  1  0.819440  0.346900  0.180000  1.0  -0.5826
  O  O184  1  0.930200  0.361900  0.290200  1.0  -0.6747
  O  O185  1  0.857900  0.896300  0.750800  1.0  -0.5945
  O  O186  1  0.950320  0.850300  0.773200  1.0  -0.6755
  O  O187  1  0.399940  0.213700  0.578300  1.0  -0.7122
  O  O188  1  0.289330  0.201000  0.469200  1.0  -0.7172
  O  O189  1  0.319440  0.846900  0.180000  1.0  -0.5826
  O  O190  1  0.430200  0.861900  0.290200  1.0  -0.6747
  O  O191  1  0.357900  0.396300  0.750800  1.0  -0.5945
  O  O192  1  0.450320  0.350300  0.773200  1.0  -0.6755
  O  O193  1  0.100060  0.713700  0.921700  1.0  -0.7119
  O  O194  1  0.210670  0.701000  0.030800  1.0  -0.7158
  O  O195  1  0.180560  0.346900  0.320000  1.0  -0.5829
  O  O196  1  0.069800  0.361900  0.209800  1.0  -0.6752
  O  O197  1  0.142100  0.896300  0.749200  1.0  -0.5942
  O  O198  1  0.049680  0.850300  0.726800  1.0  -0.6789
  O  O199  1  0.600060  0.213700  0.921700  1.0  -0.7119
  O  O200  1  0.710670  0.201000  0.030800  1.0  -0.7158
  O  O201  1  0.680560  0.846900  0.320000  1.0  -0.5829
  O  O202  1  0.569800  0.861900  0.209800  1.0  -0.6752
  O  O203  1  0.642100  0.396300  0.749200  1.0  -0.5942
  O  O204  1  0.549680  0.350300  0.726800  1.0  -0.6789
