# generated using pymatgen
data_Cu2C3(SN)3
_symmetry_space_group_name_H-M   'P 1'
_cell_length_a   11.23800000
_cell_length_b   11.64400000
_cell_length_c   10.02000000
_cell_angle_alpha   90.00000000
_cell_angle_beta   102.67000000
_cell_angle_gamma   90.00000000
_symmetry_Int_Tables_number   1
_chemical_formula_structural   Cu2C3(SN)3
_chemical_formula_sum   'Cu8 C12 S12 N12'
_cell_volume   1279.24221269
_cell_formula_units_Z   4
loop_
 _symmetry_equiv_pos_site_id
 _symmetry_equiv_pos_as_xyz
  1  'x, y, z'
loop_
 _atom_site_type_symbol
 _atom_site_label
 _atom_site_symmetry_multiplicity
 _atom_site_fract_x
 _atom_site_fract_y
 _atom_site_fract_z
 _atom_site_occupancy
 _atom_site_charge
  Cu  Cu1  1  0.250000  0.574500  0.250000  1.0  0.2403
  Cu  Cu2  1  0.431000  0.404800  0.293400  1.0  0.3975
  Cu  Cu3  1  0.750000  0.074500  0.250000  1.0  0.2403
  Cu  Cu4  1  0.931000  0.904800  0.293400  1.0  0.3975
  Cu  Cu5  1  0.250000  0.425500  0.750000  1.0  0.2414
  Cu  Cu6  1  0.431000  0.595200  0.793400  1.0  0.3963
  Cu  Cu7  1  0.750000  0.925500  0.750000  1.0  0.2414
  Cu  Cu8  1  0.931000  0.095200  0.793400  1.0  0.3963
  C  C9  1  0.071900  0.758200  0.123900  1.0  0.3853
  C  C10  1  0.212700  0.380100  0.038600  1.0  0.306
  C  C11  1  0.464000  0.616000  0.103100  1.0  0.33
  C  C12  1  0.571900  0.258200  0.123900  1.0  0.3853
  C  C13  1  0.712700  0.880100  0.038600  1.0  0.3062
  C  C14  1  0.964000  0.116000  0.103100  1.0  0.3301
  C  C15  1  0.071900  0.241800  0.623900  1.0  0.3849
  C  C16  1  0.212700  0.619900  0.538600  1.0  0.3057
  C  C17  1  0.464000  0.384000  0.603100  1.0  0.3296
  C  C18  1  0.571900  0.741800  0.623900  1.0  0.3849
  C  C19  1  0.712700  0.119900  0.538600  1.0  0.3058
  C  C20  1  0.964000  0.884000  0.603100  1.0  0.3295
  S  S21  1  0.158400  0.674800  0.054500  1.0  -0.1915
  S  S22  1  0.208500  0.372700  0.203200  1.0  -0.1816
  S  S23  1  0.468100  0.608500  0.269400  1.0  -0.2121
  S  S24  1  0.658400  0.174800  0.054500  1.0  -0.1915
  S  S25  1  0.708500  0.872700  0.203200  1.0  -0.1816
  S  S26  1  0.968100  0.108500  0.269400  1.0  -0.2121
  S  S27  1  0.158400  0.325200  0.554500  1.0  -0.1917
  S  S28  1  0.208500  0.627300  0.703200  1.0  -0.1815
  S  S29  1  0.468100  0.391500  0.769400  1.0  -0.2124
  S  S30  1  0.658400  0.825200  0.554500  1.0  -0.1917
  S  S31  1  0.708500  0.127300  0.703200  1.0  -0.1815
  S  S32  1  0.968100  0.891500  0.769400  1.0  -0.2124
  N  N33  1  0.013500  0.817500  0.174600  1.0  -0.3623
  N  N34  1  0.216200  0.385700  0.924600  1.0  -0.3598
  N  N35  1  0.463500  0.620100  0.989000  1.0  -0.3468
  N  N36  1  0.513500  0.317500  0.174600  1.0  -0.3599
  N  N37  1  0.716200  0.885700  0.924600  1.0  -0.3598
  N  N38  1  0.963500  0.120100  0.989000  1.0  -0.3468
  N  N39  1  0.013500  0.182500  0.674600  1.0  -0.3619
  N  N40  1  0.216200  0.614300  0.424600  1.0  -0.361
  N  N41  1  0.463500  0.379900  0.489000  1.0  -0.3567
  N  N42  1  0.513500  0.682500  0.674600  1.0  -0.3595
  N  N43  1  0.716200  0.114300  0.424600  1.0  -0.361
  N  N44  1  0.963500  0.879900  0.489000  1.0  -0.3567
