# generated using pymatgen
data_LiP2C6(NF)6
_symmetry_space_group_name_H-M   'P 1'
_cell_length_a   10.50140000
_cell_length_b   10.50140000
_cell_length_c   21.47000000
_cell_angle_alpha   90.00000000
_cell_angle_beta   90.00000000
_cell_angle_gamma   90.00000000
_symmetry_Int_Tables_number   1
_chemical_formula_structural   LiP2C6(NF)6
_chemical_formula_sum   'Li4 P8 C24 N24 F24'
_cell_volume   2367.69876008
_cell_formula_units_Z   4
loop_
 _symmetry_equiv_pos_site_id
 _symmetry_equiv_pos_as_xyz
  1  'x, y, z'
loop_
 _atom_site_type_symbol
 _atom_site_label
 _atom_site_symmetry_multiplicity
 _atom_site_fract_x
 _atom_site_fract_y
 _atom_site_fract_z
 _atom_site_occupancy
 _atom_site_charge
  Li  Li1  1  0.500000  0.250000  0.375000  1.0  0.7797
  Li  Li2  1  0.000000  0.750000  0.875000  1.0  0.7797
  Li  Li3  1  0.500000  0.750000  0.625000  1.0  0.7797
  Li  Li4  1  0.000000  0.250000  0.125000  1.0  0.7797
  P  P5  1  0.500000  0.750000  0.382730  1.0  1.4279
  P  P6  1  0.000000  0.250000  0.882730  1.0  1.4279
  P  P7  1  0.000000  0.750000  0.632730  1.0  1.4279
  P  P8  1  0.500000  0.250000  0.132730  1.0  1.4279
  P  P9  1  0.500000  0.250000  0.617270  1.0  1.4279
  P  P10  1  0.000000  0.750000  0.117270  1.0  1.4279
  P  P11  1  0.000000  0.250000  0.367270  1.0  1.4279
  P  P12  1  0.500000  0.750000  0.867270  1.0  1.4279
  C  C13  1  0.503330  0.925940  0.381990  1.0  0.2253
  C  C14  1  0.003330  0.425940  0.881990  1.0  0.2253
  C  C15  1  0.996670  0.074060  0.881990  1.0  0.2254
  C  C16  1  0.496670  0.574060  0.381990  1.0  0.2254
  C  C17  1  0.824060  0.753330  0.631990  1.0  0.2264
  C  C18  1  0.324060  0.253330  0.131990  1.0  0.2264
  C  C19  1  0.675940  0.246670  0.131990  1.0  0.2261
  C  C20  1  0.175940  0.746670  0.631990  1.0  0.2261
  C  C21  1  0.496670  0.074060  0.618010  1.0  0.2252
  C  C22  1  0.996670  0.574060  0.118010  1.0  0.2252
  C  C23  1  0.003330  0.925940  0.118010  1.0  0.2254
  C  C24  1  0.503330  0.425940  0.618010  1.0  0.2254
  C  C25  1  0.175940  0.246670  0.368010  1.0  0.2263
  C  C26  1  0.675940  0.746670  0.868010  1.0  0.2263
  C  C27  1  0.324060  0.753330  0.868010  1.0  0.2264
  C  C28  1  0.824060  0.253330  0.368010  1.0  0.2264
  C  C29  1  0.500000  0.750000  0.468560  1.0  0.1942
  C  C30  1  0.000000  0.250000  0.968560  1.0  0.1942
  C  C31  1  0.000000  0.750000  0.718560  1.0  0.1942
  C  C32  1  0.500000  0.250000  0.218560  1.0  0.1942
  C  C33  1  0.500000  0.250000  0.531440  1.0  0.1938
  C  C34  1  0.000000  0.750000  0.031440  1.0  0.1938
  C  C35  1  0.000000  0.250000  0.281440  1.0  0.1938
  C  C36  1  0.500000  0.750000  0.781440  1.0  0.1938
  N  N37  1  0.505200  0.035150  0.380190  1.0  -0.452
  N  N38  1  0.005200  0.535150  0.880190  1.0  -0.452
  N  N39  1  0.994800  0.964850  0.880190  1.0  -0.4519
  N  N40  1  0.494800  0.464850  0.380190  1.0  -0.4519
  N  N41  1  0.714850  0.755200  0.630190  1.0  -0.4502
  N  N42  1  0.214850  0.255200  0.130190  1.0  -0.4502
  N  N43  1  0.785150  0.244800  0.130190  1.0  -0.4504
  N  N44  1  0.285150  0.744800  0.630190  1.0  -0.4504
  N  N45  1  0.494800  0.964850  0.619810  1.0  -0.4518
  N  N46  1  0.994800  0.464850  0.119810  1.0  -0.4518
  N  N47  1  0.005200  0.035150  0.119810  1.0  -0.452
  N  N48  1  0.505200  0.535150  0.619810  1.0  -0.452
  N  N49  1  0.285150  0.244800  0.369810  1.0  -0.4505
  N  N50  1  0.785150  0.744800  0.869810  1.0  -0.4505
  N  N51  1  0.214850  0.755200  0.869810  1.0  -0.4502
  N  N52  1  0.714850  0.255200  0.369810  1.0  -0.4502
  N  N53  1  0.500000  0.750000  0.522000  1.0  -0.4555
  N  N54  1  0.000000  0.250000  0.022000  1.0  -0.4555
  N  N55  1  0.000000  0.750000  0.772000  1.0  -0.4555
  N  N56  1  0.500000  0.250000  0.272000  1.0  -0.4555
  N  N57  1  0.500000  0.250000  0.478000  1.0  -0.4569
  N  N58  1  0.000000  0.750000  0.978000  1.0  -0.4569
  N  N59  1  0.000000  0.250000  0.228000  1.0  -0.4569
  N  N60  1  0.500000  0.750000  0.728000  1.0  -0.4569
  F  F61  1  0.651170  0.746540  0.384420  1.0  -0.3718
  F  F62  1  0.151170  0.246540  0.884420  1.0  -0.3718
  F  F63  1  0.848830  0.253460  0.884420  1.0  -0.3684
  F  F64  1  0.348830  0.753460  0.384420  1.0  -0.3684
  F  F65  1  0.003460  0.901170  0.634420  1.0  -0.3743
  F  F66  1  0.503460  0.401170  0.134420  1.0  -0.3743
  F  F67  1  0.496540  0.098830  0.134420  1.0  -0.3741
  F  F68  1  0.996540  0.598830  0.634420  1.0  -0.3741
  F  F69  1  0.348830  0.253460  0.615580  1.0  -0.3689
  F  F70  1  0.848830  0.753460  0.115580  1.0  -0.3689
  F  F71  1  0.151170  0.746540  0.115580  1.0  -0.3722
  F  F72  1  0.651170  0.246540  0.615580  1.0  -0.3722
  F  F73  1  0.996540  0.098830  0.365580  1.0  -0.3739
  F  F74  1  0.496540  0.598830  0.865580  1.0  -0.3739
  F  F75  1  0.503460  0.901170  0.865580  1.0  -0.3747
  F  F76  1  0.003460  0.401170  0.365580  1.0  -0.3747
  F  F77  1  0.500000  0.750000  0.309240  1.0  -0.3598
  F  F78  1  0.000000  0.250000  0.809240  1.0  -0.3598
  F  F79  1  0.000000  0.750000  0.559240  1.0  -0.3598
  F  F80  1  0.500000  0.250000  0.059240  1.0  -0.3598
  F  F81  1  0.500000  0.250000  0.690760  1.0  -0.3609
  F  F82  1  0.000000  0.750000  0.190760  1.0  -0.3609
  F  F83  1  0.000000  0.250000  0.440760  1.0  -0.3609
  F  F84  1  0.500000  0.750000  0.940760  1.0  -0.3609
