# generated using pymatgen
data_Ga3P3O12F
_symmetry_space_group_name_H-M   'P 1'
_cell_length_a   8.86100000
_cell_length_b   18.62400000
_cell_length_c   9.32900000
_cell_angle_alpha   90.00000000
_cell_angle_beta   118.27000000
_cell_angle_gamma   90.00000000
_symmetry_Int_Tables_number   1
_chemical_formula_structural   Ga3P3O12F
_chemical_formula_sum   'Ga12 P12 O48 F4'
_cell_volume   1355.91150597
_cell_formula_units_Z   4
loop_
 _symmetry_equiv_pos_site_id
 _symmetry_equiv_pos_as_xyz
  1  'x, y, z'
loop_
 _atom_site_type_symbol
 _atom_site_label
 _atom_site_symmetry_multiplicity
 _atom_site_fract_x
 _atom_site_fract_y
 _atom_site_fract_z
 _atom_site_occupancy
 _atom_site_charge
  Ga  Ga1  1  0.494600  0.220100  0.855400  1.0  1.7322
  Ga  Ga2  1  0.399700  0.441900  0.877100  1.0  1.6741
  Ga  Ga3  1  0.987200  0.179400  0.816100  1.0  1.7511
  Ga  Ga4  1  0.005400  0.720100  0.644600  1.0  1.732
  Ga  Ga5  1  0.100300  0.941900  0.622900  1.0  1.6719
  Ga  Ga6  1  0.512800  0.679400  0.683900  1.0  1.7485
  Ga  Ga7  1  0.505400  0.779900  0.144600  1.0  1.7321
  Ga  Ga8  1  0.600300  0.558100  0.122900  1.0  1.6716
  Ga  Ga9  1  0.012800  0.820600  0.183900  1.0  1.7482
  Ga  Ga10  1  0.994600  0.279900  0.355400  1.0  1.7323
  Ga  Ga11  1  0.899700  0.058100  0.377100  1.0  1.6738
  Ga  Ga12  1  0.487200  0.320600  0.316100  1.0  1.7509
  P  P13  1  0.219900  0.098700  0.699600  1.0  1.8475
  P  P14  1  0.239000  0.306500  0.952300  1.0  1.8883
  P  P15  1  0.880900  0.162800  0.095600  1.0  1.9726
  P  P16  1  0.280100  0.598700  0.800400  1.0  1.8445
  P  P17  1  0.261000  0.806500  0.547700  1.0  1.8911
  P  P18  1  0.619100  0.662800  0.404400  1.0  1.9735
  P  P19  1  0.780100  0.901300  0.300400  1.0  1.8446
  P  P20  1  0.761000  0.693500  0.047700  1.0  1.8914
  P  P21  1  0.119100  0.837200  0.904400  1.0  1.9729
  P  P22  1  0.719900  0.401300  0.199600  1.0  1.8474
  P  P23  1  0.739000  0.193500  0.452300  1.0  1.8884
  P  P24  1  0.380900  0.337200  0.595600  1.0  1.9722
  O  O25  1  0.703900  0.197900  0.020200  1.0  -1.023
  O  O26  1  0.155000  0.123200  0.819200  1.0  -0.899
  O  O27  1  0.224400  0.378000  0.867800  1.0  -0.7533
  O  O28  1  0.284400  0.319900  0.130700  1.0  -0.8569
  O  O29  1  0.885300  0.093300  0.181100  1.0  -0.8341
  O  O30  1  0.264900  0.018000  0.724400  1.0  -0.7238
  O  O31  1  0.390700  0.138600  0.746100  1.0  -0.8691
  O  O32  1  0.090800  0.118000  0.525000  1.0  -0.7925
  O  O33  1  0.010400  0.217500  0.213700  1.0  -0.8405
  O  O34  1  0.062100  0.271400  0.867400  1.0  -0.8489
  O  O35  1  0.932700  0.143500  0.965400  1.0  -0.9417
  O  O36  1  0.374700  0.256300  0.952000  1.0  -0.9502
  O  O37  1  0.796100  0.697900  0.479800  1.0  -1.0231
  O  O38  1  0.345000  0.623200  0.680800  1.0  -0.8994
  O  O39  1  0.275600  0.878000  0.632200  1.0  -0.7531
  O  O40  1  0.215600  0.819900  0.369300  1.0  -0.8565
  O  O41  1  0.614700  0.593300  0.318900  1.0  -0.8335
  O  O42  1  0.235100  0.518000  0.775600  1.0  -0.7248
  O  O43  1  0.109300  0.638600  0.753900  1.0  -0.8685
  O  O44  1  0.409200  0.618000  0.975000  1.0  -0.7916
  O  O45  1  0.489600  0.717500  0.286300  1.0  -0.8398
  O  O46  1  0.437900  0.771400  0.632600  1.0  -0.8475
  O  O47  1  0.567300  0.643500  0.534600  1.0  -0.9399
  O  O48  1  0.125300  0.756300  0.548000  1.0  -0.9502
  O  O49  1  0.296100  0.802100  0.979800  1.0  -1.0242
  O  O50  1  0.845000  0.876800  0.180800  1.0  -0.9
  O  O51  1  0.775600  0.622000  0.132200  1.0  -0.7532
  O  O52  1  0.715600  0.680100  0.869300  1.0  -0.8564
  O  O53  1  0.114700  0.906700  0.818900  1.0  -0.8358
  O  O54  1  0.735100  0.982000  0.275600  1.0  -0.7246
  O  O55  1  0.609300  0.861400  0.253900  1.0  -0.8698
  O  O56  1  0.909200  0.882000  0.475000  1.0  -0.7927
  O  O57  1  0.989600  0.782500  0.786300  1.0  -0.84
  O  O58  1  0.937900  0.728600  0.132600  1.0  -0.8478
  O  O59  1  0.067300  0.856500  0.034600  1.0  -0.9426
  O  O60  1  0.625300  0.743700  0.048000  1.0  -0.9521
  O  O61  1  0.203900  0.302100  0.520200  1.0  -1.0234
  O  O62  1  0.655000  0.376800  0.319200  1.0  -0.899
  O  O63  1  0.724400  0.122000  0.367800  1.0  -0.7535
  O  O64  1  0.784400  0.180100  0.630700  1.0  -0.8561
  O  O65  1  0.385300  0.406700  0.681100  1.0  -0.8357
  O  O66  1  0.764900  0.482000  0.224400  1.0  -0.7245
  O  O67  1  0.890700  0.361400  0.246100  1.0  -0.8696
  O  O68  1  0.590800  0.382000  0.025000  1.0  -0.7929
  O  O69  1  0.510400  0.282500  0.713700  1.0  -0.8412
  O  O70  1  0.562100  0.228600  0.367400  1.0  -0.8491
  O  O71  1  0.432700  0.356500  0.465400  1.0  -0.9433
  O  O72  1  0.874700  0.243700  0.452000  1.0  -0.9519
  F  F73  1  0.575000  0.513700  0.914100  1.0  -0.5292
  F  F74  1  0.925000  0.013700  0.585900  1.0  -0.527
  F  F75  1  0.425000  0.486300  0.085900  1.0  -0.5265
  F  F76  1  0.075000  0.986300  0.414100  1.0  -0.5295
