# generated using pymatgen
data_SnH13(C4O)2
_symmetry_space_group_name_H-M   'P 1'
_cell_length_a   10.07250000
_cell_length_b   10.22970000
_cell_length_c   23.50000000
_cell_angle_alpha   90.00000000
_cell_angle_beta   90.00000000
_cell_angle_gamma   90.00000000
_symmetry_Int_Tables_number   1
_chemical_formula_structural   SnH13(C4O)2
_chemical_formula_sum   'Sn8 H104 C64 O16'
_cell_volume   2421.40835137
_cell_formula_units_Z   8
loop_
 _symmetry_equiv_pos_site_id
 _symmetry_equiv_pos_as_xyz
  1  'x, y, z'
loop_
 _atom_site_type_symbol
 _atom_site_label
 _atom_site_symmetry_multiplicity
 _atom_site_fract_x
 _atom_site_fract_y
 _atom_site_fract_z
 _atom_site_occupancy
 _atom_site_charge
  Sn  Sn1  1  0.326010  0.800320  0.025130  1.0  1.3257
  Sn  Sn2  1  0.547260  0.678070  0.235390  1.0  1.3505
  Sn  Sn3  1  0.452740  0.178070  0.264610  1.0  1.3502
  Sn  Sn4  1  0.673990  0.300320  0.474870  1.0  1.3247
  Sn  Sn5  1  0.173990  0.199680  0.525130  1.0  1.3249
  Sn  Sn6  1  0.952740  0.321930  0.735390  1.0  1.3501
  Sn  Sn7  1  0.047260  0.821930  0.764610  1.0  1.3503
  Sn  Sn8  1  0.826010  0.699680  0.974870  1.0  1.3256
  H  H9  1  0.612800  0.092800  0.125400  1.0  0.1075
  H  H10  1  0.788100  0.886800  0.094300  1.0  0.1233
  H  H11  1  0.759800  0.010100  0.056700  1.0  0.1369
  H  H12  1  0.872800  0.932100  0.198800  1.0  0.1186
  H  H13  1  0.048600  0.040700  0.240100  1.0  0.0854
  H  H14  1  0.099400  0.255900  0.213100  1.0  0.1132
  H  H15  1  0.934400  0.378300  0.168900  1.0  0.1076
  H  H16  1  0.745300  0.273500  0.135300  1.0  0.1143
  H  H17  1  0.387200  0.592800  0.374600  1.0  0.1081
  H  H18  1  0.211900  0.386800  0.405700  1.0  0.123
  H  H19  1  0.240200  0.510100  0.443300  1.0  0.1376
  H  H20  1  0.127200  0.432100  0.301200  1.0  0.119
  H  H21  1  0.951400  0.540700  0.259900  1.0  0.0844
  H  H22  1  0.900600  0.755900  0.286900  1.0  0.1138
  H  H23  1  0.065600  0.878300  0.331100  1.0  0.1071
  H  H24  1  0.254700  0.773500  0.364700  1.0  0.1139
  H  H25  1  0.887200  0.907200  0.625400  1.0  0.1076
  H  H26  1  0.711900  0.113200  0.594300  1.0  0.1237
  H  H27  1  0.740200  0.989900  0.556700  1.0  0.1377
  H  H28  1  0.627200  0.067900  0.698800  1.0  0.1189
  H  H29  1  0.451400  0.959300  0.740100  1.0  0.0846
  H  H30  1  0.400600  0.744100  0.713100  1.0  0.1139
  H  H31  1  0.565600  0.621700  0.668900  1.0  0.1068
  H  H32  1  0.754700  0.726500  0.635300  1.0  0.1138
  H  H33  1  0.112800  0.407200  0.874600  1.0  0.1082
  H  H34  1  0.288100  0.613200  0.905700  1.0  0.1228
  H  H35  1  0.259800  0.489900  0.943300  1.0  0.1384
  H  H36  1  0.372800  0.567900  0.801200  1.0  0.1195
  H  H37  1  0.548600  0.459300  0.759900  1.0  0.0847
  H  H38  1  0.599400  0.244100  0.786900  1.0  0.1135
  H  H39  1  0.434400  0.121700  0.831100  1.0  0.1072
  H  H40  1  0.245300  0.226500  0.864700  1.0  0.1142
  H  H41  1  0.108800  0.917100  0.058400  1.0  0.1744
  H  H42  1  0.165100  0.839500  0.110700  1.0  0.1863
  H  H43  1  0.226400  0.975100  0.094100  1.0  0.1816
  H  H44  1  0.276700  0.868500  0.924200  1.0  0.1835
  H  H45  1  0.379500  0.967500  0.949700  1.0  0.1861
  H  H46  1  0.427200  0.830600  0.927900  1.0  0.1818
  H  H47  1  0.487300  0.612900  0.061300  1.0  0.1761
  H  H48  1  0.343300  0.575100  0.080700  1.0  0.1833
  H  H49  1  0.388700  0.549000  0.017900  1.0  0.1777
  H  H50  1  0.318700  0.626500  0.191500  1.0  0.1735
  H  H51  1  0.298700  0.737700  0.236600  1.0  0.167
  H  H52  1  0.354100  0.771400  0.176000  1.0  0.1945
  H  H53  1  0.541700  0.768700  0.340300  1.0  0.1822
  H  H54  1  0.680100  0.701700  0.331400  1.0  0.1816
  H  H55  1  0.655100  0.843000  0.308000  1.0  0.1788
  H  H56  1  0.691700  0.562300  0.161800  1.0  0.18
  H  H57  1  0.752400  0.535100  0.222100  1.0  0.1768
  H  H58  1  0.628600  0.455400  0.201200  1.0  0.1755
  H  H59  1  0.681300  0.126500  0.308500  1.0  0.1733
  H  H60  1  0.701300  0.237700  0.263400  1.0  0.1664
  H  H61  1  0.645900  0.271400  0.324000  1.0  0.1942
  H  H62  1  0.458300  0.268700  0.159700  1.0  0.1829
  H  H63  1  0.319900  0.201700  0.168600  1.0  0.1805
  H  H64  1  0.344900  0.343000  0.192000  1.0  0.1796
  H  H65  1  0.308300  0.062300  0.338200  1.0  0.1824
  H  H66  1  0.247600  0.035100  0.277900  1.0  0.1772
  H  H67  1  0.371400  0.955400  0.298800  1.0  0.1758
  H  H68  1  0.891200  0.417100  0.441600  1.0  0.1742
  H  H69  1  0.834900  0.339500  0.389300  1.0  0.1857
  H  H70  1  0.773600  0.475100  0.405900  1.0  0.1828
  H  H71  1  0.723300  0.368500  0.575800  1.0  0.1851
  H  H72  1  0.620500  0.467500  0.550300  1.0  0.1862
  H  H73  1  0.572800  0.330600  0.572100  1.0  0.1826
  H  H74  1  0.512700  0.112900  0.438700  1.0  0.1759
  H  H75  1  0.656700  0.075100  0.419300  1.0  0.1831
  H  H76  1  0.611300  0.049000  0.482100  1.0  0.1789
  H  H77  1  0.391200  0.082900  0.558400  1.0  0.1735
  H  H78  1  0.334900  0.160500  0.610700  1.0  0.1861
  H  H79  1  0.273600  0.024900  0.594100  1.0  0.1821
  H  H80  1  0.223300  0.131500  0.424200  1.0  0.1847
  H  H81  1  0.120500  0.032500  0.449700  1.0  0.1867
  H  H82  1  0.072800  0.169400  0.427900  1.0  0.1823
  H  H83  1  0.012700  0.387100  0.561300  1.0  0.1772
  H  H84  1  0.156700  0.424900  0.580700  1.0  0.1824
  H  H85  1  0.111300  0.451000  0.517900  1.0  0.1788
  H  H86  1  0.181300  0.373500  0.691500  1.0  0.1743
  H  H87  1  0.201300  0.262300  0.736600  1.0  0.1677
  H  H88  1  0.145900  0.228600  0.676000  1.0  0.1936
  H  H89  1  0.958300  0.231300  0.840300  1.0  0.1838
  H  H90  1  0.819900  0.298300  0.831400  1.0  0.1809
  H  H91  1  0.844900  0.157000  0.808000  1.0  0.1808
  H  H92  1  0.808300  0.437700  0.661800  1.0  0.1818
  H  H93  1  0.747600  0.464900  0.722100  1.0  0.1772
  H  H94  1  0.871400  0.544600  0.701200  1.0  0.1754
  H  H95  1  0.818700  0.873500  0.808500  1.0  0.1744
  H  H96  1  0.798700  0.762300  0.763400  1.0  0.1665
  H  H97  1  0.854100  0.728600  0.824000  1.0  0.1949
  H  H98  1  0.041700  0.731300  0.659700  1.0  0.183
  H  H99  1  0.180100  0.798300  0.668600  1.0  0.1804
  H  H100  1  0.155100  0.657000  0.692000  1.0  0.1811
  H  H101  1  0.191700  0.937700  0.838200  1.0  0.1818
  H  H102  1  0.252400  0.964900  0.777900  1.0  0.1767
  H  H103  1  0.128600  0.044600  0.798800  1.0  0.1764
  H  H104  1  0.608800  0.582900  0.941600  1.0  0.1739
  H  H105  1  0.665100  0.660500  0.889300  1.0  0.1851
  H  H106  1  0.726400  0.524900  0.905900  1.0  0.1825
  H  H107  1  0.776700  0.631500  0.075800  1.0  0.1831
  H  H108  1  0.879500  0.532500  0.050300  1.0  0.1865
  H  H109  1  0.927200  0.669400  0.072100  1.0  0.1818
  H  H110  1  0.987300  0.887100  0.938700  1.0  0.1759
  H  H111  1  0.843300  0.924900  0.919300  1.0  0.1829
  H  H112  1  0.888700  0.951000  0.982100  1.0  0.1795
  C  C113  1  0.616000  0.945000  0.180200  1.0  0.6912
  C  C114  1  0.677000  0.026000  0.137000  1.0  -0.1574
  C  C115  1  0.720000  0.949000  0.083600  1.0  -0.3507
  C  C116  1  0.610000  0.879000  0.054900  1.0  0.7154
  C  C117  1  0.799000  0.092700  0.159400  1.0  0.0832
  C  C118  1  0.886000  0.021000  0.192400  1.0  -0.1485
  C  C119  1  0.992000  0.085000  0.215400  1.0  -0.0542
  C  C120  1  0.019000  0.218000  0.202600  1.0  -0.1218
  C  C121  1  0.924000  0.289000  0.174200  1.0  -0.0657
  C  C122  1  0.812000  0.225600  0.153400  1.0  -0.1632
  C  C123  1  0.384000  0.445000  0.319800  1.0  0.692
  C  C124  1  0.323000  0.526000  0.363000  1.0  -0.1513
  C  C125  1  0.280000  0.449000  0.416400  1.0  -0.353
  C  C126  1  0.390000  0.379000  0.445100  1.0  0.7161
  C  C127  1  0.201000  0.592700  0.340600  1.0  0.0845
  C  C128  1  0.114000  0.521000  0.307600  1.0  -0.1484
  C  C129  1  0.008000  0.585000  0.284600  1.0  -0.0542
  C  C130  1  0.981000  0.718000  0.297400  1.0  -0.1212
  C  C131  1  0.076000  0.789000  0.325800  1.0  -0.0653
  C  C132  1  0.188000  0.725600  0.346600  1.0  -0.1636
  C  C133  1  0.884000  0.055000  0.680200  1.0  0.691
  C  C134  1  0.823000  0.974000  0.637000  1.0  -0.1531
  C  C135  1  0.780000  0.051000  0.583600  1.0  -0.3525
  C  C136  1  0.890000  0.121000  0.554900  1.0  0.7162
  C  C137  1  0.701000  0.907300  0.659400  1.0  0.0834
  C  C138  1  0.614000  0.979000  0.692400  1.0  -0.1489
  C  C139  1  0.508000  0.915000  0.715400  1.0  -0.054
  C  C140  1  0.481000  0.782000  0.702600  1.0  -0.1216
  C  C141  1  0.576000  0.711000  0.674200  1.0  -0.0652
  C  C142  1  0.688000  0.774400  0.653400  1.0  -0.1644
  C  C143  1  0.116000  0.555000  0.819800  1.0  0.6926
  C  C144  1  0.177000  0.474000  0.863000  1.0  -0.1555
  C  C145  1  0.220000  0.551000  0.916400  1.0  -0.3518
  C  C146  1  0.110000  0.621000  0.945100  1.0  0.7151
  C  C147  1  0.299000  0.407300  0.840600  1.0  0.0833
  C  C148  1  0.386000  0.479000  0.807600  1.0  -0.1484
  C  C149  1  0.492000  0.415000  0.784600  1.0  -0.0541
  C  C150  1  0.519000  0.282000  0.797400  1.0  -0.1219
  C  C151  1  0.424000  0.211000  0.825800  1.0  -0.0649
  C  C152  1  0.312000  0.274400  0.846600  1.0  -0.1632
  C  C153  1  0.188000  0.896000  0.079600  1.0  -0.8034
  C  C154  1  0.356000  0.877000  0.946300  1.0  -0.8247
  C  C155  1  0.396000  0.607000  0.049700  1.0  -0.7955
  C  C156  1  0.353500  0.707000  0.205900  1.0  -0.7869
  C  C157  1  0.616000  0.759000  0.314800  1.0  -0.8232
  C  C158  1  0.672000  0.539000  0.200500  1.0  -0.7894
  C  C159  1  0.646500  0.207000  0.294100  1.0  -0.796
  C  C160  1  0.384000  0.259000  0.185200  1.0  -0.8245
  C  C161  1  0.328000  0.039000  0.299500  1.0  -0.7911
  C  C162  1  0.812000  0.396000  0.420400  1.0  -0.8033
  C  C163  1  0.644000  0.377000  0.553700  1.0  -0.8226
  C  C164  1  0.604000  0.107000  0.450300  1.0  -0.7949
  C  C165  1  0.312000  0.104000  0.579600  1.0  -0.8006
  C  C166  1  0.144000  0.123000  0.446300  1.0  -0.8256
  C  C167  1  0.104000  0.393000  0.549700  1.0  -0.7911
  C  C168  1  0.146500  0.293000  0.705900  1.0  -0.7884
  C  C169  1  0.884000  0.241000  0.814800  1.0  -0.8248
  C  C170  1  0.828000  0.461000  0.700500  1.0  -0.79
  C  C171  1  0.853500  0.793000  0.794100  1.0  -0.7955
  C  C172  1  0.116000  0.741000  0.685200  1.0  -0.8241
  C  C173  1  0.172000  0.961000  0.799500  1.0  -0.7905
  C  C174  1  0.688000  0.604000  0.920400  1.0  -0.8046
  C  C175  1  0.856000  0.623000  0.053700  1.0  -0.8232
  C  C176  1  0.896000  0.893000  0.950300  1.0  -0.7926
  O  O177  1  0.533200  0.990000  0.215500  1.0  -0.6082
  O  O178  1  0.644500  0.819800  0.180000  1.0  -0.6117
  O  O179  1  0.491100  0.905000  0.069300  1.0  -0.581
  O  O180  1  0.635200  0.804200  0.011600  1.0  -0.6344
  O  O181  1  0.466800  0.490000  0.284500  1.0  -0.6063
  O  O182  1  0.355500  0.319800  0.320000  1.0  -0.6115
  O  O183  1  0.508900  0.405000  0.430700  1.0  -0.58
  O  O184  1  0.364800  0.304200  0.488400  1.0  -0.6346
  O  O185  1  0.966800  0.010000  0.715500  1.0  -0.6078
  O  O186  1  0.855500  0.180200  0.680000  1.0  -0.6105
  O  O187  1  0.008900  0.095000  0.569300  1.0  -0.5814
  O  O188  1  0.864800  0.195800  0.511600  1.0  -0.6345
  O  O189  1  0.033200  0.510000  0.784500  1.0  -0.6069
  O  O190  1  0.144500  0.680200  0.820000  1.0  -0.6106
  O  O191  1  0.991100  0.595000  0.930700  1.0  -0.5807
  O  O192  1  0.135200  0.695800  0.988400  1.0  -0.6339
