# generated using pymatgen
data_V2P2H6C3O7
_symmetry_space_group_name_H-M   'P 1'
_cell_length_a   14.29280000
_cell_length_b   10.24400000
_cell_length_c   18.99010000
_cell_angle_alpha   90.00000000
_cell_angle_beta   96.65800000
_cell_angle_gamma   90.00000000
_symmetry_Int_Tables_number   1
_chemical_formula_structural   V2P2H6C3O7
_chemical_formula_sum   'V16 P16 H48 C24 O56'
_cell_volume   2761.69233509
_cell_formula_units_Z   8
loop_
 _symmetry_equiv_pos_site_id
 _symmetry_equiv_pos_as_xyz
  1  'x, y, z'
loop_
 _atom_site_type_symbol
 _atom_site_label
 _atom_site_symmetry_multiplicity
 _atom_site_fract_x
 _atom_site_fract_y
 _atom_site_fract_z
 _atom_site_occupancy
 _atom_site_charge
  V  V1  1  0.155400  0.614700  0.089400  1.0  1.3416
  V  V2  1  0.227600  0.556100  0.280800  1.0  1.3207
  V  V3  1  0.655400  0.114700  0.089400  1.0  1.3416
  V  V4  1  0.727600  0.056100  0.280800  1.0  1.3207
  V  V5  1  0.844600  0.614700  0.410600  1.0  1.3422
  V  V6  1  0.772400  0.556100  0.219200  1.0  1.3227
  V  V7  1  0.344600  0.114700  0.410600  1.0  1.3422
  V  V8  1  0.272400  0.056100  0.219200  1.0  1.3227
  V  V9  1  0.844600  0.385300  0.910600  1.0  1.3421
  V  V10  1  0.772400  0.443900  0.719200  1.0  1.3224
  V  V11  1  0.344600  0.885300  0.910600  1.0  1.3421
  V  V12  1  0.272400  0.943900  0.719200  1.0  1.3224
  V  V13  1  0.155400  0.385300  0.589400  1.0  1.3416
  V  V14  1  0.227600  0.443900  0.780800  1.0  1.3208
  V  V15  1  0.655400  0.885300  0.589400  1.0  1.3416
  V  V16  1  0.727600  0.943900  0.780800  1.0  1.3208
  P  P17  1  0.785100  0.374900  0.074900  1.0  1.5851
  P  P18  1  0.166200  0.332500  0.169400  1.0  1.5702
  P  P19  1  0.285100  0.874900  0.074900  1.0  1.5851
  P  P20  1  0.666200  0.832500  0.169400  1.0  1.5702
  P  P21  1  0.214900  0.374900  0.425100  1.0  1.5842
  P  P22  1  0.833800  0.332500  0.330600  1.0  1.5706
  P  P23  1  0.714900  0.874900  0.425100  1.0  1.5842
  P  P24  1  0.333800  0.832500  0.330600  1.0  1.5706
  P  P25  1  0.214900  0.625100  0.925100  1.0  1.5859
  P  P26  1  0.833800  0.667500  0.830600  1.0  1.5708
  P  P27  1  0.714900  0.125100  0.925100  1.0  1.5859
  P  P28  1  0.333800  0.167500  0.830600  1.0  1.5708
  P  P29  1  0.785100  0.625100  0.574900  1.0  1.5861
  P  P30  1  0.166200  0.667500  0.669400  1.0  1.5709
  P  P31  1  0.285100  0.125100  0.574900  1.0  1.5861
  P  P32  1  0.666200  0.167500  0.669400  1.0  1.5709
  H  H33  1  0.886400  0.200900  0.068300  1.0  0.1275
  H  H34  1  0.866100  0.221100  0.147000  1.0  0.1297
  H  H35  1  0.043000  0.192900  0.182600  1.0  0.1355
  H  H36  1  0.066800  0.188800  0.104100  1.0  0.1332
  H  H37  1  0.987300  0.385400  0.079100  1.0  0.1023
  H  H38  1  0.969100  0.399900  0.158500  1.0  0.1052
  H  H39  1  0.386400  0.700900  0.068300  1.0  0.1275
  H  H40  1  0.366100  0.721100  0.147000  1.0  0.1297
  H  H41  1  0.543000  0.692900  0.182600  1.0  0.1355
  H  H42  1  0.566800  0.688800  0.104100  1.0  0.1332
  H  H43  1  0.487300  0.885400  0.079100  1.0  0.1023
  H  H44  1  0.469100  0.899900  0.158500  1.0  0.1052
  H  H45  1  0.113600  0.200900  0.431700  1.0  0.1281
  H  H46  1  0.133900  0.221100  0.353000  1.0  0.1326
  H  H47  1  0.957000  0.192900  0.317400  1.0  0.1356
  H  H48  1  0.933200  0.188800  0.395900  1.0  0.1335
  H  H49  1  0.012700  0.385400  0.420900  1.0  0.1019
  H  H50  1  0.030900  0.399900  0.341500  1.0  0.1043
  H  H51  1  0.613600  0.700900  0.431700  1.0  0.1281
  H  H52  1  0.633900  0.721100  0.353000  1.0  0.1326
  H  H53  1  0.457000  0.692900  0.317400  1.0  0.1356
  H  H54  1  0.433200  0.688800  0.395900  1.0  0.1335
  H  H55  1  0.512700  0.885400  0.420900  1.0  0.1019
  H  H56  1  0.530900  0.899900  0.341500  1.0  0.1043
  H  H57  1  0.113600  0.799100  0.931700  1.0  0.1269
  H  H58  1  0.133900  0.778900  0.853000  1.0  0.131
  H  H59  1  0.957000  0.807100  0.817400  1.0  0.1355
  H  H60  1  0.933200  0.811200  0.895900  1.0  0.1333
  H  H61  1  0.012700  0.614600  0.920900  1.0  0.1028
  H  H62  1  0.030900  0.600100  0.841500  1.0  0.1051
  H  H63  1  0.613600  0.299100  0.931700  1.0  0.1269
  H  H64  1  0.633900  0.278900  0.853000  1.0  0.131
  H  H65  1  0.457000  0.307100  0.817400  1.0  0.1355
  H  H66  1  0.433200  0.311200  0.895900  1.0  0.1333
  H  H67  1  0.512700  0.114600  0.920900  1.0  0.1028
  H  H68  1  0.530900  0.100100  0.841500  1.0  0.1051
  H  H69  1  0.886400  0.799100  0.568300  1.0  0.1267
  H  H70  1  0.866100  0.778900  0.647000  1.0  0.1287
  H  H71  1  0.043000  0.807100  0.682600  1.0  0.1358
  H  H72  1  0.066800  0.811200  0.604100  1.0  0.134
  H  H73  1  0.987300  0.614600  0.579100  1.0  0.1027
  H  H74  1  0.969100  0.600100  0.658500  1.0  0.1059
  H  H75  1  0.386400  0.299100  0.568300  1.0  0.1267
  H  H76  1  0.366100  0.278900  0.647000  1.0  0.1287
  H  H77  1  0.543000  0.307100  0.682600  1.0  0.1358
  H  H78  1  0.566800  0.311200  0.604100  1.0  0.134
  H  H79  1  0.487300  0.114600  0.579100  1.0  0.1027
  H  H80  1  0.469100  0.100100  0.658500  1.0  0.1059
  C  C81  1  0.880600  0.266100  0.104600  1.0  -0.3963
  C  C82  1  0.057900  0.246500  0.143300  1.0  -0.4072
  C  C83  1  0.974500  0.337200  0.120900  1.0  -0.0882
  C  C84  1  0.380600  0.766100  0.104600  1.0  -0.3963
  C  C85  1  0.557900  0.746500  0.143300  1.0  -0.4072
  C  C86  1  0.474500  0.837200  0.120900  1.0  -0.0882
  C  C87  1  0.119400  0.266100  0.395400  1.0  -0.3962
  C  C88  1  0.942100  0.246500  0.356700  1.0  -0.4064
  C  C89  1  0.025500  0.337200  0.379100  1.0  -0.0876
  C  C90  1  0.619400  0.766100  0.395400  1.0  -0.3962
  C  C91  1  0.442100  0.746500  0.356700  1.0  -0.4064
  C  C92  1  0.525500  0.837200  0.379100  1.0  -0.0876
  C  C93  1  0.119400  0.733900  0.895400  1.0  -0.393
  C  C94  1  0.942100  0.753500  0.856700  1.0  -0.404
  C  C95  1  0.025500  0.662800  0.879100  1.0  -0.0859
  C  C96  1  0.619400  0.233900  0.895400  1.0  -0.393
  C  C97  1  0.442100  0.253500  0.856700  1.0  -0.404
  C  C98  1  0.525500  0.162800  0.879100  1.0  -0.0859
  C  C99  1  0.880600  0.733900  0.604600  1.0  -0.3926
  C  C100  1  0.057900  0.753500  0.643300  1.0  -0.4054
  C  C101  1  0.974500  0.662800  0.620900  1.0  -0.0871
  C  C102  1  0.380600  0.233900  0.604600  1.0  -0.3926
  C  C103  1  0.557900  0.253500  0.643300  1.0  -0.4054
  C  C104  1  0.474500  0.162800  0.620900  1.0  -0.0871
  O  O105  1  0.796400  0.425400  0.000600  1.0  -0.8662
  O  O106  1  0.692200  0.300300  0.075900  1.0  -0.8119
  O  O107  1  0.155500  0.402700  0.238800  1.0  -0.7994
  O  O108  1  0.182900  0.428800  0.109800  1.0  -0.7972
  O  O109  1  0.788900  0.493600  0.123200  1.0  -0.8307
  O  O110  1  0.247100  0.233500  0.175900  1.0  -0.7856
  O  O111  1  0.190900  0.651300  0.190500  1.0  -0.7749
  O  O112  1  0.296400  0.925400  0.000600  1.0  -0.8666
  O  O113  1  0.192200  0.800300  0.075900  1.0  -0.8119
  O  O114  1  0.655500  0.902700  0.238800  1.0  -0.7994
  O  O115  1  0.682900  0.928800  0.109800  1.0  -0.7972
  O  O116  1  0.288900  0.993600  0.123200  1.0  -0.8305
  O  O117  1  0.747100  0.733500  0.175900  1.0  -0.7856
  O  O118  1  0.690900  0.151300  0.190500  1.0  -0.7749
  O  O119  1  0.203600  0.425400  0.499400  1.0  -0.8658
  O  O120  1  0.307800  0.300300  0.424100  1.0  -0.8124
  O  O121  1  0.844500  0.402700  0.261200  1.0  -0.7995
  O  O122  1  0.817100  0.428800  0.390200  1.0  -0.7971
  O  O123  1  0.211100  0.493600  0.376800  1.0  -0.8298
  O  O124  1  0.752900  0.233500  0.324100  1.0  -0.7871
  O  O125  1  0.809100  0.651300  0.309500  1.0  -0.7763
  O  O126  1  0.703600  0.925400  0.499400  1.0  -0.8663
  O  O127  1  0.807800  0.800300  0.424100  1.0  -0.8124
  O  O128  1  0.344500  0.902700  0.261200  1.0  -0.7995
  O  O129  1  0.317100  0.928800  0.390200  1.0  -0.7971
  O  O130  1  0.711100  0.993600  0.376800  1.0  -0.8295
  O  O131  1  0.252900  0.733500  0.324100  1.0  -0.7871
  O  O132  1  0.309100  0.151300  0.309500  1.0  -0.7763
  O  O133  1  0.203600  0.574600  0.999400  1.0  -0.8654
  O  O134  1  0.307800  0.699700  0.924100  1.0  -0.8139
  O  O135  1  0.844500  0.597300  0.761200  1.0  -0.8008
  O  O136  1  0.817100  0.571200  0.890200  1.0  -0.7966
  O  O137  1  0.211100  0.506400  0.876800  1.0  -0.8298
  O  O138  1  0.752900  0.766500  0.824100  1.0  -0.7872
  O  O139  1  0.809100  0.348700  0.809500  1.0  -0.776
  O  O140  1  0.703600  0.074600  0.999400  1.0  -0.8653
  O  O141  1  0.807800  0.199700  0.924100  1.0  -0.8139
  O  O142  1  0.344500  0.097300  0.761200  1.0  -0.8008
  O  O143  1  0.317100  0.071200  0.890200  1.0  -0.7966
  O  O144  1  0.711100  0.006400  0.876800  1.0  -0.8296
  O  O145  1  0.252900  0.266500  0.824100  1.0  -0.7872
  O  O146  1  0.309100  0.848700  0.809500  1.0  -0.776
  O  O147  1  0.796400  0.574600  0.500600  1.0  -0.864
  O  O148  1  0.692200  0.699700  0.575900  1.0  -0.8127
  O  O149  1  0.155500  0.597300  0.738800  1.0  -0.8002
  O  O150  1  0.182900  0.571200  0.609800  1.0  -0.7969
  O  O151  1  0.788900  0.506400  0.623200  1.0  -0.8296
  O  O152  1  0.247100  0.766500  0.675900  1.0  -0.7849
  O  O153  1  0.190900  0.348700  0.690500  1.0  -0.7743
  O  O154  1  0.296400  0.074600  0.500600  1.0  -0.864
  O  O155  1  0.192200  0.199700  0.575900  1.0  -0.8127
  O  O156  1  0.655500  0.097300  0.738800  1.0  -0.8002
  O  O157  1  0.682900  0.071200  0.609800  1.0  -0.7969
  O  O158  1  0.288900  0.006400  0.623200  1.0  -0.8294
  O  O159  1  0.747100  0.266500  0.675900  1.0  -0.7849
  O  O160  1  0.690900  0.848700  0.690500  1.0  -0.7743
