# generated using pymatgen
data_Zn3P3HO12
_symmetry_space_group_name_H-M   'P 1'
_cell_length_a   5.09860000
_cell_length_b   10.49430000
_cell_length_c   12.44570000
_cell_angle_alpha   87.61400000
_cell_angle_beta   87.25800000
_cell_angle_gamma   89.99400000
_symmetry_Int_Tables_number   1
_chemical_formula_structural   Zn3P3HO12
_chemical_formula_sum   'Zn6 P6 H2 O24'
_cell_volume   664.58229500
_cell_formula_units_Z   2
loop_
 _symmetry_equiv_pos_site_id
 _symmetry_equiv_pos_as_xyz
  1  'x, y, z'
loop_
 _atom_site_type_symbol
 _atom_site_label
 _atom_site_symmetry_multiplicity
 _atom_site_fract_x
 _atom_site_fract_y
 _atom_site_fract_z
 _atom_site_occupancy
 _atom_site_charge
  Zn  Zn1  1  0.211690  0.357990  0.998390  1.0  1.1046
  Zn  Zn2  1  0.719710  0.145340  0.997550  1.0  1.1615
  Zn  Zn3  1  0.805210  0.394100  0.392340  1.0  1.1802
  Zn  Zn4  1  0.788310  0.642010  0.001610  1.0  1.105
  Zn  Zn5  1  0.280290  0.854660  0.002450  1.0  1.1619
  Zn  Zn6  1  0.194790  0.605900  0.607660  1.0  1.1797
  P  P7  1  0.248200  0.113240  0.862110  1.0  1.8395
  P  P8  1  0.711900  0.393380  0.138200  1.0  1.8611
  P  P9  1  0.297800  0.328390  0.522990  1.0  1.8452
  P  P10  1  0.751800  0.886760  0.137890  1.0  1.839
  P  P11  1  0.288100  0.606620  0.861800  1.0  1.86
  P  P12  1  0.702200  0.671610  0.477010  1.0  1.8442
  H  H13  1  0.235100  0.180300  0.626200  1.0  0.4165
  H  H14  1  0.764900  0.819700  0.373800  1.0  0.4111
  O  O15  1  0.421500  0.399600  0.116200  1.0  -0.8078
  O  O16  1  0.839400  0.525000  0.122500  1.0  -0.7521
  O  O17  1  0.369800  0.196900  0.948600  1.0  -0.9131
  O  O18  1  0.854000  0.306100  0.054400  1.0  -0.8978
  O  O19  1  0.337600  0.976900  0.886100  1.0  -0.7611
  O  O20  1  0.950500  0.127500  0.873600  1.0  -0.7674
  O  O21  1  0.589300  0.305200  0.502700  1.0  -0.758
  O  O22  1  0.251700  0.424700  0.609200  1.0  -0.8255
  O  O23  1  0.750700  0.335400  0.249800  1.0  -0.7608
  O  O24  1  0.170900  0.364000  0.418700  1.0  -0.7248
  O  O25  1  0.353600  0.157500  0.752600  1.0  -0.8195
  O  O26  1  0.169100  0.201600  0.569400  1.0  -0.6169
  O  O27  1  0.578500  0.600400  0.883800  1.0  -0.8073
  O  O28  1  0.160600  0.475000  0.877500  1.0  -0.7534
  O  O29  1  0.630200  0.803100  0.051400  1.0  -0.9121
  O  O30  1  0.146000  0.693900  0.945600  1.0  -0.8995
  O  O31  1  0.662400  0.023100  0.113900  1.0  -0.7618
  O  O32  1  0.049500  0.872500  0.126400  1.0  -0.7672
  O  O33  1  0.410700  0.694800  0.497300  1.0  -0.7563
  O  O34  1  0.748300  0.575300  0.390800  1.0  -0.8253
  O  O35  1  0.249300  0.664600  0.750200  1.0  -0.7623
  O  O36  1  0.829100  0.636000  0.581300  1.0  -0.7255
  O  O37  1  0.646400  0.842500  0.247400  1.0  -0.8199
  O  O38  1  0.830900  0.798400  0.430600  1.0  -0.6143
