# generated using pymatgen
data_GdPH7C8NO8
_symmetry_space_group_name_H-M   'P 1'
_cell_length_a   9.73060000
_cell_length_b   10.53000000
_cell_length_c   16.41600000
_cell_angle_alpha   90.00000000
_cell_angle_beta   112.13000000
_cell_angle_gamma   90.00000000
_symmetry_Int_Tables_number   1
_chemical_formula_structural   GdPH7C8NO8
_chemical_formula_sum   'Gd4 P4 H28 C32 N4 O32'
_cell_volume   1558.12312626
_cell_formula_units_Z   4
loop_
 _symmetry_equiv_pos_site_id
 _symmetry_equiv_pos_as_xyz
  1  'x, y, z'
loop_
 _atom_site_type_symbol
 _atom_site_label
 _atom_site_symmetry_multiplicity
 _atom_site_fract_x
 _atom_site_fract_y
 _atom_site_fract_z
 _atom_site_occupancy
 _atom_site_charge
  Gd  Gd1  1  0.180220  0.888040  0.393420  1.0  2.1898
  Gd  Gd2  1  0.819780  0.388040  0.106580  1.0  2.1889
  Gd  Gd3  1  0.819780  0.111960  0.606580  1.0  2.1888
  Gd  Gd4  1  0.180220  0.611960  0.893420  1.0  2.1894
  P  P5  1  0.075880  0.143540  0.230210  1.0  1.556
  P  P6  1  0.924120  0.643540  0.269790  1.0  1.5569
  P  P7  1  0.924120  0.856460  0.769790  1.0  1.5567
  P  P8  1  0.075880  0.356460  0.730210  1.0  1.5556
  H  H9  1  0.607400  0.110200  0.932700  1.0  0.1129
  H  H10  1  0.549400  0.897200  0.933900  1.0  0.1053
  H  H11  1  0.720200  0.760600  0.027600  1.0  0.089
  H  H12  1  0.951100  0.833200  0.115600  1.0  0.1036
  H  H13  1  0.090300  0.134900  0.092800  1.0  0.1414
  H  H14  1  0.139800  0.004600  0.141000  1.0  0.1412
  H  H15  1  0.284000  0.173000  0.316600  1.0  0.4107
  H  H16  1  0.392600  0.610200  0.567300  1.0  0.1123
  H  H17  1  0.450600  0.397200  0.566100  1.0  0.1056
  H  H18  1  0.279800  0.260600  0.472400  1.0  0.0892
  H  H19  1  0.048900  0.333200  0.384400  1.0  0.1033
  H  H20  1  0.909700  0.634900  0.407200  1.0  0.1415
  H  H21  1  0.860200  0.504600  0.359000  1.0  0.1411
  H  H22  1  0.716000  0.673000  0.183400  1.0  0.4102
  H  H23  1  0.392600  0.889800  0.067300  1.0  0.1124
  H  H24  1  0.450600  0.102800  0.066100  1.0  0.1055
  H  H25  1  0.279800  0.239400  0.972400  1.0  0.0889
  H  H26  1  0.048900  0.166800  0.884400  1.0  0.1038
  H  H27  1  0.909700  0.865100  0.907200  1.0  0.1421
  H  H28  1  0.860200  0.995400  0.859000  1.0  0.1416
  H  H29  1  0.716000  0.827000  0.683400  1.0  0.4109
  H  H30  1  0.607400  0.389800  0.432700  1.0  0.1125
  H  H31  1  0.549400  0.602800  0.433900  1.0  0.105
  H  H32  1  0.720200  0.739400  0.527600  1.0  0.089
  H  H33  1  0.951100  0.666800  0.615600  1.0  0.1032
  H  H34  1  0.090300  0.365100  0.592800  1.0  0.1415
  H  H35  1  0.139800  0.495400  0.641000  1.0  0.1409
  H  H36  1  0.284000  0.327000  0.816600  1.0  0.4106
  C  C37  1  0.677100  0.053900  0.969300  1.0  -0.0194
  C  C38  1  0.642100  0.927100  0.970500  1.0  -0.0934
  C  C39  1  0.744200  0.845800  0.025700  1.0  -0.094
  C  C40  1  0.881700  0.889100  0.078300  1.0  -0.1327
  C  C41  1  0.918300  0.017100  0.076000  1.0  0.1629
  C  C42  1  0.066000  0.071400  0.128000  1.0  -0.4338
  C  C43  1  0.928500  0.967400  0.468000  1.0  0.5541
  C  C44  1  0.516500  0.939900  0.529100  1.0  0.6104
  C  C45  1  0.322900  0.553900  0.530700  1.0  -0.0208
  C  C46  1  0.357900  0.427100  0.529500  1.0  -0.0954
  C  C47  1  0.255800  0.345800  0.474300  1.0  -0.0944
  C  C48  1  0.118300  0.389100  0.421700  1.0  -0.1331
  C  C49  1  0.081700  0.517100  0.424000  1.0  0.1615
  C  C50  1  0.934000  0.571400  0.372000  1.0  -0.4316
  C  C51  1  0.071500  0.467400  0.032000  1.0  0.5545
  C  C52  1  0.483500  0.439900  0.970900  1.0  0.6113
  C  C53  1  0.322900  0.946100  0.030700  1.0  -0.0201
  C  C54  1  0.357900  0.072900  0.029500  1.0  -0.0959
  C  C55  1  0.255800  0.154200  0.974300  1.0  -0.0929
  C  C56  1  0.118300  0.110900  0.921700  1.0  -0.1328
  C  C57  1  0.081700  0.982900  0.924000  1.0  0.1614
  C  C58  1  0.934000  0.928600  0.872000  1.0  -0.4319
  C  C59  1  0.071500  0.032600  0.532000  1.0  0.5595
  C  C60  1  0.483500  0.060100  0.470900  1.0  0.6108
  C  C61  1  0.677100  0.446100  0.469300  1.0  -0.0196
  C  C62  1  0.642100  0.572900  0.470500  1.0  -0.0937
  C  C63  1  0.744200  0.654200  0.525700  1.0  -0.0918
  C  C64  1  0.881700  0.610900  0.578300  1.0  -0.1328
  C  C65  1  0.918300  0.482900  0.576000  1.0  0.163
  C  C66  1  0.066000  0.428600  0.628000  1.0  -0.4337
  C  C67  1  0.928500  0.532600  0.968000  1.0  0.5592
  C  C68  1  0.516500  0.560100  0.029100  1.0  0.6096
  N  N69  1  0.813300  0.096200  0.021500  1.0  0.2778
  N  N70  1  0.186700  0.596200  0.478500  1.0  0.2776
  N  N71  1  0.186700  0.903800  0.978500  1.0  0.2746
  N  N72  1  0.813300  0.403800  0.521500  1.0  0.2748
  O  O73  1  0.062000  0.042000  0.290660  1.0  -0.9154
  O  O74  1  0.237100  0.203200  0.267980  1.0  -0.6815
  O  O75  1  0.961500  0.246300  0.210480  1.0  -0.944
  O  O76  1  0.845400  0.217900  0.017070  1.0  -0.6765
  O  O77  1  0.814300  0.979400  0.485410  1.0  -0.6136
  O  O78  1  0.938100  0.909000  0.404760  1.0  -0.6298
  O  O79  1  0.426200  0.852000  0.507170  1.0  -0.5776
  O  O80  1  0.637300  0.943200  0.594880  1.0  -0.6426
  O  O81  1  0.938000  0.542000  0.209340  1.0  -0.9155
  O  O82  1  0.762900  0.703200  0.232020  1.0  -0.6838
  O  O83  1  0.038500  0.746300  0.289520  1.0  -0.9445
  O  O84  1  0.154600  0.717900  0.482930  1.0  -0.6746
  O  O85  1  0.185700  0.479400  0.014590  1.0  -0.6132
  O  O86  1  0.061900  0.409000  0.095240  1.0  -0.6301
  O  O87  1  0.573800  0.352000  0.992830  1.0  -0.578
  O  O88  1  0.362700  0.443200  0.905120  1.0  -0.6433
  O  O89  1  0.938000  0.958000  0.709340  1.0  -0.9152
  O  O90  1  0.762900  0.796800  0.732020  1.0  -0.6832
  O  O91  1  0.038500  0.753700  0.789520  1.0  -0.9449
  O  O92  1  0.154600  0.782100  0.982930  1.0  -0.6736
  O  O93  1  0.185700  0.020600  0.514590  1.0  -0.6132
  O  O94  1  0.061900  0.091000  0.595240  1.0  -0.6294
  O  O95  1  0.573800  0.148000  0.492830  1.0  -0.5786
  O  O96  1  0.362700  0.056800  0.405120  1.0  -0.644
  O  O97  1  0.062000  0.458000  0.790660  1.0  -0.916
  O  O98  1  0.237100  0.296800  0.767980  1.0  -0.6818
  O  O99  1  0.961500  0.253700  0.710480  1.0  -0.9436
  O  O100  1  0.845400  0.282100  0.517070  1.0  -0.6742
  O  O101  1  0.814300  0.520600  0.985410  1.0  -0.6137
  O  O102  1  0.938100  0.591000  0.904760  1.0  -0.6299
  O  O103  1  0.426200  0.648000  0.007170  1.0  -0.5782
  O  O104  1  0.637300  0.556800  0.094880  1.0  -0.643
