# generated using pymatgen
data_DyPH7C8NO8
_symmetry_space_group_name_H-M   'P 1'
_cell_length_a   9.71920000
_cell_length_b   10.45170000
_cell_length_c   16.42170000
_cell_angle_alpha   90.00000000
_cell_angle_beta   112.58000000
_cell_angle_gamma   90.00000000
_symmetry_Int_Tables_number   1
_chemical_formula_structural   DyPH7C8NO8
_chemical_formula_sum   'Dy4 P4 H28 C32 N4 O32'
_cell_volume   1540.27846501
_cell_formula_units_Z   4
loop_
 _symmetry_equiv_pos_site_id
 _symmetry_equiv_pos_as_xyz
  1  'x, y, z'
loop_
 _atom_site_type_symbol
 _atom_site_label
 _atom_site_symmetry_multiplicity
 _atom_site_fract_x
 _atom_site_fract_y
 _atom_site_fract_z
 _atom_site_occupancy
 _atom_site_charge
  Dy  Dy1  1  0.178420  0.894280  0.393020  1.0  2.2664
  Dy  Dy2  1  0.821580  0.394280  0.106980  1.0  2.2664
  Dy  Dy3  1  0.821580  0.105720  0.606980  1.0  2.2659
  Dy  Dy4  1  0.178420  0.605720  0.893020  1.0  2.2658
  P  P5  1  0.074800  0.149830  0.231310  1.0  1.5631
  P  P6  1  0.925200  0.649830  0.268690  1.0  1.563
  P  P7  1  0.925200  0.850170  0.768690  1.0  1.5628
  P  P8  1  0.074800  0.350170  0.731310  1.0  1.5629
  H  H9  1  0.609600  0.116900  0.931600  1.0  0.0984
  H  H10  1  0.548300  0.903300  0.931900  1.0  0.1006
  H  H11  1  0.723800  0.763900  0.024300  1.0  0.0875
  H  H12  1  0.953100  0.838400  0.113900  1.0  0.0927
  H  H13  1  0.093600  0.140400  0.095100  1.0  0.1247
  H  H14  1  0.141800  0.009100  0.143900  1.0  0.1331
  H  H15  1  0.287200  0.170700  0.314700  1.0  0.4036
  H  H16  1  0.390400  0.616900  0.568400  1.0  0.0987
  H  H17  1  0.451700  0.403300  0.568100  1.0  0.1008
  H  H18  1  0.276200  0.263900  0.475700  1.0  0.0877
  H  H19  1  0.046900  0.338400  0.386100  1.0  0.0922
  H  H20  1  0.906400  0.640400  0.404900  1.0  0.1247
  H  H21  1  0.858200  0.509100  0.356100  1.0  0.1327
  H  H22  1  0.712800  0.670700  0.185300  1.0  0.4033
  H  H23  1  0.390400  0.883100  0.068400  1.0  0.0983
  H  H24  1  0.451700  0.096700  0.068100  1.0  0.1017
  H  H25  1  0.276200  0.236100  0.975700  1.0  0.0875
  H  H26  1  0.046900  0.161600  0.886100  1.0  0.0929
  H  H27  1  0.906400  0.859600  0.904900  1.0  0.125
  H  H28  1  0.858200  0.990900  0.856100  1.0  0.1335
  H  H29  1  0.712800  0.829300  0.685300  1.0  0.4039
  H  H30  1  0.609600  0.383100  0.431600  1.0  0.0979
  H  H31  1  0.548300  0.596700  0.431900  1.0  0.1014
  H  H32  1  0.723800  0.736100  0.524300  1.0  0.0876
  H  H33  1  0.953100  0.661600  0.613900  1.0  0.0926
  H  H34  1  0.093600  0.359600  0.595100  1.0  0.1245
  H  H35  1  0.141800  0.490900  0.643900  1.0  0.133
  H  H36  1  0.287200  0.329300  0.814700  1.0  0.4038
  C  C37  1  0.679000  0.059800  0.968500  1.0  -0.0398
  C  C38  1  0.642000  0.932700  0.968500  1.0  -0.1025
  C  C39  1  0.746400  0.850200  0.023400  1.0  -0.1054
  C  C40  1  0.883200  0.894900  0.076600  1.0  -0.1308
  C  C41  1  0.920100  0.022400  0.076100  1.0  0.1963
  C  C42  1  0.067800  0.076700  0.129800  1.0  -0.4438
  C  C43  1  0.927800  0.968700  0.467100  1.0  0.5725
  C  C44  1  0.517200  0.938200  0.527300  1.0  0.6167
  C  C45  1  0.321000  0.559800  0.531500  1.0  -0.0436
  C  C46  1  0.358000  0.432700  0.531500  1.0  -0.1035
  C  C47  1  0.253600  0.350200  0.476600  1.0  -0.1052
  C  C48  1  0.116800  0.394900  0.423400  1.0  -0.1302
  C  C49  1  0.079900  0.522400  0.423900  1.0  0.197
  C  C50  1  0.932200  0.576700  0.370200  1.0  -0.4416
  C  C51  1  0.072200  0.468700  0.032900  1.0  0.5723
  C  C52  1  0.482800  0.438200  0.972700  1.0  0.616
  C  C53  1  0.321000  0.940200  0.031500  1.0  -0.0429
  C  C54  1  0.358000  0.067300  0.031500  1.0  -0.1043
  C  C55  1  0.253600  0.149800  0.976600  1.0  -0.1045
  C  C56  1  0.116800  0.105100  0.923400  1.0  -0.1306
  C  C57  1  0.079900  0.977600  0.923900  1.0  0.1968
  C  C58  1  0.932200  0.923300  0.870200  1.0  -0.4419
  C  C59  1  0.072200  0.031300  0.532900  1.0  0.5797
  C  C60  1  0.482800  0.061800  0.472700  1.0  0.6158
  C  C61  1  0.679000  0.440200  0.468500  1.0  -0.0401
  C  C62  1  0.642000  0.567300  0.468500  1.0  -0.1033
  C  C63  1  0.746400  0.649800  0.523400  1.0  -0.1035
  C  C64  1  0.883200  0.605100  0.576600  1.0  -0.1318
  C  C65  1  0.920100  0.477600  0.576100  1.0  0.1963
  C  C66  1  0.067800  0.423300  0.629800  1.0  -0.4437
  C  C67  1  0.927800  0.531300  0.967100  1.0  0.5796
  C  C68  1  0.517200  0.561800  0.027300  1.0  0.6165
  N  N69  1  0.814300  0.102000  0.021400  1.0  0.2861
  N  N70  1  0.185700  0.602000  0.478600  1.0  0.2861
  N  N71  1  0.185700  0.898000  0.978600  1.0  0.2836
  N  N72  1  0.814300  0.398000  0.521400  1.0  0.2838
  O  O73  1  0.060300  0.047600  0.291900  1.0  -0.8973
  O  O74  1  0.235000  0.211100  0.270900  1.0  -0.7038
  O  O75  1  0.959500  0.251900  0.210000  1.0  -0.9307
  O  O76  1  0.846400  0.224900  0.017700  1.0  -0.6671
  O  O77  1  0.814000  0.979400  0.484700  1.0  -0.619
  O  O78  1  0.936700  0.913600  0.402400  1.0  -0.6272
  O  O79  1  0.422600  0.851200  0.504400  1.0  -0.6261
  O  O80  1  0.641100  0.935200  0.591100  1.0  -0.6508
  O  O81  1  0.939700  0.547600  0.208100  1.0  -0.8974
  O  O82  1  0.765000  0.711100  0.229100  1.0  -0.7045
  O  O83  1  0.040500  0.751900  0.290000  1.0  -0.9314
  O  O84  1  0.153600  0.724900  0.482300  1.0  -0.6657
  O  O85  1  0.186000  0.479400  0.015300  1.0  -0.6195
  O  O86  1  0.063300  0.413600  0.097600  1.0  -0.6279
  O  O87  1  0.577400  0.351200  0.995600  1.0  -0.6263
  O  O88  1  0.358900  0.435200  0.908900  1.0  -0.6513
  O  O89  1  0.939700  0.952400  0.708100  1.0  -0.8972
  O  O90  1  0.765000  0.788900  0.729100  1.0  -0.7027
  O  O91  1  0.040500  0.748100  0.790000  1.0  -0.9315
  O  O92  1  0.153600  0.775100  0.982300  1.0  -0.664
  O  O93  1  0.186000  0.020600  0.515300  1.0  -0.6191
  O  O94  1  0.063300  0.086400  0.597600  1.0  -0.6273
  O  O95  1  0.577400  0.148800  0.495600  1.0  -0.6261
  O  O96  1  0.358900  0.064800  0.408900  1.0  -0.6513
  O  O97  1  0.060300  0.452400  0.791900  1.0  -0.8977
  O  O98  1  0.235000  0.288900  0.770900  1.0  -0.7037
  O  O99  1  0.959500  0.248100  0.710000  1.0  -0.9304
  O  O100  1  0.846400  0.275100  0.517700  1.0  -0.6636
  O  O101  1  0.814000  0.520600  0.984700  1.0  -0.619
  O  O102  1  0.936700  0.586400  0.902400  1.0  -0.6276
  O  O103  1  0.422600  0.648800  0.004400  1.0  -0.6252
  O  O104  1  0.641100  0.564800  0.091100  1.0  -0.6506
