# generated using pymatgen
data_TbPH7C8NO8
_symmetry_space_group_name_H-M   'P 1'
_cell_length_a   9.72840000
_cell_length_b   10.47170000
_cell_length_c   16.45940000
_cell_angle_alpha   90.00000000
_cell_angle_beta   112.51100000
_cell_angle_gamma   90.00000000
_symmetry_Int_Tables_number   1
_chemical_formula_structural   TbPH7C8NO8
_chemical_formula_sum   'Tb4 P4 H28 C32 N4 O32'
_cell_volume   1549.00710766
_cell_formula_units_Z   4
loop_
 _symmetry_equiv_pos_site_id
 _symmetry_equiv_pos_as_xyz
  1  'x, y, z'
loop_
 _atom_site_type_symbol
 _atom_site_label
 _atom_site_symmetry_multiplicity
 _atom_site_fract_x
 _atom_site_fract_y
 _atom_site_fract_z
 _atom_site_occupancy
 _atom_site_charge
  Tb  Tb1  1  0.178730  0.892520  0.393140  1.0  2.2498
  Tb  Tb2  1  0.821270  0.392520  0.106860  1.0  2.2502
  Tb  Tb3  1  0.821270  0.107480  0.606860  1.0  2.2497
  Tb  Tb4  1  0.178730  0.607480  0.893140  1.0  2.2493
  P  P5  1  0.074890  0.147790  0.231060  1.0  1.5657
  P  P6  1  0.925110  0.647790  0.268940  1.0  1.5654
  P  P7  1  0.925110  0.852210  0.768940  1.0  1.5651
  P  P8  1  0.074890  0.352210  0.731060  1.0  1.5657
  H  H9  1  0.608700  0.114000  0.932300  1.0  0.108
  H  H10  1  0.549900  0.899900  0.933700  1.0  0.1024
  H  H11  1  0.723700  0.762400  0.025000  1.0  0.0883
  H  H12  1  0.955600  0.837200  0.113900  1.0  0.0994
  H  H13  1  0.092900  0.139700  0.095100  1.0  0.1319
  H  H14  1  0.142100  0.008700  0.143600  1.0  0.1345
  H  H15  1  0.286700  0.169100  0.314800  1.0  0.4071
  H  H16  1  0.391300  0.614000  0.567700  1.0  0.1077
  H  H17  1  0.450100  0.399900  0.566300  1.0  0.1017
  H  H18  1  0.276300  0.262400  0.475000  1.0  0.0887
  H  H19  1  0.044400  0.337200  0.386100  1.0  0.0991
  H  H20  1  0.907100  0.639700  0.404900  1.0  0.1322
  H  H21  1  0.857900  0.508700  0.356400  1.0  0.1342
  H  H22  1  0.713300  0.669100  0.185200  1.0  0.4072
  H  H23  1  0.391300  0.886000  0.067700  1.0  0.1077
  H  H24  1  0.450100  0.100100  0.066300  1.0  0.1018
  H  H25  1  0.276300  0.237600  0.975000  1.0  0.0885
  H  H26  1  0.044400  0.162800  0.886100  1.0  0.0997
  H  H27  1  0.907100  0.860300  0.904900  1.0  0.1327
  H  H28  1  0.857900  0.991300  0.856400  1.0  0.1348
  H  H29  1  0.713300  0.830900  0.685200  1.0  0.4076
  H  H30  1  0.608700  0.386000  0.432300  1.0  0.1078
  H  H31  1  0.549900  0.600100  0.433700  1.0  0.1019
  H  H32  1  0.723700  0.737600  0.525000  1.0  0.0886
  H  H33  1  0.955600  0.662800  0.613900  1.0  0.0993
  H  H34  1  0.092900  0.360300  0.595100  1.0  0.1318
  H  H35  1  0.142100  0.491300  0.643600  1.0  0.1343
  H  H36  1  0.286700  0.330900  0.814800  1.0  0.4071
  C  C37  1  0.678400  0.057300  0.969100  1.0  -0.0314
  C  C38  1  0.643400  0.929800  0.969900  1.0  -0.1125
  C  C39  1  0.746400  0.848400  0.023800  1.0  -0.0854
  C  C40  1  0.885300  0.893400  0.077000  1.0  -0.1311
  C  C41  1  0.920700  0.020600  0.076000  1.0  0.1725
  C  C42  1  0.067700  0.075600  0.129700  1.0  -0.4475
  C  C43  1  0.928400  0.968300  0.467300  1.0  0.5624
  C  C44  1  0.517700  0.938700  0.527400  1.0  0.6158
  C  C45  1  0.321600  0.557300  0.530900  1.0  -0.0329
  C  C46  1  0.356600  0.429800  0.530100  1.0  -0.1133
  C  C47  1  0.253600  0.348400  0.476200  1.0  -0.0862
  C  C48  1  0.114700  0.393400  0.423000  1.0  -0.1298
  C  C49  1  0.079300  0.520600  0.424000  1.0  0.1732
  C  C50  1  0.932300  0.575600  0.370300  1.0  -0.4449
  C  C51  1  0.071600  0.468300  0.032700  1.0  0.5619
  C  C52  1  0.482300  0.438700  0.972600  1.0  0.6153
  C  C53  1  0.321600  0.942700  0.030900  1.0  -0.0335
  C  C54  1  0.356600  0.070200  0.030100  1.0  -0.1139
  C  C55  1  0.253600  0.151600  0.976200  1.0  -0.085
  C  C56  1  0.114700  0.106600  0.923000  1.0  -0.1305
  C  C57  1  0.079300  0.979400  0.924000  1.0  0.173
  C  C58  1  0.932300  0.924400  0.870300  1.0  -0.4453
  C  C59  1  0.071600  0.031700  0.532700  1.0  0.567
  C  C60  1  0.482300  0.061300  0.472600  1.0  0.615
  C  C61  1  0.678400  0.442700  0.469100  1.0  -0.0323
  C  C62  1  0.643400  0.570200  0.469900  1.0  -0.1129
  C  C63  1  0.746400  0.651600  0.523800  1.0  -0.084
  C  C64  1  0.885300  0.606600  0.577000  1.0  -0.1321
  C  C65  1  0.920700  0.479400  0.576000  1.0  0.1725
  C  C66  1  0.067700  0.424400  0.629700  1.0  -0.4475
  C  C67  1  0.928400  0.531700  0.967300  1.0  0.567
  C  C68  1  0.517700  0.561300  0.027400  1.0  0.6156
  N  N69  1  0.814600  0.099400  0.022200  1.0  0.2724
  N  N70  1  0.185400  0.599400  0.477800  1.0  0.271
  N  N71  1  0.185400  0.900600  0.977800  1.0  0.2691
  N  N72  1  0.814600  0.400600  0.522200  1.0  0.2705
  O  O73  1  0.060000  0.045200  0.290840  1.0  -0.894
  O  O74  1  0.234900  0.209200  0.271000  1.0  -0.7029
  O  O75  1  0.959600  0.250100  0.209930  1.0  -0.9314
  O  O76  1  0.845800  0.222100  0.017760  1.0  -0.6712
  O  O77  1  0.814300  0.979800  0.484700  1.0  -0.6095
  O  O78  1  0.937400  0.912300  0.403310  1.0  -0.6209
  O  O79  1  0.423800  0.851300  0.505200  1.0  -0.6227
  O  O80  1  0.640700  0.936700  0.591700  1.0  -0.6502
  O  O81  1  0.940000  0.545200  0.209160  1.0  -0.8937
  O  O82  1  0.765100  0.709200  0.229000  1.0  -0.7041
  O  O83  1  0.040400  0.750100  0.290070  1.0  -0.9321
  O  O84  1  0.154200  0.722100  0.482240  1.0  -0.6697
  O  O85  1  0.185700  0.479800  0.015300  1.0  -0.61
  O  O86  1  0.062600  0.412300  0.096690  1.0  -0.6226
  O  O87  1  0.576200  0.351300  0.994800  1.0  -0.6232
  O  O88  1  0.359300  0.436700  0.908300  1.0  -0.6507
  O  O89  1  0.940000  0.954800  0.709160  1.0  -0.8936
  O  O90  1  0.765100  0.790800  0.729000  1.0  -0.702
  O  O91  1  0.040400  0.749900  0.790070  1.0  -0.9322
  O  O92  1  0.154200  0.777900  0.982240  1.0  -0.6691
  O  O93  1  0.185700  0.020200  0.515300  1.0  -0.6096
  O  O94  1  0.062600  0.087700  0.596690  1.0  -0.6215
  O  O95  1  0.576200  0.148700  0.494800  1.0  -0.6223
  O  O96  1  0.359300  0.063300  0.408300  1.0  -0.6516
  O  O97  1  0.060000  0.454800  0.790840  1.0  -0.8946
  O  O98  1  0.234900  0.290800  0.771000  1.0  -0.7024
  O  O99  1  0.959600  0.249900  0.709930  1.0  -0.9308
  O  O100  1  0.845800  0.277900  0.517760  1.0  -0.6695
  O  O101  1  0.814300  0.520200  0.984700  1.0  -0.6095
  O  O102  1  0.937400  0.587700  0.903310  1.0  -0.621
  O  O103  1  0.423800  0.648700  0.005200  1.0  -0.6217
  O  O104  1  0.640700  0.563300  0.091700  1.0  -0.6494
