# generated using pymatgen
data_EuPH7C8NO8
_symmetry_space_group_name_H-M   'P 1'
_cell_length_a   9.75580000
_cell_length_b   10.55490000
_cell_length_c   16.51110000
_cell_angle_alpha   90.00000000
_cell_angle_beta   112.44700000
_cell_angle_gamma   90.00000000
_symmetry_Int_Tables_number   1
_chemical_formula_structural   EuPH7C8NO8
_chemical_formula_sum   'Eu4 P4 H28 C32 N4 O32'
_cell_volume   1571.35586462
_cell_formula_units_Z   4
loop_
 _symmetry_equiv_pos_site_id
 _symmetry_equiv_pos_as_xyz
  1  'x, y, z'
loop_
 _atom_site_type_symbol
 _atom_site_label
 _atom_site_symmetry_multiplicity
 _atom_site_fract_x
 _atom_site_fract_y
 _atom_site_fract_z
 _atom_site_occupancy
 _atom_site_charge
  Eu  Eu1  1  0.179470  0.888240  0.393350  1.0  2.1449
  Eu  Eu2  1  0.820530  0.388240  0.106650  1.0  2.1439
  Eu  Eu3  1  0.820530  0.111760  0.606650  1.0  2.1435
  Eu  Eu4  1  0.179470  0.611760  0.893350  1.0  2.1444
  P  P5  1  0.074840  0.143560  0.230560  1.0  1.5538
  P  P6  1  0.925160  0.643560  0.269440  1.0  1.5548
  P  P7  1  0.925160  0.856440  0.769440  1.0  1.5546
  P  P8  1  0.074840  0.356440  0.730560  1.0  1.5539
  H  H9  1  0.607400  0.106400  0.934600  1.0  0.1136
  H  H10  1  0.553400  0.894400  0.936000  1.0  0.1023
  H  H11  1  0.727500  0.758600  0.027100  1.0  0.0958
  H  H12  1  0.958200  0.835200  0.115300  1.0  0.1054
  H  H13  1  0.090400  0.136400  0.094300  1.0  0.1349
  H  H14  1  0.142100  0.006800  0.142600  1.0  0.1413
  H  H15  1  0.286200  0.164300  0.313800  1.0  0.4118
  H  H16  1  0.392600  0.606400  0.565400  1.0  0.1132
  H  H17  1  0.446600  0.394400  0.564000  1.0  0.1027
  H  H18  1  0.272500  0.258600  0.472900  1.0  0.0961
  H  H19  1  0.041800  0.335200  0.384700  1.0  0.105
  H  H20  1  0.909600  0.636400  0.405700  1.0  0.1351
  H  H21  1  0.857900  0.506800  0.357400  1.0  0.1411
  H  H22  1  0.713800  0.664300  0.186200  1.0  0.4121
  H  H23  1  0.392600  0.893600  0.065400  1.0  0.1133
  H  H24  1  0.446600  0.105600  0.064000  1.0  0.1026
  H  H25  1  0.272500  0.241400  0.972900  1.0  0.0958
  H  H26  1  0.041800  0.164800  0.884700  1.0  0.1055
  H  H27  1  0.909600  0.863600  0.905700  1.0  0.1356
  H  H28  1  0.857900  0.993200  0.857400  1.0  0.1415
  H  H29  1  0.713800  0.835700  0.686200  1.0  0.4127
  H  H30  1  0.607400  0.393600  0.434600  1.0  0.1133
  H  H31  1  0.553400  0.605600  0.436000  1.0  0.1018
  H  H32  1  0.727500  0.741400  0.527100  1.0  0.096
  H  H33  1  0.958200  0.664800  0.615300  1.0  0.1051
  H  H34  1  0.090400  0.363600  0.594300  1.0  0.1347
  H  H35  1  0.142100  0.493200  0.642600  1.0  0.1409
  H  H36  1  0.286200  0.335700  0.813800  1.0  0.412
  C  C37  1  0.678600  0.051000  0.970900  1.0  -0.0234
  C  C38  1  0.646200  0.924800  0.972000  1.0  -0.0813
  C  C39  1  0.749500  0.844100  0.025800  1.0  -0.0934
  C  C40  1  0.887400  0.890200  0.078400  1.0  -0.1213
  C  C41  1  0.921100  0.016500  0.076800  1.0  0.1935
  C  C42  1  0.067000  0.072400  0.129200  1.0  -0.4595
  C  C43  1  0.928300  0.967300  0.468100  1.0  0.5905
  C  C44  1  0.517700  0.940100  0.528400  1.0  0.6146
  C  C45  1  0.321400  0.551000  0.529100  1.0  -0.0236
  C  C46  1  0.353800  0.424800  0.528000  1.0  -0.0824
  C  C47  1  0.250500  0.344100  0.474200  1.0  -0.0936
  C  C48  1  0.112600  0.390200  0.421600  1.0  -0.1207
  C  C49  1  0.078900  0.516500  0.423200  1.0  0.1936
  C  C50  1  0.933000  0.572400  0.370800  1.0  -0.4567
  C  C51  1  0.071700  0.467300  0.031900  1.0  0.5904
  C  C52  1  0.482300  0.440100  0.971600  1.0  0.6159
  C  C53  1  0.321400  0.949000  0.029100  1.0  -0.0231
  C  C54  1  0.353800  0.075200  0.028000  1.0  -0.0826
  C  C55  1  0.250500  0.155900  0.974200  1.0  -0.0924
  C  C56  1  0.112600  0.109800  0.921600  1.0  -0.1211
  C  C57  1  0.078900  0.983500  0.923200  1.0  0.1933
  C  C58  1  0.933000  0.927600  0.870800  1.0  -0.4572
  C  C59  1  0.071700  0.032700  0.531900  1.0  0.5914
  C  C60  1  0.482300  0.059900  0.471600  1.0  0.6153
  C  C61  1  0.678600  0.449000  0.470900  1.0  -0.0237
  C  C62  1  0.646200  0.575200  0.472000  1.0  -0.081
  C  C63  1  0.749500  0.655900  0.525800  1.0  -0.0917
  C  C64  1  0.887400  0.609800  0.578400  1.0  -0.1219
  C  C65  1  0.921100  0.483500  0.576800  1.0  0.1935
  C  C66  1  0.067000  0.427600  0.629200  1.0  -0.4596
  C  C67  1  0.928300  0.532700  0.968100  1.0  0.5911
  C  C68  1  0.517700  0.559900  0.028400  1.0  0.614
  N  N69  1  0.814400  0.094700  0.022700  1.0  0.2871
  N  N70  1  0.185600  0.594700  0.477300  1.0  0.2868
  N  N71  1  0.185600  0.905300  0.977300  1.0  0.2837
  N  N72  1  0.814400  0.405300  0.522700  1.0  0.2837
  O  O73  1  0.060200  0.040700  0.289720  1.0  -0.9091
  O  O74  1  0.234600  0.204300  0.270200  1.0  -0.7001
  O  O75  1  0.960900  0.245700  0.210390  1.0  -0.9244
  O  O76  1  0.844000  0.216600  0.017800  1.0  -0.6769
  O  O77  1  0.814200  0.980400  0.484700  1.0  -0.6235
  O  O78  1  0.938200  0.909200  0.405400  1.0  -0.6206
  O  O79  1  0.426500  0.851800  0.506800  1.0  -0.6076
  O  O80  1  0.639500  0.940800  0.592890  1.0  -0.6505
  O  O81  1  0.939800  0.540700  0.210280  1.0  -0.9089
  O  O82  1  0.765400  0.704300  0.229800  1.0  -0.7013
  O  O83  1  0.039100  0.745700  0.289610  1.0  -0.9245
  O  O84  1  0.156000  0.716600  0.482200  1.0  -0.6757
  O  O85  1  0.185800  0.480400  0.015300  1.0  -0.6231
  O  O86  1  0.061800  0.409200  0.094600  1.0  -0.6205
  O  O87  1  0.573500  0.351800  0.993200  1.0  -0.6077
  O  O88  1  0.360500  0.440800  0.907110  1.0  -0.6496
  O  O89  1  0.939800  0.959300  0.710280  1.0  -0.9083
  O  O90  1  0.765400  0.795700  0.729800  1.0  -0.6997
  O  O91  1  0.039100  0.754300  0.789610  1.0  -0.9249
  O  O92  1  0.156000  0.783400  0.982200  1.0  -0.6752
  O  O93  1  0.185800  0.019600  0.515300  1.0  -0.6232
  O  O94  1  0.061800  0.090800  0.594600  1.0  -0.6202
  O  O95  1  0.573500  0.148200  0.493200  1.0  -0.6078
  O  O96  1  0.360500  0.059200  0.407110  1.0  -0.6499
  O  O97  1  0.060200  0.459300  0.789720  1.0  -0.9093
  O  O98  1  0.234600  0.295700  0.770200  1.0  -0.6996
  O  O99  1  0.960900  0.254300  0.710390  1.0  -0.9235
  O  O100  1  0.844000  0.283400  0.517800  1.0  -0.675
  O  O101  1  0.814200  0.519600  0.984700  1.0  -0.6238
  O  O102  1  0.938200  0.590800  0.905400  1.0  -0.6206
  O  O103  1  0.426500  0.648200  0.006800  1.0  -0.6074
  O  O104  1  0.639500  0.559200  0.092890  1.0  -0.6508
