# generated using pymatgen
data_Zn3P4H3O16
_symmetry_space_group_name_H-M   'P 1'
_cell_length_a   15.10850000
_cell_length_b   8.84030000
_cell_length_c   17.26280000
_cell_angle_alpha   90.00000000
_cell_angle_beta   114.53700000
_cell_angle_gamma   90.00000000
_symmetry_Int_Tables_number   1
_chemical_formula_structural   Zn3P4H3O16
_chemical_formula_sum   'Zn12 P16 H12 O64'
_cell_volume   2097.46430953
_cell_formula_units_Z   4
loop_
 _symmetry_equiv_pos_site_id
 _symmetry_equiv_pos_as_xyz
  1  'x, y, z'
loop_
 _atom_site_type_symbol
 _atom_site_label
 _atom_site_symmetry_multiplicity
 _atom_site_fract_x
 _atom_site_fract_y
 _atom_site_fract_z
 _atom_site_occupancy
 _atom_site_charge
  Zn  Zn1  1  0.190280  0.111510  0.544510  1.0  1.1435
  Zn  Zn2  1  0.014570  0.919760  0.776670  1.0  1.1758
  Zn  Zn3  1  0.283250  0.158570  0.810740  1.0  1.1755
  Zn  Zn4  1  0.690280  0.611510  0.544510  1.0  1.1435
  Zn  Zn5  1  0.514570  0.419760  0.776670  1.0  1.1758
  Zn  Zn6  1  0.783250  0.658570  0.810740  1.0  1.1755
  Zn  Zn7  1  0.190280  0.888490  0.044510  1.0  1.1434
  Zn  Zn8  1  0.014570  0.080240  0.276670  1.0  1.176
  Zn  Zn9  1  0.283250  0.841430  0.310740  1.0  1.1753
  Zn  Zn10  1  0.690280  0.388490  0.044510  1.0  1.1434
  Zn  Zn11  1  0.514570  0.580240  0.276670  1.0  1.176
  Zn  Zn12  1  0.783250  0.341430  0.310740  1.0  1.1753
  P  P13  1  0.287230  0.380700  0.665380  1.0  1.7429
  P  P14  1  0.016600  0.318900  0.415650  1.0  1.7697
  P  P15  1  0.152880  0.866700  0.412130  1.0  1.7826
  P  P16  1  0.170990  0.886300  0.691120  1.0  1.854
  P  P17  1  0.787230  0.880700  0.665380  1.0  1.7439
  P  P18  1  0.516600  0.818900  0.415650  1.0  1.7713
  P  P19  1  0.652880  0.366700  0.412130  1.0  1.7826
  P  P20  1  0.670990  0.386300  0.691120  1.0  1.854
  P  P21  1  0.287230  0.619300  0.165380  1.0  1.7428
  P  P22  1  0.016600  0.681100  0.915650  1.0  1.7701
  P  P23  1  0.152880  0.133300  0.912130  1.0  1.7836
  P  P24  1  0.170990  0.113700  0.191120  1.0  1.8537
  P  P25  1  0.787230  0.119300  0.165380  1.0  1.7438
  P  P26  1  0.516600  0.181100  0.915650  1.0  1.7717
  P  P27  1  0.652880  0.633300  0.912130  1.0  1.7836
  P  P28  1  0.670990  0.613700  0.191120  1.0  1.8537
  H  H29  1  0.204400  0.568300  0.635900  1.0  0.4272
  H  H30  1  0.049600  0.533100  0.398800  1.0  0.3717
  H  H31  1  0.115900  0.684700  0.461900  1.0  0.3611
  H  H32  1  0.704400  0.068300  0.635900  1.0  0.4272
  H  H33  1  0.549600  0.033100  0.398800  1.0  0.3717
  H  H34  1  0.615900  0.184700  0.461900  1.0  0.3611
  H  H35  1  0.204400  0.431700  0.135900  1.0  0.4287
  H  H36  1  0.049600  0.466900  0.898800  1.0  0.3698
  H  H37  1  0.115900  0.315300  0.961900  1.0  0.3589
  H  H38  1  0.704400  0.931700  0.135900  1.0  0.4287
  H  H39  1  0.549600  0.966900  0.898800  1.0  0.3698
  H  H40  1  0.615900  0.815300  0.961900  1.0  0.3589
  O  O41  1  0.288500  0.252400  0.606100  1.0  -0.7456
  O  O42  1  0.062500  0.213000  0.490200  1.0  -0.7602
  O  O43  1  0.213600  0.004400  0.454900  1.0  -0.712
  O  O44  1  0.161000  0.942700  0.603800  1.0  -0.8104
  O  O45  1  0.079100  0.935200  0.701000  1.0  -0.8037
  O  O46  1  0.048100  0.908400  0.354300  1.0  -0.7111
  O  O47  1  0.381700  0.466600  0.699600  1.0  -0.7758
  O  O48  1  0.025700  0.271500  0.334900  1.0  -0.7789
  O  O49  1  0.260600  0.959100  0.762400  1.0  -0.7325
  O  O50  1  0.912000  0.349600  0.400500  1.0  -0.7744
  O  O51  1  0.258800  0.327100  0.734700  1.0  -0.8157
  O  O52  1  0.197700  0.774200  0.362900  1.0  -0.7441
  O  O53  1  0.206700  0.495700  0.607200  1.0  -0.6414
  O  O54  1  0.073700  0.474100  0.438800  1.0  -0.5644
  O  O55  1  0.148500  0.759800  0.483900  1.0  -0.6403
  O  O56  1  0.184200  0.716700  0.695900  1.0  -0.7959
  O  O57  1  0.788500  0.752400  0.606100  1.0  -0.7456
  O  O58  1  0.562500  0.713000  0.490200  1.0  -0.7602
  O  O59  1  0.713600  0.504400  0.454900  1.0  -0.712
  O  O60  1  0.661000  0.442700  0.603800  1.0  -0.8104
  O  O61  1  0.579100  0.435200  0.701000  1.0  -0.8041
  O  O62  1  0.548100  0.408400  0.354300  1.0  -0.7111
  O  O63  1  0.881700  0.966600  0.699600  1.0  -0.7757
  O  O64  1  0.525700  0.771500  0.334900  1.0  -0.7789
  O  O65  1  0.760600  0.459100  0.762400  1.0  -0.7327
  O  O66  1  0.412000  0.849600  0.400500  1.0  -0.7748
  O  O67  1  0.758800  0.827100  0.734700  1.0  -0.8157
  O  O68  1  0.697700  0.274200  0.362900  1.0  -0.744
  O  O69  1  0.706700  0.995700  0.607200  1.0  -0.6414
  O  O70  1  0.573700  0.974100  0.438800  1.0  -0.5644
  O  O71  1  0.648500  0.259800  0.483900  1.0  -0.6403
  O  O72  1  0.684200  0.216700  0.695900  1.0  -0.7959
  O  O73  1  0.288500  0.747600  0.106100  1.0  -0.7457
  O  O74  1  0.062500  0.787000  0.990200  1.0  -0.7591
  O  O75  1  0.213600  0.995600  0.954900  1.0  -0.711
  O  O76  1  0.161000  0.057300  0.103800  1.0  -0.8104
  O  O77  1  0.079100  0.064800  0.201000  1.0  -0.8029
  O  O78  1  0.048100  0.091600  0.854300  1.0  -0.7118
  O  O79  1  0.381700  0.533400  0.199600  1.0  -0.7766
  O  O80  1  0.025700  0.728500  0.834900  1.0  -0.779
  O  O81  1  0.260600  0.040900  0.262400  1.0  -0.7324
  O  O82  1  0.912000  0.650400  0.900500  1.0  -0.7744
  O  O83  1  0.258800  0.672900  0.234700  1.0  -0.8154
  O  O84  1  0.197700  0.225800  0.862900  1.0  -0.7441
  O  O85  1  0.206700  0.504300  0.107200  1.0  -0.6405
  O  O86  1  0.073700  0.525900  0.938800  1.0  -0.5645
  O  O87  1  0.148500  0.240200  0.983900  1.0  -0.6389
  O  O88  1  0.184200  0.283300  0.195900  1.0  -0.7956
  O  O89  1  0.788500  0.247600  0.106100  1.0  -0.7457
  O  O90  1  0.562500  0.287000  0.990200  1.0  -0.7591
  O  O91  1  0.713600  0.495600  0.954900  1.0  -0.711
  O  O92  1  0.661000  0.557300  0.103800  1.0  -0.8104
  O  O93  1  0.579100  0.564800  0.201000  1.0  -0.8021
  O  O94  1  0.548100  0.591600  0.854300  1.0  -0.7118
  O  O95  1  0.881700  0.033400  0.199600  1.0  -0.7763
  O  O96  1  0.525700  0.228500  0.834900  1.0  -0.779
  O  O97  1  0.760600  0.540900  0.262400  1.0  -0.7325
  O  O98  1  0.412000  0.150400  0.900500  1.0  -0.7745
  O  O99  1  0.758800  0.172900  0.234700  1.0  -0.8154
  O  O100  1  0.697700  0.725800  0.862900  1.0  -0.7437
  O  O101  1  0.706700  0.004300  0.107200  1.0  -0.6405
  O  O102  1  0.573700  0.025900  0.938800  1.0  -0.5645
  O  O103  1  0.648500  0.740200  0.983900  1.0  -0.6389
  O  O104  1  0.684200  0.783300  0.195900  1.0  -0.7956
