# generated using pymatgen
data_HoPH7C8NO8
_symmetry_space_group_name_H-M   'P 1'
_cell_length_a   9.72160000
_cell_length_b   10.42730000
_cell_length_c   16.40460000
_cell_angle_alpha   90.00000000
_cell_angle_beta   112.67800000
_cell_angle_gamma   90.00000000
_symmetry_Int_Tables_number   1
_chemical_formula_structural   HoPH7C8NO8
_chemical_formula_sum   'Ho4 P4 H28 C32 N4 O32'
_cell_volume   1534.36713046
_cell_formula_units_Z   4
loop_
 _symmetry_equiv_pos_site_id
 _symmetry_equiv_pos_as_xyz
  1  'x, y, z'
loop_
 _atom_site_type_symbol
 _atom_site_label
 _atom_site_symmetry_multiplicity
 _atom_site_fract_x
 _atom_site_fract_y
 _atom_site_fract_z
 _atom_site_occupancy
 _atom_site_charge
  Ho  Ho1  1  0.177960  0.896400  0.392930  1.0  2.1799
  Ho  Ho2  1  0.822040  0.396400  0.107070  1.0  2.1797
  Ho  Ho3  1  0.822040  0.103600  0.607070  1.0  2.1789
  Ho  Ho4  1  0.177960  0.603600  0.892930  1.0  2.1794
  P  P5  1  0.074480  0.151830  0.231780  1.0  1.5667
  P  P6  1  0.925520  0.651830  0.268220  1.0  1.566
  P  P7  1  0.925520  0.848170  0.768220  1.0  1.5655
  P  P8  1  0.074480  0.348170  0.731780  1.0  1.5665
  H  H9  1  0.609200  0.118400  0.930300  1.0  0.106
  H  H10  1  0.549400  0.904500  0.931200  1.0  0.1031
  H  H11  1  0.722800  0.765400  0.023300  1.0  0.0937
  H  H12  1  0.953900  0.839100  0.114200  1.0  0.1002
  H  H13  1  0.094900  0.143000  0.096000  1.0  0.1289
  H  H14  1  0.143200  0.011500  0.144900  1.0  0.1375
  H  H15  1  0.286800  0.173700  0.316000  1.0  0.4141
  H  H16  1  0.390800  0.618400  0.569700  1.0  0.1059
  H  H17  1  0.450600  0.404500  0.568800  1.0  0.1035
  H  H18  1  0.277200  0.265400  0.476700  1.0  0.0939
  H  H19  1  0.046100  0.339100  0.385800  1.0  0.0998
  H  H20  1  0.905100  0.643000  0.404000  1.0  0.1291
  H  H21  1  0.856800  0.511500  0.355100  1.0  0.1372
  H  H22  1  0.713200  0.673700  0.184000  1.0  0.4132
  H  H23  1  0.390800  0.881600  0.069700  1.0  0.1058
  H  H24  1  0.450600  0.095500  0.068800  1.0  0.1046
  H  H25  1  0.277200  0.234600  0.976700  1.0  0.0938
  H  H26  1  0.046100  0.160900  0.885800  1.0  0.1004
  H  H27  1  0.905100  0.857000  0.904000  1.0  0.1297
  H  H28  1  0.856800  0.988500  0.855100  1.0  0.1379
  H  H29  1  0.713200  0.826300  0.684000  1.0  0.4141
  H  H30  1  0.609200  0.381600  0.430300  1.0  0.1056
  H  H31  1  0.549400  0.595500  0.431200  1.0  0.104
  H  H32  1  0.722800  0.734600  0.523300  1.0  0.0933
  H  H33  1  0.953900  0.660900  0.614200  1.0  0.0997
  H  H34  1  0.094900  0.357000  0.596000  1.0  0.1291
  H  H35  1  0.143200  0.488500  0.644900  1.0  0.1373
  H  H36  1  0.286800  0.326300  0.816000  1.0  0.4144
  C  C37  1  0.678800  0.061500  0.967600  1.0  -0.02
  C  C38  1  0.643000  0.934200  0.967900  1.0  -0.0919
  C  C39  1  0.746100  0.851700  0.022600  1.0  -0.0858
  C  C40  1  0.884200  0.895800  0.076700  1.0  -0.1353
  C  C41  1  0.920800  0.024000  0.076000  1.0  0.19
  C  C42  1  0.068900  0.079000  0.130500  1.0  -0.448
  C  C43  1  0.928200  0.969000  0.467000  1.0  0.5585
  C  C44  1  0.517200  0.937500  0.526600  1.0  0.6249
  C  C45  1  0.321200  0.561500  0.532400  1.0  -0.0218
  C  C46  1  0.357000  0.434200  0.532100  1.0  -0.0946
  C  C47  1  0.253900  0.351700  0.477400  1.0  -0.0866
  C  C48  1  0.115800  0.395800  0.423300  1.0  -0.1354
  C  C49  1  0.079200  0.524000  0.424000  1.0  0.1901
  C  C50  1  0.931100  0.579000  0.369500  1.0  -0.4472
  C  C51  1  0.071800  0.469000  0.033000  1.0  0.5585
  C  C52  1  0.482800  0.437500  0.973400  1.0  0.6243
  C  C53  1  0.321200  0.938500  0.032400  1.0  -0.0214
  C  C54  1  0.357000  0.065800  0.032100  1.0  -0.095
  C  C55  1  0.253900  0.148300  0.977400  1.0  -0.0857
  C  C56  1  0.115800  0.104200  0.923300  1.0  -0.1349
  C  C57  1  0.079200  0.976000  0.924000  1.0  0.1898
  C  C58  1  0.931100  0.921000  0.869500  1.0  -0.4475
  C  C59  1  0.071800  0.031000  0.533000  1.0  0.5651
  C  C60  1  0.482800  0.062500  0.473400  1.0  0.624
  C  C61  1  0.678800  0.438500  0.467600  1.0  -0.0209
  C  C62  1  0.643000  0.565800  0.467900  1.0  -0.0921
  C  C63  1  0.746100  0.648300  0.522600  1.0  -0.0839
  C  C64  1  0.884200  0.604200  0.576700  1.0  -0.1351
  C  C65  1  0.920800  0.476000  0.576000  1.0  0.19
  C  C66  1  0.068900  0.421000  0.630500  1.0  -0.448
  C  C67  1  0.928200  0.531000  0.967000  1.0  0.5648
  C  C68  1  0.517200  0.562500  0.026600  1.0  0.6245
  N  N69  1  0.814400  0.104400  0.021400  1.0  0.291
  N  N70  1  0.185600  0.604400  0.478600  1.0  0.2906
  N  N71  1  0.185600  0.895600  0.978600  1.0  0.2885
  N  N72  1  0.814400  0.395600  0.521400  1.0  0.2887
  O  O73  1  0.060600  0.049700  0.292400  1.0  -0.8949
  O  O74  1  0.234800  0.213800  0.271900  1.0  -0.6864
  O  O75  1  0.958200  0.253800  0.209910  1.0  -0.9302
  O  O76  1  0.847300  0.227500  0.017800  1.0  -0.6588
  O  O77  1  0.814000  0.979100  0.484200  1.0  -0.6328
  O  O78  1  0.936800  0.915400  0.401700  1.0  -0.6353
  O  O79  1  0.421700  0.851100  0.503300  1.0  -0.6259
  O  O80  1  0.641600  0.933200  0.590100  1.0  -0.6482
  O  O81  1  0.939400  0.549700  0.207600  1.0  -0.8947
  O  O82  1  0.765200  0.713800  0.228100  1.0  -0.6885
  O  O83  1  0.041800  0.753800  0.290090  1.0  -0.9312
  O  O84  1  0.152700  0.727500  0.482200  1.0  -0.6575
  O  O85  1  0.186000  0.479100  0.015800  1.0  -0.6324
  O  O86  1  0.063200  0.415400  0.098300  1.0  -0.6367
  O  O87  1  0.578300  0.351100  0.996700  1.0  -0.6259
  O  O88  1  0.358400  0.433200  0.909900  1.0  -0.6486
  O  O89  1  0.939400  0.950300  0.707600  1.0  -0.8944
  O  O90  1  0.765200  0.786200  0.728100  1.0  -0.6869
  O  O91  1  0.041800  0.746200  0.790090  1.0  -0.9318
  O  O92  1  0.152700  0.772500  0.982200  1.0  -0.6557
  O  O93  1  0.186000  0.020900  0.515800  1.0  -0.6322
  O  O94  1  0.063200  0.084600  0.598300  1.0  -0.6361
  O  O95  1  0.578300  0.148900  0.496700  1.0  -0.626
  O  O96  1  0.358400  0.066800  0.409900  1.0  -0.649
  O  O97  1  0.060600  0.450300  0.792400  1.0  -0.8953
  O  O98  1  0.234800  0.286200  0.771900  1.0  -0.6866
  O  O99  1  0.958200  0.246200  0.709910  1.0  -0.93
  O  O100  1  0.847300  0.272500  0.517800  1.0  -0.6555
  O  O101  1  0.814000  0.520900  0.984200  1.0  -0.6328
  O  O102  1  0.936800  0.584600  0.901700  1.0  -0.6361
  O  O103  1  0.421700  0.648900  0.003300  1.0  -0.6254
  O  O104  1  0.641600  0.566800  0.090100  1.0  -0.6484
