# generated using pymatgen
data_Cu4H32C65(N3O4)4
_symmetry_space_group_name_H-M   'P 1'
_cell_length_a   46.05750000
_cell_length_b   20.94420000
_cell_length_c   14.10010000
_cell_angle_alpha   90.00000000
_cell_angle_beta   90.00000000
_cell_angle_gamma   90.00000000
_symmetry_Int_Tables_number   1
_chemical_formula_structural   Cu4H32C65(N3O4)4
_chemical_formula_sum   'Cu16 H128 C260 N48 O64'
_cell_volume   13601.48509390
_cell_formula_units_Z   4
loop_
 _symmetry_equiv_pos_site_id
 _symmetry_equiv_pos_as_xyz
  1  'x, y, z'
loop_
 _atom_site_type_symbol
 _atom_site_label
 _atom_site_symmetry_multiplicity
 _atom_site_fract_x
 _atom_site_fract_y
 _atom_site_fract_z
 _atom_site_occupancy
 _atom_site_charge
  Cu  Cu1  1  0.258460  0.189460  0.496570  1.0  0.9001
  Cu  Cu2  1  0.758460  0.689460  0.496570  1.0  0.9001
  Cu  Cu3  1  0.741540  0.810540  0.496570  1.0  0.8977
  Cu  Cu4  1  0.241540  0.310540  0.496570  1.0  0.8977
  Cu  Cu5  1  0.741540  0.189460  0.503430  1.0  0.9003
  Cu  Cu6  1  0.241540  0.689460  0.503430  1.0  0.9003
  Cu  Cu7  1  0.258460  0.810540  0.503430  1.0  0.8971
  Cu  Cu8  1  0.758460  0.310540  0.503430  1.0  0.8971
  Cu  Cu9  1  0.195120  0.000000  0.000000  1.0  0.9014
  Cu  Cu10  1  0.137550  0.000000  0.000000  1.0  0.9048
  Cu  Cu11  1  0.695120  0.500000  0.000000  1.0  0.9014
  Cu  Cu12  1  0.637550  0.500000  0.000000  1.0  0.9055
  Cu  Cu13  1  0.804880  0.000000  0.000000  1.0  0.902
  Cu  Cu14  1  0.862450  0.000000  0.000000  1.0  0.9054
  Cu  Cu15  1  0.304880  0.500000  0.000000  1.0  0.902
  Cu  Cu16  1  0.362450  0.500000  0.000000  1.0  0.9062
  H  H17  1  0.205100  0.129500  0.246700  1.0  0.1168
  H  H18  1  0.123400  0.164300  0.161800  1.0  0.1186
  H  H19  1  0.204800  0.127600  0.746000  1.0  0.1099
  H  H20  1  0.126600  0.176500  0.849900  1.0  0.1162
  H  H21  1  0.161600  0.280100  0.353000  1.0  0.1175
  H  H22  1  0.165700  0.288000  0.656200  1.0  0.1222
  H  H23  1  0.112500  0.311600  0.385800  1.0  0.1271
  H  H24  1  0.101800  0.280400  0.886700  1.0  0.1275
  H  H25  1  0.024600  0.371300  0.249800  1.0  0.11
  H  H26  1  0.078100  0.368900  0.472100  1.0  0.1096
  H  H27  1  0.060800  0.330800  0.959200  1.0  0.1074
  H  H28  1  0.059700  0.457800  0.750000  1.0  0.117
  H  H29  1  0.995500  0.443800  0.325200  1.0  0.0898
  H  H30  1  0.049000  0.442300  0.549500  1.0  0.1089
  H  H31  1  0.026800  0.390500  0.040900  1.0  0.1005
  H  H32  1  0.025600  0.515800  0.828600  1.0  0.0991
  H  H33  1  0.705100  0.629500  0.246700  1.0  0.1168
  H  H34  1  0.623400  0.664300  0.161800  1.0  0.1188
  H  H35  1  0.704800  0.627600  0.746000  1.0  0.1099
  H  H36  1  0.626600  0.676500  0.849900  1.0  0.1162
  H  H37  1  0.661600  0.780100  0.353000  1.0  0.1175
  H  H38  1  0.665700  0.788000  0.656200  1.0  0.1222
  H  H39  1  0.612500  0.811600  0.385800  1.0  0.1271
  H  H40  1  0.601800  0.780400  0.886700  1.0  0.1275
  H  H41  1  0.524600  0.871300  0.249800  1.0  0.11
  H  H42  1  0.578100  0.868900  0.472100  1.0  0.1096
  H  H43  1  0.560800  0.830800  0.959200  1.0  0.1078
  H  H44  1  0.559700  0.957800  0.750000  1.0  0.117
  H  H45  1  0.495500  0.943800  0.325200  1.0  0.0898
  H  H46  1  0.549000  0.942300  0.549500  1.0  0.1089
  H  H47  1  0.526800  0.890500  0.040900  1.0  0.1005
  H  H48  1  0.525600  0.015800  0.828600  1.0  0.0991
  H  H49  1  0.794900  0.870500  0.246700  1.0  0.1165
  H  H50  1  0.876600  0.835700  0.161800  1.0  0.1185
  H  H51  1  0.795200  0.872400  0.746000  1.0  0.1106
  H  H52  1  0.873400  0.823500  0.849900  1.0  0.1157
  H  H53  1  0.838400  0.719900  0.353000  1.0  0.1174
  H  H54  1  0.834300  0.712000  0.656200  1.0  0.1222
  H  H55  1  0.887500  0.688400  0.385800  1.0  0.1272
  H  H56  1  0.898200  0.719600  0.886700  1.0  0.1274
  H  H57  1  0.975400  0.628700  0.249800  1.0  0.1114
  H  H58  1  0.921900  0.631100  0.472100  1.0  0.1093
  H  H59  1  0.939200  0.669200  0.959200  1.0  0.1073
  H  H60  1  0.940300  0.542200  0.750000  1.0  0.1175
  H  H61  1  0.004500  0.556200  0.325200  1.0  0.0905
  H  H62  1  0.951000  0.557700  0.549500  1.0  0.1095
  H  H63  1  0.973200  0.609500  0.040900  1.0  0.1001
  H  H64  1  0.974400  0.484200  0.828600  1.0  0.0986
  H  H65  1  0.294900  0.370500  0.246700  1.0  0.1165
  H  H66  1  0.376600  0.335700  0.161800  1.0  0.1188
  H  H67  1  0.295200  0.372400  0.746000  1.0  0.1106
  H  H68  1  0.373400  0.323500  0.849900  1.0  0.1157
  H  H69  1  0.338400  0.219900  0.353000  1.0  0.1174
  H  H70  1  0.334300  0.212000  0.656200  1.0  0.1222
  H  H71  1  0.387500  0.188400  0.385800  1.0  0.1272
  H  H72  1  0.398200  0.219600  0.886700  1.0  0.1274
  H  H73  1  0.475400  0.128700  0.249800  1.0  0.1114
  H  H74  1  0.421900  0.131100  0.472100  1.0  0.1093
  H  H75  1  0.439200  0.169200  0.959200  1.0  0.1076
  H  H76  1  0.440300  0.042200  0.750000  1.0  0.1175
  H  H77  1  0.504500  0.056200  0.325200  1.0  0.0905
  H  H78  1  0.451000  0.057700  0.549500  1.0  0.1095
  H  H79  1  0.473200  0.109500  0.040900  1.0  0.1001
  H  H80  1  0.474400  0.984200  0.828600  1.0  0.0986
  H  H81  1  0.794900  0.129500  0.753300  1.0  0.1164
  H  H82  1  0.876600  0.164300  0.838200  1.0  0.1182
  H  H83  1  0.795200  0.127600  0.254000  1.0  0.1099
  H  H84  1  0.873400  0.176500  0.150100  1.0  0.1159
  H  H85  1  0.838400  0.280100  0.647000  1.0  0.1185
  H  H86  1  0.834300  0.288000  0.343800  1.0  0.1214
  H  H87  1  0.887500  0.311600  0.614200  1.0  0.1271
  H  H88  1  0.898200  0.280400  0.113300  1.0  0.1275
  H  H89  1  0.975400  0.371300  0.750200  1.0  0.111
  H  H90  1  0.921900  0.368900  0.527900  1.0  0.1091
  H  H91  1  0.939200  0.330800  0.040800  1.0  0.1071
  H  H92  1  0.940300  0.457800  0.250000  1.0  0.1178
  H  H93  1  0.004500  0.443800  0.674800  1.0  0.0902
  H  H94  1  0.951000  0.442300  0.450500  1.0  0.1102
  H  H95  1  0.973200  0.390500  0.959100  1.0  0.1007
  H  H96  1  0.974400  0.515800  0.171400  1.0  0.0986
  H  H97  1  0.294900  0.629500  0.753300  1.0  0.1164
  H  H98  1  0.376600  0.664300  0.838200  1.0  0.1185
  H  H99  1  0.295200  0.627600  0.254000  1.0  0.1099
  H  H100  1  0.373400  0.676500  0.150100  1.0  0.1159
  H  H101  1  0.338400  0.780100  0.647000  1.0  0.1185
  H  H102  1  0.334300  0.788000  0.343800  1.0  0.1214
  H  H103  1  0.387500  0.811600  0.614200  1.0  0.1271
  H  H104  1  0.398200  0.780400  0.113300  1.0  0.1275
  H  H105  1  0.475400  0.871300  0.750200  1.0  0.111
  H  H106  1  0.421900  0.868900  0.527900  1.0  0.1091
  H  H107  1  0.439200  0.830800  0.040800  1.0  0.1074
  H  H108  1  0.440300  0.957800  0.250000  1.0  0.1178
  H  H109  1  0.504500  0.943800  0.674800  1.0  0.0902
  H  H110  1  0.451000  0.942300  0.450500  1.0  0.1102
  H  H111  1  0.473200  0.890500  0.959100  1.0  0.1007
  H  H112  1  0.474400  0.015800  0.171400  1.0  0.0986
  H  H113  1  0.205100  0.870500  0.753300  1.0  0.117
  H  H114  1  0.123400  0.835700  0.838200  1.0  0.1182
  H  H115  1  0.204800  0.872400  0.254000  1.0  0.1103
  H  H116  1  0.126600  0.823500  0.150100  1.0  0.1169
  H  H117  1  0.161600  0.719900  0.647000  1.0  0.1177
  H  H118  1  0.165700  0.712000  0.343800  1.0  0.1214
  H  H119  1  0.112500  0.688400  0.614200  1.0  0.1272
  H  H120  1  0.101800  0.719600  0.113300  1.0  0.1277
  H  H121  1  0.024600  0.628700  0.750200  1.0  0.1111
  H  H122  1  0.078100  0.631100  0.527900  1.0  0.1088
  H  H123  1  0.060800  0.669200  0.040800  1.0  0.1075
  H  H124  1  0.059700  0.542200  0.250000  1.0  0.1169
  H  H125  1  0.995500  0.556200  0.674800  1.0  0.0914
  H  H126  1  0.049000  0.557700  0.450500  1.0  0.1101
  H  H127  1  0.026800  0.609500  0.959100  1.0  0.1008
  H  H128  1  0.025600  0.484200  0.171400  1.0  0.0973
  H  H129  1  0.705100  0.370500  0.753300  1.0  0.117
  H  H130  1  0.623400  0.335700  0.838200  1.0  0.1185
  H  H131  1  0.704800  0.372400  0.254000  1.0  0.1103
  H  H132  1  0.626600  0.323500  0.150100  1.0  0.1169
  H  H133  1  0.661600  0.219900  0.647000  1.0  0.1177
  H  H134  1  0.665700  0.212000  0.343800  1.0  0.1214
  H  H135  1  0.612500  0.188400  0.614200  1.0  0.1272
  H  H136  1  0.601800  0.219600  0.113300  1.0  0.1277
  H  H137  1  0.524600  0.128700  0.750200  1.0  0.1111
  H  H138  1  0.578100  0.131100  0.527900  1.0  0.1088
  H  H139  1  0.560800  0.169200  0.040800  1.0  0.1077
  H  H140  1  0.559700  0.042200  0.250000  1.0  0.1169
  H  H141  1  0.495500  0.056200  0.674800  1.0  0.0914
  H  H142  1  0.549000  0.057700  0.450500  1.0  0.1101
  H  H143  1  0.526800  0.109500  0.959100  1.0  0.1008
  H  H144  1  0.525600  0.984200  0.171400  1.0  0.0973
  C  C145  1  0.166770  0.086010  0.123600  1.0  0.6735
  C  C146  1  0.165700  0.087360  0.876700  1.0  0.7087
  C  C147  1  0.165550  0.140210  0.191800  1.0  -0.1109
  C  C148  1  0.165740  0.144180  0.810900  1.0  -0.1291
  C  C149  1  0.188510  0.154950  0.248000  1.0  -0.0011
  C  C150  1  0.139640  0.175950  0.197200  1.0  -0.0213
  C  C151  1  0.189090  0.155470  0.747400  1.0  0.0234
  C  C152  1  0.142490  0.184550  0.810800  1.0  -0.0719
  C  C153  1  0.187400  0.208980  0.308900  1.0  -0.1267
  C  C154  1  0.138840  0.228320  0.255900  1.0  0.0845
  C  C155  1  0.188600  0.206650  0.688800  1.0  -0.0913
  C  C156  1  0.142640  0.238420  0.751400  1.0  0.1614
  C  C157  1  0.211920  0.224020  0.373000  1.0  0.688
  C  C158  1  0.162660  0.244910  0.312900  1.0  -0.0762
  C  C159  1  0.212940  0.221900  0.620000  1.0  0.69
  C  C160  1  0.165360  0.251090  0.692800  1.0  -0.0297
  C  C161  1  0.102890  0.301950  0.329600  1.0  -0.0806
  C  C162  1  0.102320  0.299370  0.827100  1.0  -0.0573
  C  C163  1  0.075970  0.321600  0.302200  1.0  0.0497
  C  C164  1  0.085680  0.350140  0.795400  1.0  0.0097
  C  C165  1  0.056140  0.365950  0.350900  1.0  -0.0059
  C  C166  1  0.062970  0.386490  0.845300  1.0  -0.0857
  C  C167  1  0.030030  0.386890  0.308950  1.0  -0.1218
  C  C168  1  0.061900  0.385400  0.441000  1.0  -0.111
  C  C169  1  0.053430  0.367870  0.932000  1.0  -0.1296
  C  C170  1  0.052660  0.443190  0.807800  1.0  -0.1131
  C  C171  1  0.012500  0.430230  0.354800  1.0  -0.1245
  C  C172  1  0.044290  0.429290  0.488300  1.0  -0.1466
  C  C173  1  0.032780  0.403560  0.980900  1.0  -0.143
  C  C174  1  0.032220  0.477790  0.855110  1.0  -0.1167
  C  C175  1  0.019190  0.454090  0.442690  1.0  0.011
  C  C176  1  0.020960  0.458290  0.941260  1.0  0.0136
  C  C177  1  0.666770  0.586010  0.123600  1.0  0.6735
  C  C178  1  0.665700  0.587360  0.876700  1.0  0.7087
  C  C179  1  0.665550  0.640210  0.191800  1.0  -0.1109
  C  C180  1  0.665740  0.644180  0.810900  1.0  -0.1291
  C  C181  1  0.688510  0.654950  0.248000  1.0  -0.0011
  C  C182  1  0.639640  0.675950  0.197200  1.0  -0.0213
  C  C183  1  0.689090  0.655470  0.747400  1.0  0.0234
  C  C184  1  0.642490  0.684550  0.810800  1.0  -0.0719
  C  C185  1  0.687400  0.708980  0.308900  1.0  -0.1267
  C  C186  1  0.638840  0.728320  0.255900  1.0  0.0845
  C  C187  1  0.688600  0.706650  0.688800  1.0  -0.0913
  C  C188  1  0.642640  0.738420  0.751400  1.0  0.1614
  C  C189  1  0.711920  0.724020  0.373000  1.0  0.688
  C  C190  1  0.662660  0.744910  0.312900  1.0  -0.0762
  C  C191  1  0.712940  0.721900  0.620000  1.0  0.69
  C  C192  1  0.665360  0.751090  0.692800  1.0  -0.0297
  C  C193  1  0.602890  0.801950  0.329600  1.0  -0.0806
  C  C194  1  0.602320  0.799370  0.827100  1.0  -0.0573
  C  C195  1  0.575970  0.821600  0.302200  1.0  0.0494
  C  C196  1  0.585680  0.850140  0.795400  1.0  0.0097
  C  C197  1  0.556140  0.865950  0.350900  1.0  -0.0059
  C  C198  1  0.562970  0.886490  0.845300  1.0  -0.0857
  C  C199  1  0.530030  0.886890  0.308950  1.0  -0.1218
  C  C200  1  0.561900  0.885400  0.441000  1.0  -0.111
  C  C201  1  0.553430  0.867870  0.932000  1.0  -0.1296
  C  C202  1  0.552660  0.943190  0.807800  1.0  -0.1131
  C  C203  1  0.512500  0.930230  0.354800  1.0  -0.1245
  C  C204  1  0.544290  0.929290  0.488300  1.0  -0.1466
  C  C205  1  0.532780  0.903560  0.980900  1.0  -0.143
  C  C206  1  0.532220  0.977790  0.855110  1.0  -0.1167
  C  C207  1  0.519190  0.954090  0.442690  1.0  0.011
  C  C208  1  0.520960  0.958290  0.941260  1.0  0.0136
  C  C209  1  0.833230  0.913990  0.123600  1.0  0.6734
  C  C210  1  0.834300  0.912640  0.876700  1.0  0.7083
  C  C211  1  0.834450  0.859790  0.191800  1.0  -0.1106
  C  C212  1  0.834260  0.855820  0.810900  1.0  -0.1285
  C  C213  1  0.811490  0.845050  0.248000  1.0  -0.0028
  C  C214  1  0.860360  0.824050  0.197200  1.0  -0.021
  C  C215  1  0.810910  0.844530  0.747400  1.0  0.0207
  C  C216  1  0.857510  0.815450  0.810800  1.0  -0.0721
  C  C217  1  0.812600  0.791020  0.308900  1.0  -0.1265
  C  C218  1  0.861160  0.771680  0.255900  1.0  0.084
  C  C219  1  0.811400  0.793350  0.688800  1.0  -0.0906
  C  C220  1  0.857360  0.761580  0.751400  1.0  0.1604
  C  C221  1  0.788080  0.775980  0.373000  1.0  0.6879
  C  C222  1  0.837340  0.755090  0.312900  1.0  -0.0762
  C  C223  1  0.787060  0.778100  0.620000  1.0  0.6898
  C  C224  1  0.834640  0.748910  0.692800  1.0  -0.0285
  C  C225  1  0.897110  0.698050  0.329600  1.0  -0.0804
  C  C226  1  0.897680  0.700630  0.827100  1.0  -0.0573
  C  C227  1  0.924030  0.678400  0.302200  1.0  0.049
  C  C228  1  0.914320  0.649860  0.795400  1.0  0.0089
  C  C229  1  0.943860  0.634050  0.350900  1.0  -0.0054
  C  C230  1  0.937030  0.613510  0.845300  1.0  -0.0854
  C  C231  1  0.969970  0.613110  0.308950  1.0  -0.1209
  C  C232  1  0.938100  0.614600  0.441000  1.0  -0.1107
  C  C233  1  0.946570  0.632130  0.932000  1.0  -0.129
  C  C234  1  0.947340  0.556810  0.807800  1.0  -0.1127
  C  C235  1  0.987500  0.569770  0.354800  1.0  -0.1268
  C  C236  1  0.955710  0.570710  0.488300  1.0  -0.1465
  C  C237  1  0.967220  0.596440  0.980900  1.0  -0.1407
  C  C238  1  0.967780  0.522210  0.855110  1.0  -0.1219
  C  C239  1  0.980810  0.545910  0.442690  1.0  0.009
  C  C240  1  0.979040  0.541710  0.941260  1.0  0.013
  C  C241  1  0.333230  0.413990  0.123600  1.0  0.6734
  C  C242  1  0.334300  0.412640  0.876700  1.0  0.7083
  C  C243  1  0.334450  0.359790  0.191800  1.0  -0.1106
  C  C244  1  0.334260  0.355820  0.810900  1.0  -0.1285
  C  C245  1  0.311490  0.345050  0.248000  1.0  -0.0028
  C  C246  1  0.360360  0.324050  0.197200  1.0  -0.021
  C  C247  1  0.310910  0.344530  0.747400  1.0  0.0207
  C  C248  1  0.357510  0.315450  0.810800  1.0  -0.0721
  C  C249  1  0.312600  0.291020  0.308900  1.0  -0.1265
  C  C250  1  0.361160  0.271680  0.255900  1.0  0.084
  C  C251  1  0.311400  0.293350  0.688800  1.0  -0.0906
  C  C252  1  0.357360  0.261580  0.751400  1.0  0.1604
  C  C253  1  0.288080  0.275980  0.373000  1.0  0.6879
  C  C254  1  0.337340  0.255090  0.312900  1.0  -0.0762
  C  C255  1  0.287060  0.278100  0.620000  1.0  0.6898
  C  C256  1  0.334640  0.248910  0.692800  1.0  -0.0285
  C  C257  1  0.397110  0.198050  0.329600  1.0  -0.0804
  C  C258  1  0.397680  0.200630  0.827100  1.0  -0.0573
  C  C259  1  0.424030  0.178400  0.302200  1.0  0.049
  C  C260  1  0.414320  0.149860  0.795400  1.0  0.0089
  C  C261  1  0.443860  0.134050  0.350900  1.0  -0.0054
  C  C262  1  0.437030  0.113510  0.845300  1.0  -0.0854
  C  C263  1  0.469970  0.113110  0.308950  1.0  -0.1209
  C  C264  1  0.438100  0.114600  0.441000  1.0  -0.1107
  C  C265  1  0.446570  0.132130  0.932000  1.0  -0.129
  C  C266  1  0.447340  0.056810  0.807800  1.0  -0.1127
  C  C267  1  0.487500  0.069770  0.354800  1.0  -0.1268
  C  C268  1  0.455710  0.070710  0.488300  1.0  -0.1465
  C  C269  1  0.467220  0.096440  0.980900  1.0  -0.1407
  C  C270  1  0.467780  0.022210  0.855110  1.0  -0.1219
  C  C271  1  0.480810  0.045910  0.442690  1.0  0.009
  C  C272  1  0.479040  0.041710  0.941260  1.0  0.013
  C  C273  1  0.833230  0.086010  0.876400  1.0  0.6733
  C  C274  1  0.834300  0.087360  0.123300  1.0  0.7084
  C  C275  1  0.834450  0.140210  0.808200  1.0  -0.1107
  C  C276  1  0.834260  0.144180  0.189100  1.0  -0.1289
  C  C277  1  0.811490  0.154950  0.752000  1.0  -0.0029
  C  C278  1  0.860360  0.175950  0.802800  1.0  -0.0214
  C  C279  1  0.810910  0.155470  0.252600  1.0  0.0226
  C  C280  1  0.857510  0.184550  0.189200  1.0  -0.0723
  C  C281  1  0.812600  0.208980  0.691100  1.0  -0.1266
  C  C282  1  0.861160  0.228320  0.744100  1.0  0.0842
  C  C283  1  0.811400  0.206650  0.311200  1.0  -0.0906
  C  C284  1  0.857360  0.238420  0.248600  1.0  0.1604
  C  C285  1  0.788080  0.224020  0.627000  1.0  0.6873
  C  C286  1  0.837340  0.244910  0.687100  1.0  -0.0761
  C  C287  1  0.787060  0.221900  0.380000  1.0  0.6901
  C  C288  1  0.834640  0.251090  0.307200  1.0  -0.0311
  C  C289  1  0.897110  0.301950  0.670400  1.0  -0.0792
  C  C290  1  0.897680  0.299370  0.172900  1.0  -0.0562
  C  C291  1  0.924030  0.321600  0.697800  1.0  0.0492
  C  C292  1  0.914320  0.350140  0.204600  1.0  0.0086
  C  C293  1  0.943860  0.365950  0.649100  1.0  -0.0067
  C  C294  1  0.937030  0.386490  0.154700  1.0  -0.0854
  C  C295  1  0.969970  0.386890  0.691050  1.0  -0.1209
  C  C296  1  0.938100  0.385400  0.559000  1.0  -0.1101
  C  C297  1  0.946570  0.367870  0.068000  1.0  -0.1283
  C  C298  1  0.947340  0.443190  0.192200  1.0  -0.1124
  C  C299  1  0.987500  0.430230  0.645200  1.0  -0.1262
  C  C300  1  0.955710  0.429290  0.511700  1.0  -0.1465
  C  C301  1  0.967220  0.403560  0.019100  1.0  -0.1418
  C  C302  1  0.967780  0.477790  0.144890  1.0  -0.1213
  C  C303  1  0.980810  0.454090  0.557310  1.0  0.0089
  C  C304  1  0.979040  0.458290  0.058740  1.0  0.0129
  C  C305  1  0.333230  0.586010  0.876400  1.0  0.6733
  C  C306  1  0.334300  0.587360  0.123300  1.0  0.7084
  C  C307  1  0.334450  0.640210  0.808200  1.0  -0.1107
  C  C308  1  0.334260  0.644180  0.189100  1.0  -0.1289
  C  C309  1  0.311490  0.654950  0.752000  1.0  -0.0029
  C  C310  1  0.360360  0.675950  0.802800  1.0  -0.0214
  C  C311  1  0.310910  0.655470  0.252600  1.0  0.0226
  C  C312  1  0.357510  0.684550  0.189200  1.0  -0.0723
  C  C313  1  0.312600  0.708980  0.691100  1.0  -0.1266
  C  C314  1  0.361160  0.728320  0.744100  1.0  0.0842
  C  C315  1  0.311400  0.706650  0.311200  1.0  -0.0906
  C  C316  1  0.357360  0.738420  0.248600  1.0  0.1604
  C  C317  1  0.288080  0.724020  0.627000  1.0  0.6873
  C  C318  1  0.337340  0.744910  0.687100  1.0  -0.0761
  C  C319  1  0.287060  0.721900  0.380000  1.0  0.6901
  C  C320  1  0.334640  0.751090  0.307200  1.0  -0.0311
  C  C321  1  0.397110  0.801950  0.670400  1.0  -0.0792
  C  C322  1  0.397680  0.799370  0.172900  1.0  -0.0562
  C  C323  1  0.424030  0.821600  0.697800  1.0  0.0485
  C  C324  1  0.414320  0.850140  0.204600  1.0  0.0086
  C  C325  1  0.443860  0.865950  0.649100  1.0  -0.0067
  C  C326  1  0.437030  0.886490  0.154700  1.0  -0.0854
  C  C327  1  0.469970  0.886890  0.691050  1.0  -0.1209
  C  C328  1  0.438100  0.885400  0.559000  1.0  -0.1101
  C  C329  1  0.446570  0.867870  0.068000  1.0  -0.1283
  C  C330  1  0.447340  0.943190  0.192200  1.0  -0.1124
  C  C331  1  0.487500  0.930230  0.645200  1.0  -0.1262
  C  C332  1  0.455710  0.929290  0.511700  1.0  -0.1465
  C  C333  1  0.467220  0.903560  0.019100  1.0  -0.1418
  C  C334  1  0.467780  0.977790  0.144890  1.0  -0.1213
  C  C335  1  0.480810  0.954090  0.557310  1.0  0.0089
  C  C336  1  0.479040  0.958290  0.058740  1.0  0.0129
  C  C337  1  0.166770  0.913990  0.876400  1.0  0.6736
  C  C338  1  0.165700  0.912640  0.123300  1.0  0.7085
  C  C339  1  0.165550  0.859790  0.808200  1.0  -0.1107
  C  C340  1  0.165740  0.855820  0.189100  1.0  -0.1285
  C  C341  1  0.188510  0.845050  0.752000  1.0  -0.0016
  C  C342  1  0.139640  0.824050  0.802800  1.0  -0.0223
  C  C343  1  0.189090  0.844530  0.252600  1.0  0.0217
  C  C344  1  0.142490  0.815450  0.189200  1.0  -0.0723
  C  C345  1  0.187400  0.791020  0.691100  1.0  -0.1268
  C  C346  1  0.138840  0.771680  0.744100  1.0  0.0837
  C  C347  1  0.188600  0.793350  0.311200  1.0  -0.0917
  C  C348  1  0.142640  0.761580  0.248600  1.0  0.1609
  C  C349  1  0.211920  0.775980  0.627000  1.0  0.6877
  C  C350  1  0.162660  0.755090  0.687100  1.0  -0.0752
  C  C351  1  0.212940  0.778100  0.380000  1.0  0.6908
  C  C352  1  0.165360  0.748910  0.307200  1.0  -0.0289
  C  C353  1  0.102890  0.698050  0.670400  1.0  -0.0795
  C  C354  1  0.102320  0.700630  0.172900  1.0  -0.0567
  C  C355  1  0.075970  0.678400  0.697800  1.0  0.0491
  C  C356  1  0.085680  0.649860  0.204600  1.0  0.009
  C  C357  1  0.056140  0.634050  0.649100  1.0  -0.0059
  C  C358  1  0.062970  0.613510  0.154700  1.0  -0.0865
  C  C359  1  0.030030  0.613110  0.691050  1.0  -0.1219
  C  C360  1  0.061900  0.614600  0.559000  1.0  -0.1095
  C  C361  1  0.053430  0.632130  0.068000  1.0  -0.1306
  C  C362  1  0.052660  0.556810  0.192200  1.0  -0.1132
  C  C363  1  0.012500  0.569770  0.645200  1.0  -0.1263
  C  C364  1  0.044290  0.570710  0.511700  1.0  -0.1464
  C  C365  1  0.032780  0.596440  0.019100  1.0  -0.1415
  C  C366  1  0.032220  0.522210  0.144890  1.0  -0.1183
  C  C367  1  0.019190  0.545910  0.557310  1.0  0.0105
  C  C368  1  0.020960  0.541710  0.058740  1.0  0.0139
  C  C369  1  0.666770  0.413990  0.876400  1.0  0.6736
  C  C370  1  0.665700  0.412640  0.123300  1.0  0.7085
  C  C371  1  0.665550  0.359790  0.808200  1.0  -0.1107
  C  C372  1  0.665740  0.355820  0.189100  1.0  -0.1285
  C  C373  1  0.688510  0.345050  0.752000  1.0  -0.0016
  C  C374  1  0.639640  0.324050  0.802800  1.0  -0.0223
  C  C375  1  0.689090  0.344530  0.252600  1.0  0.0217
  C  C376  1  0.642490  0.315450  0.189200  1.0  -0.0723
  C  C377  1  0.687400  0.291020  0.691100  1.0  -0.1268
  C  C378  1  0.638840  0.271680  0.744100  1.0  0.0837
  C  C379  1  0.688600  0.293350  0.311200  1.0  -0.0917
  C  C380  1  0.642640  0.261580  0.248600  1.0  0.1609
  C  C381  1  0.711920  0.275980  0.627000  1.0  0.6877
  C  C382  1  0.662660  0.255090  0.687100  1.0  -0.0752
  C  C383  1  0.712940  0.278100  0.380000  1.0  0.6908
  C  C384  1  0.665360  0.248910  0.307200  1.0  -0.0289
  C  C385  1  0.602890  0.198050  0.670400  1.0  -0.0795
  C  C386  1  0.602320  0.200630  0.172900  1.0  -0.0567
  C  C387  1  0.575970  0.178400  0.697800  1.0  0.0488
  C  C388  1  0.585680  0.149860  0.204600  1.0  0.009
  C  C389  1  0.556140  0.134050  0.649100  1.0  -0.0059
  C  C390  1  0.562970  0.113510  0.154700  1.0  -0.0865
  C  C391  1  0.530030  0.113110  0.691050  1.0  -0.1219
  C  C392  1  0.561900  0.114600  0.559000  1.0  -0.1095
  C  C393  1  0.553430  0.132130  0.068000  1.0  -0.1306
  C  C394  1  0.552660  0.056810  0.192200  1.0  -0.1132
  C  C395  1  0.512500  0.069770  0.645200  1.0  -0.1263
  C  C396  1  0.544290  0.070710  0.511700  1.0  -0.1464
  C  C397  1  0.532780  0.096440  0.019100  1.0  -0.1415
  C  C398  1  0.532220  0.022210  0.144890  1.0  -0.1183
  C  C399  1  0.519190  0.045910  0.557310  1.0  0.0105
  C  C400  1  0.520960  0.041710  0.058740  1.0  0.0139
  C  C401  1  0.000000  0.500000  0.500000  1.0  0.0249
  C  C402  1  0.500000  0.000000  0.500000  1.0  0.0249
  C  C403  1  0.000000  0.500000  0.000000  1.0  0.0002
  C  C404  1  0.500000  0.000000  0.000000  1.0  0.0002
  N  N405  1  0.112400  0.265770  0.257800  1.0  0.1754
  N  N406  1  0.119510  0.283060  0.753400  1.0  0.1864
  N  N407  1  0.093110  0.263100  0.188700  1.0  -0.1676
  N  N408  1  0.114920  0.323900  0.680500  1.0  -0.1364
  N  N409  1  0.070850  0.297790  0.214300  1.0  -0.1386
  N  N410  1  0.093830  0.362350  0.704000  1.0  -0.1527
  N  N411  1  0.612400  0.765770  0.257800  1.0  0.1754
  N  N412  1  0.619510  0.783060  0.753400  1.0  0.1864
  N  N413  1  0.593110  0.763100  0.188700  1.0  -0.1676
  N  N414  1  0.614920  0.823900  0.680500  1.0  -0.1364
  N  N415  1  0.570850  0.797790  0.214300  1.0  -0.1405
  N  N416  1  0.593830  0.862350  0.704000  1.0  -0.1527
  N  N417  1  0.887600  0.734230  0.257800  1.0  0.1755
  N  N418  1  0.880490  0.716940  0.753400  1.0  0.1866
  N  N419  1  0.906890  0.736900  0.188700  1.0  -0.1668
  N  N420  1  0.885080  0.676100  0.680500  1.0  -0.1362
  N  N421  1  0.929150  0.702210  0.214300  1.0  -0.1414
  N  N422  1  0.906170  0.637650  0.704000  1.0  -0.1525
  N  N423  1  0.387600  0.234230  0.257800  1.0  0.1755
  N  N424  1  0.380490  0.216940  0.753400  1.0  0.1866
  N  N425  1  0.406890  0.236900  0.188700  1.0  -0.1668
  N  N426  1  0.385080  0.176100  0.680500  1.0  -0.1362
  N  N427  1  0.429150  0.202210  0.214300  1.0  -0.1429
  N  N428  1  0.406170  0.137650  0.704000  1.0  -0.1525
  N  N429  1  0.887600  0.265770  0.742200  1.0  0.1759
  N  N430  1  0.880490  0.283060  0.246600  1.0  0.188
  N  N431  1  0.906890  0.263100  0.811300  1.0  -0.1683
  N  N432  1  0.885080  0.323900  0.319500  1.0  -0.1378
  N  N433  1  0.929150  0.297790  0.785700  1.0  -0.1401
  N  N434  1  0.906170  0.362350  0.296000  1.0  -0.154
  N  N435  1  0.387600  0.765770  0.742200  1.0  0.1759
  N  N436  1  0.380490  0.783060  0.246600  1.0  0.188
  N  N437  1  0.406890  0.763100  0.811300  1.0  -0.1683
  N  N438  1  0.385080  0.823900  0.319500  1.0  -0.1378
  N  N439  1  0.429150  0.797790  0.785700  1.0  -0.1417
  N  N440  1  0.406170  0.862350  0.296000  1.0  -0.154
  N  N441  1  0.112400  0.734230  0.742200  1.0  0.177
  N  N442  1  0.119510  0.716940  0.246600  1.0  0.1875
  N  N443  1  0.093110  0.736900  0.811300  1.0  -0.1682
  N  N444  1  0.114920  0.676100  0.319500  1.0  -0.1376
  N  N445  1  0.070850  0.702210  0.785700  1.0  -0.14
  N  N446  1  0.093830  0.637650  0.296000  1.0  -0.1521
  N  N447  1  0.612400  0.234230  0.742200  1.0  0.177
  N  N448  1  0.619510  0.216940  0.246600  1.0  0.1875
  N  N449  1  0.593110  0.236900  0.811300  1.0  -0.1682
  N  N450  1  0.614920  0.176100  0.319500  1.0  -0.1376
  N  N451  1  0.570850  0.202210  0.785700  1.0  -0.1411
  N  N452  1  0.593830  0.137650  0.296000  1.0  -0.1521
  O  O453  1  0.190610  0.067030  0.096370  1.0  -0.5665
  O  O454  1  0.190340  0.065610  0.898860  1.0  -0.5826
  O  O455  1  0.141910  0.062960  0.099820  1.0  -0.5957
  O  O456  1  0.142110  0.069750  0.907670  1.0  -0.5519
  O  O457  1  0.228710  0.179550  0.395620  1.0  -0.5776
  O  O458  1  0.213370  0.280200  0.402550  1.0  -0.5749
  O  O459  1  0.228390  0.176090  0.593060  1.0  -0.5597
  O  O460  1  0.215380  0.279360  0.595530  1.0  -0.5754
  O  O461  1  0.690610  0.567030  0.096370  1.0  -0.5665
  O  O462  1  0.690340  0.565610  0.898860  1.0  -0.5826
  O  O463  1  0.641910  0.562960  0.099820  1.0  -0.5957
  O  O464  1  0.642110  0.569750  0.907670  1.0  -0.5519
  O  O465  1  0.728710  0.679550  0.395620  1.0  -0.5776
  O  O466  1  0.713370  0.780200  0.402550  1.0  -0.5749
  O  O467  1  0.728390  0.676090  0.593060  1.0  -0.5597
  O  O468  1  0.715380  0.779360  0.595530  1.0  -0.5754
  O  O469  1  0.809390  0.932970  0.096370  1.0  -0.5669
  O  O470  1  0.809660  0.934390  0.898860  1.0  -0.5835
  O  O471  1  0.858090  0.937040  0.099820  1.0  -0.5954
  O  O472  1  0.857890  0.930250  0.907670  1.0  -0.553
  O  O473  1  0.771290  0.820450  0.395620  1.0  -0.5774
  O  O474  1  0.786630  0.719800  0.402550  1.0  -0.5764
  O  O475  1  0.771610  0.823910  0.593060  1.0  -0.561
  O  O476  1  0.784620  0.720640  0.595530  1.0  -0.576
  O  O477  1  0.309390  0.432970  0.096370  1.0  -0.5669
  O  O478  1  0.309660  0.434390  0.898860  1.0  -0.5835
  O  O479  1  0.358090  0.437040  0.099820  1.0  -0.5954
  O  O480  1  0.357890  0.430250  0.907670  1.0  -0.553
  O  O481  1  0.271290  0.320450  0.395620  1.0  -0.5774
  O  O482  1  0.286630  0.219800  0.402550  1.0  -0.5764
  O  O483  1  0.271610  0.323910  0.593060  1.0  -0.561
  O  O484  1  0.284620  0.220640  0.595530  1.0  -0.576
  O  O485  1  0.809390  0.067030  0.903630  1.0  -0.5668
  O  O486  1  0.809660  0.065610  0.101140  1.0  -0.582
  O  O487  1  0.858090  0.062960  0.900180  1.0  -0.5961
  O  O488  1  0.857890  0.069750  0.092330  1.0  -0.5542
  O  O489  1  0.771290  0.179550  0.604380  1.0  -0.5774
  O  O490  1  0.786630  0.280200  0.597450  1.0  -0.5752
  O  O491  1  0.771610  0.176090  0.406940  1.0  -0.5601
  O  O492  1  0.784620  0.279360  0.404470  1.0  -0.5748
  O  O493  1  0.309390  0.567030  0.903630  1.0  -0.5668
  O  O494  1  0.309660  0.565610  0.101140  1.0  -0.582
  O  O495  1  0.358090  0.562960  0.900180  1.0  -0.5961
  O  O496  1  0.357890  0.569750  0.092330  1.0  -0.5542
  O  O497  1  0.271290  0.679550  0.604380  1.0  -0.5774
  O  O498  1  0.286630  0.780200  0.597450  1.0  -0.5752
  O  O499  1  0.271610  0.676090  0.406940  1.0  -0.5601
  O  O500  1  0.284620  0.779360  0.404470  1.0  -0.5748
  O  O501  1  0.190610  0.932970  0.903630  1.0  -0.5674
  O  O502  1  0.190340  0.934390  0.101140  1.0  -0.5809
  O  O503  1  0.141910  0.937040  0.900180  1.0  -0.5957
  O  O504  1  0.142110  0.930250  0.092330  1.0  -0.5529
  O  O505  1  0.228710  0.820450  0.604380  1.0  -0.5773
  O  O506  1  0.213370  0.719800  0.597450  1.0  -0.5756
  O  O507  1  0.228390  0.823910  0.406940  1.0  -0.5609
  O  O508  1  0.215380  0.720640  0.404470  1.0  -0.5752
  O  O509  1  0.690610  0.432970  0.903630  1.0  -0.5674
  O  O510  1  0.690340  0.434390  0.101140  1.0  -0.5809
  O  O511  1  0.641910  0.437040  0.900180  1.0  -0.5957
  O  O512  1  0.642110  0.430250  0.092330  1.0  -0.5529
  O  O513  1  0.728710  0.320450  0.604380  1.0  -0.5773
  O  O514  1  0.713370  0.219800  0.597450  1.0  -0.5756
  O  O515  1  0.728390  0.323910  0.406940  1.0  -0.5609
  O  O516  1  0.715380  0.220640  0.404470  1.0  -0.5752
