# generated using pymatgen
data_CdH2C10(SO2)2
_symmetry_space_group_name_H-M   'P 1'
_cell_length_a   27.72200000
_cell_length_b   27.72200000
_cell_length_c   27.72200000
_cell_angle_alpha   60.00000000
_cell_angle_beta   60.00000000
_cell_angle_gamma   60.00000000
_symmetry_Int_Tables_number   1
_chemical_formula_structural   CdH2C10(SO2)2
_chemical_formula_sum   'Cd24 H48 C240 S48 O96'
_cell_volume   15064.63729233
_cell_formula_units_Z   24
loop_
 _symmetry_equiv_pos_site_id
 _symmetry_equiv_pos_as_xyz
  1  'x, y, z'
loop_
 _atom_site_type_symbol
 _atom_site_label
 _atom_site_symmetry_multiplicity
 _atom_site_fract_x
 _atom_site_fract_y
 _atom_site_fract_z
 _atom_site_occupancy
 _atom_site_charge
  Cd  Cd1  1  0.542810  0.088980  0.911020  1.0  1.1293
  Cd  Cd2  1  0.088980  0.542810  0.457190  1.0  1.1293
  Cd  Cd3  1  0.911020  0.457190  0.542810  1.0  1.1304
  Cd  Cd4  1  0.457190  0.911020  0.088980  1.0  1.1309
  Cd  Cd5  1  0.542810  0.911020  0.457190  1.0  1.1312
  Cd  Cd6  1  0.088980  0.457190  0.911020  1.0  1.1314
  Cd  Cd7  1  0.911020  0.542810  0.088980  1.0  1.1317
  Cd  Cd8  1  0.457190  0.088980  0.542810  1.0  1.1291
  Cd  Cd9  1  0.542810  0.457190  0.088980  1.0  1.1263
  Cd  Cd10  1  0.088980  0.911020  0.542810  1.0  1.1302
  Cd  Cd11  1  0.911020  0.088980  0.457190  1.0  1.1293
  Cd  Cd12  1  0.457190  0.542810  0.911020  1.0  1.1243
  Cd  Cd13  1  0.411020  0.957190  0.588980  1.0  1.1309
  Cd  Cd14  1  0.957190  0.411020  0.042810  1.0  1.1303
  Cd  Cd15  1  0.042810  0.588980  0.957190  1.0  1.1296
  Cd  Cd16  1  0.588980  0.042810  0.411020  1.0  1.1292
  Cd  Cd17  1  0.588980  0.957190  0.042810  1.0  1.1317
  Cd  Cd18  1  0.042810  0.411020  0.588980  1.0  1.1312
  Cd  Cd19  1  0.957190  0.588980  0.411020  1.0  1.1292
  Cd  Cd20  1  0.411020  0.042810  0.957190  1.0  1.1323
  Cd  Cd21  1  0.042810  0.957190  0.411020  1.0  1.1248
  Cd  Cd22  1  0.588980  0.411020  0.957190  1.0  1.1297
  Cd  Cd23  1  0.411020  0.588980  0.042810  1.0  1.1296
  Cd  Cd24  1  0.957190  0.042810  0.588980  1.0  1.1245
  H  H25  1  0.555700  0.038700  0.116300  1.0  0.1433
  H  H26  1  0.038700  0.555700  0.289300  1.0  0.1423
  H  H27  1  0.116300  0.289300  0.555700  1.0  0.1453
  H  H28  1  0.289300  0.116300  0.038700  1.0  0.146
  H  H29  1  0.555700  0.116300  0.289300  1.0  0.1434
  H  H30  1  0.038700  0.289300  0.116300  1.0  0.1427
  H  H31  1  0.116300  0.555700  0.038700  1.0  0.1443
  H  H32  1  0.289300  0.038700  0.555700  1.0  0.1447
  H  H33  1  0.555700  0.289300  0.038700  1.0  0.1452
  H  H34  1  0.038700  0.116300  0.555700  1.0  0.1452
  H  H35  1  0.116300  0.038700  0.289300  1.0  0.1447
  H  H36  1  0.289300  0.555700  0.116300  1.0  0.1455
  H  H37  1  0.461300  0.944300  0.383700  1.0  0.1438
  H  H38  1  0.944300  0.461300  0.210700  1.0  0.1455
  H  H39  1  0.210700  0.383700  0.944300  1.0  0.1441
  H  H40  1  0.383700  0.210700  0.461300  1.0  0.1449
  H  H41  1  0.383700  0.944300  0.210700  1.0  0.1445
  H  H42  1  0.210700  0.461300  0.383700  1.0  0.145
  H  H43  1  0.944300  0.383700  0.461300  1.0  0.1443
  H  H44  1  0.461300  0.210700  0.944300  1.0  0.1441
  H  H45  1  0.210700  0.944300  0.461300  1.0  0.1453
  H  H46  1  0.383700  0.461300  0.944300  1.0  0.1449
  H  H47  1  0.461300  0.383700  0.210700  1.0  0.145
  H  H48  1  0.944300  0.210700  0.383700  1.0  0.145
  H  H49  1  0.444300  0.961300  0.883700  1.0  0.1453
  H  H50  1  0.961300  0.444300  0.710700  1.0  0.1441
  H  H51  1  0.883700  0.710700  0.444300  1.0  0.145
  H  H52  1  0.710700  0.883700  0.961300  1.0  0.1441
  H  H53  1  0.444300  0.883700  0.710700  1.0  0.1444
  H  H54  1  0.961300  0.710700  0.883700  1.0  0.1442
  H  H55  1  0.883700  0.444300  0.961300  1.0  0.1436
  H  H56  1  0.710700  0.961300  0.444300  1.0  0.1444
  H  H57  1  0.444300  0.710700  0.961300  1.0  0.1446
  H  H58  1  0.961300  0.883700  0.444300  1.0  0.1447
  H  H59  1  0.883700  0.961300  0.710700  1.0  0.1457
  H  H60  1  0.710700  0.444300  0.883700  1.0  0.1443
  H  H61  1  0.538700  0.055700  0.616300  1.0  0.1442
  H  H62  1  0.055700  0.538700  0.789300  1.0  0.1429
  H  H63  1  0.789300  0.616300  0.055700  1.0  0.1459
  H  H64  1  0.616300  0.789300  0.538700  1.0  0.1454
  H  H65  1  0.616300  0.055700  0.789300  1.0  0.1435
  H  H66  1  0.789300  0.538700  0.616300  1.0  0.1425
  H  H67  1  0.055700  0.616300  0.538700  1.0  0.1442
  H  H68  1  0.538700  0.789300  0.055700  1.0  0.1447
  H  H69  1  0.789300  0.055700  0.538700  1.0  0.1463
  H  H70  1  0.616300  0.538700  0.055700  1.0  0.1452
  H  H71  1  0.538700  0.616300  0.789300  1.0  0.1429
  H  H72  1  0.055700  0.789300  0.616300  1.0  0.1444
  C  C73  1  0.552410  0.103450  0.997150  1.0  0.7298
  C  C74  1  0.558250  0.115510  0.040010  1.0  -0.1291
  C  C75  1  0.558590  0.077070  0.097950  1.0  -0.0266
  C  C76  1  0.564380  0.108160  0.124040  1.0  0.0165
  C  C77  1  0.564860  0.165560  0.087400  1.0  -0.0867
  C  C78  1  0.103450  0.552410  0.346990  1.0  0.7297
  C  C79  1  0.115510  0.558250  0.286230  1.0  -0.1281
  C  C80  1  0.077070  0.558590  0.266390  1.0  -0.0279
  C  C81  1  0.108160  0.564380  0.203420  1.0  0.015
  C  C82  1  0.165560  0.564860  0.182180  1.0  -0.0858
  C  C83  1  0.997150  0.346990  0.552410  1.0  0.7291
  C  C84  1  0.040010  0.286230  0.558250  1.0  -0.1286
  C  C85  1  0.097950  0.266390  0.558590  1.0  -0.0281
  C  C86  1  0.124040  0.203420  0.564380  1.0  0.0141
  C  C87  1  0.087400  0.182180  0.564860  1.0  -0.0859
  C  C88  1  0.346990  0.997150  0.103450  1.0  0.7287
  C  C89  1  0.286230  0.040010  0.115510  1.0  -0.129
  C  C90  1  0.266390  0.097950  0.077070  1.0  -0.0266
  C  C91  1  0.203420  0.124040  0.108160  1.0  0.0111
  C  C92  1  0.182180  0.087400  0.165560  1.0  -0.0873
  C  C93  1  0.552410  0.997150  0.346990  1.0  0.7284
  C  C94  1  0.558250  0.040010  0.286230  1.0  -0.1307
  C  C95  1  0.558590  0.097950  0.266390  1.0  -0.0281
  C  C96  1  0.564380  0.124040  0.203420  1.0  0.0167
  C  C97  1  0.564860  0.087400  0.182180  1.0  -0.0866
  C  C98  1  0.103450  0.346990  0.997150  1.0  0.7278
  C  C99  1  0.115510  0.286230  0.040010  1.0  -0.1299
  C  C100  1  0.077070  0.266390  0.097950  1.0  -0.0288
  C  C101  1  0.108160  0.203420  0.124040  1.0  0.0142
  C  C102  1  0.165560  0.182180  0.087400  1.0  -0.085
  C  C103  1  0.997150  0.552410  0.103450  1.0  0.7275
  C  C104  1  0.040010  0.558250  0.115510  1.0  -0.1303
  C  C105  1  0.097950  0.558590  0.077070  1.0  -0.0272
  C  C106  1  0.124040  0.564380  0.108160  1.0  0.0146
  C  C107  1  0.087400  0.564860  0.165560  1.0  -0.0867
  C  C108  1  0.346990  0.103450  0.552410  1.0  0.7293
  C  C109  1  0.286230  0.115510  0.558250  1.0  -0.1298
  C  C110  1  0.266390  0.077070  0.558590  1.0  -0.0241
  C  C111  1  0.203420  0.108160  0.564380  1.0  0.0136
  C  C112  1  0.182180  0.165560  0.564860  1.0  -0.0854
  C  C113  1  0.552410  0.346990  0.103450  1.0  0.7284
  C  C114  1  0.558250  0.286230  0.115510  1.0  -0.1307
  C  C115  1  0.558590  0.266390  0.077070  1.0  -0.0273
  C  C116  1  0.564380  0.203420  0.108160  1.0  0.0142
  C  C117  1  0.564860  0.182180  0.165560  1.0  -0.0869
  C  C118  1  0.103450  0.997150  0.552410  1.0  0.7304
  C  C119  1  0.115510  0.040010  0.558250  1.0  -0.1318
  C  C120  1  0.077070  0.097950  0.558590  1.0  -0.029
  C  C121  1  0.108160  0.124040  0.564380  1.0  0.0148
  C  C122  1  0.165560  0.087400  0.564860  1.0  -0.0865
  C  C123  1  0.997150  0.103450  0.346990  1.0  0.7296
  C  C124  1  0.040010  0.115510  0.286230  1.0  -0.1283
  C  C125  1  0.097950  0.077070  0.266390  1.0  -0.0248
  C  C126  1  0.124040  0.108160  0.203420  1.0  0.014
  C  C127  1  0.087400  0.165560  0.182180  1.0  -0.0853
  C  C128  1  0.346990  0.552410  0.997150  1.0  0.7268
  C  C129  1  0.286230  0.558250  0.040010  1.0  -0.1301
  C  C130  1  0.266390  0.558590  0.097950  1.0  -0.0273
  C  C131  1  0.203420  0.564380  0.124040  1.0  0.0138
  C  C132  1  0.182180  0.564860  0.087400  1.0  -0.0881
  C  C133  1  0.396550  0.947590  0.502850  1.0  0.7292
  C  C134  1  0.384490  0.941750  0.459990  1.0  -0.129
  C  C135  1  0.422930  0.941410  0.402050  1.0  -0.0259
  C  C136  1  0.391840  0.935620  0.375960  1.0  0.0145
  C  C137  1  0.334440  0.935140  0.412600  1.0  -0.0858
  C  C138  1  0.947590  0.396550  0.153010  1.0  0.7293
  C  C139  1  0.941750  0.384490  0.213770  1.0  -0.1289
  C  C140  1  0.941410  0.422930  0.233610  1.0  -0.027
  C  C141  1  0.935620  0.391840  0.296580  1.0  0.0137
  C  C142  1  0.935140  0.334440  0.317820  1.0  -0.0887
  C  C143  1  0.153010  0.502850  0.947590  1.0  0.7308
  C  C144  1  0.213770  0.459990  0.941750  1.0  -0.1287
  C  C145  1  0.233610  0.402050  0.941410  1.0  -0.028
  C  C146  1  0.296580  0.375960  0.935620  1.0  0.0142
  C  C147  1  0.317820  0.412600  0.935140  1.0  -0.0852
  C  C148  1  0.502850  0.153010  0.396550  1.0  0.7286
  C  C149  1  0.459990  0.213770  0.384490  1.0  -0.1284
  C  C150  1  0.402050  0.233610  0.422930  1.0  -0.0272
  C  C151  1  0.375960  0.296580  0.391840  1.0  0.015
  C  C152  1  0.412600  0.317820  0.334440  1.0  -0.0858
  C  C153  1  0.502850  0.947590  0.153010  1.0  0.7296
  C  C154  1  0.459990  0.941750  0.213770  1.0  -0.1303
  C  C155  1  0.402050  0.941410  0.233610  1.0  -0.0287
  C  C156  1  0.375960  0.935620  0.296580  1.0  0.0152
  C  C157  1  0.412600  0.935140  0.317820  1.0  -0.0843
  C  C158  1  0.153010  0.396550  0.502850  1.0  0.7272
  C  C159  1  0.213770  0.384490  0.459990  1.0  -0.1293
  C  C160  1  0.233610  0.422930  0.402050  1.0  -0.0275
  C  C161  1  0.296580  0.391840  0.375960  1.0  0.013
  C  C162  1  0.317820  0.334440  0.412600  1.0  -0.085
  C  C163  1  0.947590  0.502850  0.396550  1.0  0.7285
  C  C164  1  0.941750  0.459990  0.384490  1.0  -0.129
  C  C165  1  0.941410  0.402050  0.422930  1.0  -0.0283
  C  C166  1  0.935620  0.375960  0.391840  1.0  0.0136
  C  C167  1  0.935140  0.412600  0.334440  1.0  -0.087
  C  C168  1  0.396550  0.153010  0.947590  1.0  0.7294
  C  C169  1  0.384490  0.213770  0.941750  1.0  -0.1297
  C  C170  1  0.422930  0.233610  0.941410  1.0  -0.0276
  C  C171  1  0.391840  0.296580  0.935620  1.0  0.0135
  C  C172  1  0.334440  0.317820  0.935140  1.0  -0.0874
  C  C173  1  0.153010  0.947590  0.396550  1.0  0.7269
  C  C174  1  0.213770  0.941750  0.384490  1.0  -0.1304
  C  C175  1  0.233610  0.941410  0.422930  1.0  -0.0284
  C  C176  1  0.296580  0.935620  0.391840  1.0  0.015
  C  C177  1  0.317820  0.935140  0.334440  1.0  -0.0884
  C  C178  1  0.502850  0.396550  0.947590  1.0  0.7286
  C  C179  1  0.459990  0.384490  0.941750  1.0  -0.1303
  C  C180  1  0.402050  0.422930  0.941410  1.0  -0.0248
  C  C181  1  0.375960  0.391840  0.935620  1.0  0.0147
  C  C182  1  0.412600  0.334440  0.935140  1.0  -0.0852
  C  C183  1  0.396550  0.502850  0.153010  1.0  0.7301
  C  C184  1  0.384490  0.459990  0.213770  1.0  -0.1306
  C  C185  1  0.422930  0.402050  0.233610  1.0  -0.0283
  C  C186  1  0.391840  0.375960  0.296580  1.0  0.0144
  C  C187  1  0.334440  0.412600  0.317820  1.0  -0.0864
  C  C188  1  0.947590  0.153010  0.502850  1.0  0.7285
  C  C189  1  0.941750  0.213770  0.459990  1.0  -0.131
  C  C190  1  0.941410  0.233610  0.402050  1.0  -0.0286
  C  C191  1  0.935620  0.296580  0.375960  1.0  0.0146
  C  C192  1  0.935140  0.317820  0.412600  1.0  -0.0872
  C  C193  1  0.447590  0.896550  0.002850  1.0  0.7295
  C  C194  1  0.441750  0.884490  0.959990  1.0  -0.1293
  C  C195  1  0.441410  0.922930  0.902050  1.0  -0.0266
  C  C196  1  0.435620  0.891840  0.875960  1.0  0.0135
  C  C197  1  0.435140  0.834440  0.912600  1.0  -0.0866
  C  C198  1  0.896550  0.447590  0.653010  1.0  0.7286
  C  C199  1  0.884490  0.441750  0.713770  1.0  -0.1284
  C  C200  1  0.922930  0.441410  0.733610  1.0  -0.0283
  C  C201  1  0.891840  0.435620  0.796580  1.0  0.0142
  C  C202  1  0.834440  0.435140  0.817820  1.0  -0.0878
  C  C203  1  0.002850  0.653010  0.447590  1.0  0.7284
  C  C204  1  0.959990  0.713770  0.441750  1.0  -0.1283
  C  C205  1  0.902050  0.733610  0.441410  1.0  -0.0268
  C  C206  1  0.875960  0.796580  0.435620  1.0  0.014
  C  C207  1  0.912600  0.817820  0.435140  1.0  -0.0856
  C  C208  1  0.653010  0.002850  0.896550  1.0  0.7307
  C  C209  1  0.713770  0.959990  0.884490  1.0  -0.1286
  C  C210  1  0.733610  0.902050  0.922930  1.0  -0.0284
  C  C211  1  0.796580  0.875960  0.891840  1.0  0.0139
  C  C212  1  0.817820  0.912600  0.834440  1.0  -0.0859
  C  C213  1  0.447590  0.002850  0.653010  1.0  0.7295
  C  C214  1  0.441750  0.959990  0.713770  1.0  -0.1293
  C  C215  1  0.441410  0.902050  0.733610  1.0  -0.0282
  C  C216  1  0.435620  0.875960  0.796580  1.0  0.0147
  C  C217  1  0.435140  0.912600  0.817820  1.0  -0.0855
  C  C218  1  0.896550  0.653010  0.002850  1.0  0.7291
  C  C219  1  0.884490  0.713770  0.959990  1.0  -0.1294
  C  C220  1  0.922930  0.733610  0.902050  1.0  -0.0281
  C  C221  1  0.891840  0.796580  0.875960  1.0  0.0172
  C  C222  1  0.834440  0.817820  0.912600  1.0  -0.0849
  C  C223  1  0.002850  0.447590  0.896550  1.0  0.7279
  C  C224  1  0.959990  0.441750  0.884490  1.0  -0.1288
  C  C225  1  0.902050  0.441410  0.922930  1.0  -0.0283
  C  C226  1  0.875960  0.435620  0.891840  1.0  0.0133
  C  C227  1  0.912600  0.435140  0.834440  1.0  -0.0857
  C  C228  1  0.653010  0.896550  0.447590  1.0  0.7281
  C  C229  1  0.713770  0.884490  0.441750  1.0  -0.1295
  C  C230  1  0.733610  0.922930  0.441410  1.0  -0.0272
  C  C231  1  0.796580  0.891840  0.435620  1.0  0.0148
  C  C232  1  0.817820  0.834440  0.435140  1.0  -0.0869
  C  C233  1  0.447590  0.653010  0.896550  1.0  0.7281
  C  C234  1  0.441750  0.713770  0.884490  1.0  -0.1296
  C  C235  1  0.441410  0.733610  0.922930  1.0  -0.0291
  C  C236  1  0.435620  0.796580  0.891840  1.0  0.0143
  C  C237  1  0.435140  0.817820  0.834440  1.0  -0.0887
  C  C238  1  0.896550  0.002850  0.447590  1.0  0.7297
  C  C239  1  0.884490  0.959990  0.441750  1.0  -0.1291
  C  C240  1  0.922930  0.902050  0.441410  1.0  -0.0283
  C  C241  1  0.891840  0.875960  0.435620  1.0  0.0141
  C  C242  1  0.834440  0.912600  0.435140  1.0  -0.0858
  C  C243  1  0.002850  0.896550  0.653010  1.0  0.7277
  C  C244  1  0.959990  0.884490  0.713770  1.0  -0.1305
  C  C245  1  0.902050  0.922930  0.733610  1.0  -0.025
  C  C246  1  0.875960  0.891840  0.796580  1.0  0.0154
  C  C247  1  0.912600  0.834440  0.817820  1.0  -0.085
  C  C248  1  0.653010  0.447590  0.002850  1.0  0.7279
  C  C249  1  0.713770  0.441750  0.959990  1.0  -0.1315
  C  C250  1  0.733610  0.441410  0.902050  1.0  -0.0279
  C  C251  1  0.796580  0.435620  0.875960  1.0  0.0153
  C  C252  1  0.817820  0.435140  0.912600  1.0  -0.0869
  C  C253  1  0.603450  0.052410  0.497150  1.0  0.7297
  C  C254  1  0.615510  0.058250  0.540010  1.0  -0.1274
  C  C255  1  0.577070  0.058590  0.597950  1.0  -0.0286
  C  C256  1  0.608160  0.064380  0.624040  1.0  0.0153
  C  C257  1  0.665560  0.064860  0.587400  1.0  -0.0866
  C  C258  1  0.052410  0.603450  0.846990  1.0  0.7299
  C  C259  1  0.058250  0.615510  0.786230  1.0  -0.1307
  C  C260  1  0.058590  0.577070  0.766390  1.0  -0.0259
  C  C261  1  0.064380  0.608160  0.703420  1.0  0.0162
  C  C262  1  0.064860  0.665560  0.682180  1.0  -0.0861
  C  C263  1  0.846990  0.497150  0.052410  1.0  0.7288
  C  C264  1  0.786230  0.540010  0.058250  1.0  -0.1289
  C  C265  1  0.766390  0.597950  0.058590  1.0  -0.0287
  C  C266  1  0.703420  0.624040  0.064380  1.0  0.0133
  C  C267  1  0.682180  0.587400  0.064860  1.0  -0.0866
  C  C268  1  0.497150  0.846990  0.603450  1.0  0.7292
  C  C269  1  0.540010  0.786230  0.615510  1.0  -0.1286
  C  C270  1  0.597950  0.766390  0.577070  1.0  -0.0281
  C  C271  1  0.624040  0.703420  0.608160  1.0  0.0128
  C  C272  1  0.587400  0.682180  0.665560  1.0  -0.0856
  C  C273  1  0.497150  0.052410  0.846990  1.0  0.7269
  C  C274  1  0.540010  0.058250  0.786230  1.0  -0.1295
  C  C275  1  0.597950  0.058590  0.766390  1.0  -0.0288
  C  C276  1  0.624040  0.064380  0.703420  1.0  0.0144
  C  C277  1  0.587400  0.064860  0.682180  1.0  -0.0867
  C  C278  1  0.846990  0.603450  0.497150  1.0  0.7271
  C  C279  1  0.786230  0.615510  0.540010  1.0  -0.129
  C  C280  1  0.766390  0.577070  0.597950  1.0  -0.025
  C  C281  1  0.703420  0.608160  0.624040  1.0  0.0151
  C  C282  1  0.682180  0.665560  0.587400  1.0  -0.0868
  C  C283  1  0.052410  0.497150  0.603450  1.0  0.7293
  C  C284  1  0.058250  0.540010  0.615510  1.0  -0.131
  C  C285  1  0.058590  0.597950  0.577070  1.0  -0.0289
  C  C286  1  0.064380  0.624040  0.608160  1.0  0.0147
  C  C287  1  0.064860  0.587400  0.665560  1.0  -0.0861
  C  C288  1  0.603450  0.846990  0.052410  1.0  0.7299
  C  C289  1  0.615510  0.786230  0.058250  1.0  -0.1288
  C  C290  1  0.577070  0.766390  0.058590  1.0  -0.029
  C  C291  1  0.608160  0.703420  0.064380  1.0  0.0136
  C  C292  1  0.665560  0.682180  0.064860  1.0  -0.0837
  C  C293  1  0.846990  0.052410  0.603450  1.0  0.7289
  C  C294  1  0.786230  0.058250  0.615510  1.0  -0.1316
  C  C295  1  0.766390  0.058590  0.577070  1.0  -0.0275
  C  C296  1  0.703420  0.064380  0.608160  1.0  0.0143
  C  C297  1  0.682180  0.064860  0.665560  1.0  -0.0882
  C  C298  1  0.497150  0.603450  0.052410  1.0  0.7285
  C  C299  1  0.540010  0.615510  0.058250  1.0  -0.1291
  C  C300  1  0.597950  0.577070  0.058590  1.0  -0.025
  C  C301  1  0.624040  0.608160  0.064380  1.0  0.0159
  C  C302  1  0.587400  0.665560  0.064860  1.0  -0.0855
  C  C303  1  0.603450  0.497150  0.846990  1.0  0.7302
  C  C304  1  0.615510  0.540010  0.786230  1.0  -0.1304
  C  C305  1  0.577070  0.597950  0.766390  1.0  -0.029
  C  C306  1  0.608160  0.624040  0.703420  1.0  0.0145
  C  C307  1  0.665560  0.587400  0.682180  1.0  -0.0853
  C  C308  1  0.052410  0.846990  0.497150  1.0  0.7278
  C  C309  1  0.058250  0.786230  0.540010  1.0  -0.13
  C  C310  1  0.058590  0.766390  0.597950  1.0  -0.0273
  C  C311  1  0.064380  0.703420  0.624040  1.0  0.0138
  C  C312  1  0.064860  0.682180  0.587400  1.0  -0.0875
  S  S313  1  0.563260  0.183760  0.019200  1.0  0.1183
  S  S314  1  0.183760  0.563260  0.233780  1.0  0.1165
  S  S315  1  0.019200  0.233780  0.563260  1.0  0.1185
  S  S316  1  0.233780  0.019200  0.183760  1.0  0.1184
  S  S317  1  0.563260  0.019200  0.233780  1.0  0.1199
  S  S318  1  0.183760  0.233780  0.019200  1.0  0.1147
  S  S319  1  0.019200  0.563260  0.183760  1.0  0.1183
  S  S320  1  0.233780  0.183760  0.563260  1.0  0.119
  S  S321  1  0.563260  0.233780  0.183760  1.0  0.1188
  S  S322  1  0.183760  0.019200  0.563260  1.0  0.1202
  S  S323  1  0.019200  0.183760  0.233780  1.0  0.1198
  S  S324  1  0.233780  0.563260  0.019200  1.0  0.1194
  S  S325  1  0.316240  0.936740  0.480800  1.0  0.1184
  S  S326  1  0.936740  0.316240  0.266220  1.0  0.1212
  S  S327  1  0.266220  0.480800  0.936740  1.0  0.1164
  S  S328  1  0.480800  0.266220  0.316240  1.0  0.115
  S  S329  1  0.480800  0.936740  0.266220  1.0  0.113
  S  S330  1  0.266220  0.316240  0.480800  1.0  0.1242
  S  S331  1  0.936740  0.480800  0.316240  1.0  0.115
  S  S332  1  0.316240  0.266220  0.936740  1.0  0.1211
  S  S333  1  0.266220  0.936740  0.316240  1.0  0.1206
  S  S334  1  0.480800  0.316240  0.936740  1.0  0.1167
  S  S335  1  0.316240  0.480800  0.266220  1.0  0.1183
  S  S336  1  0.936740  0.266220  0.480800  1.0  0.121
  S  S337  1  0.436740  0.816240  0.980800  1.0  0.1184
  S  S338  1  0.816240  0.436740  0.766220  1.0  0.1194
  S  S339  1  0.980800  0.766220  0.436740  1.0  0.1149
  S  S340  1  0.766220  0.980800  0.816240  1.0  0.1183
  S  S341  1  0.436740  0.980800  0.766220  1.0  0.1148
  S  S342  1  0.816240  0.766220  0.980800  1.0  0.1198
  S  S343  1  0.980800  0.436740  0.816240  1.0  0.1126
  S  S344  1  0.766220  0.816240  0.436740  1.0  0.1238
  S  S345  1  0.436740  0.766220  0.816240  1.0  0.1212
  S  S346  1  0.816240  0.980800  0.436740  1.0  0.1181
  S  S347  1  0.980800  0.816240  0.766220  1.0  0.1175
  S  S348  1  0.766220  0.436740  0.980800  1.0  0.1231
  S  S349  1  0.683760  0.063260  0.519200  1.0  0.1174
  S  S350  1  0.063260  0.683760  0.733780  1.0  0.1161
  S  S351  1  0.733780  0.519200  0.063260  1.0  0.12
  S  S352  1  0.519200  0.733780  0.683760  1.0  0.1175
  S  S353  1  0.519200  0.063260  0.733780  1.0  0.1202
  S  S354  1  0.733780  0.683760  0.519200  1.0  0.117
  S  S355  1  0.063260  0.519200  0.683760  1.0  0.118
  S  S356  1  0.683760  0.733780  0.063260  1.0  0.1159
  S  S357  1  0.733780  0.063260  0.683760  1.0  0.1197
  S  S358  1  0.519200  0.683760  0.063260  1.0  0.1202
  S  S359  1  0.683760  0.519200  0.733780  1.0  0.1198
  S  S360  1  0.063260  0.733780  0.519200  1.0  0.1184
  O  O361  1  0.540540  0.057160  0.014480  1.0  -0.6788
  O  O362  1  0.556360  0.140440  0.946020  1.0  -0.6516
  O  O363  1  0.057160  0.540540  0.387820  1.0  -0.6779
  O  O364  1  0.140440  0.556360  0.357180  1.0  -0.6511
  O  O365  1  0.014480  0.387820  0.540540  1.0  -0.6787
  O  O366  1  0.946020  0.357180  0.556360  1.0  -0.6476
  O  O367  1  0.387820  0.014480  0.057160  1.0  -0.6779
  O  O368  1  0.357180  0.946020  0.140440  1.0  -0.6486
  O  O369  1  0.540540  0.014480  0.387820  1.0  -0.6766
  O  O370  1  0.556360  0.946020  0.357180  1.0  -0.6479
  O  O371  1  0.057160  0.387820  0.014480  1.0  -0.6775
  O  O372  1  0.140440  0.357180  0.946020  1.0  -0.6517
  O  O373  1  0.014480  0.540540  0.057160  1.0  -0.6764
  O  O374  1  0.946020  0.556360  0.140440  1.0  -0.6483
  O  O375  1  0.387820  0.057160  0.540540  1.0  -0.68
  O  O376  1  0.357180  0.140440  0.556360  1.0  -0.6527
  O  O377  1  0.540540  0.387820  0.057160  1.0  -0.6782
  O  O378  1  0.556360  0.357180  0.140440  1.0  -0.6497
  O  O379  1  0.057160  0.014480  0.540540  1.0  -0.6772
  O  O380  1  0.140440  0.946020  0.556360  1.0  -0.6454
  O  O381  1  0.014480  0.057160  0.387820  1.0  -0.6783
  O  O382  1  0.946020  0.140440  0.357180  1.0  -0.6485
  O  O383  1  0.387820  0.540540  0.014480  1.0  -0.6793
  O  O384  1  0.357180  0.556360  0.946020  1.0  -0.6482
  O  O385  1  0.442840  0.959460  0.485520  1.0  -0.6782
  O  O386  1  0.359560  0.943640  0.553980  1.0  -0.6502
  O  O387  1  0.959460  0.442840  0.112180  1.0  -0.6782
  O  O388  1  0.943640  0.359560  0.142820  1.0  -0.6529
  O  O389  1  0.112180  0.485520  0.959460  1.0  -0.6782
  O  O390  1  0.142820  0.553980  0.943640  1.0  -0.6491
  O  O391  1  0.485520  0.112180  0.442840  1.0  -0.678
  O  O392  1  0.553980  0.142820  0.359560  1.0  -0.648
  O  O393  1  0.485520  0.959460  0.112180  1.0  -0.6752
  O  O394  1  0.553980  0.943640  0.142820  1.0  -0.6491
  O  O395  1  0.112180  0.442840  0.485520  1.0  -0.6797
  O  O396  1  0.142820  0.359560  0.553980  1.0  -0.6522
  O  O397  1  0.959460  0.485520  0.442840  1.0  -0.6763
  O  O398  1  0.943640  0.553980  0.359560  1.0  -0.649
  O  O399  1  0.442840  0.112180  0.959460  1.0  -0.6767
  O  O400  1  0.359560  0.142820  0.943640  1.0  -0.651
  O  O401  1  0.112180  0.959460  0.442840  1.0  -0.6789
  O  O402  1  0.142820  0.943640  0.359560  1.0  -0.6486
  O  O403  1  0.485520  0.442840  0.959460  1.0  -0.6787
  O  O404  1  0.553980  0.359560  0.943640  1.0  -0.6492
  O  O405  1  0.442840  0.485520  0.112180  1.0  -0.6773
  O  O406  1  0.359560  0.553980  0.142820  1.0  -0.6477
  O  O407  1  0.959460  0.112180  0.485520  1.0  -0.6763
  O  O408  1  0.943640  0.142820  0.553980  1.0  -0.6534
  O  O409  1  0.459460  0.942840  0.985520  1.0  -0.6789
  O  O410  1  0.443640  0.859560  0.053980  1.0  -0.6511
  O  O411  1  0.942840  0.459460  0.612180  1.0  -0.6776
  O  O412  1  0.859560  0.443640  0.642820  1.0  -0.6512
  O  O413  1  0.985520  0.612180  0.459460  1.0  -0.6779
  O  O414  1  0.053980  0.642820  0.443640  1.0  -0.6484
  O  O415  1  0.612180  0.985520  0.942840  1.0  -0.6778
  O  O416  1  0.642820  0.053980  0.859560  1.0  -0.6487
  O  O417  1  0.459460  0.985520  0.612180  1.0  -0.675
  O  O418  1  0.443640  0.053980  0.642820  1.0  -0.6507
  O  O419  1  0.942840  0.612180  0.985520  1.0  -0.676
  O  O420  1  0.859560  0.642820  0.053980  1.0  -0.6518
  O  O421  1  0.985520  0.459460  0.942840  1.0  -0.6773
  O  O422  1  0.053980  0.443640  0.859560  1.0  -0.6478
  O  O423  1  0.612180  0.942840  0.459460  1.0  -0.6799
  O  O424  1  0.642820  0.859560  0.443640  1.0  -0.6544
  O  O425  1  0.459460  0.612180  0.942840  1.0  -0.6769
  O  O426  1  0.443640  0.642820  0.859560  1.0  -0.6478
  O  O427  1  0.942840  0.985520  0.459460  1.0  -0.6771
  O  O428  1  0.859560  0.053980  0.443640  1.0  -0.6472
  O  O429  1  0.985520  0.942840  0.612180  1.0  -0.6781
  O  O430  1  0.053980  0.859560  0.642820  1.0  -0.6493
  O  O431  1  0.612180  0.459460  0.985520  1.0  -0.6784
  O  O432  1  0.642820  0.443640  0.053980  1.0  -0.6514
  O  O433  1  0.557160  0.040540  0.514480  1.0  -0.6774
  O  O434  1  0.640440  0.056360  0.446020  1.0  -0.6509
  O  O435  1  0.040540  0.557160  0.887820  1.0  -0.6791
  O  O436  1  0.056360  0.640440  0.857180  1.0  -0.6513
  O  O437  1  0.887820  0.514480  0.040540  1.0  -0.678
  O  O438  1  0.857180  0.446020  0.056360  1.0  -0.6489
  O  O439  1  0.514480  0.887820  0.557160  1.0  -0.679
  O  O440  1  0.446020  0.857180  0.640440  1.0  -0.6478
  O  O441  1  0.514480  0.040540  0.887820  1.0  -0.6777
  O  O442  1  0.446020  0.056360  0.857180  1.0  -0.6467
  O  O443  1  0.887820  0.557160  0.514480  1.0  -0.6799
  O  O444  1  0.857180  0.640440  0.446020  1.0  -0.6546
  O  O445  1  0.040540  0.514480  0.557160  1.0  -0.6749
  O  O446  1  0.056360  0.446020  0.640440  1.0  -0.6482
  O  O447  1  0.557160  0.887820  0.040540  1.0  -0.6778
  O  O448  1  0.640440  0.857180  0.056360  1.0  -0.6494
  O  O449  1  0.887820  0.040540  0.557160  1.0  -0.6794
  O  O450  1  0.857180  0.056360  0.640440  1.0  -0.6525
  O  O451  1  0.514480  0.557160  0.040540  1.0  -0.6784
  O  O452  1  0.446020  0.640440  0.056360  1.0  -0.6489
  O  O453  1  0.557160  0.514480  0.887820  1.0  -0.6769
  O  O454  1  0.640440  0.446020  0.857180  1.0  -0.6454
  O  O455  1  0.040540  0.887820  0.514480  1.0  -0.6783
  O  O456  1  0.056360  0.857180  0.446020  1.0  -0.6479
