# generated using pymatgen
data_CuH20(C6N)4
_symmetry_space_group_name_H-M   'P 1'
_cell_length_a   7.36950000
_cell_length_b   13.09900000
_cell_length_c   13.44800000
_cell_angle_alpha   80.35300000
_cell_angle_beta   84.93000000
_cell_angle_gamma   82.79500000
_symmetry_Int_Tables_number   1
_chemical_formula_structural   CuH20(C6N)4
_chemical_formula_sum   'Cu2 H40 C48 N8'
_cell_volume   1266.69913668
_cell_formula_units_Z   2
loop_
 _symmetry_equiv_pos_site_id
 _symmetry_equiv_pos_as_xyz
  1  'x, y, z'
loop_
 _atom_site_type_symbol
 _atom_site_label
 _atom_site_symmetry_multiplicity
 _atom_site_fract_x
 _atom_site_fract_y
 _atom_site_fract_z
 _atom_site_occupancy
 _atom_site_charge
  Cu  Cu1  1  0.795660  0.309290  0.793130  1.0  0.3868
  Cu  Cu2  1  0.204340  0.690710  0.206870  1.0  0.3857
  H  H3  1  0.138600  0.253300  0.682100  1.0  0.058
  H  H4  1  0.374200  0.322200  0.580600  1.0  0.1046
  H  H5  1  0.110600  0.608700  0.598100  1.0  0.1129
  H  H6  1  0.877400  0.531000  0.694400  1.0  0.0655
  H  H7  1  0.416600  0.598400  0.511500  1.0  0.0815
  H  H8  1  0.494300  0.172300  0.809800  1.0  0.0596
  H  H9  1  0.379200  0.059800  0.724100  1.0  0.1061
  H  H10  1  0.734700  0.142100  0.486700  1.0  0.1077
  H  H11  1  0.845300  0.250600  0.580300  1.0  0.0704
  H  H12  1  0.362900  0.982800  0.576200  1.0  0.0786
  H  H13  1  0.641300  0.304300  0.007000  1.0  0.069
  H  H14  1  0.368300  0.358400  0.091700  1.0  0.1131
  H  H15  1  0.209400  0.531600  0.829200  1.0  0.1096
  H  H16  1  0.486800  0.473800  0.752400  1.0  0.0617
  H  H17  1  0.065600  0.459800  0.093600  1.0  0.0869
  H  H18  1  0.919000  0.074300  0.812600  1.0  0.0645
  H  H19  1  0.165800  0.959800  0.869300  1.0  0.1159
  H  H20  1  0.283600  0.172400  0.032900  1.0  0.1078
  H  H21  1  0.030200  0.278700  0.974500  1.0  0.0525
  H  H22  1  0.436200  0.916200  0.968500  1.0  0.0849
  H  H23  1  0.861400  0.746700  0.317900  1.0  0.0573
  H  H24  1  0.625800  0.677800  0.419400  1.0  0.1045
  H  H25  1  0.889400  0.391300  0.401900  1.0  0.114
  H  H26  1  0.122600  0.469000  0.305600  1.0  0.0646
  H  H27  1  0.583400  0.401600  0.488500  1.0  0.0827
  H  H28  1  0.505700  0.827700  0.190200  1.0  0.0599
  H  H29  1  0.620800  0.940200  0.275900  1.0  0.106
  H  H30  1  0.265300  0.857900  0.513300  1.0  0.107
  H  H31  1  0.154700  0.749400  0.419700  1.0  0.071
  H  H32  1  0.637100  0.017200  0.423800  1.0  0.0803
  H  H33  1  0.358700  0.695700  0.993000  1.0  0.0688
  H  H34  1  0.631700  0.641600  0.908300  1.0  0.1137
  H  H35  1  0.790600  0.468400  0.170800  1.0  0.1094
  H  H36  1  0.513200  0.526200  0.247600  1.0  0.0614
  H  H37  1  0.934400  0.540200  0.906400  1.0  0.0882
  H  H38  1  0.081000  0.925700  0.187400  1.0  0.0643
  H  H39  1  0.834200  0.040200  0.130700  1.0  0.1151
  H  H40  1  0.716400  0.827600  0.967100  1.0  0.1067
  H  H41  1  0.969800  0.721300  0.025500  1.0  0.0529
  H  H42  1  0.563800  0.083800  0.031500  1.0  0.0841
  C  C43  1  0.132900  0.327000  0.665000  1.0  0.15
  C  C44  1  0.275100  0.367400  0.604700  1.0  -0.2178
  C  C45  1  0.273300  0.475100  0.579000  1.0  0.1162
  C  C46  1  0.120000  0.534900  0.614400  1.0  -0.2326
  C  C47  1  0.981900  0.487900  0.672900  1.0  0.1463
  C  C48  1  0.425500  0.524500  0.520600  1.0  -0.1451
  C  C49  1  0.545100  0.165600  0.743400  1.0  0.1569
  C  C50  1  0.475100  0.098600  0.692400  1.0  -0.2345
  C  C51  1  0.543200  0.087100  0.595200  1.0  0.1297
  C  C52  1  0.683700  0.146400  0.553500  1.0  -0.2122
  C  C53  1  0.748600  0.211500  0.609800  1.0  0.1503
  C  C54  1  0.467300  0.013500  0.543900  1.0  -0.1384
  C  C55  1  0.551500  0.350100  0.970100  1.0  0.1598
  C  C56  1  0.387800  0.381800  0.021200  1.0  -0.2362
  C  C57  1  0.252100  0.447800  0.969600  1.0  0.0878
  C  C58  1  0.294600  0.483600  0.867300  1.0  -0.2216
  C  C59  1  0.460900  0.448700  0.822100  1.0  0.149
  C  C60  1  0.074600  0.476400  0.022000  1.0  -0.1495
  C  C61  1  0.995500  0.095100  0.857100  1.0  0.1613
  C  C62  1  0.143900  0.026400  0.890000  1.0  -0.2074
  C  C63  1  0.261200  0.054700  0.953500  1.0  0.0951
  C  C64  1  0.212400  0.150800  0.986300  1.0  -0.2124
  C  C65  1  0.060800  0.214000  0.950700  1.0  0.1517
  C  C66  1  0.428700  0.986100  0.980300  1.0  -0.1274
  C  C67  1  0.867100  0.673000  0.335000  1.0  0.1508
  C  C68  1  0.724900  0.632600  0.395300  1.0  -0.2184
  C  C69  1  0.726700  0.524900  0.421000  1.0  0.1172
  C  C70  1  0.880000  0.465100  0.385600  1.0  -0.2304
  C  C71  1  0.018100  0.512100  0.327100  1.0  0.1461
  C  C72  1  0.574500  0.475500  0.479400  1.0  -0.1462
  C  C73  1  0.454900  0.834400  0.256600  1.0  0.1558
  C  C74  1  0.524900  0.901400  0.307600  1.0  -0.2336
  C  C75  1  0.456800  0.912900  0.404800  1.0  0.131
  C  C76  1  0.316300  0.853600  0.446500  1.0  -0.2122
  C  C77  1  0.251400  0.788500  0.390200  1.0  0.1499
  C  C78  1  0.532700  0.986500  0.456100  1.0  -0.1364
  C  C79  1  0.448500  0.649900  0.029900  1.0  0.1609
  C  C80  1  0.612200  0.618200  0.978800  1.0  -0.2371
  C  C81  1  0.747900  0.552200  0.030400  1.0  0.0873
  C  C82  1  0.705400  0.516400  0.132700  1.0  -0.2216
  C  C83  1  0.539100  0.551300  0.177900  1.0  0.1484
  C  C84  1  0.925400  0.523600  0.978000  1.0  -0.1503
  C  C85  1  0.004500  0.904900  0.142900  1.0  0.1586
  C  C86  1  0.856100  0.973600  0.110000  1.0  -0.2072
  C  C87  1  0.738800  0.945300  0.046500  1.0  0.0961
  C  C88  1  0.787600  0.849200  0.013700  1.0  -0.2139
  C  C89  1  0.939200  0.786000  0.049300  1.0  0.1515
  C  C90  1  0.571300  0.013900  0.019700  1.0  -0.1253
  N  N91  1  0.986500  0.384500  0.701300  1.0  -0.3576
  N  N92  1  0.681900  0.222200  0.704300  1.0  -0.3503
  N  N93  1  0.588500  0.381200  0.871160  1.0  -0.3548
  N  N94  1  0.953300  0.189900  0.884500  1.0  -0.3549
  N  N95  1  0.013500  0.615500  0.298700  1.0  -0.3554
  N  N96  1  0.318100  0.777800  0.295700  1.0  -0.352
  N  N97  1  0.411500  0.618800  0.128840  1.0  -0.3559
  N  N98  1  0.046700  0.810100  0.115500  1.0  -0.3547
