# generated using pymatgen
data_BaCdH4(C3O4)2
_symmetry_space_group_name_H-M   'P 1'
_cell_length_a   6.92240000
_cell_length_b   18.80900000
_cell_length_c   9.68490000
_cell_angle_alpha   90.00000000
_cell_angle_beta   90.00000000
_cell_angle_gamma   90.00000000
_symmetry_Int_Tables_number   1
_chemical_formula_structural   BaCdH4(C3O4)2
_chemical_formula_sum   'Ba4 Cd4 H16 C24 O32'
_cell_volume   1261.00711785
_cell_formula_units_Z   4
loop_
 _symmetry_equiv_pos_site_id
 _symmetry_equiv_pos_as_xyz
  1  'x, y, z'
loop_
 _atom_site_type_symbol
 _atom_site_label
 _atom_site_symmetry_multiplicity
 _atom_site_fract_x
 _atom_site_fract_y
 _atom_site_fract_z
 _atom_site_occupancy
 _atom_site_charge
  Ba  Ba1  1  0.750000  0.750000  0.493310  1.0  1.7159
  Ba  Ba2  1  0.250000  0.250000  0.006690  1.0  1.7159
  Ba  Ba3  1  0.250000  0.250000  0.506690  1.0  1.7159
  Ba  Ba4  1  0.750000  0.750000  0.993310  1.0  1.7159
  Cd  Cd5  1  0.000000  0.500000  0.000000  1.0  1.2489
  Cd  Cd6  1  0.500000  0.000000  0.000000  1.0  1.2489
  Cd  Cd7  1  0.500000  0.500000  0.500000  1.0  1.2489
  Cd  Cd8  1  0.000000  0.000000  0.500000  1.0  1.2489
  H  H9  1  0.428600  0.569300  0.831400  1.0  0.1881
  H  H10  1  0.623700  0.582200  0.907600  1.0  0.1549
  H  H11  1  0.071400  0.930700  0.831400  1.0  0.1882
  H  H12  1  0.876300  0.917800  0.907600  1.0  0.1552
  H  H13  1  0.928600  0.430700  0.668600  1.0  0.1879
  H  H14  1  0.123700  0.417800  0.592400  1.0  0.1543
  H  H15  1  0.571400  0.069300  0.668600  1.0  0.1875
  H  H16  1  0.376300  0.082200  0.592400  1.0  0.1547
  H  H17  1  0.571400  0.430700  0.168600  1.0  0.1881
  H  H18  1  0.376300  0.417800  0.092400  1.0  0.1541
  H  H19  1  0.928600  0.069300  0.168600  1.0  0.1884
  H  H20  1  0.123700  0.082200  0.092400  1.0  0.1545
  H  H21  1  0.071400  0.569300  0.331400  1.0  0.1873
  H  H22  1  0.876300  0.582200  0.407600  1.0  0.1546
  H  H23  1  0.428600  0.930700  0.331400  1.0  0.188
  H  H24  1  0.623700  0.917800  0.407600  1.0  0.1552
  C  C25  1  0.616500  0.486500  0.808400  1.0  0.8038
  C  C26  1  0.567700  0.565600  0.821600  1.0  -0.5959
  C  C27  1  0.628000  0.617500  0.709500  1.0  0.8443
  C  C28  1  0.883500  0.013500  0.808400  1.0  0.8038
  C  C29  1  0.932300  0.934400  0.821600  1.0  -0.5948
  C  C30  1  0.872000  0.882500  0.709500  1.0  0.8434
  C  C31  1  0.116500  0.513500  0.691600  1.0  0.804
  C  C32  1  0.067700  0.434400  0.678400  1.0  -0.5929
  C  C33  1  0.128000  0.382500  0.790500  1.0  0.8425
  C  C34  1  0.383500  0.986500  0.691600  1.0  0.8035
  C  C35  1  0.432300  0.065600  0.678400  1.0  -0.5942
  C  C36  1  0.372000  0.117500  0.790500  1.0  0.8425
  C  C37  1  0.383500  0.513500  0.191600  1.0  0.8038
  C  C38  1  0.432300  0.434400  0.178400  1.0  -0.5929
  C  C39  1  0.372000  0.382500  0.290500  1.0  0.8424
  C  C40  1  0.116500  0.986500  0.191600  1.0  0.8039
  C  C41  1  0.067700  0.065600  0.178400  1.0  -0.5943
  C  C42  1  0.128000  0.117500  0.290500  1.0  0.8418
  C  C43  1  0.883500  0.486500  0.308400  1.0  0.8034
  C  C44  1  0.932300  0.565600  0.321600  1.0  -0.5953
  C  C45  1  0.872000  0.617500  0.209500  1.0  0.8444
  C  C46  1  0.616500  0.013500  0.308400  1.0  0.8039
  C  C47  1  0.567700  0.934400  0.321600  1.0  -0.5954
  C  C48  1  0.628000  0.882500  0.209500  1.0  0.8441
  O  O49  1  0.706000  0.458100  0.906100  1.0  -0.6762
  O  O50  1  0.560600  0.452500  0.706100  1.0  -0.6624
  O  O51  1  0.634300  0.598600  0.583800  1.0  -0.7238
  O  O52  1  0.659000  0.680400  0.747000  1.0  -0.8129
  O  O53  1  0.794000  0.041900  0.906100  1.0  -0.678
  O  O54  1  0.939400  0.047500  0.706100  1.0  -0.6635
  O  O55  1  0.865700  0.901400  0.583800  1.0  -0.7244
  O  O56  1  0.841000  0.819600  0.747000  1.0  -0.8135
  O  O57  1  0.206000  0.541900  0.593900  1.0  -0.6772
  O  O58  1  0.060600  0.547500  0.793900  1.0  -0.6631
  O  O59  1  0.134300  0.401400  0.916200  1.0  -0.7256
  O  O60  1  0.159000  0.319600  0.753000  1.0  -0.8117
  O  O61  1  0.294000  0.958100  0.593900  1.0  -0.6759
  O  O62  1  0.439400  0.952500  0.793900  1.0  -0.6621
  O  O63  1  0.365700  0.098600  0.916200  1.0  -0.7261
  O  O64  1  0.341000  0.180400  0.753000  1.0  -0.8129
  O  O65  1  0.294000  0.541900  0.093900  1.0  -0.6772
  O  O66  1  0.439400  0.547500  0.293900  1.0  -0.6634
  O  O67  1  0.365700  0.401400  0.416200  1.0  -0.7254
  O  O68  1  0.341000  0.319600  0.253000  1.0  -0.8129
  O  O69  1  0.206000  0.958100  0.093900  1.0  -0.6759
  O  O70  1  0.060600  0.952500  0.293900  1.0  -0.6618
  O  O71  1  0.134300  0.098600  0.416200  1.0  -0.7262
  O  O72  1  0.159000  0.180400  0.253000  1.0  -0.8123
  O  O73  1  0.794000  0.458100  0.406100  1.0  -0.6765
  O  O74  1  0.939400  0.452500  0.206100  1.0  -0.6627
  O  O75  1  0.865700  0.598600  0.083800  1.0  -0.7237
  O  O76  1  0.841000  0.680400  0.247000  1.0  -0.8137
  O  O77  1  0.706000  0.041900  0.406100  1.0  -0.6783
  O  O78  1  0.560600  0.047500  0.206100  1.0  -0.6631
  O  O79  1  0.634300  0.901400  0.083800  1.0  -0.7248
  O  O80  1  0.659000  0.819600  0.247000  1.0  -0.8129
