# generated using pymatgen
data_YH16C12N5O6
_symmetry_space_group_name_H-M   'P 1'
_cell_length_a   10.52500000
_cell_length_b   11.03400000
_cell_length_c   12.85500000
_cell_angle_alpha   99.35900000
_cell_angle_beta   111.30100000
_cell_angle_gamma   101.26500000
_symmetry_Int_Tables_number   1
_chemical_formula_structural   YH16C12N5O6
_chemical_formula_sum   'Y2 H32 C24 N10 O12'
_cell_volume   1318.77935265
_cell_formula_units_Z   2
loop_
 _symmetry_equiv_pos_site_id
 _symmetry_equiv_pos_as_xyz
  1  'x, y, z'
loop_
 _atom_site_type_symbol
 _atom_site_label
 _atom_site_symmetry_multiplicity
 _atom_site_fract_x
 _atom_site_fract_y
 _atom_site_fract_z
 _atom_site_occupancy
 _atom_site_charge
  Y  Y1  1  0.609860  0.546210  0.677140  1.0  1.991
  Y  Y2  1  0.390140  0.453790  0.322860  1.0  1.9901
  H  H3  1  0.495800  0.129800  0.659300  1.0  0.2066
  H  H4  1  0.926700  0.570700  0.642400  1.0  0.0456
  H  H5  1  0.647400  0.904900  0.911300  1.0  0.1373
  H  H6  1  0.701100  0.009700  0.022700  1.0  0.1072
  H  H7  1  0.845600  0.359600  0.222600  1.0  0.162
  H  H8  1  0.719600  0.378300  0.248700  1.0  0.165
  H  H9  1  0.526400  0.927800  0.665400  1.0  0.28
  H  H10  1  0.070800  0.871600  0.881200  1.0  0.2197
  H  H11  1  0.768000  0.938600  0.985100  1.0  0.2038
  H  H12  1  0.837200  0.410700  0.310600  1.0  0.285
  H  H13  1  0.048500  0.786500  0.807600  1.0  0.1254
  H  H14  1  0.191200  0.886700  0.875200  1.0  0.0976
  H  H15  1  0.512400  0.969900  0.756300  1.0  0.0889
  H  H16  1  0.531700  0.842400  0.708200  1.0  0.1278
  H  H17  1  0.507800  0.778400  0.290500  1.0  0.1144
  H  H18  1  0.489000  0.894500  0.242600  1.0  0.1064
  H  H19  1  0.504200  0.870200  0.340700  1.0  0.2088
  H  H20  1  0.073300  0.429300  0.357600  1.0  0.0455
  H  H21  1  0.352600  0.095100  0.088700  1.0  0.1418
  H  H22  1  0.298900  0.990300  0.977300  1.0  0.1043
  H  H23  1  0.154400  0.640400  0.777400  1.0  0.1597
  H  H24  1  0.280400  0.621700  0.751300  1.0  0.1661
  H  H25  1  0.473600  0.072200  0.334600  1.0  0.2774
  H  H26  1  0.929200  0.128400  0.118800  1.0  0.2225
  H  H27  1  0.232000  0.061400  0.014900  1.0  0.2085
  H  H28  1  0.162800  0.589300  0.689400  1.0  0.2855
  H  H29  1  0.951500  0.213500  0.192400  1.0  0.126
  H  H30  1  0.808800  0.113300  0.124800  1.0  0.0997
  H  H31  1  0.487600  0.030100  0.243700  1.0  0.0924
  H  H32  1  0.468300  0.157600  0.291800  1.0  0.1304
  H  H33  1  0.492200  0.221600  0.709500  1.0  0.1189
  H  H34  1  0.511000  0.105500  0.757400  1.0  0.1067
  C  C35  1  0.469100  0.256300  0.497700  1.0  0.6125
  C  C36  1  0.482500  0.121200  0.497400  1.0  -0.1146
  C  C37  1  0.497700  0.076900  0.594000  1.0  -0.1663
  C  C38  1  0.484500  0.043100  0.402100  1.0  -0.192
  C  C39  1  0.801600  0.768800  0.835300  1.0  0.5821
  C  C40  1  0.900700  0.888700  0.917500  1.0  -0.1259
  C  C41  1  0.040700  0.923900  0.928700  1.0  -0.109
  C  C42  1  0.862000  0.963100  0.989700  1.0  -0.1145
  C  C43  1  0.704000  0.481300  0.441000  1.0  0.6228
  C  C44  1  0.856400  0.490300  0.470600  1.0  -0.1346
  C  C45  1  0.956500  0.542000  0.583700  1.0  -0.1787
  C  C46  1  0.903600  0.447800  0.388300  1.0  -0.1471
  C  C47  1  0.530900  0.743700  0.502300  1.0  0.6124
  C  C48  1  0.517500  0.878800  0.502600  1.0  -0.1127
  C  C49  1  0.502300  0.923100  0.406000  1.0  -0.1678
  C  C50  1  0.515500  0.956900  0.597900  1.0  -0.188
  C  C51  1  0.198400  0.231200  0.164700  1.0  0.5842
  C  C52  1  0.099300  0.111300  0.082500  1.0  -0.1255
  C  C53  1  0.959300  0.076100  0.071300  1.0  -0.1073
  C  C54  1  0.138000  0.036900  0.010300  1.0  -0.112
  C  C55  1  0.296000  0.518700  0.559000  1.0  0.6239
  C  C56  1  0.143600  0.509700  0.529400  1.0  -0.1345
  C  C57  1  0.043500  0.458000  0.416300  1.0  -0.1739
  C  C58  1  0.096400  0.552200  0.611700  1.0  -0.1436
  N  N59  1  0.718300  0.959000  0.972000  1.0  -0.1621
  N  N60  1  0.811400  0.387700  0.271900  1.0  -0.2818
  N  N61  1  0.101000  0.857000  0.862000  1.0  -0.1061
  N  N62  1  0.520500  0.918000  0.700900  1.0  -0.1284
  N  N63  1  0.499000  0.857000  0.299000  1.0  -0.2214
  N  N64  1  0.281700  0.041000  0.028000  1.0  -0.1584
  N  N65  1  0.188600  0.612300  0.728100  1.0  -0.273
  N  N66  1  0.899000  0.143000  0.138000  1.0  -0.1084
  N  N67  1  0.479500  0.082000  0.299100  1.0  -0.1269
  N  N68  1  0.501000  0.143000  0.701000  1.0  -0.2211
  O  O69  1  0.500300  0.330300  0.595200  1.0  -0.6466
  O  O70  1  0.666400  0.508600  0.524200  1.0  -0.8731
  O  O71  1  0.836000  0.707000  0.764300  1.0  -0.6467
  O  O72  1  0.428900  0.283000  0.402600  1.0  -0.6234
  O  O73  1  0.680700  0.729700  0.836500  1.0  -0.6721
  O  O74  1  0.616800  0.449200  0.337700  1.0  -0.6629
  O  O75  1  0.499700  0.669700  0.404800  1.0  -0.6487
  O  O76  1  0.333600  0.491400  0.475800  1.0  -0.8739
  O  O77  1  0.164000  0.293000  0.235700  1.0  -0.6455
  O  O78  1  0.571100  0.717000  0.597400  1.0  -0.6225
  O  O79  1  0.319300  0.270300  0.163500  1.0  -0.6715
  O  O80  1  0.383200  0.550800  0.662300  1.0  -0.6635
