# generated using pymatgen
data_In2P2O8F
_symmetry_space_group_name_H-M   'P 1'
_cell_length_a   18.46730000
_cell_length_b   12.71170000
_cell_length_c   20.47050000
_cell_angle_alpha   90.00000000
_cell_angle_beta   108.56600000
_cell_angle_gamma   90.00000000
_symmetry_Int_Tables_number   1
_chemical_formula_structural   In2P2O8F
_chemical_formula_sum   'In32 P32 O128 F16'
_cell_volume   4555.37741922
_cell_formula_units_Z   16
loop_
 _symmetry_equiv_pos_site_id
 _symmetry_equiv_pos_as_xyz
  1  'x, y, z'
loop_
 _atom_site_type_symbol
 _atom_site_label
 _atom_site_symmetry_multiplicity
 _atom_site_fract_x
 _atom_site_fract_y
 _atom_site_fract_z
 _atom_site_occupancy
 _atom_site_charge
  In  In1  1  0.269160  0.918490  0.013610  1.0  1.62
  In  In2  1  0.124510  0.979080  0.839350  1.0  1.5491
  In  In3  1  0.285260  0.612340  0.876740  1.0  1.5869
  In  In4  1  0.215830  0.420410  0.982060  1.0  1.6181
  In  In5  1  0.370550  0.476160  0.152390  1.0  1.5613
  In  In6  1  0.207660  0.113100  0.118860  1.0  1.5669
  In  In7  1  0.423630  0.850610  0.270460  1.0  1.465
  In  In8  1  0.570930  0.146840  0.220710  1.0  1.44
  In  In9  1  0.230840  0.418490  0.486390  1.0  1.6197
  In  In10  1  0.375490  0.479080  0.660650  1.0  1.5483
  In  In11  1  0.214740  0.112340  0.623260  1.0  1.5873
  In  In12  1  0.284170  0.920410  0.517940  1.0  1.6177
  In  In13  1  0.129450  0.976160  0.347610  1.0  1.5609
  In  In14  1  0.292340  0.613100  0.381140  1.0  1.5645
  In  In15  1  0.076370  0.350610  0.229540  1.0  1.4639
  In  In16  1  0.929070  0.646840  0.279290  1.0  1.4414
  In  In17  1  0.730840  0.081510  0.986390  1.0  1.6197
  In  In18  1  0.875490  0.020920  0.160650  1.0  1.5481
  In  In19  1  0.714740  0.387660  0.123260  1.0  1.5866
  In  In20  1  0.784170  0.579590  0.017940  1.0  1.6177
  In  In21  1  0.629450  0.523840  0.847610  1.0  1.5607
  In  In22  1  0.792340  0.886900  0.881140  1.0  1.5647
  In  In23  1  0.576370  0.149390  0.729540  1.0  1.4646
  In  In24  1  0.429070  0.853160  0.779290  1.0  1.4418
  In  In25  1  0.769160  0.581510  0.513610  1.0  1.62
  In  In26  1  0.624510  0.520920  0.339350  1.0  1.5494
  In  In27  1  0.785260  0.887660  0.376740  1.0  1.5867
  In  In28  1  0.715830  0.079590  0.482060  1.0  1.6178
  In  In29  1  0.870550  0.023840  0.652390  1.0  1.5611
  In  In30  1  0.707660  0.386900  0.618860  1.0  1.5667
  In  In31  1  0.923630  0.649390  0.770460  1.0  1.4649
  In  In32  1  0.070930  0.353160  0.720710  1.0  1.44
  P  P33  1  0.303580  0.879400  0.867130  1.0  1.7095
  P  P34  1  0.191540  0.377370  0.131050  1.0  1.7406
  P  P35  1  0.056910  0.090660  0.674660  1.0  1.7495
  P  P36  1  0.939900  0.912870  0.815280  1.0  1.8198
  P  P37  1  0.389740  0.040680  0.148320  1.0  1.7155
  P  P38  1  0.195600  0.154960  0.958890  1.0  1.7668
  P  P39  1  0.287850  0.655840  0.037020  1.0  1.785
  P  P40  1  0.102910  0.542750  0.844370  1.0  1.716
  P  P41  1  0.196420  0.379400  0.632870  1.0  1.7088
  P  P42  1  0.308460  0.877370  0.368950  1.0  1.7412
  P  P43  1  0.443090  0.590660  0.825340  1.0  1.7492
  P  P44  1  0.560100  0.412870  0.684720  1.0  1.8195
  P  P45  1  0.110260  0.540680  0.351680  1.0  1.7148
  P  P46  1  0.304400  0.654960  0.541110  1.0  1.7683
  P  P47  1  0.212150  0.155840  0.462980  1.0  1.7846
  P  P48  1  0.397090  0.042750  0.655630  1.0  1.7164
  P  P49  1  0.696420  0.120600  0.132870  1.0  1.7094
  P  P50  1  0.808460  0.622630  0.868950  1.0  1.7417
  P  P51  1  0.943090  0.909340  0.325340  1.0  1.7484
  P  P52  1  0.060100  0.087130  0.184720  1.0  1.82
  P  P53  1  0.610260  0.959320  0.851680  1.0  1.7149
  P  P54  1  0.804400  0.845040  0.041110  1.0  1.7683
  P  P55  1  0.712150  0.344160  0.962980  1.0  1.7842
  P  P56  1  0.897090  0.457250  0.155630  1.0  1.7147
  P  P57  1  0.803580  0.620600  0.367130  1.0  1.7098
  P  P58  1  0.691540  0.122630  0.631050  1.0  1.7409
  P  P59  1  0.556910  0.409340  0.174660  1.0  1.7489
  P  P60  1  0.439900  0.587130  0.315280  1.0  1.8204
  P  P61  1  0.889740  0.459320  0.648320  1.0  1.7154
  P  P62  1  0.695600  0.345040  0.458890  1.0  1.7667
  P  P63  1  0.787850  0.844160  0.537020  1.0  1.7846
  P  P64  1  0.602910  0.957250  0.344370  1.0  1.7144
  O  O65  1  0.326500  0.658100  0.980800  1.0  -0.7336
  O  O66  1  0.257300  0.455200  0.157600  1.0  -0.816
  O  O67  1  0.102500  0.494100  0.775600  1.0  -0.7745
  O  O68  1  0.114200  0.454000  0.899200  1.0  -0.7184
  O  O69  1  0.126600  0.409100  0.158500  1.0  -0.7528
  O  O70  1  0.885200  0.945700  0.745700  1.0  -0.808
  O  O71  1  0.374800  0.951800  0.093100  1.0  -0.7169
  O  O72  1  0.466400  0.092600  0.155200  1.0  -0.7793
  O  O73  1  0.276200  0.768400  0.838600  1.0  -0.7924
  O  O74  1  0.031600  0.206800  0.672700  1.0  -0.7936
  O  O75  1  0.027100  0.597900  0.836600  1.0  -0.7572
  O  O76  1  0.220200  0.266200  0.157700  1.0  -0.7809
  O  O77  1  0.348500  0.627400  0.106100  1.0  -0.7326
  O  O78  1  0.159300  0.378500  0.052200  1.0  -0.7365
  O  O79  1  0.107700  0.062700  0.746800  1.0  -0.8321
  O  O80  1  0.326200  0.123700  0.127900  1.0  -0.7584
  O  O81  1  0.391300  0.993900  0.217500  1.0  -0.7734
  O  O82  1  0.985000  0.022000  0.650400  1.0  -0.7955
  O  O83  1  0.222700  0.575500  0.019500  1.0  -0.7365
  O  O84  1  0.011200  0.981900  0.837700  1.0  -0.7641
  O  O85  1  0.230100  0.264000  0.953000  1.0  -0.735
  O  O86  1  0.166700  0.624700  0.865600  1.0  -0.7474
  O  O87  1  0.372300  0.912300  0.845700  1.0  -0.7257
  O  O88  1  0.965300  0.798000  0.812600  1.0  -0.7925
  O  O89  1  0.329300  0.878400  0.945900  1.0  -0.7058
  O  O90  1  0.238500  0.958500  0.836900  1.0  -0.7857
  O  O91  1  0.899800  0.919900  0.870000  1.0  -0.7456
  O  O92  1  0.255700  0.764000  0.046600  1.0  -0.7503
  O  O93  1  0.260000  0.074800  0.976200  1.0  -0.7551
  O  O94  1  0.137400  0.128600  0.887800  1.0  -0.7264
  O  O95  1  0.155100  0.155000  0.013800  1.0  -0.7349
  O  O96  1  0.102000  0.079300  0.623500  1.0  -0.7345
  O  O97  1  0.173500  0.158100  0.519200  1.0  -0.7325
  O  O98  1  0.242700  0.955200  0.342400  1.0  -0.8182
  O  O99  1  0.397500  0.994100  0.724400  1.0  -0.7747
  O  O100  1  0.385800  0.954000  0.600800  1.0  -0.7176
  O  O101  1  0.373400  0.909100  0.341500  1.0  -0.7501
  O  O102  1  0.614800  0.445700  0.754300  1.0  -0.8076
  O  O103  1  0.125200  0.451800  0.406900  1.0  -0.7175
  O  O104  1  0.033600  0.592600  0.344800  1.0  -0.781
  O  O105  1  0.223800  0.268400  0.661400  1.0  -0.7931
  O  O106  1  0.468400  0.706800  0.827300  1.0  -0.7933
  O  O107  1  0.472900  0.097900  0.663400  1.0  -0.7561
  O  O108  1  0.279800  0.766200  0.342300  1.0  -0.7821
  O  O109  1  0.151500  0.127400  0.393900  1.0  -0.731
  O  O110  1  0.340700  0.878500  0.447800  1.0  -0.7375
  O  O111  1  0.392300  0.562700  0.753200  1.0  -0.8324
  O  O112  1  0.173800  0.623700  0.372100  1.0  -0.7585
  O  O113  1  0.108700  0.493900  0.282500  1.0  -0.7726
  O  O114  1  0.515000  0.522000  0.849600  1.0  -0.7948
  O  O115  1  0.277300  0.075500  0.480500  1.0  -0.7371
  O  O116  1  0.488800  0.481900  0.662300  1.0  -0.7651
  O  O117  1  0.269900  0.764000  0.547000  1.0  -0.7354
  O  O118  1  0.333333  0.124700  0.634400  1.0  -0.7496
  O  O119  1  0.127700  0.412300  0.654300  1.0  -0.7278
  O  O120  1  0.534700  0.298000  0.687400  1.0  -0.7931
  O  O121  1  0.170700  0.378400  0.554100  1.0  -0.7061
  O  O122  1  0.261500  0.458500  0.663100  1.0  -0.7855
  O  O123  1  0.600200  0.419900  0.630000  1.0  -0.7433
  O  O124  1  0.244300  0.264000  0.453400  1.0  -0.7497
  O  O125  1  0.240000  0.574800  0.523800  1.0  -0.7549
  O  O126  1  0.362600  0.628600  0.612200  1.0  -0.7265
  O  O127  1  0.344900  0.655000  0.486200  1.0  -0.7367
  O  O128  1  0.398000  0.579300  0.876500  1.0  -0.735
  O  O129  1  0.673500  0.341900  0.019200  1.0  -0.7326
  O  O130  1  0.742700  0.544800  0.842400  1.0  -0.8182
  O  O131  1  0.897500  0.505900  0.224400  1.0  -0.7749
  O  O132  1  0.885800  0.546000  0.100800  1.0  -0.7171
  O  O133  1  0.873400  0.590900  0.841500  1.0  -0.7512
  O  O134  1  0.114800  0.054300  0.254300  1.0  -0.8082
  O  O135  1  0.625200  0.048200  0.906900  1.0  -0.717
  O  O136  1  0.533600  0.907400  0.844800  1.0  -0.7808
  O  O137  1  0.723800  0.231600  0.161400  1.0  -0.7926
  O  O138  1  0.968400  0.793200  0.327300  1.0  -0.792
  O  O139  1  0.972900  0.402100  0.163400  1.0  -0.7569
  O  O140  1  0.779800  0.733800  0.842300  1.0  -0.781
  O  O141  1  0.651500  0.372600  0.893900  1.0  -0.7312
  O  O142  1  0.840700  0.621500  0.947800  1.0  -0.738
  O  O143  1  0.892300  0.937300  0.253200  1.0  -0.8326
  O  O144  1  0.673800  0.876300  0.872100  1.0  -0.7604
  O  O145  1  0.608700  0.006100  0.782500  1.0  -0.7725
  O  O146  1  0.015000  0.978000  0.349600  1.0  -0.7946
  O  O147  1  0.777300  0.424500  0.980500  1.0  -0.7361
  O  O148  1  0.988800  0.018100  0.162300  1.0  -0.7654
  O  O149  1  0.769900  0.736000  0.047000  1.0  -0.7355
  O  O150  1  0.833300  0.375300  0.134400  1.0  -0.7508
  O  O151  1  0.627700  0.087700  0.154300  1.0  -0.7265
  O  O152  1  0.034700  0.202000  0.187400  1.0  -0.7948
  O  O153  1  0.670700  0.121600  0.054100  1.0  -0.7059
  O  O154  1  0.761500  0.041500  0.163100  1.0  -0.787
  O  O155  1  0.100200  0.080100  0.130000  1.0  -0.7408
  O  O156  1  0.744300  0.236000  0.953400  1.0  -0.7502
  O  O157  1  0.740000  0.925200  0.023800  1.0  -0.7546
  O  O158  1  0.862600  0.871400  0.112200  1.0  -0.7269
  O  O159  1  0.844900  0.845000  0.986200  1.0  -0.7366
  O  O160  1  0.898000  0.920700  0.376500  1.0  -0.736
  O  O161  1  0.826500  0.841900  0.480800  1.0  -0.7335
  O  O162  1  0.757300  0.044800  0.657600  1.0  -0.8165
  O  O163  1  0.602500  0.005900  0.275600  1.0  -0.7738
  O  O164  1  0.614200  0.046000  0.399200  1.0  -0.7177
  O  O165  1  0.626600  0.090900  0.658500  1.0  -0.7523
  O  O166  1  0.385200  0.554300  0.245700  1.0  -0.8087
  O  O167  1  0.874800  0.548200  0.593100  1.0  -0.7166
  O  O168  1  0.966400  0.407400  0.655200  1.0  -0.7798
  O  O169  1  0.776200  0.731600  0.338600  1.0  -0.7921
  O  O170  1  0.531600  0.293200  0.172700  1.0  -0.792
  O  O171  1  0.527100  0.902100  0.336600  1.0  -0.7575
  O  O172  1  0.720200  0.233800  0.657700  1.0  -0.7799
  O  O173  1  0.848500  0.872600  0.606100  1.0  -0.7327
  O  O174  1  0.659300  0.121500  0.552200  1.0  -0.7368
  O  O175  1  0.607700  0.437300  0.246800  1.0  -0.832
  O  O176  1  0.826200  0.376300  0.627900  1.0  -0.7602
  O  O177  1  0.891300  0.506100  0.717500  1.0  -0.773
  O  O178  1  0.485000  0.478000  0.150400  1.0  -0.7962
  O  O179  1  0.722700  0.924500  0.519500  1.0  -0.7355
  O  O180  1  0.511200  0.518100  0.337700  1.0  -0.7644
  O  O181  1  0.730100  0.236000  0.453000  1.0  -0.7353
  O  O182  1  0.666667  0.875300  0.365600  1.0  -0.7524
  O  O183  1  0.872300  0.587700  0.345700  1.0  -0.7263
  O  O184  1  0.465300  0.702000  0.312600  1.0  -0.7939
  O  O185  1  0.829300  0.621600  0.445900  1.0  -0.7054
  O  O186  1  0.738500  0.541500  0.336900  1.0  -0.7865
  O  O187  1  0.399800  0.580100  0.370000  1.0  -0.7432
  O  O188  1  0.755700  0.736000  0.546600  1.0  -0.7504
  O  O189  1  0.760000  0.425200  0.476200  1.0  -0.7547
  O  O190  1  0.637400  0.371400  0.387800  1.0  -0.7264
  O  O191  1  0.655100  0.345000  0.513800  1.0  -0.7349
  O  O192  1  0.602000  0.420700  0.123500  1.0  -0.7331
  F  F193  1  0.160000  0.899800  0.936070  1.0  -0.5385
  F  F194  1  0.328400  0.402200  0.053910  1.0  -0.5407
  F  F195  1  0.276700  0.457400  0.911700  1.0  -0.5172
  F  F196  1  0.209400  0.956000  0.083910  1.0  -0.5186
  F  F197  1  0.340000  0.399800  0.563930  1.0  -0.5385
  F  F198  1  0.171600  0.902200  0.446090  1.0  -0.5406
  F  F199  1  0.223300  0.957400  0.588300  1.0  -0.5191
  F  F200  1  0.290600  0.456000  0.416090  1.0  -0.5171
  F  F201  1  0.840000  0.100200  0.063930  1.0  -0.5361
  F  F202  1  0.671600  0.597800  0.946090  1.0  -0.5385
  F  F203  1  0.723300  0.542600  0.088300  1.0  -0.518
  F  F204  1  0.790600  0.044000  0.916090  1.0  -0.517
  F  F205  1  0.660000  0.600200  0.436070  1.0  -0.536
  F  F206  1  0.828400  0.097800  0.553910  1.0  -0.539
  F  F207  1  0.776700  0.042600  0.411700  1.0  -0.5167
  F  F208  1  0.709400  0.544000  0.583910  1.0  -0.5176
