# generated using pymatgen
data_In2P2O8F
_symmetry_space_group_name_H-M   'P 1'
_cell_length_a   10.28000000
_cell_length_b   12.70000000
_cell_length_c   17.86000000
_cell_angle_alpha   90.00000000
_cell_angle_beta   102.47000000
_cell_angle_gamma   90.00000000
_symmetry_Int_Tables_number   1
_chemical_formula_structural   In2P2O8F
_chemical_formula_sum   'In16 P16 O64 F8'
_cell_volume   2276.72278201
_cell_formula_units_Z   8
loop_
 _symmetry_equiv_pos_site_id
 _symmetry_equiv_pos_as_xyz
  1  'x, y, z'
loop_
 _atom_site_type_symbol
 _atom_site_label
 _atom_site_symmetry_multiplicity
 _atom_site_fract_x
 _atom_site_fract_y
 _atom_site_fract_z
 _atom_site_occupancy
 _atom_site_charge
  In  In1  1  0.943050  0.978210  0.125910  1.0  1.5323
  In  In2  1  0.745720  0.927400  0.277690  1.0  1.6496
  In  In3  1  0.468760  0.116240  0.208220  1.0  1.5371
  In  In4  1  0.367050  0.852190  0.422270  1.0  1.4566
  In  In5  1  0.556950  0.478210  0.374090  1.0  1.5342
  In  In6  1  0.754280  0.427400  0.222310  1.0  1.6486
  In  In7  1  0.031240  0.616240  0.291780  1.0  1.5347
  In  In8  1  0.132950  0.352190  0.077730  1.0  1.4585
  In  In9  1  0.056950  0.021790  0.874090  1.0  1.5338
  In  In10  1  0.254280  0.072600  0.722310  1.0  1.6482
  In  In11  1  0.531240  0.883760  0.791780  1.0  1.534
  In  In12  1  0.632950  0.147810  0.577730  1.0  1.4587
  In  In13  1  0.443050  0.521790  0.625910  1.0  1.5321
  In  In14  1  0.245720  0.572600  0.777690  1.0  1.649
  In  In15  1  0.968760  0.383760  0.708220  1.0  1.5367
  In  In16  1  0.867050  0.647810  0.922270  1.0  1.4567
  P  P17  1  0.202580  0.089590  0.058420  1.0  1.7586
  P  P18  1  0.065110  0.883700  0.307500  1.0  1.7105
  P  P19  1  0.720680  0.659680  0.299410  1.0  1.7503
  P  P20  1  0.580860  0.046130  0.392480  1.0  1.7229
  P  P21  1  0.297420  0.589590  0.441580  1.0  1.7582
  P  P22  1  0.434890  0.383700  0.192500  1.0  1.7086
  P  P23  1  0.779320  0.159680  0.200590  1.0  1.7511
  P  P24  1  0.919140  0.546130  0.107520  1.0  1.723
  P  P25  1  0.797420  0.910410  0.941580  1.0  1.7845
  P  P26  1  0.934890  0.116300  0.692500  1.0  1.7089
  P  P27  1  0.279320  0.340320  0.700590  1.0  1.7509
  P  P28  1  0.419140  0.953870  0.607520  1.0  1.7229
  P  P29  1  0.702580  0.410410  0.558420  1.0  1.7849
  P  P30  1  0.565110  0.616300  0.807500  1.0  1.711
  P  P31  1  0.220680  0.840320  0.799410  1.0  1.7499
  P  P32  1  0.080860  0.453870  0.892480  1.0  1.7229
  O  O33  1  0.174800  0.021300  0.986700  1.0  -0.7703
  O  O34  1  0.349400  0.079100  0.100300  1.0  -0.7484
  O  O35  1  0.114300  0.058600  0.113400  1.0  -0.798
  O  O36  1  0.175000  0.205600  0.034200  1.0  -0.8006
  O  O37  1  0.092800  0.771500  0.280800  1.0  -0.8032
  O  O38  1  0.058300  0.959700  0.239700  1.0  -0.7905
  O  O39  1  0.181600  0.916300  0.372800  1.0  -0.7077
  O  O40  1  0.937700  0.887200  0.338400  1.0  -0.7181
  O  O41  1  0.867900  0.659200  0.338800  1.0  -0.7265
  O  O42  1  0.636300  0.628800  0.357600  1.0  -0.7202
  O  O43  1  0.674100  0.771000  0.270100  1.0  -0.7446
  O  O44  1  0.691000  0.584000  0.231200  1.0  -0.7436
  O  O45  1  0.561200  0.127800  0.328300  1.0  -0.7512
  O  O46  1  0.679300  0.957700  0.379600  1.0  -0.7179
  O  O47  1  0.445500  0.995400  0.393200  1.0  -0.781
  O  O48  1  0.639600  0.098800  0.468300  1.0  -0.755
  O  O49  1  0.325200  0.521300  0.513300  1.0  -0.7717
  O  O50  1  0.150600  0.579100  0.399700  1.0  -0.7475
  O  O51  1  0.385700  0.558600  0.386600  1.0  -0.7971
  O  O52  1  0.325000  0.705600  0.465800  1.0  -0.8016
  O  O53  1  0.407200  0.271500  0.219200  1.0  -0.8038
  O  O54  1  0.441700  0.459700  0.260300  1.0  -0.79
  O  O55  1  0.318400  0.416300  0.127200  1.0  -0.7077
  O  O56  1  0.562300  0.387200  0.161600  1.0  -0.7176
  O  O57  1  0.632100  0.159200  0.161200  1.0  -0.7276
  O  O58  1  0.863700  0.128800  0.142400  1.0  -0.7205
  O  O59  1  0.825900  0.271000  0.229900  1.0  -0.7445
  O  O60  1  0.809000  0.084000  0.268800  1.0  -0.7438
  O  O61  1  0.938800  0.627800  0.171700  1.0  -0.7501
  O  O62  1  0.820700  0.457700  0.120400  1.0  -0.7173
  O  O63  1  0.054500  0.495400  0.106800  1.0  -0.7809
  O  O64  1  0.860400  0.598800  0.031700  1.0  -0.755
  O  O65  1  0.825200  0.978700  0.013300  1.0  -0.7721
  O  O66  1  0.650600  0.920900  0.899700  1.0  -0.7484
  O  O67  1  0.885700  0.941400  0.886600  1.0  -0.7971
  O  O68  1  0.825000  0.794400  0.965800  1.0  -0.8006
  O  O69  1  0.907200  0.228500  0.719200  1.0  -0.8054
  O  O70  1  0.941700  0.040300  0.760300  1.0  -0.7893
  O  O71  1  0.818400  0.083700  0.627200  1.0  -0.7086
  O  O72  1  0.062300  0.112800  0.661600  1.0  -0.7174
  O  O73  1  0.132100  0.340800  0.661200  1.0  -0.7276
  O  O74  1  0.363700  0.371200  0.642400  1.0  -0.7199
  O  O75  1  0.325900  0.229000  0.729900  1.0  -0.7443
  O  O76  1  0.309000  0.416000  0.768800  1.0  -0.743
  O  O77  1  0.438800  0.872200  0.671700  1.0  -0.7521
  O  O78  1  0.320700  0.042300  0.620400  1.0  -0.7176
  O  O79  1  0.554500  0.004600  0.606800  1.0  -0.7807
  O  O80  1  0.360400  0.901200  0.531700  1.0  -0.7558
  O  O81  1  0.674800  0.478700  0.486700  1.0  -0.7705
  O  O82  1  0.849400  0.420900  0.600300  1.0  -0.7481
  O  O83  1  0.614300  0.441400  0.613400  1.0  -0.798
  O  O84  1  0.675000  0.294400  0.534200  1.0  -0.7997
  O  O85  1  0.592800  0.728500  0.780800  1.0  -0.8005
  O  O86  1  0.558300  0.540300  0.739700  1.0  -0.7907
  O  O87  1  0.681600  0.583700  0.872800  1.0  -0.7089
  O  O88  1  0.437700  0.612800  0.838400  1.0  -0.7179
  O  O89  1  0.367900  0.840800  0.838800  1.0  -0.7264
  O  O90  1  0.136300  0.871200  0.857600  1.0  -0.7199
  O  O91  1  0.174100  0.729000  0.770100  1.0  -0.7445
  O  O92  1  0.191000  0.916000  0.731200  1.0  -0.7434
  O  O93  1  0.061200  0.372200  0.828300  1.0  -0.7528
  O  O94  1  0.179300  0.542300  0.879600  1.0  -0.7177
  O  O95  1  0.945500  0.504600  0.893200  1.0  -0.7812
  O  O96  1  0.139600  0.401200  0.968300  1.0  -0.7558
  F  F97  1  0.787600  0.906100  0.168000  1.0  -0.5403
  F  F98  1  0.548400  0.961600  0.218100  1.0  -0.5137
  F  F99  1  0.712400  0.406100  0.332000  1.0  -0.5398
  F  F100  1  0.951600  0.461600  0.281900  1.0  -0.513
  F  F101  1  0.212400  0.093900  0.832000  1.0  -0.5385
  F  F102  1  0.451600  0.038400  0.781900  1.0  -0.5127
  F  F103  1  0.287600  0.593900  0.668000  1.0  -0.5383
  F  F104  1  0.048400  0.538400  0.718100  1.0  -0.5141
