# generated using pymatgen
data_In2P2O8F
_symmetry_space_group_name_H-M   'P 1'
_cell_length_a   10.31610000
_cell_length_b   12.74900000
_cell_length_c   17.91270000
_cell_angle_alpha   90.00000000
_cell_angle_beta   102.47600000
_cell_angle_gamma   90.00000000
_symmetry_Int_Tables_number   1
_chemical_formula_structural   In2P2O8F
_chemical_formula_sum   'In16 P16 O64 F8'
_cell_volume   2300.24724951
_cell_formula_units_Z   8
loop_
 _symmetry_equiv_pos_site_id
 _symmetry_equiv_pos_as_xyz
  1  'x, y, z'
loop_
 _atom_site_type_symbol
 _atom_site_label
 _atom_site_symmetry_multiplicity
 _atom_site_fract_x
 _atom_site_fract_y
 _atom_site_fract_z
 _atom_site_occupancy
 _atom_site_charge
  In  In1  1  0.754000  0.572560  0.222340  1.0  1.6284
  In  In2  1  0.030990  0.383530  0.292130  1.0  1.5551
  In  In3  1  0.556730  0.521460  0.374110  1.0  1.5299
  In  In4  1  0.132900  0.647670  0.077800  1.0  1.4423
  In  In5  1  0.746000  0.072560  0.277660  1.0  1.6287
  In  In6  1  0.469010  0.883530  0.207870  1.0  1.5575
  In  In7  1  0.943270  0.021460  0.125890  1.0  1.5283
  In  In8  1  0.367100  0.147670  0.422200  1.0  1.4429
  In  In9  1  0.246000  0.427440  0.777660  1.0  1.6293
  In  In10  1  0.969010  0.616470  0.707870  1.0  1.5574
  In  In11  1  0.443270  0.478540  0.625890  1.0  1.5283
  In  In12  1  0.867100  0.352330  0.922200  1.0  1.4429
  In  In13  1  0.254000  0.927440  0.722340  1.0  1.6288
  In  In14  1  0.530990  0.116470  0.792130  1.0  1.5551
  In  In15  1  0.056730  0.978540  0.874110  1.0  1.5299
  In  In16  1  0.632900  0.852330  0.577800  1.0  1.4422
  P  P17  1  0.434800  0.616220  0.192380  1.0  1.714
  P  P18  1  0.779580  0.840160  0.200840  1.0  1.7395
  P  P19  1  0.297450  0.410370  0.441590  1.0  1.7526
  P  P20  1  0.919120  0.453750  0.107850  1.0  1.6878
  P  P21  1  0.065200  0.116220  0.307620  1.0  1.7159
  P  P22  1  0.720420  0.340160  0.299160  1.0  1.7393
  P  P23  1  0.202550  0.910370  0.058410  1.0  1.7524
  P  P24  1  0.580880  0.953750  0.392150  1.0  1.6879
  P  P25  1  0.565200  0.383780  0.807620  1.0  1.7153
  P  P26  1  0.220420  0.159840  0.799160  1.0  1.7401
  P  P27  1  0.702550  0.589630  0.558410  1.0  1.7539
  P  P28  1  0.080880  0.546250  0.892150  1.0  1.6879
  P  P29  1  0.934800  0.883780  0.692380  1.0  1.7139
  P  P30  1  0.279580  0.659840  0.700840  1.0  1.7482
  P  P31  1  0.797450  0.089630  0.941590  1.0  1.7528
  P  P32  1  0.419120  0.046250  0.607850  1.0  1.6878
  O  O33  1  0.326300  0.295000  0.466800  1.0  -0.7868
  O  O34  1  0.319100  0.583200  0.127100  1.0  -0.6997
  O  O35  1  0.442200  0.540400  0.260000  1.0  -0.7873
  O  O36  1  0.386400  0.441700  0.386500  1.0  -0.7953
  O  O37  1  0.821000  0.542000  0.120600  1.0  -0.702
  O  O38  1  0.150800  0.420800  0.400500  1.0  -0.734
  O  O39  1  0.562400  0.612200  0.161600  1.0  -0.7054
  O  O40  1  0.632400  0.840700  0.160700  1.0  -0.7204
  O  O41  1  0.861100  0.401600  0.031900  1.0  -0.7645
  O  O42  1  0.825400  0.729000  0.230100  1.0  -0.7432
  O  O43  1  0.864500  0.871100  0.142500  1.0  -0.7146
  O  O44  1  0.939200  0.371700  0.172300  1.0  -0.7487
  O  O45  1  0.326000  0.479700  0.513200  1.0  -0.7811
  O  O46  1  0.807600  0.915800  0.268700  1.0  -0.74
  O  O47  1  0.407700  0.727700  0.218600  1.0  -0.7963
  O  O48  1  0.054900  0.503700  0.107700  1.0  -0.7748
  O  O49  1  0.173700  0.795000  0.033200  1.0  -0.786
  O  O50  1  0.180900  0.083200  0.372900  1.0  -0.7007
  O  O51  1  0.057800  0.040400  0.240000  1.0  -0.7886
  O  O52  1  0.113600  0.941700  0.113500  1.0  -0.7966
  O  O53  1  0.679000  0.042000  0.379400  1.0  -0.7017
  O  O54  1  0.349200  0.920800  0.099500  1.0  -0.737
  O  O55  1  0.937600  0.112200  0.338400  1.0  -0.7051
  O  O56  1  0.867600  0.340700  0.339300  1.0  -0.7195
  O  O57  1  0.638900  0.901600  0.468100  1.0  -0.7644
  O  O58  1  0.674600  0.229000  0.269900  1.0  -0.7437
  O  O59  1  0.635500  0.371100  0.357500  1.0  -0.7146
  O  O60  1  0.560800  0.871700  0.327700  1.0  -0.7489
  O  O61  1  0.174000  0.979700  0.986800  1.0  -0.7804
  O  O62  1  0.692400  0.415800  0.231300  1.0  -0.741
  O  O63  1  0.092300  0.227700  0.281400  1.0  -0.7938
  O  O64  1  0.445100  0.003700  0.392300  1.0  -0.7755
  O  O65  1  0.673700  0.705000  0.533200  1.0  -0.7875
  O  O66  1  0.680900  0.416800  0.872900  1.0  -0.6996
  O  O67  1  0.557800  0.459600  0.740000  1.0  -0.7885
  O  O68  1  0.613600  0.558300  0.613500  1.0  -0.7965
  O  O69  1  0.179000  0.458000  0.879400  1.0  -0.702
  O  O70  1  0.849200  0.579200  0.599500  1.0  -0.7368
  O  O71  1  0.437600  0.387800  0.838400  1.0  -0.7056
  O  O72  1  0.367600  0.159300  0.839300  1.0  -0.7196
  O  O73  1  0.138900  0.598400  0.968100  1.0  -0.7637
  O  O74  1  0.174600  0.271000  0.769900  1.0  -0.7438
  O  O75  1  0.135500  0.128900  0.857500  1.0  -0.7138
  O  O76  1  0.060800  0.628300  0.827700  1.0  -0.7462
  O  O77  1  0.674000  0.520300  0.486800  1.0  -0.7807
  O  O78  1  0.192400  0.084200  0.731300  1.0  -0.7412
  O  O79  1  0.592300  0.272300  0.781400  1.0  -0.7939
  O  O80  1  0.945100  0.496300  0.892300  1.0  -0.7753
  O  O81  1  0.826300  0.205000  0.966800  1.0  -0.7881
  O  O82  1  0.819100  0.916800  0.627100  1.0  -0.6986
  O  O83  1  0.942200  0.959600  0.760000  1.0  -0.7881
  O  O84  1  0.886400  0.058300  0.886500  1.0  -0.7953
  O  O85  1  0.321000  0.958000  0.620600  1.0  -0.702
  O  O86  1  0.650800  0.079200  0.900500  1.0  -0.7354
  O  O87  1  0.062400  0.887800  0.661600  1.0  -0.7058
  O  O88  1  0.132400  0.659300  0.660700  1.0  -0.7205
  O  O89  1  0.361100  0.098400  0.531900  1.0  -0.7637
  O  O90  1  0.325400  0.771000  0.730100  1.0  -0.7435
  O  O91  1  0.364500  0.628900  0.642500  1.0  -0.7143
  O  O92  1  0.439200  0.128300  0.672300  1.0  -0.7463
  O  O93  1  0.826000  0.020300  0.013200  1.0  -0.7813
  O  O94  1  0.307600  0.584200  0.768700  1.0  -0.741
  O  O95  1  0.907700  0.772300  0.718600  1.0  -0.7968
  O  O96  1  0.554900  0.996300  0.607700  1.0  -0.775
  F  F97  1  0.712700  0.593900  0.332150  1.0  -0.5428
  F  F98  1  0.951800  0.537700  0.282220  1.0  -0.5128
  F  F99  1  0.787300  0.093900  0.167850  1.0  -0.5433
  F  F100  1  0.548200  0.037700  0.217780  1.0  -0.5152
  F  F101  1  0.287300  0.406100  0.667850  1.0  -0.5456
  F  F102  1  0.048200  0.462300  0.717780  1.0  -0.5161
  F  F103  1  0.212700  0.906100  0.832150  1.0  -0.5445
  F  F104  1  0.451800  0.962300  0.782220  1.0  -0.5141
