# generated using pymatgen
data_V4P7(HO3)7
_symmetry_space_group_name_H-M   'P 1'
_cell_length_a   13.46780000
_cell_length_b   13.46780000
_cell_length_c   18.31710000
_cell_angle_alpha   90.00000000
_cell_angle_beta   90.00000000
_cell_angle_gamma   120.00000000
_symmetry_Int_Tables_number   1
_chemical_formula_structural   V4P7(HO3)7
_chemical_formula_sum   'V16 P28 H28 O84'
_cell_volume   2877.27031359
_cell_formula_units_Z   4
loop_
 _symmetry_equiv_pos_site_id
 _symmetry_equiv_pos_as_xyz
  1  'x, y, z'
loop_
 _atom_site_type_symbol
 _atom_site_label
 _atom_site_symmetry_multiplicity
 _atom_site_fract_x
 _atom_site_fract_y
 _atom_site_fract_z
 _atom_site_occupancy
 _atom_site_charge
  V  V1  1  0.435290  0.143320  0.458230  1.0  1.4956
  V  V2  1  0.856680  0.291970  0.458230  1.0  1.4939
  V  V3  1  0.708030  0.564710  0.458230  1.0  1.4951
  V  V4  1  0.143320  0.435290  0.041770  1.0  1.4965
  V  V5  1  0.291970  0.856680  0.041770  1.0  1.4984
  V  V6  1  0.564710  0.708030  0.041770  1.0  1.4964
  V  V7  1  0.564710  0.856680  0.541770  1.0  1.4965
  V  V8  1  0.143320  0.708030  0.541770  1.0  1.4985
  V  V9  1  0.291970  0.435290  0.541770  1.0  1.497
  V  V10  1  0.856680  0.564710  0.958230  1.0  1.4959
  V  V11  1  0.708030  0.143320  0.958230  1.0  1.4935
  V  V12  1  0.435290  0.291970  0.958230  1.0  1.4959
  V  V13  1  0.000000  0.000000  0.500000  1.0  1.4509
  V  V14  1  0.000000  0.000000  0.000000  1.0  1.4509
  V  V15  1  0.000000  0.000000  0.250000  1.0  1.5296
  V  V16  1  0.000000  0.000000  0.750000  1.0  1.5296
  P  P17  1  0.188320  0.029280  0.371150  1.0  1.6198
  P  P18  1  0.496050  0.369720  0.554320  1.0  1.6821
  P  P19  1  0.970720  0.159040  0.371150  1.0  1.6223
  P  P20  1  0.630280  0.126330  0.554320  1.0  1.6821
  P  P21  1  0.840960  0.811680  0.371150  1.0  1.6223
  P  P22  1  0.873670  0.503950  0.554320  1.0  1.6804
  P  P23  1  0.029280  0.188320  0.128850  1.0  1.6213
  P  P24  1  0.369720  0.496050  0.945680  1.0  1.6806
  P  P25  1  0.159040  0.970720  0.128850  1.0  1.6203
  P  P26  1  0.126330  0.630280  0.945680  1.0  1.6821
  P  P27  1  0.811680  0.840960  0.128850  1.0  1.6205
  P  P28  1  0.503950  0.873670  0.945680  1.0  1.6812
  P  P29  1  0.811680  0.970720  0.628850  1.0  1.6184
  P  P30  1  0.503950  0.630280  0.445680  1.0  1.6803
  P  P31  1  0.029280  0.840960  0.628850  1.0  1.621
  P  P32  1  0.369720  0.873670  0.445680  1.0  1.6812
  P  P33  1  0.159040  0.188320  0.628850  1.0  1.6223
  P  P34  1  0.126330  0.496050  0.445680  1.0  1.6823
  P  P35  1  0.970720  0.811680  0.871150  1.0  1.623
  P  P36  1  0.630280  0.503950  0.054320  1.0  1.6823
  P  P37  1  0.840960  0.029280  0.871150  1.0  1.6191
  P  P38  1  0.873670  0.369720  0.054320  1.0  1.6803
  P  P39  1  0.188320  0.159040  0.871150  1.0  1.6217
  P  P40  1  0.496050  0.126330  0.054320  1.0  1.6822
  P  P41  1  0.666667  0.333333  0.363310  1.0  1.5957
  P  P42  1  0.333333  0.666667  0.136690  1.0  1.5968
  P  P43  1  0.333333  0.666667  0.636690  1.0  1.5968
  P  P44  1  0.666667  0.333333  0.863310  1.0  1.5957
  H  H45  1  0.193000  0.932000  0.347000  1.0  -0.0745
  H  H46  1  0.501000  0.313000  0.620000  1.0  -0.0571
  H  H47  1  0.068000  0.261000  0.347000  1.0  -0.0745
  H  H48  1  0.687000  0.188000  0.620000  1.0  -0.059
  H  H49  1  0.739000  0.807000  0.347000  1.0  -0.073
  H  H50  1  0.812000  0.499000  0.620000  1.0  -0.0589
  H  H51  1  0.932000  0.193000  0.153000  1.0  -0.0732
  H  H52  1  0.313000  0.501000  0.880000  1.0  -0.0567
  H  H53  1  0.261000  0.068000  0.153000  1.0  -0.0753
  H  H54  1  0.188000  0.687000  0.880000  1.0  -0.0555
  H  H55  1  0.807000  0.739000  0.153000  1.0  -0.0738
  H  H56  1  0.499000  0.812000  0.880000  1.0  -0.057
  H  H57  1  0.807000  0.068000  0.653000  1.0  -0.0745
  H  H58  1  0.499000  0.687000  0.380000  1.0  -0.0572
  H  H59  1  0.932000  0.739000  0.653000  1.0  -0.0733
  H  H60  1  0.313000  0.812000  0.380000  1.0  -0.0575
  H  H61  1  0.261000  0.193000  0.653000  1.0  -0.0736
  H  H62  1  0.188000  0.501000  0.380000  1.0  -0.0573
  H  H63  1  0.068000  0.807000  0.847000  1.0  -0.0734
  H  H64  1  0.687000  0.499000  0.120000  1.0  -0.0586
  H  H65  1  0.739000  0.932000  0.847000  1.0  -0.0732
  H  H66  1  0.812000  0.313000  0.120000  1.0  -0.0592
  H  H67  1  0.193000  0.261000  0.847000  1.0  -0.0739
  H  H68  1  0.501000  0.188000  0.120000  1.0  -0.0594
  H  H69  1  0.666667  0.333333  0.291230  1.0  -0.0514
  H  H70  1  0.333333  0.666667  0.208770  1.0  -0.0494
  H  H71  1  0.333333  0.666667  0.708770  1.0  -0.0494
  H  H72  1  0.666667  0.333333  0.791230  1.0  -0.0514
  O  O73  1  0.308800  0.124000  0.391680  1.0  -0.7967
  O  O74  1  0.433100  0.282500  0.493940  1.0  -0.7983
  O  O75  1  0.619100  0.453300  0.535040  1.0  -0.832
  O  O76  1  0.428500  0.427500  0.576500  1.0  -0.7923
  O  O77  1  0.552900  0.227600  0.383960  1.0  -0.8583
  O  O78  1  0.111500  0.978600  0.438330  1.0  -0.8272
  O  O79  1  0.141100  0.074800  0.312730  1.0  -0.7803
  O  O80  1  0.876000  0.184800  0.391680  1.0  -0.7929
  O  O81  1  0.717500  0.150600  0.493940  1.0  -0.7974
  O  O82  1  0.546700  0.165800  0.535040  1.0  -0.8316
  O  O83  1  0.572500  0.001000  0.576500  1.0  -0.7921
  O  O84  1  0.772400  0.325300  0.383960  1.0  -0.8563
  O  O85  1  0.021400  0.132900  0.438330  1.0  -0.8252
  O  O86  1  0.925200  0.066300  0.312730  1.0  -0.7806
  O  O87  1  0.815200  0.691200  0.391680  1.0  -0.7928
  O  O88  1  0.849400  0.566900  0.493940  1.0  -0.7977
  O  O89  1  0.834200  0.380900  0.535040  1.0  -0.8317
  O  O90  1  0.999000  0.571500  0.576500  1.0  -0.7918
  O  O91  1  0.674700  0.447100  0.383960  1.0  -0.8563
  O  O92  1  0.867100  0.888500  0.438330  1.0  -0.8272
  O  O93  1  0.933700  0.858900  0.312730  1.0  -0.7813
  O  O94  1  0.124000  0.308800  0.108320  1.0  -0.7929
  O  O95  1  0.282500  0.433100  0.006060  1.0  -0.7982
  O  O96  1  0.453300  0.619100  0.964960  1.0  -0.8317
  O  O97  1  0.427500  0.428500  0.923500  1.0  -0.7919
  O  O98  1  0.227600  0.552900  0.116040  1.0  -0.8563
  O  O99  1  0.978600  0.111500  0.061670  1.0  -0.827
  O  O100  1  0.074800  0.141100  0.187270  1.0  -0.7797
  O  O101  1  0.184800  0.876000  0.108320  1.0  -0.795
  O  O102  1  0.150600  0.717500  0.006060  1.0  -0.7977
  O  O103  1  0.165800  0.546700  0.964960  1.0  -0.8316
  O  O104  1  0.001000  0.572500  0.923500  1.0  -0.792
  O  O105  1  0.325300  0.772400  0.116040  1.0  -0.8584
  O  O106  1  0.132900  0.021400  0.061670  1.0  -0.8273
  O  O107  1  0.066300  0.925200  0.187270  1.0  -0.781
  O  O108  1  0.691200  0.815200  0.108320  1.0  -0.7925
  O  O109  1  0.566900  0.849400  0.006060  1.0  -0.7972
  O  O110  1  0.380900  0.834200  0.964960  1.0  -0.8322
  O  O111  1  0.571500  0.999000  0.923500  1.0  -0.7913
  O  O112  1  0.447100  0.674700  0.116040  1.0  -0.8557
  O  O113  1  0.888500  0.867100  0.061670  1.0  -0.8262
  O  O114  1  0.858900  0.933700  0.187270  1.0  -0.7806
  O  O115  1  0.691200  0.876000  0.608320  1.0  -0.7941
  O  O116  1  0.566900  0.717500  0.506060  1.0  -0.7975
  O  O117  1  0.380900  0.546700  0.464960  1.0  -0.8322
  O  O118  1  0.571500  0.572500  0.423500  1.0  -0.7925
  O  O119  1  0.447100  0.772400  0.616040  1.0  -0.8581
  O  O120  1  0.888500  0.021400  0.561670  1.0  -0.8287
  O  O121  1  0.858900  0.925200  0.687270  1.0  -0.7809
  O  O122  1  0.124000  0.815200  0.608320  1.0  -0.7939
  O  O123  1  0.282500  0.849400  0.506060  1.0  -0.7969
  O  O124  1  0.453300  0.834200  0.464960  1.0  -0.8315
  O  O125  1  0.427500  0.999000  0.423500  1.0  -0.7902
  O  O126  1  0.227600  0.674700  0.616040  1.0  -0.8564
  O  O127  1  0.978600  0.867100  0.561670  1.0  -0.8278
  O  O128  1  0.074800  0.933700  0.687270  1.0  -0.7799
  O  O129  1  0.184800  0.308800  0.608320  1.0  -0.7925
  O  O130  1  0.150600  0.433100  0.506060  1.0  -0.7981
  O  O131  1  0.165800  0.619100  0.464960  1.0  -0.8317
  O  O132  1  0.001000  0.428500  0.423500  1.0  -0.7903
  O  O133  1  0.325300  0.552900  0.616040  1.0  -0.856
  O  O134  1  0.132900  0.111500  0.561670  1.0  -0.8258
  O  O135  1  0.066300  0.141100  0.687270  1.0  -0.7787
  O  O136  1  0.876000  0.691200  0.891680  1.0  -0.7925
  O  O137  1  0.717500  0.566900  0.993940  1.0  -0.7981
  O  O138  1  0.546700  0.380900  0.035040  1.0  -0.8317
  O  O139  1  0.572500  0.571500  0.076500  1.0  -0.7906
  O  O140  1  0.772400  0.447100  0.883960  1.0  -0.8562
  O  O141  1  0.021400  0.888500  0.938330  1.0  -0.8255
  O  O142  1  0.925200  0.858900  0.812730  1.0  -0.7798
  O  O143  1  0.815200  0.124000  0.891680  1.0  -0.7959
  O  O144  1  0.849400  0.282500  0.993940  1.0  -0.7978
  O  O145  1  0.834200  0.453300  0.035040  1.0  -0.8326
  O  O146  1  0.999000  0.427500  0.076500  1.0  -0.7927
  O  O147  1  0.674700  0.227600  0.883960  1.0  -0.8581
  O  O148  1  0.867100  0.978600  0.938330  1.0  -0.8286
  O  O149  1  0.933700  0.074800  0.812730  1.0  -0.7805
  O  O150  1  0.308800  0.184800  0.891680  1.0  -0.7941
  O  O151  1  0.433100  0.150600  0.993940  1.0  -0.7971
  O  O152  1  0.619100  0.165800  0.035040  1.0  -0.8307
  O  O153  1  0.428500  0.001000  0.076500  1.0  -0.7909
  O  O154  1  0.552900  0.325300  0.883960  1.0  -0.8568
  O  O155  1  0.111500  0.132900  0.938330  1.0  -0.8267
  O  O156  1  0.141100  0.066300  0.812730  1.0  -0.7801
