# generated using pymatgen
data_Ga3P3O14
_symmetry_space_group_name_H-M   'P 1'
_cell_length_a   10.04300000
_cell_length_b   15.98900000
_cell_length_c   18.30800000
_cell_angle_alpha   90.00000000
_cell_angle_beta   90.00000000
_cell_angle_gamma   90.00000000
_symmetry_Int_Tables_number   1
_chemical_formula_structural   Ga3P3O14
_chemical_formula_sum   'Ga24 P24 O112'
_cell_volume   2939.85336432
_cell_formula_units_Z   8
loop_
 _symmetry_equiv_pos_site_id
 _symmetry_equiv_pos_as_xyz
  1  'x, y, z'
loop_
 _atom_site_type_symbol
 _atom_site_label
 _atom_site_symmetry_multiplicity
 _atom_site_fract_x
 _atom_site_fract_y
 _atom_site_fract_z
 _atom_site_occupancy
 _atom_site_charge
  Ga  Ga1  1  0.347550  0.994910  0.405690  1.0  1.6815
  Ga  Ga2  1  0.315520  0.965210  0.217650  1.0  1.6987
  Ga  Ga3  1  0.164420  0.147420  0.174520  1.0  1.7097
  Ga  Ga4  1  0.652450  0.505090  0.905690  1.0  1.6819
  Ga  Ga5  1  0.684480  0.534790  0.717650  1.0  1.6994
  Ga  Ga6  1  0.835580  0.352580  0.674520  1.0  1.7092
  Ga  Ga7  1  0.847550  0.005090  0.094310  1.0  1.68
  Ga  Ga8  1  0.815520  0.034790  0.282350  1.0  1.6974
  Ga  Ga9  1  0.664420  0.852580  0.325480  1.0  1.709
  Ga  Ga10  1  0.152450  0.494910  0.594310  1.0  1.6809
  Ga  Ga11  1  0.184480  0.465210  0.782350  1.0  1.6989
  Ga  Ga12  1  0.335580  0.647420  0.825480  1.0  1.7099
  Ga  Ga13  1  0.652450  0.005090  0.594310  1.0  1.6816
  Ga  Ga14  1  0.684480  0.034790  0.782350  1.0  1.6987
  Ga  Ga15  1  0.835580  0.852580  0.825480  1.0  1.7097
  Ga  Ga16  1  0.347550  0.494910  0.094310  1.0  1.6821
  Ga  Ga17  1  0.315520  0.465210  0.282350  1.0  1.6978
  Ga  Ga18  1  0.164420  0.647420  0.325480  1.0  1.7096
  Ga  Ga19  1  0.152450  0.994910  0.905690  1.0  1.6838
  Ga  Ga20  1  0.184480  0.965210  0.717650  1.0  1.7
  Ga  Ga21  1  0.335580  0.147420  0.674520  1.0  1.7099
  Ga  Ga22  1  0.847550  0.505090  0.405690  1.0  1.6827
  Ga  Ga23  1  0.815520  0.534790  0.217650  1.0  1.698
  Ga  Ga24  1  0.664420  0.352580  0.174520  1.0  1.7085
  P  P25  1  0.115770  0.066580  0.319060  1.0  1.897
  P  P26  1  0.339590  0.819040  0.331690  1.0  1.7903
  P  P27  1  0.362210  0.984750  0.575800  1.0  1.8337
  P  P28  1  0.884230  0.433420  0.819060  1.0  1.8979
  P  P29  1  0.660410  0.680960  0.831690  1.0  1.7925
  P  P30  1  0.637790  0.515250  0.075800  1.0  1.8346
  P  P31  1  0.615770  0.933420  0.180940  1.0  1.8974
  P  P32  1  0.839590  0.180960  0.168310  1.0  1.7912
  P  P33  1  0.862210  0.015250  0.924200  1.0  1.8338
  P  P34  1  0.384230  0.566580  0.680940  1.0  1.8966
  P  P35  1  0.160410  0.319040  0.668310  1.0  1.7916
  P  P36  1  0.137790  0.484750  0.424200  1.0  1.8352
  P  P37  1  0.884230  0.933420  0.680940  1.0  1.8972
  P  P38  1  0.660410  0.180960  0.668310  1.0  1.7975
  P  P39  1  0.637790  0.015250  0.424200  1.0  1.8347
  P  P40  1  0.115770  0.566580  0.180940  1.0  1.8968
  P  P41  1  0.339590  0.319040  0.168310  1.0  1.7955
  P  P42  1  0.362210  0.484750  0.924200  1.0  1.8339
  P  P43  1  0.384230  0.066580  0.819060  1.0  1.897
  P  P44  1  0.160410  0.819040  0.831690  1.0  1.7965
  P  P45  1  0.137790  0.984750  0.075800  1.0  1.835
  P  P46  1  0.615770  0.433420  0.319060  1.0  1.8979
  P  P47  1  0.839590  0.680960  0.331690  1.0  1.7965
  P  P48  1  0.862210  0.515250  0.575800  1.0  1.8336
  O  O49  1  0.147000  0.991200  0.271000  1.0  -0.7601
  O  O50  1  0.970000  0.063500  0.343400  1.0  -0.716
  O  O51  1  0.203200  0.068100  0.388500  1.0  -0.7255
  O  O52  1  0.141700  0.149000  0.277000  1.0  -0.7609
  O  O53  1  0.302500  0.849000  0.255200  1.0  -0.7259
  O  O54  1  0.256700  0.742100  0.352600  1.0  -0.9427
  O  O55  1  0.488400  0.795800  0.336100  1.0  -0.743
  O  O56  1  0.303400  0.883400  0.391800  1.0  -0.8166
  O  O57  1  0.281000  0.980200  0.505200  1.0  -0.7385
  O  O58  1  0.292500  0.933200  0.635800  1.0  -0.7367
  O  O59  1  0.383200  0.076800  0.598400  1.0  -0.8386
  O  O60  1  0.501500  0.946200  0.563400  1.0  -0.7815
  O  O61  1  0.329300  0.081900  0.183900  1.0  -0.6346
  O  O62  1  0.411500  0.997200  0.304700  1.0  -0.6914
  O  O63  1  0.853000  0.508800  0.771000  1.0  -0.7589
  O  O64  1  0.030000  0.436500  0.843400  1.0  -0.7155
  O  O65  1  0.796800  0.431900  0.888500  1.0  -0.7234
  O  O66  1  0.858300  0.351000  0.777000  1.0  -0.7625
  O  O67  1  0.697500  0.651000  0.755200  1.0  -0.7269
  O  O68  1  0.743300  0.757900  0.852600  1.0  -0.9431
  O  O69  1  0.511600  0.704200  0.836100  1.0  -0.7432
  O  O70  1  0.696600  0.616600  0.891800  1.0  -0.8154
  O  O71  1  0.719000  0.519800  0.005200  1.0  -0.7413
  O  O72  1  0.707500  0.566800  0.135800  1.0  -0.737
  O  O73  1  0.616800  0.423200  0.098400  1.0  -0.8371
  O  O74  1  0.498500  0.553800  0.063400  1.0  -0.7821
  O  O75  1  0.670700  0.418100  0.683900  1.0  -0.6358
  O  O76  1  0.588500  0.502800  0.804700  1.0  -0.6917
  O  O77  1  0.647000  0.008800  0.229000  1.0  -0.7585
  O  O78  1  0.470000  0.936500  0.156600  1.0  -0.7174
  O  O79  1  0.703200  0.931900  0.111500  1.0  -0.7242
  O  O80  1  0.641700  0.851000  0.223000  1.0  -0.7609
  O  O81  1  0.802500  0.151000  0.244800  1.0  -0.7259
  O  O82  1  0.756700  0.257900  0.147400  1.0  -0.9435
  O  O83  1  0.988400  0.204200  0.163900  1.0  -0.7452
  O  O84  1  0.803400  0.116600  0.108200  1.0  -0.8179
  O  O85  1  0.781000  0.019800  0.994800  1.0  -0.7393
  O  O86  1  0.792500  0.066800  0.864200  1.0  -0.7368
  O  O87  1  0.883200  0.923200  0.901600  1.0  -0.8367
  O  O88  1  0.001500  0.053800  0.936600  1.0  -0.7818
  O  O89  1  0.829300  0.918100  0.316100  1.0  -0.6347
  O  O90  1  0.911500  0.002800  0.195300  1.0  -0.6927
  O  O91  1  0.353000  0.491200  0.729000  1.0  -0.7591
  O  O92  1  0.530000  0.563500  0.656600  1.0  -0.7181
  O  O93  1  0.296800  0.568100  0.611500  1.0  -0.7268
  O  O94  1  0.358300  0.649000  0.723000  1.0  -0.7619
  O  O95  1  0.197500  0.349000  0.744800  1.0  -0.7259
  O  O96  1  0.243300  0.242100  0.647400  1.0  -0.9438
  O  O97  1  0.011600  0.295800  0.663900  1.0  -0.7446
  O  O98  1  0.196600  0.383400  0.608200  1.0  -0.8174
  O  O99  1  0.219000  0.480200  0.494800  1.0  -0.7412
  O  O100  1  0.207500  0.433200  0.364200  1.0  -0.736
  O  O101  1  0.116800  0.576800  0.401600  1.0  -0.8386
  O  O102  1  0.998500  0.446200  0.436600  1.0  -0.7825
  O  O103  1  0.170700  0.581900  0.816100  1.0  -0.6333
  O  O104  1  0.088500  0.497200  0.695300  1.0  -0.6903
  O  O105  1  0.853000  0.008800  0.729000  1.0  -0.7581
  O  O106  1  0.030000  0.936500  0.656600  1.0  -0.717
  O  O107  1  0.796800  0.931900  0.611500  1.0  -0.7234
  O  O108  1  0.858300  0.851000  0.723000  1.0  -0.7611
  O  O109  1  0.697500  0.151000  0.744800  1.0  -0.7259
  O  O110  1  0.743300  0.257900  0.647400  1.0  -0.9434
  O  O111  1  0.511600  0.204200  0.663900  1.0  -0.7452
  O  O112  1  0.696600  0.116600  0.608200  1.0  -0.8174
  O  O113  1  0.719000  0.019800  0.494800  1.0  -0.7414
  O  O114  1  0.707500  0.066800  0.364200  1.0  -0.7361
  O  O115  1  0.616800  0.923200  0.401600  1.0  -0.8361
  O  O116  1  0.498500  0.053800  0.436600  1.0  -0.7823
  O  O117  1  0.670700  0.918100  0.816100  1.0  -0.6341
  O  O118  1  0.588500  0.002800  0.695300  1.0  -0.6915
  O  O119  1  0.147000  0.491200  0.229000  1.0  -0.7598
  O  O120  1  0.970000  0.563500  0.156600  1.0  -0.7184
  O  O121  1  0.203200  0.568100  0.111500  1.0  -0.7276
  O  O122  1  0.141700  0.649000  0.223000  1.0  -0.7621
  O  O123  1  0.302500  0.349000  0.244800  1.0  -0.7256
  O  O124  1  0.256700  0.242100  0.147400  1.0  -0.944
  O  O125  1  0.488400  0.295800  0.163900  1.0  -0.7442
  O  O126  1  0.303400  0.383400  0.108200  1.0  -0.8174
  O  O127  1  0.281000  0.480200  0.994800  1.0  -0.7387
  O  O128  1  0.292500  0.433200  0.864200  1.0  -0.7362
  O  O129  1  0.383200  0.576800  0.901600  1.0  -0.8391
  O  O130  1  0.501500  0.446200  0.936600  1.0  -0.7819
  O  O131  1  0.329300  0.581900  0.316100  1.0  -0.6338
  O  O132  1  0.411500  0.497200  0.195300  1.0  -0.6913
  O  O133  1  0.353000  0.991200  0.771000  1.0  -0.7594
  O  O134  1  0.530000  0.063500  0.843400  1.0  -0.7154
  O  O135  1  0.296800  0.068100  0.888500  1.0  -0.723
  O  O136  1  0.358300  0.149000  0.777000  1.0  -0.7609
  O  O137  1  0.197500  0.849000  0.755200  1.0  -0.7266
  O  O138  1  0.243300  0.742100  0.852600  1.0  -0.9436
  O  O139  1  0.011600  0.795800  0.836100  1.0  -0.7438
  O  O140  1  0.196600  0.883400  0.891800  1.0  -0.8151
  O  O141  1  0.219000  0.980200  0.005200  1.0  -0.7411
  O  O142  1  0.207500  0.933200  0.135800  1.0  -0.7363
  O  O143  1  0.116800  0.076800  0.098400  1.0  -0.8378
  O  O144  1  0.998500  0.946200  0.063400  1.0  -0.7821
  O  O145  1  0.170700  0.081900  0.683900  1.0  -0.6346
  O  O146  1  0.088500  0.997200  0.804700  1.0  -0.6903
  O  O147  1  0.647000  0.508800  0.271000  1.0  -0.7592
  O  O148  1  0.470000  0.436500  0.343400  1.0  -0.716
  O  O149  1  0.703200  0.431900  0.388500  1.0  -0.7253
  O  O150  1  0.641700  0.351000  0.277000  1.0  -0.7622
  O  O151  1  0.802500  0.651000  0.255200  1.0  -0.7263
  O  O152  1  0.756700  0.757900  0.352600  1.0  -0.944
  O  O153  1  0.988400  0.704200  0.336100  1.0  -0.7435
  O  O154  1  0.803400  0.616600  0.391800  1.0  -0.8172
  O  O155  1  0.781000  0.519800  0.505200  1.0  -0.739
  O  O156  1  0.792500  0.566800  0.635800  1.0  -0.7375
  O  O157  1  0.883200  0.423200  0.598400  1.0  -0.8381
  O  O158  1  0.001500  0.553800  0.563400  1.0  -0.7815
  O  O159  1  0.829300  0.418100  0.183900  1.0  -0.6357
  O  O160  1  0.911500  0.502800  0.304700  1.0  -0.6929
