# generated using pymatgen
data_Gd5H2(C2O5)4
_symmetry_space_group_name_H-M   'P 1'
_cell_length_a   10.92500000
_cell_length_b   10.92500000
_cell_length_c   20.46100000
_cell_angle_alpha   90.00000000
_cell_angle_beta   90.00000000
_cell_angle_gamma   90.00000000
_symmetry_Int_Tables_number   1
_chemical_formula_structural   Gd5H2(C2O5)4
_chemical_formula_sum   'Gd20 H8 C32 O80'
_cell_volume   2442.13544313
_cell_formula_units_Z   4
loop_
 _symmetry_equiv_pos_site_id
 _symmetry_equiv_pos_as_xyz
  1  'x, y, z'
loop_
 _atom_site_type_symbol
 _atom_site_label
 _atom_site_symmetry_multiplicity
 _atom_site_fract_x
 _atom_site_fract_y
 _atom_site_fract_z
 _atom_site_occupancy
 _atom_site_charge
  Gd  Gd1  1  0.153570  0.411390  0.185040  1.0  2.1388
  Gd  Gd2  1  0.653570  0.911390  0.685040  1.0  2.1388
  Gd  Gd3  1  0.846430  0.588610  0.185040  1.0  2.14
  Gd  Gd4  1  0.346430  0.088610  0.685040  1.0  2.14
  Gd  Gd5  1  0.411390  0.846430  0.814960  1.0  2.1403
  Gd  Gd6  1  0.911390  0.346430  0.314960  1.0  2.1403
  Gd  Gd7  1  0.588610  0.153570  0.814960  1.0  2.1402
  Gd  Gd8  1  0.088610  0.653570  0.314960  1.0  2.1402
  Gd  Gd9  1  0.846430  0.411390  0.814960  1.0  2.1404
  Gd  Gd10  1  0.346430  0.911390  0.314960  1.0  2.1404
  Gd  Gd11  1  0.153570  0.588610  0.814960  1.0  2.1394
  Gd  Gd12  1  0.653570  0.088610  0.314960  1.0  2.1394
  Gd  Gd13  1  0.588610  0.846430  0.185040  1.0  2.1399
  Gd  Gd14  1  0.088610  0.346430  0.685040  1.0  2.1399
  Gd  Gd15  1  0.411390  0.153570  0.185040  1.0  2.1395
  Gd  Gd16  1  0.911390  0.653570  0.685040  1.0  2.1395
  Gd  Gd17  1  0.500000  0.500000  0.155220  1.0  2.0799
  Gd  Gd18  1  0.000000  0.000000  0.655220  1.0  2.0799
  Gd  Gd19  1  0.500000  0.500000  0.844780  1.0  2.0612
  Gd  Gd20  1  0.000000  0.000000  0.344780  1.0  2.0612
  H  H21  1  0.111100  0.111100  0.050400  1.0  0.1114
  H  H22  1  0.611100  0.611100  0.550400  1.0  0.1114
  H  H23  1  0.888900  0.888900  0.050400  1.0  0.1107
  H  H24  1  0.388900  0.388900  0.550400  1.0  0.1107
  H  H25  1  0.111100  0.888900  0.949600  1.0  0.1116
  H  H26  1  0.611100  0.388900  0.449600  1.0  0.1116
  H  H27  1  0.888900  0.111100  0.949600  1.0  0.1112
  H  H28  1  0.388900  0.611100  0.449600  1.0  0.1112
  C  C29  1  0.066000  0.499700  0.036960  1.0  0.2361
  C  C30  1  0.566000  0.999700  0.536960  1.0  0.2361
  C  C31  1  0.934000  0.500300  0.036960  1.0  0.2348
  C  C32  1  0.434000  0.000300  0.536960  1.0  0.2348
  C  C33  1  0.499700  0.934000  0.963040  1.0  0.2363
  C  C34  1  0.999700  0.434000  0.463040  1.0  0.2363
  C  C35  1  0.500300  0.066000  0.963040  1.0  0.2353
  C  C36  1  0.000300  0.566000  0.463040  1.0  0.2353
  C  C37  1  0.934000  0.499700  0.963040  1.0  0.2351
  C  C38  1  0.434000  0.999700  0.463040  1.0  0.2351
  C  C39  1  0.066000  0.500300  0.963040  1.0  0.2354
  C  C40  1  0.566000  0.000300  0.463040  1.0  0.2354
  C  C41  1  0.500300  0.934000  0.036960  1.0  0.2387
  C  C42  1  0.000300  0.434000  0.536960  1.0  0.2387
  C  C43  1  0.499700  0.066000  0.036960  1.0  0.2354
  C  C44  1  0.999700  0.566000  0.536960  1.0  0.2354
  C  C45  1  0.345300  0.654700  0.228200  1.0  0.7794
  C  C46  1  0.845300  0.154700  0.728200  1.0  0.7794
  C  C47  1  0.654700  0.345300  0.228200  1.0  0.7797
  C  C48  1  0.154700  0.845300  0.728200  1.0  0.7797
  C  C49  1  0.654700  0.654700  0.771800  1.0  0.7791
  C  C50  1  0.154700  0.154700  0.271800  1.0  0.7791
  C  C51  1  0.345300  0.345300  0.771800  1.0  0.7811
  C  C52  1  0.845300  0.845300  0.271800  1.0  0.7811
  C  C53  1  0.146700  0.146700  0.087100  1.0  0.5054
  C  C54  1  0.646700  0.646700  0.587100  1.0  0.5054
  C  C55  1  0.853300  0.853300  0.087100  1.0  0.5055
  C  C56  1  0.353300  0.353300  0.587100  1.0  0.5055
  C  C57  1  0.146700  0.853300  0.912900  1.0  0.5067
  C  C58  1  0.646700  0.353300  0.412900  1.0  0.5067
  C  C59  1  0.853300  0.146700  0.912900  1.0  0.5044
  C  C60  1  0.353300  0.646700  0.412900  1.0  0.5044
  O  O61  1  0.099600  0.247000  0.114600  1.0  -0.6664
  O  O62  1  0.319700  0.540300  0.217800  1.0  -0.7056
  O  O63  1  0.108800  0.443900  0.300140  1.0  -0.8046
  O  O64  1  0.145900  0.498000  0.077590  1.0  -0.5923
  O  O65  1  0.599600  0.747000  0.614600  1.0  -0.6664
  O  O66  1  0.819700  0.040300  0.717800  1.0  -0.7056
  O  O67  1  0.608800  0.943900  0.800140  1.0  -0.8046
  O  O68  1  0.645900  0.998000  0.577590  1.0  -0.5923
  O  O69  1  0.900400  0.753000  0.114600  1.0  -0.6681
  O  O70  1  0.680300  0.459700  0.217800  1.0  -0.7045
  O  O71  1  0.891200  0.556100  0.300140  1.0  -0.8049
  O  O72  1  0.854100  0.502000  0.077590  1.0  -0.5923
  O  O73  1  0.400400  0.253000  0.614600  1.0  -0.6681
  O  O74  1  0.180300  0.959700  0.717800  1.0  -0.7045
  O  O75  1  0.391200  0.056100  0.800140  1.0  -0.8049
  O  O76  1  0.354100  0.002000  0.577590  1.0  -0.5923
  O  O77  1  0.247000  0.900400  0.885400  1.0  -0.666
  O  O78  1  0.540300  0.680300  0.782200  1.0  -0.7033
  O  O79  1  0.443900  0.891200  0.699860  1.0  -0.8071
  O  O80  1  0.498000  0.854100  0.922410  1.0  -0.5915
  O  O81  1  0.747000  0.400400  0.385400  1.0  -0.666
  O  O82  1  0.040300  0.180300  0.282200  1.0  -0.7033
  O  O83  1  0.943900  0.391200  0.199860  1.0  -0.8071
  O  O84  1  0.998000  0.354100  0.422410  1.0  -0.5915
  O  O85  1  0.753000  0.099600  0.885400  1.0  -0.6668
  O  O86  1  0.459700  0.319700  0.782200  1.0  -0.7035
  O  O87  1  0.556100  0.108800  0.699860  1.0  -0.8073
  O  O88  1  0.502000  0.145900  0.922410  1.0  -0.59
  O  O89  1  0.253000  0.599600  0.385400  1.0  -0.6668
  O  O90  1  0.959700  0.819700  0.282200  1.0  -0.7035
  O  O91  1  0.056100  0.608800  0.199860  1.0  -0.8073
  O  O92  1  0.002000  0.645900  0.422410  1.0  -0.59
  O  O93  1  0.900400  0.247000  0.885400  1.0  -0.6661
  O  O94  1  0.680300  0.540300  0.782200  1.0  -0.7052
  O  O95  1  0.891200  0.443900  0.699860  1.0  -0.8067
  O  O96  1  0.854100  0.498000  0.922410  1.0  -0.5923
  O  O97  1  0.400400  0.747000  0.385400  1.0  -0.6661
  O  O98  1  0.180300  0.040300  0.282200  1.0  -0.7052
  O  O99  1  0.391200  0.943900  0.199860  1.0  -0.8067
  O  O100  1  0.354100  0.998000  0.422410  1.0  -0.5923
  O  O101  1  0.099600  0.753000  0.885400  1.0  -0.6672
  O  O102  1  0.319700  0.459700  0.782200  1.0  -0.7043
  O  O103  1  0.108800  0.556100  0.699860  1.0  -0.8063
  O  O104  1  0.145900  0.502000  0.922410  1.0  -0.5918
  O  O105  1  0.599600  0.253000  0.385400  1.0  -0.6672
  O  O106  1  0.819700  0.959700  0.282200  1.0  -0.7043
  O  O107  1  0.608800  0.056100  0.199860  1.0  -0.8063
  O  O108  1  0.645900  0.002000  0.422410  1.0  -0.5918
  O  O109  1  0.753000  0.900400  0.114600  1.0  -0.6665
  O  O110  1  0.459700  0.680300  0.217800  1.0  -0.7024
  O  O111  1  0.556100  0.891200  0.300140  1.0  -0.8057
  O  O112  1  0.502000  0.854100  0.077590  1.0  -0.5919
  O  O113  1  0.253000  0.400400  0.614600  1.0  -0.6665
  O  O114  1  0.959700  0.180300  0.717800  1.0  -0.7024
  O  O115  1  0.056100  0.391200  0.800140  1.0  -0.8057
  O  O116  1  0.002000  0.354100  0.577590  1.0  -0.5919
  O  O117  1  0.247000  0.099600  0.114600  1.0  -0.6661
  O  O118  1  0.540300  0.319700  0.217800  1.0  -0.7036
  O  O119  1  0.443900  0.108800  0.300140  1.0  -0.8059
  O  O120  1  0.498000  0.145900  0.077590  1.0  -0.5904
  O  O121  1  0.747000  0.599600  0.614600  1.0  -0.6661
  O  O122  1  0.040300  0.819700  0.717800  1.0  -0.7036
  O  O123  1  0.943900  0.608800  0.800140  1.0  -0.8059
  O  O124  1  0.998000  0.645900  0.577590  1.0  -0.5904
  O  O125  1  0.274600  0.725400  0.260400  1.0  -0.7283
  O  O126  1  0.774600  0.225400  0.760400  1.0  -0.7283
  O  O127  1  0.725400  0.274600  0.260400  1.0  -0.7281
  O  O128  1  0.225400  0.774600  0.760400  1.0  -0.7281
  O  O129  1  0.725400  0.725400  0.739600  1.0  -0.7285
  O  O130  1  0.225400  0.225400  0.239600  1.0  -0.7285
  O  O131  1  0.274600  0.274600  0.739600  1.0  -0.7287
  O  O132  1  0.774600  0.774600  0.239600  1.0  -0.7287
  O  O133  1  0.345500  0.345500  0.135000  1.0  -0.918
  O  O134  1  0.845500  0.845500  0.635000  1.0  -0.918
  O  O135  1  0.654500  0.654500  0.135000  1.0  -0.9185
  O  O136  1  0.154500  0.154500  0.635000  1.0  -0.9185
  O  O137  1  0.345500  0.654500  0.865000  1.0  -0.9189
  O  O138  1  0.845500  0.154500  0.365000  1.0  -0.9189
  O  O139  1  0.654500  0.345500  0.865000  1.0  -0.9173
  O  O140  1  0.154500  0.845500  0.365000  1.0  -0.9173
