# generated using pymatgen
data_ZnH11C18(NO2)2
_symmetry_space_group_name_H-M   'P 1'
_cell_length_a   27.84100000
_cell_length_b   7.52660000
_cell_length_c   17.41300000
_cell_angle_alpha   90.00000000
_cell_angle_beta   90.00000000
_cell_angle_gamma   90.00000000
_symmetry_Int_Tables_number   1
_chemical_formula_structural   ZnH11C18(NO2)2
_chemical_formula_sum   'Zn8 H88 C144 N16 O32'
_cell_volume   3648.86055336
_cell_formula_units_Z   8
loop_
 _symmetry_equiv_pos_site_id
 _symmetry_equiv_pos_as_xyz
  1  'x, y, z'
loop_
 _atom_site_type_symbol
 _atom_site_label
 _atom_site_symmetry_multiplicity
 _atom_site_fract_x
 _atom_site_fract_y
 _atom_site_fract_z
 _atom_site_occupancy
 _atom_site_charge
  Zn  Zn1  1  0.097470  0.306320  0.233860  1.0  0.8614
  Zn  Zn2  1  0.597470  0.193680  0.766140  1.0  0.8624
  Zn  Zn3  1  0.597470  0.806320  0.266140  1.0  0.8623
  Zn  Zn4  1  0.097470  0.693680  0.733860  1.0  0.8617
  Zn  Zn5  1  0.402530  0.193680  0.733860  1.0  0.8611
  Zn  Zn6  1  0.902530  0.306320  0.266140  1.0  0.8619
  Zn  Zn7  1  0.902530  0.693680  0.766140  1.0  0.8617
  Zn  Zn8  1  0.402530  0.806320  0.233860  1.0  0.8609
  H  H9  1  0.348300  0.372600  0.241100  1.0  0.1072
  H  H10  1  0.195900  0.344900  0.313900  1.0  0.08
  H  H11  1  0.276000  0.328300  0.282200  1.0  0.1187
  H  H12  1  0.306400  0.161900  0.040200  1.0  0.1165
  H  H13  1  0.385200  0.148700  0.002600  1.0  0.0995
  H  H14  1  0.426600  0.360000  0.198800  1.0  0.0952
  H  H15  1  0.452700  0.322900  0.966500  1.0  0.1205
  H  H16  1  0.486000  0.134500  0.176200  1.0  0.116
  H  H17  1  0.586800  0.153100  0.010900  1.0  0.1047
  H  H18  1  0.237500  0.234500  0.064700  1.0  0.1225
  H  H19  1  0.159000  0.245700  0.101900  1.0  0.0748
  H  H20  1  0.848300  0.127400  0.758900  1.0  0.1086
  H  H21  1  0.695900  0.155100  0.686100  1.0  0.0805
  H  H22  1  0.776000  0.171700  0.717800  1.0  0.119
  H  H23  1  0.806400  0.338100  0.959800  1.0  0.1173
  H  H24  1  0.885200  0.351300  0.997400  1.0  0.099
  H  H25  1  0.926600  0.140000  0.801200  1.0  0.0948
  H  H26  1  0.952700  0.177100  0.033500  1.0  0.1207
  H  H27  1  0.986000  0.365500  0.823800  1.0  0.1154
  H  H28  1  0.086800  0.346900  0.989100  1.0  0.1046
  H  H29  1  0.737500  0.265500  0.935300  1.0  0.1219
  H  H30  1  0.659000  0.254300  0.898100  1.0  0.0744
  H  H31  1  0.848300  0.872600  0.258900  1.0  0.1085
  H  H32  1  0.695900  0.844900  0.186100  1.0  0.0808
  H  H33  1  0.776000  0.828300  0.217800  1.0  0.1188
  H  H34  1  0.806400  0.661900  0.459800  1.0  0.1176
  H  H35  1  0.885200  0.648700  0.497400  1.0  0.0994
  H  H36  1  0.926600  0.860000  0.301200  1.0  0.0951
  H  H37  1  0.952700  0.822900  0.533500  1.0  0.1203
  H  H38  1  0.986000  0.634500  0.323800  1.0  0.1155
  H  H39  1  0.086800  0.653100  0.489100  1.0  0.1045
  H  H40  1  0.737500  0.734500  0.435300  1.0  0.1219
  H  H41  1  0.659000  0.745700  0.398100  1.0  0.0744
  H  H42  1  0.348300  0.627400  0.741100  1.0  0.1076
  H  H43  1  0.195900  0.655100  0.813900  1.0  0.0803
  H  H44  1  0.276000  0.671700  0.782200  1.0  0.119
  H  H45  1  0.306400  0.838100  0.540200  1.0  0.1165
  H  H46  1  0.385200  0.851300  0.502600  1.0  0.0992
  H  H47  1  0.426600  0.640000  0.698800  1.0  0.0953
  H  H48  1  0.452700  0.677100  0.466500  1.0  0.1205
  H  H49  1  0.486000  0.865500  0.676200  1.0  0.1159
  H  H50  1  0.586800  0.846900  0.510900  1.0  0.1048
  H  H51  1  0.237500  0.765500  0.564700  1.0  0.1224
  H  H52  1  0.159000  0.754300  0.601900  1.0  0.0749
  H  H53  1  0.151700  0.127400  0.741100  1.0  0.1071
  H  H54  1  0.304100  0.155100  0.813900  1.0  0.0801
  H  H55  1  0.224000  0.171700  0.782200  1.0  0.1185
  H  H56  1  0.193600  0.338100  0.540200  1.0  0.1162
  H  H57  1  0.114800  0.351300  0.502600  1.0  0.0996
  H  H58  1  0.073400  0.140000  0.698800  1.0  0.0949
  H  H59  1  0.047300  0.177100  0.466500  1.0  0.1203
  H  H60  1  0.014000  0.365500  0.676200  1.0  0.1159
  H  H61  1  0.913200  0.346900  0.510900  1.0  0.1049
  H  H62  1  0.262500  0.265500  0.564700  1.0  0.1229
  H  H63  1  0.341000  0.254300  0.601900  1.0  0.0745
  H  H64  1  0.651700  0.372600  0.258900  1.0  0.1078
  H  H65  1  0.804100  0.344900  0.186100  1.0  0.0805
  H  H66  1  0.724000  0.328300  0.217800  1.0  0.1185
  H  H67  1  0.693600  0.161900  0.459800  1.0  0.1178
  H  H68  1  0.614800  0.148700  0.497400  1.0  0.099
  H  H69  1  0.573400  0.360000  0.301200  1.0  0.095
  H  H70  1  0.547300  0.322900  0.533500  1.0  0.1199
  H  H71  1  0.514000  0.134500  0.323800  1.0  0.1154
  H  H72  1  0.413200  0.153100  0.489100  1.0  0.1045
  H  H73  1  0.762500  0.234500  0.435300  1.0  0.1221
  H  H74  1  0.841000  0.245700  0.398100  1.0  0.0744
  H  H75  1  0.651700  0.627400  0.758900  1.0  0.108
  H  H76  1  0.804100  0.655100  0.686100  1.0  0.0802
  H  H77  1  0.724000  0.671700  0.717800  1.0  0.1186
  H  H78  1  0.693600  0.838100  0.959800  1.0  0.1177
  H  H79  1  0.614800  0.851300  0.997400  1.0  0.0987
  H  H80  1  0.573400  0.640000  0.801200  1.0  0.0946
  H  H81  1  0.547300  0.677100  0.033500  1.0  0.1202
  H  H82  1  0.514000  0.865500  0.823800  1.0  0.1154
  H  H83  1  0.413200  0.846900  0.989100  1.0  0.1046
  H  H84  1  0.762500  0.765500  0.935300  1.0  0.122
  H  H85  1  0.841000  0.754300  0.898100  1.0  0.0742
  H  H86  1  0.151700  0.872600  0.241100  1.0  0.1068
  H  H87  1  0.304100  0.844900  0.313900  1.0  0.0799
  H  H88  1  0.224000  0.828300  0.282200  1.0  0.1183
  H  H89  1  0.193600  0.661900  0.040200  1.0  0.1162
  H  H90  1  0.114800  0.648700  0.002600  1.0  0.0998
  H  H91  1  0.073400  0.860000  0.198800  1.0  0.095
  H  H92  1  0.047300  0.822900  0.966500  1.0  0.1202
  H  H93  1  0.014000  0.634500  0.176200  1.0  0.1159
  H  H94  1  0.913200  0.653100  0.010900  1.0  0.1047
  H  H95  1  0.262500  0.734500  0.064700  1.0  0.123
  H  H96  1  0.341000  0.745700  0.101900  1.0  0.0746
  C  C97  1  0.355140  0.327300  0.192600  1.0  -0.1458
  C  C98  1  0.204390  0.321300  0.263200  1.0  0.1598
  C  C99  1  0.252780  0.312100  0.244400  1.0  -0.1917
  C  C100  1  0.266550  0.278500  0.169200  1.0  0.0897
  C  C101  1  0.317730  0.267600  0.145100  1.0  0.053
  C  C102  1  0.330320  0.201500  0.073400  1.0  -0.1277
  C  C103  1  0.377500  0.193800  0.050700  1.0  -0.0048
  C  C104  1  0.402070  0.318700  0.167300  1.0  0.0212
  C  C105  1  0.462850  0.233500  0.074600  1.0  0.1255
  C  C106  1  0.475280  0.275300  0.000100  1.0  -0.141
  C  C107  1  0.495340  0.161800  0.126300  1.0  -0.1294
  C  C108  1  0.542230  0.131600  0.102000  1.0  -0.1452
  C  C109  1  0.555430  0.173300  0.027100  1.0  -0.0464
  C  C110  1  0.536380  0.276500  0.893100  1.0  0.665
  C  C111  1  0.522330  0.244600  0.976200  1.0  -0.1454
  C  C112  1  0.576990  0.032200  0.152900  1.0  0.6424
  C  C113  1  0.230030  0.255600  0.115900  1.0  -0.1892
  C  C114  1  0.182760  0.264000  0.138500  1.0  0.1671
  C  C115  1  0.855140  0.172700  0.807400  1.0  -0.1454
  C  C116  1  0.704390  0.178700  0.736800  1.0  0.1619
  C  C117  1  0.752780  0.187900  0.755600  1.0  -0.1915
  C  C118  1  0.766550  0.221500  0.830800  1.0  0.0898
  C  C119  1  0.817730  0.232400  0.854900  1.0  0.0527
  C  C120  1  0.830320  0.298500  0.926600  1.0  -0.1281
  C  C121  1  0.877500  0.306200  0.949300  1.0  -0.0045
  C  C122  1  0.902070  0.181300  0.832700  1.0  0.0203
  C  C123  1  0.962850  0.266500  0.925400  1.0  0.1266
  C  C124  1  0.975280  0.224700  0.999900  1.0  -0.1391
  C  C125  1  0.995340  0.338200  0.873700  1.0  -0.1284
  C  C126  1  0.042230  0.368400  0.898000  1.0  -0.1449
  C  C127  1  0.055430  0.326700  0.972900  1.0  -0.0455
  C  C128  1  0.036380  0.223500  0.106900  1.0  0.6648
  C  C129  1  0.022330  0.255400  0.023800  1.0  -0.1464
  C  C130  1  0.076990  0.467800  0.847100  1.0  0.6426
  C  C131  1  0.730030  0.244400  0.884100  1.0  -0.1877
  C  C132  1  0.682760  0.236000  0.861500  1.0  0.1671
  C  C133  1  0.855140  0.827300  0.307400  1.0  -0.1461
  C  C134  1  0.704390  0.821300  0.236800  1.0  0.1617
  C  C135  1  0.752780  0.812100  0.255600  1.0  -0.1917
  C  C136  1  0.766550  0.778500  0.330800  1.0  0.0899
  C  C137  1  0.817730  0.767600  0.354900  1.0  0.053
  C  C138  1  0.830320  0.701500  0.426600  1.0  -0.1278
  C  C139  1  0.877500  0.693800  0.449300  1.0  -0.004
  C  C140  1  0.902070  0.818700  0.332700  1.0  0.0207
  C  C141  1  0.962850  0.733500  0.425400  1.0  0.1256
  C  C142  1  0.975280  0.775300  0.499900  1.0  -0.1414
  C  C143  1  0.995340  0.661800  0.373700  1.0  -0.1286
  C  C144  1  0.042230  0.631600  0.398000  1.0  -0.1442
  C  C145  1  0.055430  0.673300  0.472900  1.0  -0.0463
  C  C146  1  0.036380  0.776500  0.606900  1.0  0.6645
  C  C147  1  0.022330  0.744600  0.523800  1.0  -0.1462
  C  C148  1  0.076990  0.532200  0.347100  1.0  0.6426
  C  C149  1  0.730030  0.755600  0.384100  1.0  -0.1878
  C  C150  1  0.682760  0.764000  0.361500  1.0  0.1676
  C  C151  1  0.355140  0.672700  0.692600  1.0  -0.1459
  C  C152  1  0.204390  0.678700  0.763200  1.0  0.1598
  C  C153  1  0.252780  0.687900  0.744400  1.0  -0.1916
  C  C154  1  0.266550  0.721500  0.669200  1.0  0.0897
  C  C155  1  0.317730  0.732400  0.645100  1.0  0.0527
  C  C156  1  0.330320  0.798500  0.573400  1.0  -0.1283
  C  C157  1  0.377500  0.806200  0.550700  1.0  -0.0048
  C  C158  1  0.402070  0.681300  0.667300  1.0  0.0206
  C  C159  1  0.462850  0.766500  0.574600  1.0  0.1265
  C  C160  1  0.475280  0.724700  0.500100  1.0  -0.1395
  C  C161  1  0.495340  0.838200  0.626300  1.0  -0.1291
  C  C162  1  0.542230  0.868400  0.602000  1.0  -0.1451
  C  C163  1  0.555430  0.826700  0.527100  1.0  -0.0454
  C  C164  1  0.536380  0.723500  0.393100  1.0  0.6648
  C  C165  1  0.522330  0.755400  0.476200  1.0  -0.1467
  C  C166  1  0.576990  0.967800  0.652900  1.0  0.6423
  C  C167  1  0.230030  0.744400  0.615900  1.0  -0.1895
  C  C168  1  0.182760  0.736000  0.638500  1.0  0.1668
  C  C169  1  0.144860  0.172700  0.692600  1.0  -0.1457
  C  C170  1  0.295610  0.178700  0.763200  1.0  0.1614
  C  C171  1  0.247220  0.187900  0.744400  1.0  -0.1916
  C  C172  1  0.233450  0.221500  0.669200  1.0  0.0896
  C  C173  1  0.182270  0.232400  0.645100  1.0  0.0531
  C  C174  1  0.169680  0.298500  0.573400  1.0  -0.1304
  C  C175  1  0.122500  0.306200  0.550700  1.0  -0.0053
  C  C176  1  0.097930  0.181300  0.667300  1.0  0.0199
  C  C177  1  0.037150  0.266500  0.574600  1.0  0.1268
  C  C178  1  0.024720  0.224700  0.500100  1.0  -0.1396
  C  C179  1  0.004660  0.338200  0.626300  1.0  -0.1285
  C  C180  1  0.957770  0.368400  0.602000  1.0  -0.1444
  C  C181  1  0.944570  0.326700  0.527100  1.0  -0.0457
  C  C182  1  0.963620  0.223500  0.393100  1.0  0.6648
  C  C183  1  0.977670  0.255400  0.476200  1.0  -0.1476
  C  C184  1  0.923010  0.467800  0.652900  1.0  0.6427
  C  C185  1  0.269970  0.244400  0.615900  1.0  -0.1893
  C  C186  1  0.317240  0.236000  0.638500  1.0  0.167
  C  C187  1  0.644860  0.327300  0.307400  1.0  -0.1463
  C  C188  1  0.795610  0.321300  0.236800  1.0  0.1616
  C  C189  1  0.747220  0.312100  0.255600  1.0  -0.1911
  C  C190  1  0.733450  0.278500  0.330800  1.0  0.0898
  C  C191  1  0.682270  0.267600  0.354900  1.0  0.0534
  C  C192  1  0.669680  0.201500  0.426600  1.0  -0.1287
  C  C193  1  0.622500  0.193800  0.449300  1.0  -0.0044
  C  C194  1  0.597930  0.318700  0.332700  1.0  0.0199
  C  C195  1  0.537150  0.233500  0.425400  1.0  0.1259
  C  C196  1  0.524720  0.275300  0.499900  1.0  -0.14
  C  C197  1  0.504660  0.161800  0.373700  1.0  -0.1273
  C  C198  1  0.457770  0.131600  0.398000  1.0  -0.1448
  C  C199  1  0.444570  0.173300  0.472900  1.0  -0.0469
  C  C200  1  0.463620  0.276500  0.606900  1.0  0.6645
  C  C201  1  0.477670  0.244600  0.523800  1.0  -0.146
  C  C202  1  0.423010  0.032200  0.347100  1.0  0.6431
  C  C203  1  0.769970  0.255600  0.384100  1.0  -0.1883
  C  C204  1  0.817240  0.264000  0.361500  1.0  0.1675
  C  C205  1  0.644860  0.672700  0.807400  1.0  -0.1455
  C  C206  1  0.795610  0.678700  0.736800  1.0  0.1617
  C  C207  1  0.747220  0.687900  0.755600  1.0  -0.1909
  C  C208  1  0.733450  0.721500  0.830800  1.0  0.0898
  C  C209  1  0.682270  0.732400  0.854900  1.0  0.0532
  C  C210  1  0.669680  0.798500  0.926600  1.0  -0.1291
  C  C211  1  0.622500  0.806200  0.949300  1.0  -0.0049
  C  C212  1  0.597930  0.681300  0.832700  1.0  0.0201
  C  C213  1  0.537150  0.766500  0.925400  1.0  0.1269
  C  C214  1  0.524720  0.724700  0.999900  1.0  -0.1388
  C  C215  1  0.504660  0.838200  0.873700  1.0  -0.1273
  C  C216  1  0.457770  0.868400  0.898000  1.0  -0.1458
  C  C217  1  0.444570  0.826700  0.972900  1.0  -0.0463
  C  C218  1  0.463620  0.723500  0.106900  1.0  0.6648
  C  C219  1  0.477670  0.755400  0.023800  1.0  -0.1465
  C  C220  1  0.423010  0.967800  0.847100  1.0  0.6435
  C  C221  1  0.769970  0.744400  0.884100  1.0  -0.1882
  C  C222  1  0.817240  0.736000  0.861500  1.0  0.1671
  C  C223  1  0.144860  0.827300  0.192600  1.0  -0.1456
  C  C224  1  0.295610  0.821300  0.263200  1.0  0.1613
  C  C225  1  0.247220  0.812100  0.244400  1.0  -0.1918
  C  C226  1  0.233450  0.778500  0.169200  1.0  0.0896
  C  C227  1  0.182270  0.767600  0.145100  1.0  0.0533
  C  C228  1  0.169680  0.701500  0.073400  1.0  -0.1298
  C  C229  1  0.122500  0.693800  0.050700  1.0  -0.0053
  C  C230  1  0.097930  0.818700  0.167300  1.0  0.0199
  C  C231  1  0.037150  0.733500  0.074600  1.0  0.1258
  C  C232  1  0.024720  0.775300  0.000100  1.0  -0.14
  C  C233  1  0.004660  0.661800  0.126300  1.0  -0.1287
  C  C234  1  0.957770  0.631600  0.102000  1.0  -0.1441
  C  C235  1  0.944570  0.673300  0.027100  1.0  -0.0464
  C  C236  1  0.963620  0.776500  0.893100  1.0  0.6648
  C  C237  1  0.977670  0.744600  0.976200  1.0  -0.1458
  C  C238  1  0.923010  0.532200  0.152900  1.0  0.6424
  C  C239  1  0.269970  0.755600  0.115900  1.0  -0.1891
  C  C240  1  0.317240  0.764000  0.138500  1.0  0.1672
  N  N241  1  0.169370  0.297500  0.211200  1.0  -0.3199
  N  N242  1  0.412770  0.251300  0.097820  1.0  0.0122
  N  N243  1  0.669370  0.202500  0.788800  1.0  -0.3199
  N  N244  1  0.912770  0.248700  0.902180  1.0  0.0109
  N  N245  1  0.669370  0.797500  0.288800  1.0  -0.3198
  N  N246  1  0.912770  0.751300  0.402180  1.0  0.0117
  N  N247  1  0.169370  0.702500  0.711200  1.0  -0.32
  N  N248  1  0.412770  0.748700  0.597820  1.0  0.0114
  N  N249  1  0.330630  0.202500  0.711200  1.0  -0.319
  N  N250  1  0.087230  0.248700  0.597820  1.0  0.0124
  N  N251  1  0.830630  0.297500  0.288800  1.0  -0.3196
  N  N252  1  0.587230  0.251300  0.402180  1.0  0.013
  N  N253  1  0.830630  0.702500  0.788800  1.0  -0.3197
  N  N254  1  0.587230  0.748700  0.902180  1.0  0.012
  N  N255  1  0.330630  0.797500  0.211200  1.0  -0.3193
  N  N256  1  0.087230  0.751300  0.097820  1.0  0.0134
  O  O257  1  0.564070  0.010800  0.222940  1.0  -0.6292
  O  O258  1  0.576340  0.207100  0.873370  1.0  -0.6199
  O  O259  1  0.510280  0.363600  0.850570  1.0  -0.5633
  O  O260  1  0.613450  0.967100  0.125500  1.0  -0.5552
  O  O261  1  0.064070  0.489200  0.777060  1.0  -0.6299
  O  O262  1  0.076340  0.292900  0.126630  1.0  -0.6194
  O  O263  1  0.010280  0.136400  0.149430  1.0  -0.5631
  O  O264  1  0.113450  0.532900  0.874500  1.0  -0.5555
  O  O265  1  0.064070  0.510800  0.277060  1.0  -0.6299
  O  O266  1  0.076340  0.707100  0.626630  1.0  -0.6199
  O  O267  1  0.010280  0.863600  0.649430  1.0  -0.5631
  O  O268  1  0.113450  0.467100  0.374500  1.0  -0.5556
  O  O269  1  0.564070  0.989200  0.722940  1.0  -0.6292
  O  O270  1  0.576340  0.792900  0.373370  1.0  -0.6196
  O  O271  1  0.510280  0.636400  0.350570  1.0  -0.5645
  O  O272  1  0.613450  0.032900  0.625500  1.0  -0.5551
  O  O273  1  0.935930  0.489200  0.722940  1.0  -0.6293
  O  O274  1  0.923660  0.292900  0.373370  1.0  -0.6203
  O  O275  1  0.989720  0.136400  0.350570  1.0  -0.5641
  O  O276  1  0.886550  0.532900  0.625500  1.0  -0.5573
  O  O277  1  0.435930  0.010800  0.277060  1.0  -0.6304
  O  O278  1  0.423660  0.207100  0.626630  1.0  -0.62
  O  O279  1  0.489720  0.363600  0.649430  1.0  -0.5644
  O  O280  1  0.386550  0.967100  0.374500  1.0  -0.5576
  O  O281  1  0.435930  0.989200  0.777060  1.0  -0.6303
  O  O282  1  0.423660  0.792900  0.126630  1.0  -0.6201
  O  O283  1  0.489720  0.636400  0.149430  1.0  -0.5646
  O  O284  1  0.386550  0.032900  0.874500  1.0  -0.5567
  O  O285  1  0.935930  0.510800  0.222940  1.0  -0.6293
  O  O286  1  0.923660  0.707100  0.873370  1.0  -0.6203
  O  O287  1  0.989720  0.863600  0.850570  1.0  -0.5632
  O  O288  1  0.886550  0.467100  0.125500  1.0  -0.5577
