# generated using pymatgen
data_CrH5C8O5
_symmetry_space_group_name_H-M   'P 1'
_cell_length_a   14.87310000
_cell_length_b   6.83650000
_cell_length_c   15.24490000
_cell_angle_alpha   90.00000000
_cell_angle_beta   90.00000000
_cell_angle_gamma   90.00000000
_symmetry_Int_Tables_number   1
_chemical_formula_structural   CrH5C8O5
_chemical_formula_sum   'Cr4 H20 C32 O20'
_cell_volume   1550.10064155
_cell_formula_units_Z   4
loop_
 _symmetry_equiv_pos_site_id
 _symmetry_equiv_pos_as_xyz
  1  'x, y, z'
loop_
 _atom_site_type_symbol
 _atom_site_label
 _atom_site_symmetry_multiplicity
 _atom_site_fract_x
 _atom_site_fract_y
 _atom_site_fract_z
 _atom_site_occupancy
 _atom_site_charge
  Cr  Cr1  1  0.000000  0.500000  0.500000  1.0  1.2375
  Cr  Cr2  1  0.500000  0.000000  0.000000  1.0  1.2375
  Cr  Cr3  1  0.000000  0.000000  0.500000  1.0  1.2375
  Cr  Cr4  1  0.500000  0.500000  0.000000  1.0  1.2375
  H  H5  1  0.196800  0.452300  0.693000  1.0  0.1333
  H  H6  1  0.500000  0.750000  0.117100  1.0  0.4395
  H  H7  1  0.696800  0.952300  0.193000  1.0  0.1333
  H  H8  1  0.803200  0.047700  0.693000  1.0  0.134
  H  H9  1  0.303200  0.547700  0.193000  1.0  0.134
  H  H10  1  0.000000  0.250000  0.617100  1.0  0.4395
  H  H11  1  0.803200  0.952300  0.307000  1.0  0.1335
  H  H12  1  0.500000  0.250000  0.882900  1.0  0.4437
  H  H13  1  0.303200  0.452300  0.807000  1.0  0.1335
  H  H14  1  0.000000  0.750000  0.382900  1.0  0.4437
  H  H15  1  0.196800  0.547700  0.307000  1.0  0.1342
  H  H16  1  0.696800  0.047700  0.807000  1.0  0.1342
  H  H17  1  0.803200  0.547700  0.307000  1.0  0.1339
  H  H18  1  0.303200  0.047700  0.807000  1.0  0.1339
  H  H19  1  0.196800  0.952300  0.307000  1.0  0.1335
  H  H20  1  0.696800  0.452300  0.807000  1.0  0.1335
  H  H21  1  0.196800  0.047700  0.693000  1.0  0.1343
  H  H22  1  0.696800  0.547700  0.193000  1.0  0.1343
  H  H23  1  0.803200  0.452300  0.693000  1.0  0.1333
  H  H24  1  0.303200  0.952300  0.193000  1.0  0.1333
  C  C25  1  0.219000  0.576500  0.716800  1.0  -0.0503
  C  C26  1  0.719000  0.076500  0.216800  1.0  -0.0503
  C  C27  1  0.781000  0.923500  0.716800  1.0  -0.0485
  C  C28  1  0.281000  0.423500  0.216800  1.0  -0.0485
  C  C29  1  0.781000  0.076500  0.283200  1.0  -0.0509
  C  C30  1  0.281000  0.576500  0.783200  1.0  -0.0509
  C  C31  1  0.219000  0.423500  0.283200  1.0  -0.0484
  C  C32  1  0.719000  0.923500  0.783200  1.0  -0.0484
  C  C33  1  0.781000  0.423500  0.283200  1.0  -0.0482
  C  C34  1  0.281000  0.923500  0.783200  1.0  -0.0482
  C  C35  1  0.219000  0.076500  0.283200  1.0  -0.0493
  C  C36  1  0.719000  0.576500  0.783200  1.0  -0.0493
  C  C37  1  0.219000  0.923500  0.716800  1.0  -0.0484
  C  C38  1  0.719000  0.423500  0.216800  1.0  -0.0481
  C  C39  1  0.781000  0.576500  0.716800  1.0  -0.0492
  C  C40  1  0.281000  0.076500  0.216800  1.0  -0.0492
  C  C41  1  0.187900  0.750000  0.683600  1.0  -0.0744
  C  C42  1  0.121300  0.750000  0.612300  1.0  0.7405
  C  C43  1  0.687900  0.250000  0.183600  1.0  -0.0744
  C  C44  1  0.621300  0.250000  0.112300  1.0  0.7405
  C  C45  1  0.812100  0.750000  0.683600  1.0  -0.0751
  C  C46  1  0.878700  0.750000  0.612300  1.0  0.7425
  C  C47  1  0.312100  0.250000  0.183600  1.0  -0.0751
  C  C48  1  0.378700  0.250000  0.112300  1.0  0.7425
  C  C49  1  0.812100  0.250000  0.316400  1.0  -0.0747
  C  C50  1  0.878700  0.250000  0.387700  1.0  0.7421
  C  C51  1  0.312100  0.750000  0.816400  1.0  -0.0747
  C  C52  1  0.378700  0.750000  0.887700  1.0  0.7421
  C  C53  1  0.187900  0.250000  0.316400  1.0  -0.0743
  C  C54  1  0.121300  0.250000  0.387700  1.0  0.7406
  C  C55  1  0.687900  0.750000  0.816400  1.0  -0.0743
  C  C56  1  0.621300  0.750000  0.887700  1.0  0.7406
  O  O57  1  0.093000  0.591800  0.582100  1.0  -0.6198
  O  O58  1  0.593000  0.091800  0.082100  1.0  -0.6198
  O  O59  1  0.907000  0.908200  0.582100  1.0  -0.6224
  O  O60  1  0.407000  0.408200  0.082100  1.0  -0.6224
  O  O61  1  0.907000  0.091800  0.417900  1.0  -0.6207
  O  O62  1  0.407000  0.591800  0.917900  1.0  -0.6207
  O  O63  1  0.093000  0.408200  0.417900  1.0  -0.6217
  O  O64  1  0.593000  0.908200  0.917900  1.0  -0.6217
  O  O65  1  0.907000  0.408200  0.417900  1.0  -0.6223
  O  O66  1  0.407000  0.908200  0.917900  1.0  -0.6223
  O  O67  1  0.093000  0.091800  0.417900  1.0  -0.6204
  O  O68  1  0.593000  0.591800  0.917900  1.0  -0.6204
  O  O69  1  0.093000  0.908200  0.582100  1.0  -0.6215
  O  O70  1  0.593000  0.408200  0.082100  1.0  -0.6215
  O  O71  1  0.907000  0.591800  0.582100  1.0  -0.6207
  O  O72  1  0.407000  0.091800  0.082100  1.0  -0.6207
  O  O73  1  0.000000  0.750000  0.448500  1.0  -0.8678
  O  O74  1  0.500000  0.250000  0.948500  1.0  -0.8678
  O  O75  1  0.000000  0.250000  0.551500  1.0  -0.8651
  O  O76  1  0.500000  0.750000  0.051500  1.0  -0.8651
