# generated using pymatgen
data_Cu3C6N9O
_symmetry_space_group_name_H-M   'P 1'
_cell_length_a   24.74300000
_cell_length_b   24.74300000
_cell_length_c   24.74300000
_cell_angle_alpha   90.00000000
_cell_angle_beta   90.00000000
_cell_angle_gamma   90.00000000
_symmetry_Int_Tables_number   1
_chemical_formula_structural   Cu3C6N9O
_chemical_formula_sum   'Cu96 C192 N288 O32'
_cell_volume   15148.06170041
_cell_formula_units_Z   32
loop_
 _symmetry_equiv_pos_site_id
 _symmetry_equiv_pos_as_xyz
  1  'x, y, z'
loop_
 _atom_site_type_symbol
 _atom_site_label
 _atom_site_symmetry_multiplicity
 _atom_site_fract_x
 _atom_site_fract_y
 _atom_site_fract_z
 _atom_site_occupancy
 _atom_site_charge
  Cu  Cu1  1  0.806500  0.500000  0.056500  1.0  0.7646
  Cu  Cu2  1  0.806500  0.000000  0.556500  1.0  0.7646
  Cu  Cu3  1  0.443500  0.250000  0.556500  1.0  0.7647
  Cu  Cu4  1  0.443500  0.750000  0.056500  1.0  0.7647
  Cu  Cu5  1  0.943500  0.000000  0.193500  1.0  0.7651
  Cu  Cu6  1  0.943500  0.500000  0.693500  1.0  0.7651
  Cu  Cu7  1  0.306500  0.750000  0.693500  1.0  0.7649
  Cu  Cu8  1  0.306500  0.250000  0.193500  1.0  0.7649
  Cu  Cu9  1  0.056500  0.806500  0.500000  1.0  0.7647
  Cu  Cu10  1  0.056500  0.306500  0.000000  1.0  0.7647
  Cu  Cu11  1  0.556500  0.443500  0.250000  1.0  0.7649
  Cu  Cu12  1  0.556500  0.943500  0.750000  1.0  0.7649
  Cu  Cu13  1  0.193500  0.943500  0.000000  1.0  0.765
  Cu  Cu14  1  0.193500  0.443500  0.500000  1.0  0.765
  Cu  Cu15  1  0.693500  0.306500  0.750000  1.0  0.7648
  Cu  Cu16  1  0.693500  0.806500  0.250000  1.0  0.7648
  Cu  Cu17  1  0.500000  0.056500  0.806500  1.0  0.7643
  Cu  Cu18  1  0.000000  0.056500  0.306500  1.0  0.7643
  Cu  Cu19  1  0.250000  0.556500  0.443500  1.0  0.7647
  Cu  Cu20  1  0.750000  0.556500  0.943500  1.0  0.7647
  Cu  Cu21  1  0.000000  0.193500  0.943500  1.0  0.7648
  Cu  Cu22  1  0.500000  0.193500  0.443500  1.0  0.7648
  Cu  Cu23  1  0.750000  0.693500  0.306500  1.0  0.7645
  Cu  Cu24  1  0.250000  0.693500  0.806500  1.0  0.7645
  Cu  Cu25  1  0.250000  0.056500  0.943500  1.0  0.7647
  Cu  Cu26  1  0.750000  0.056500  0.443500  1.0  0.7647
  Cu  Cu27  1  0.000000  0.693500  0.443500  1.0  0.7648
  Cu  Cu28  1  0.500000  0.693500  0.943500  1.0  0.7648
  Cu  Cu29  1  0.750000  0.193500  0.806500  1.0  0.7645
  Cu  Cu30  1  0.250000  0.193500  0.306500  1.0  0.7645
  Cu  Cu31  1  0.500000  0.556500  0.306500  1.0  0.7643
  Cu  Cu32  1  0.000000  0.556500  0.806500  1.0  0.7643
  Cu  Cu33  1  0.556500  0.306500  0.500000  1.0  0.7647
  Cu  Cu34  1  0.556500  0.806500  0.000000  1.0  0.7647
  Cu  Cu35  1  0.193500  0.806500  0.750000  1.0  0.7648
  Cu  Cu36  1  0.193500  0.306500  0.250000  1.0  0.7648
  Cu  Cu37  1  0.693500  0.443500  0.000000  1.0  0.765
  Cu  Cu38  1  0.693500  0.943500  0.500000  1.0  0.765
  Cu  Cu39  1  0.056500  0.943500  0.250000  1.0  0.7649
  Cu  Cu40  1  0.056500  0.443500  0.750000  1.0  0.7649
  Cu  Cu41  1  0.806500  0.750000  0.193500  1.0  0.7649
  Cu  Cu42  1  0.806500  0.250000  0.693500  1.0  0.7649
  Cu  Cu43  1  0.306500  0.500000  0.556500  1.0  0.7646
  Cu  Cu44  1  0.306500  0.000000  0.056500  1.0  0.7646
  Cu  Cu45  1  0.943500  0.250000  0.056500  1.0  0.7647
  Cu  Cu46  1  0.943500  0.750000  0.556500  1.0  0.7647
  Cu  Cu47  1  0.443500  0.000000  0.693500  1.0  0.7651
  Cu  Cu48  1  0.443500  0.500000  0.193500  1.0  0.7651
  Cu  Cu49  1  0.193500  0.500000  0.943500  1.0  0.7651
  Cu  Cu50  1  0.193500  0.000000  0.443500  1.0  0.7651
  Cu  Cu51  1  0.556500  0.750000  0.443500  1.0  0.7649
  Cu  Cu52  1  0.556500  0.250000  0.943500  1.0  0.7649
  Cu  Cu53  1  0.056500  0.000000  0.806500  1.0  0.7646
  Cu  Cu54  1  0.056500  0.500000  0.306500  1.0  0.7646
  Cu  Cu55  1  0.693500  0.250000  0.306500  1.0  0.7647
  Cu  Cu56  1  0.693500  0.750000  0.806500  1.0  0.7647
  Cu  Cu57  1  0.943500  0.193500  0.500000  1.0  0.765
  Cu  Cu58  1  0.943500  0.693500  0.000000  1.0  0.765
  Cu  Cu59  1  0.443500  0.556500  0.750000  1.0  0.7648
  Cu  Cu60  1  0.443500  0.056500  0.250000  1.0  0.7648
  Cu  Cu61  1  0.806500  0.056500  0.000000  1.0  0.7647
  Cu  Cu62  1  0.806500  0.556500  0.500000  1.0  0.7647
  Cu  Cu63  1  0.306500  0.693500  0.250000  1.0  0.7649
  Cu  Cu64  1  0.306500  0.193500  0.750000  1.0  0.7649
  Cu  Cu65  1  0.500000  0.943500  0.193500  1.0  0.7648
  Cu  Cu66  1  0.000000  0.943500  0.693500  1.0  0.7648
  Cu  Cu67  1  0.750000  0.443500  0.556500  1.0  0.7645
  Cu  Cu68  1  0.250000  0.443500  0.056500  1.0  0.7645
  Cu  Cu69  1  0.000000  0.806500  0.056500  1.0  0.7643
  Cu  Cu70  1  0.500000  0.806500  0.556500  1.0  0.7643
  Cu  Cu71  1  0.250000  0.306500  0.693500  1.0  0.7647
  Cu  Cu72  1  0.750000  0.306500  0.193500  1.0  0.7647
  Cu  Cu73  1  0.750000  0.943500  0.056500  1.0  0.7645
  Cu  Cu74  1  0.250000  0.943500  0.556500  1.0  0.7645
  Cu  Cu75  1  0.000000  0.306500  0.556500  1.0  0.7643
  Cu  Cu76  1  0.500000  0.306500  0.056500  1.0  0.7643
  Cu  Cu77  1  0.250000  0.806500  0.193500  1.0  0.7647
  Cu  Cu78  1  0.750000  0.806500  0.693500  1.0  0.7647
  Cu  Cu79  1  0.500000  0.443500  0.693500  1.0  0.7648
  Cu  Cu80  1  0.000000  0.443500  0.193500  1.0  0.7648
  Cu  Cu81  1  0.443500  0.693500  0.500000  1.0  0.765
  Cu  Cu82  1  0.443500  0.193500  0.000000  1.0  0.765
  Cu  Cu83  1  0.806500  0.193500  0.250000  1.0  0.7649
  Cu  Cu84  1  0.806500  0.693500  0.750000  1.0  0.7649
  Cu  Cu85  1  0.306500  0.556500  0.000000  1.0  0.7647
  Cu  Cu86  1  0.306500  0.056500  0.500000  1.0  0.7647
  Cu  Cu87  1  0.943500  0.056500  0.750000  1.0  0.7648
  Cu  Cu88  1  0.943500  0.556500  0.250000  1.0  0.7648
  Cu  Cu89  1  0.193500  0.250000  0.806500  1.0  0.7647
  Cu  Cu90  1  0.193500  0.750000  0.306500  1.0  0.7647
  Cu  Cu91  1  0.693500  0.500000  0.443500  1.0  0.7651
  Cu  Cu92  1  0.693500  0.000000  0.943500  1.0  0.7651
  Cu  Cu93  1  0.056500  0.750000  0.943500  1.0  0.7649
  Cu  Cu94  1  0.056500  0.250000  0.443500  1.0  0.7649
  Cu  Cu95  1  0.556500  0.000000  0.306500  1.0  0.7646
  Cu  Cu96  1  0.556500  0.500000  0.806500  1.0  0.7646
  C  C97  1  0.867000  0.531700  0.157800  1.0  0.109
  C  C98  1  0.867000  0.031700  0.657800  1.0  0.109
  C  C99  1  0.367000  0.531700  0.657800  1.0  0.109
  C  C100  1  0.367000  0.031700  0.157800  1.0  0.109
  C  C101  1  0.383000  0.218300  0.657800  1.0  0.1088
  C  C102  1  0.383000  0.718300  0.157800  1.0  0.1088
  C  C103  1  0.883000  0.218300  0.157800  1.0  0.1088
  C  C104  1  0.883000  0.718300  0.657800  1.0  0.1088
  C  C105  1  0.883000  0.031700  0.092200  1.0  0.1092
  C  C106  1  0.883000  0.531700  0.592200  1.0  0.1092
  C  C107  1  0.383000  0.031700  0.592200  1.0  0.1092
  C  C108  1  0.383000  0.531700  0.092200  1.0  0.1092
  C  C109  1  0.367000  0.718300  0.592200  1.0  0.1092
  C  C110  1  0.367000  0.218300  0.092200  1.0  0.1092
  C  C111  1  0.867000  0.718300  0.092200  1.0  0.1092
  C  C112  1  0.867000  0.218300  0.592200  1.0  0.1092
  C  C113  1  0.157800  0.867000  0.531700  1.0  0.1079
  C  C114  1  0.157800  0.367000  0.031700  1.0  0.1079
  C  C115  1  0.657800  0.867000  0.031700  1.0  0.1079
  C  C116  1  0.657800  0.367000  0.531700  1.0  0.1079
  C  C117  1  0.657800  0.383000  0.218300  1.0  0.1074
  C  C118  1  0.657800  0.883000  0.718300  1.0  0.1074
  C  C119  1  0.157800  0.383000  0.718300  1.0  0.1074
  C  C120  1  0.157800  0.883000  0.218300  1.0  0.1074
  C  C121  1  0.092200  0.883000  0.031700  1.0  0.1064
  C  C122  1  0.092200  0.383000  0.531700  1.0  0.1064
  C  C123  1  0.592200  0.883000  0.531700  1.0  0.1064
  C  C124  1  0.592200  0.383000  0.031700  1.0  0.1064
  C  C125  1  0.592200  0.367000  0.718300  1.0  0.1085
  C  C126  1  0.592200  0.867000  0.218300  1.0  0.1085
  C  C127  1  0.092200  0.367000  0.218300  1.0  0.1085
  C  C128  1  0.092200  0.867000  0.718300  1.0  0.1085
  C  C129  1  0.531700  0.157800  0.867000  1.0  0.1096
  C  C130  1  0.531700  0.657800  0.367000  1.0  0.1096
  C  C131  1  0.031700  0.157800  0.367000  1.0  0.1096
  C  C132  1  0.031700  0.657800  0.867000  1.0  0.1096
  C  C133  1  0.218300  0.657800  0.383000  1.0  0.1077
  C  C134  1  0.218300  0.157800  0.883000  1.0  0.1077
  C  C135  1  0.718300  0.657800  0.883000  1.0  0.1077
  C  C136  1  0.718300  0.157800  0.383000  1.0  0.1077
  C  C137  1  0.031700  0.092200  0.883000  1.0  0.1072
  C  C138  1  0.031700  0.592200  0.383000  1.0  0.1072
  C  C139  1  0.531700  0.092200  0.383000  1.0  0.1072
  C  C140  1  0.531700  0.592200  0.883000  1.0  0.1072
  C  C141  1  0.718300  0.592200  0.367000  1.0  0.1095
  C  C142  1  0.718300  0.092200  0.867000  1.0  0.1095
  C  C143  1  0.218300  0.592200  0.867000  1.0  0.1095
  C  C144  1  0.218300  0.092200  0.367000  1.0  0.1095
  C  C145  1  0.281700  0.117000  0.842200  1.0  0.1101
  C  C146  1  0.281700  0.617000  0.342200  1.0  0.1101
  C  C147  1  0.781700  0.117000  0.342200  1.0  0.1101
  C  C148  1  0.781700  0.617000  0.842200  1.0  0.1101
  C  C149  1  0.968300  0.633000  0.342200  1.0  0.1093
  C  C150  1  0.968300  0.133000  0.842200  1.0  0.1093
  C  C151  1  0.468300  0.633000  0.842200  1.0  0.1093
  C  C152  1  0.468300  0.133000  0.342200  1.0  0.1093
  C  C153  1  0.781700  0.133000  0.907800  1.0  0.1086
  C  C154  1  0.781700  0.633000  0.407800  1.0  0.1086
  C  C155  1  0.281700  0.133000  0.407800  1.0  0.1086
  C  C156  1  0.281700  0.633000  0.907800  1.0  0.1086
  C  C157  1  0.468300  0.617000  0.407800  1.0  0.1092
  C  C158  1  0.468300  0.117000  0.907800  1.0  0.1092
  C  C159  1  0.968300  0.617000  0.907800  1.0  0.1092
  C  C160  1  0.968300  0.117000  0.407800  1.0  0.1092
  C  C161  1  0.617000  0.407800  0.468300  1.0  0.1085
  C  C162  1  0.617000  0.907800  0.968300  1.0  0.1085
  C  C163  1  0.117000  0.407800  0.968300  1.0  0.1085
  C  C164  1  0.117000  0.907800  0.468300  1.0  0.1085
  C  C165  1  0.133000  0.907800  0.781700  1.0  0.1064
  C  C166  1  0.133000  0.407800  0.281700  1.0  0.1064
  C  C167  1  0.633000  0.907800  0.281700  1.0  0.1064
  C  C168  1  0.633000  0.407800  0.781700  1.0  0.1064
  C  C169  1  0.633000  0.342200  0.968300  1.0  0.1068
  C  C170  1  0.633000  0.842200  0.468300  1.0  0.1068
  C  C171  1  0.133000  0.342200  0.468300  1.0  0.1068
  C  C172  1  0.133000  0.842200  0.968300  1.0  0.1068
  C  C173  1  0.117000  0.842200  0.281700  1.0  0.1059
  C  C174  1  0.117000  0.342200  0.781700  1.0  0.1059
  C  C175  1  0.617000  0.842200  0.781700  1.0  0.1059
  C  C176  1  0.617000  0.342200  0.281700  1.0  0.1059
  C  C177  1  0.907800  0.781700  0.133000  1.0  0.1085
  C  C178  1  0.907800  0.281700  0.633000  1.0  0.1085
  C  C179  1  0.407800  0.781700  0.633000  1.0  0.1085
  C  C180  1  0.407800  0.281700  0.133000  1.0  0.1085
  C  C181  1  0.407800  0.468300  0.617000  1.0  0.1103
  C  C182  1  0.407800  0.968300  0.117000  1.0  0.1103
  C  C183  1  0.907800  0.468300  0.117000  1.0  0.1103
  C  C184  1  0.907800  0.968300  0.617000  1.0  0.1103
  C  C185  1  0.842200  0.281700  0.117000  1.0  0.1092
  C  C186  1  0.842200  0.781700  0.617000  1.0  0.1092
  C  C187  1  0.342200  0.281700  0.617000  1.0  0.1092
  C  C188  1  0.342200  0.781700  0.117000  1.0  0.1092
  C  C189  1  0.342200  0.968300  0.633000  1.0  0.107
  C  C190  1  0.342200  0.468300  0.133000  1.0  0.107
  C  C191  1  0.842200  0.968300  0.133000  1.0  0.107
  C  C192  1  0.842200  0.468300  0.633000  1.0  0.107
  C  C193  1  0.133000  0.468300  0.842200  1.0  0.1098
  C  C194  1  0.133000  0.968300  0.342200  1.0  0.1098
  C  C195  1  0.633000  0.468300  0.342200  1.0  0.1098
  C  C196  1  0.633000  0.968300  0.842200  1.0  0.1098
  C  C197  1  0.617000  0.781700  0.342200  1.0  0.1094
  C  C198  1  0.617000  0.281700  0.842200  1.0  0.1094
  C  C199  1  0.117000  0.781700  0.842200  1.0  0.1094
  C  C200  1  0.117000  0.281700  0.342200  1.0  0.1094
  C  C201  1  0.117000  0.968300  0.907800  1.0  0.1084
  C  C202  1  0.117000  0.468300  0.407800  1.0  0.1084
  C  C203  1  0.617000  0.968300  0.407800  1.0  0.1084
  C  C204  1  0.617000  0.468300  0.907800  1.0  0.1084
  C  C205  1  0.633000  0.281700  0.407800  1.0  0.1084
  C  C206  1  0.633000  0.781700  0.907800  1.0  0.1084
  C  C207  1  0.133000  0.281700  0.907800  1.0  0.1084
  C  C208  1  0.133000  0.781700  0.407800  1.0  0.1084
  C  C209  1  0.842200  0.133000  0.468300  1.0  0.1071
  C  C210  1  0.842200  0.633000  0.968300  1.0  0.1071
  C  C211  1  0.342200  0.133000  0.968300  1.0  0.1071
  C  C212  1  0.342200  0.633000  0.468300  1.0  0.1071
  C  C213  1  0.342200  0.617000  0.781700  1.0  0.1066
  C  C214  1  0.342200  0.117000  0.281700  1.0  0.1066
  C  C215  1  0.842200  0.617000  0.281700  1.0  0.1066
  C  C216  1  0.842200  0.117000  0.781700  1.0  0.1066
  C  C217  1  0.907800  0.117000  0.968300  1.0  0.1089
  C  C218  1  0.907800  0.617000  0.468300  1.0  0.1089
  C  C219  1  0.407800  0.117000  0.468300  1.0  0.1089
  C  C220  1  0.407800  0.617000  0.968300  1.0  0.1089
  C  C221  1  0.407800  0.633000  0.281700  1.0  0.1075
  C  C222  1  0.407800  0.133000  0.781700  1.0  0.1075
  C  C223  1  0.907800  0.633000  0.781700  1.0  0.1075
  C  C224  1  0.907800  0.133000  0.281700  1.0  0.1075
  C  C225  1  0.468300  0.842200  0.133000  1.0  0.1076
  C  C226  1  0.468300  0.342200  0.633000  1.0  0.1076
  C  C227  1  0.968300  0.842200  0.633000  1.0  0.1076
  C  C228  1  0.968300  0.342200  0.133000  1.0  0.1076
  C  C229  1  0.781700  0.342200  0.617000  1.0  0.1083
  C  C230  1  0.781700  0.842200  0.117000  1.0  0.1083
  C  C231  1  0.281700  0.342200  0.117000  1.0  0.1083
  C  C232  1  0.281700  0.842200  0.617000  1.0  0.1083
  C  C233  1  0.968300  0.907800  0.117000  1.0  0.1105
  C  C234  1  0.968300  0.407800  0.617000  1.0  0.1105
  C  C235  1  0.468300  0.907800  0.617000  1.0  0.1105
  C  C236  1  0.468300  0.407800  0.117000  1.0  0.1105
  C  C237  1  0.281700  0.407800  0.633000  1.0  0.1076
  C  C238  1  0.281700  0.907800  0.133000  1.0  0.1076
  C  C239  1  0.781700  0.407800  0.133000  1.0  0.1076
  C  C240  1  0.781700  0.907800  0.633000  1.0  0.1076
  C  C241  1  0.718300  0.883000  0.157800  1.0  0.1091
  C  C242  1  0.718300  0.383000  0.657800  1.0  0.1091
  C  C243  1  0.218300  0.883000  0.657800  1.0  0.1091
  C  C244  1  0.218300  0.383000  0.157800  1.0  0.1091
  C  C245  1  0.031700  0.367000  0.657800  1.0  0.109
  C  C246  1  0.031700  0.867000  0.157800  1.0  0.109
  C  C247  1  0.531700  0.367000  0.157800  1.0  0.109
  C  C248  1  0.531700  0.867000  0.657800  1.0  0.109
  C  C249  1  0.218300  0.867000  0.092200  1.0  0.11
  C  C250  1  0.218300  0.367000  0.592200  1.0  0.11
  C  C251  1  0.718300  0.867000  0.592200  1.0  0.11
  C  C252  1  0.718300  0.367000  0.092200  1.0  0.11
  C  C253  1  0.531700  0.383000  0.592200  1.0  0.1093
  C  C254  1  0.531700  0.883000  0.092200  1.0  0.1093
  C  C255  1  0.031700  0.383000  0.092200  1.0  0.1093
  C  C256  1  0.031700  0.883000  0.592200  1.0  0.1093
  C  C257  1  0.383000  0.592200  0.531700  1.0  0.1063
  C  C258  1  0.383000  0.092200  0.031700  1.0  0.1063
  C  C259  1  0.883000  0.592200  0.031700  1.0  0.1063
  C  C260  1  0.883000  0.092200  0.531700  1.0  0.1063
  C  C261  1  0.867000  0.092200  0.218300  1.0  0.1073
  C  C262  1  0.867000  0.592200  0.718300  1.0  0.1073
  C  C263  1  0.367000  0.092200  0.718300  1.0  0.1073
  C  C264  1  0.367000  0.592200  0.218300  1.0  0.1073
  C  C265  1  0.367000  0.657800  0.031700  1.0  0.1063
  C  C266  1  0.367000  0.157800  0.531700  1.0  0.1063
  C  C267  1  0.867000  0.657800  0.531700  1.0  0.1063
  C  C268  1  0.867000  0.157800  0.031700  1.0  0.1063
  C  C269  1  0.883000  0.157800  0.718300  1.0  0.1079
  C  C270  1  0.883000  0.657800  0.218300  1.0  0.1079
  C  C271  1  0.383000  0.157800  0.218300  1.0  0.1079
  C  C272  1  0.383000  0.657800  0.718300  1.0  0.1079
  C  C273  1  0.092200  0.218300  0.867000  1.0  0.11
  C  C274  1  0.092200  0.718300  0.367000  1.0  0.11
  C  C275  1  0.592200  0.218300  0.367000  1.0  0.11
  C  C276  1  0.592200  0.718300  0.867000  1.0  0.11
  C  C277  1  0.592200  0.531700  0.383000  1.0  0.1078
  C  C278  1  0.592200  0.031700  0.883000  1.0  0.1078
  C  C279  1  0.092200  0.531700  0.883000  1.0  0.1078
  C  C280  1  0.092200  0.031700  0.383000  1.0  0.1078
  C  C281  1  0.157800  0.718300  0.883000  1.0  0.108
  C  C282  1  0.157800  0.218300  0.383000  1.0  0.108
  C  C283  1  0.657800  0.718300  0.383000  1.0  0.108
  C  C284  1  0.657800  0.218300  0.883000  1.0  0.108
  C  C285  1  0.657800  0.031700  0.367000  1.0  0.1096
  C  C286  1  0.657800  0.531700  0.867000  1.0  0.1096
  C  C287  1  0.157800  0.031700  0.867000  1.0  0.1096
  C  C288  1  0.157800  0.531700  0.367000  1.0  0.1096
  N  N289  1  0.910600  0.520700  0.186600  1.0  -0.2256
  N  N290  1  0.910600  0.020700  0.686600  1.0  -0.2256
  N  N291  1  0.410600  0.520700  0.686600  1.0  -0.2256
  N  N292  1  0.410600  0.020700  0.186600  1.0  -0.2256
  N  N293  1  0.339400  0.229300  0.686600  1.0  -0.2255
  N  N294  1  0.339400  0.729300  0.186600  1.0  -0.2255
  N  N295  1  0.839400  0.229300  0.186600  1.0  -0.2255
  N  N296  1  0.839400  0.729300  0.686600  1.0  -0.2255
  N  N297  1  0.839400  0.020700  0.063400  1.0  -0.2253
  N  N298  1  0.839400  0.520700  0.563400  1.0  -0.2253
  N  N299  1  0.339400  0.020700  0.563400  1.0  -0.2253
  N  N300  1  0.339400  0.520700  0.063400  1.0  -0.2253
  N  N301  1  0.410600  0.729300  0.563400  1.0  -0.2258
  N  N302  1  0.410600  0.229300  0.063400  1.0  -0.2258
  N  N303  1  0.910600  0.729300  0.063400  1.0  -0.2258
  N  N304  1  0.910600  0.229300  0.563400  1.0  -0.2258
  N  N305  1  0.186600  0.910600  0.520700  1.0  -0.2268
  N  N306  1  0.186600  0.410600  0.020700  1.0  -0.2268
  N  N307  1  0.686600  0.910600  0.020700  1.0  -0.2268
  N  N308  1  0.686600  0.410600  0.520700  1.0  -0.2268
  N  N309  1  0.686600  0.339400  0.229300  1.0  -0.226
  N  N310  1  0.686600  0.839400  0.729300  1.0  -0.226
  N  N311  1  0.186600  0.339400  0.729300  1.0  -0.226
  N  N312  1  0.186600  0.839400  0.229300  1.0  -0.226
  N  N313  1  0.063400  0.839400  0.020700  1.0  -0.2272
  N  N314  1  0.063400  0.339400  0.520700  1.0  -0.2272
  N  N315  1  0.563400  0.839400  0.520700  1.0  -0.2272
  N  N316  1  0.563400  0.339400  0.020700  1.0  -0.2272
  N  N317  1  0.563400  0.410600  0.729300  1.0  -0.2259
  N  N318  1  0.563400  0.910600  0.229300  1.0  -0.2259
  N  N319  1  0.063400  0.410600  0.229300  1.0  -0.2259
  N  N320  1  0.063400  0.910600  0.729300  1.0  -0.2259
  N  N321  1  0.520700  0.186600  0.910600  1.0  -0.2235
  N  N322  1  0.520700  0.686600  0.410600  1.0  -0.2235
  N  N323  1  0.020700  0.186600  0.410600  1.0  -0.2235
  N  N324  1  0.020700  0.686600  0.910600  1.0  -0.2235
  N  N325  1  0.229300  0.686600  0.339400  1.0  -0.2243
  N  N326  1  0.229300  0.186600  0.839400  1.0  -0.2243
  N  N327  1  0.729300  0.686600  0.839400  1.0  -0.2243
  N  N328  1  0.729300  0.186600  0.339400  1.0  -0.2243
  N  N329  1  0.020700  0.063400  0.839400  1.0  -0.2227
  N  N330  1  0.020700  0.563400  0.339400  1.0  -0.2227
  N  N331  1  0.520700  0.063400  0.339400  1.0  -0.2227
  N  N332  1  0.520700  0.563400  0.839400  1.0  -0.2227
  N  N333  1  0.729300  0.563400  0.410600  1.0  -0.2241
  N  N334  1  0.729300  0.063400  0.910600  1.0  -0.2241
  N  N335  1  0.229300  0.563400  0.910600  1.0  -0.2241
  N  N336  1  0.229300  0.063400  0.410600  1.0  -0.2241
  N  N337  1  0.270700  0.160600  0.813400  1.0  -0.2246
  N  N338  1  0.270700  0.660600  0.313400  1.0  -0.2246
  N  N339  1  0.770700  0.160600  0.313400  1.0  -0.2246
  N  N340  1  0.770700  0.660600  0.813400  1.0  -0.2246
  N  N341  1  0.979300  0.589400  0.313400  1.0  -0.2263
  N  N342  1  0.979300  0.089400  0.813400  1.0  -0.2263
  N  N343  1  0.479300  0.589400  0.813400  1.0  -0.2263
  N  N344  1  0.479300  0.089400  0.313400  1.0  -0.2263
  N  N345  1  0.770700  0.089400  0.936600  1.0  -0.2251
  N  N346  1  0.770700  0.589400  0.436600  1.0  -0.2251
  N  N347  1  0.270700  0.089400  0.436600  1.0  -0.2251
  N  N348  1  0.270700  0.589400  0.936600  1.0  -0.2251
  N  N349  1  0.479300  0.660600  0.436600  1.0  -0.2262
  N  N350  1  0.479300  0.160600  0.936600  1.0  -0.2262
  N  N351  1  0.979300  0.660600  0.936600  1.0  -0.2262
  N  N352  1  0.979300  0.160600  0.436600  1.0  -0.2262
  N  N353  1  0.660600  0.436600  0.479300  1.0  -0.2251
  N  N354  1  0.660600  0.936600  0.979300  1.0  -0.2251
  N  N355  1  0.160600  0.436600  0.979300  1.0  -0.2251
  N  N356  1  0.160600  0.936600  0.479300  1.0  -0.2251
  N  N357  1  0.089400  0.936600  0.770700  1.0  -0.2263
  N  N358  1  0.089400  0.436600  0.270700  1.0  -0.2263
  N  N359  1  0.589400  0.936600  0.270700  1.0  -0.2263
  N  N360  1  0.589400  0.436600  0.770700  1.0  -0.2263
  N  N361  1  0.589400  0.313400  0.979300  1.0  -0.2244
  N  N362  1  0.589400  0.813400  0.479300  1.0  -0.2244
  N  N363  1  0.089400  0.313400  0.479300  1.0  -0.2244
  N  N364  1  0.089400  0.813400  0.979300  1.0  -0.2244
  N  N365  1  0.160600  0.813400  0.270700  1.0  -0.2257
  N  N366  1  0.160600  0.313400  0.770700  1.0  -0.2257
  N  N367  1  0.660600  0.813400  0.770700  1.0  -0.2257
  N  N368  1  0.660600  0.313400  0.270700  1.0  -0.2257
  N  N369  1  0.936600  0.770700  0.089400  1.0  -0.227
  N  N370  1  0.936600  0.270700  0.589400  1.0  -0.227
  N  N371  1  0.436600  0.770700  0.589400  1.0  -0.227
  N  N372  1  0.436600  0.270700  0.089400  1.0  -0.227
  N  N373  1  0.436600  0.479300  0.660600  1.0  -0.2274
  N  N374  1  0.436600  0.979300  0.160600  1.0  -0.2274
  N  N375  1  0.936600  0.479300  0.160600  1.0  -0.2274
  N  N376  1  0.936600  0.979300  0.660600  1.0  -0.2274
  N  N377  1  0.813400  0.270700  0.160600  1.0  -0.2279
  N  N378  1  0.813400  0.770700  0.660600  1.0  -0.2279
  N  N379  1  0.313400  0.270700  0.660600  1.0  -0.2279
  N  N380  1  0.313400  0.770700  0.160600  1.0  -0.2279
  N  N381  1  0.313400  0.979300  0.589400  1.0  -0.2278
  N  N382  1  0.313400  0.479300  0.089400  1.0  -0.2278
  N  N383  1  0.813400  0.979300  0.089400  1.0  -0.2278
  N  N384  1  0.813400  0.479300  0.589400  1.0  -0.2278
  N  N385  1  0.089400  0.479300  0.813400  1.0  -0.2257
  N  N386  1  0.089400  0.979300  0.313400  1.0  -0.2257
  N  N387  1  0.589400  0.479300  0.313400  1.0  -0.2254
  N  N388  1  0.589400  0.979300  0.813400  1.0  -0.2254
  N  N389  1  0.660600  0.770700  0.313400  1.0  -0.225
  N  N390  1  0.660600  0.270700  0.813400  1.0  -0.225
  N  N391  1  0.160600  0.770700  0.813400  1.0  -0.2254
  N  N392  1  0.160600  0.270700  0.313400  1.0  -0.2254
  N  N393  1  0.160600  0.979300  0.936600  1.0  -0.2252
  N  N394  1  0.160600  0.479300  0.436600  1.0  -0.2252
  N  N395  1  0.660600  0.979300  0.436600  1.0  -0.2256
  N  N396  1  0.660600  0.479300  0.936600  1.0  -0.2256
  N  N397  1  0.589400  0.270700  0.436600  1.0  -0.2257
  N  N398  1  0.589400  0.770700  0.936600  1.0  -0.2257
  N  N399  1  0.089400  0.270700  0.936600  1.0  -0.2254
  N  N400  1  0.089400  0.770700  0.436600  1.0  -0.2254
  N  N401  1  0.813400  0.089400  0.479300  1.0  -0.2263
  N  N402  1  0.813400  0.589400  0.979300  1.0  -0.2263
  N  N403  1  0.313400  0.089400  0.979300  1.0  -0.2258
  N  N404  1  0.313400  0.589400  0.479300  1.0  -0.2258
  N  N405  1  0.313400  0.660600  0.770700  1.0  -0.2269
  N  N406  1  0.313400  0.160600  0.270700  1.0  -0.2269
  N  N407  1  0.813400  0.660600  0.270700  1.0  -0.2266
  N  N408  1  0.813400  0.160600  0.770700  1.0  -0.2266
  N  N409  1  0.936600  0.160600  0.979300  1.0  -0.2255
  N  N410  1  0.936600  0.660600  0.479300  1.0  -0.2255
  N  N411  1  0.436600  0.160600  0.479300  1.0  -0.2259
  N  N412  1  0.436600  0.660600  0.979300  1.0  -0.2259
  N  N413  1  0.436600  0.589400  0.270700  1.0  -0.2266
  N  N414  1  0.436600  0.089400  0.770700  1.0  -0.2266
  N  N415  1  0.936600  0.589400  0.770700  1.0  -0.2269
  N  N416  1  0.936600  0.089400  0.270700  1.0  -0.2269
  N  N417  1  0.479300  0.813400  0.089400  1.0  -0.2233
  N  N418  1  0.479300  0.313400  0.589400  1.0  -0.2233
  N  N419  1  0.979300  0.813400  0.589400  1.0  -0.2237
  N  N420  1  0.979300  0.313400  0.089400  1.0  -0.2237
  N  N421  1  0.770700  0.313400  0.660600  1.0  -0.223
  N  N422  1  0.770700  0.813400  0.160600  1.0  -0.223
  N  N423  1  0.270700  0.313400  0.160600  1.0  -0.2227
  N  N424  1  0.270700  0.813400  0.660600  1.0  -0.2227
  N  N425  1  0.979300  0.936600  0.160600  1.0  -0.2242
  N  N426  1  0.979300  0.436600  0.660600  1.0  -0.2242
  N  N427  1  0.479300  0.936600  0.660600  1.0  -0.2246
  N  N428  1  0.479300  0.436600  0.160600  1.0  -0.2246
  N  N429  1  0.270700  0.436600  0.589400  1.0  -0.2232
  N  N430  1  0.270700  0.936600  0.089400  1.0  -0.2232
  N  N431  1  0.770700  0.436600  0.089400  1.0  -0.2229
  N  N432  1  0.770700  0.936600  0.589400  1.0  -0.2229
  N  N433  1  0.729300  0.839400  0.186600  1.0  -0.225
  N  N434  1  0.729300  0.339400  0.686600  1.0  -0.225
  N  N435  1  0.229300  0.839400  0.686600  1.0  -0.2264
  N  N436  1  0.229300  0.339400  0.186600  1.0  -0.2264
  N  N437  1  0.020700  0.410600  0.686600  1.0  -0.2249
  N  N438  1  0.020700  0.910600  0.186600  1.0  -0.2249
  N  N439  1  0.520700  0.410600  0.186600  1.0  -0.2237
  N  N440  1  0.520700  0.910600  0.686600  1.0  -0.2237
  N  N441  1  0.229300  0.910600  0.063400  1.0  -0.2244
  N  N442  1  0.229300  0.410600  0.563400  1.0  -0.2244
  N  N443  1  0.729300  0.910600  0.563400  1.0  -0.2256
  N  N444  1  0.729300  0.410600  0.063400  1.0  -0.2256
  N  N445  1  0.520700  0.339400  0.563400  1.0  -0.2252
  N  N446  1  0.520700  0.839400  0.063400  1.0  -0.2252
  N  N447  1  0.020700  0.339400  0.063400  1.0  -0.2238
  N  N448  1  0.020700  0.839400  0.563400  1.0  -0.2238
  N  N449  1  0.339400  0.563400  0.520700  1.0  -0.2255
  N  N450  1  0.339400  0.063400  0.020700  1.0  -0.2255
  N  N451  1  0.839400  0.563400  0.020700  1.0  -0.2241
  N  N452  1  0.839400  0.063400  0.520700  1.0  -0.2241
  N  N453  1  0.910600  0.063400  0.229300  1.0  -0.2232
  N  N454  1  0.910600  0.563400  0.729300  1.0  -0.2232
  N  N455  1  0.410600  0.063400  0.729300  1.0  -0.2246
  N  N456  1  0.410600  0.563400  0.229300  1.0  -0.2246
  N  N457  1  0.410600  0.686600  0.020700  1.0  -0.225
  N  N458  1  0.410600  0.186600  0.520700  1.0  -0.225
  N  N459  1  0.910600  0.686600  0.520700  1.0  -0.2264
  N  N460  1  0.910600  0.186600  0.020700  1.0  -0.2264
  N  N461  1  0.839400  0.186600  0.729300  1.0  -0.2249
  N  N462  1  0.839400  0.686600  0.229300  1.0  -0.2249
  N  N463  1  0.339400  0.186600  0.229300  1.0  -0.2235
  N  N464  1  0.339400  0.686600  0.729300  1.0  -0.2235
  N  N465  1  0.063400  0.229300  0.910600  1.0  -0.2281
  N  N466  1  0.063400  0.729300  0.410600  1.0  -0.2281
  N  N467  1  0.563400  0.229300  0.410600  1.0  -0.2266
  N  N468  1  0.563400  0.729300  0.910600  1.0  -0.2266
  N  N469  1  0.563400  0.520700  0.339400  1.0  -0.2275
  N  N470  1  0.563400  0.020700  0.839400  1.0  -0.2275
  N  N471  1  0.063400  0.520700  0.839400  1.0  -0.2261
  N  N472  1  0.063400  0.020700  0.339400  1.0  -0.2261
  N  N473  1  0.186600  0.729300  0.839400  1.0  -0.2258
  N  N474  1  0.186600  0.229300  0.339400  1.0  -0.2258
  N  N475  1  0.686600  0.729300  0.339400  1.0  -0.2271
  N  N476  1  0.686600  0.229300  0.839400  1.0  -0.2271
  N  N477  1  0.686600  0.020700  0.410600  1.0  -0.226
  N  N478  1  0.686600  0.520700  0.910600  1.0  -0.226
  N  N479  1  0.186600  0.020700  0.910600  1.0  -0.2274
  N  N480  1  0.186600  0.520700  0.410600  1.0  -0.2274
  N  N481  1  0.863600  0.500000  0.113600  1.0  -0.2869
  N  N482  1  0.863600  0.000000  0.613600  1.0  -0.2869
  N  N483  1  0.386400  0.250000  0.613600  1.0  -0.2856
  N  N484  1  0.386400  0.750000  0.113600  1.0  -0.2856
  N  N485  1  0.886400  0.000000  0.136400  1.0  -0.2849
  N  N486  1  0.886400  0.500000  0.636400  1.0  -0.2849
  N  N487  1  0.363600  0.750000  0.636400  1.0  -0.287
  N  N488  1  0.363600  0.250000  0.136400  1.0  -0.287
  N  N489  1  0.113600  0.863600  0.500000  1.0  -0.2874
  N  N490  1  0.113600  0.363600  0.000000  1.0  -0.2874
  N  N491  1  0.613600  0.386400  0.250000  1.0  -0.2869
  N  N492  1  0.613600  0.886400  0.750000  1.0  -0.2869
  N  N493  1  0.136400  0.886400  0.000000  1.0  -0.2854
  N  N494  1  0.136400  0.386400  0.500000  1.0  -0.2854
  N  N495  1  0.636400  0.363600  0.750000  1.0  -0.2857
  N  N496  1  0.636400  0.863600  0.250000  1.0  -0.2857
  N  N497  1  0.500000  0.113600  0.863600  1.0  -0.2865
  N  N498  1  0.000000  0.113600  0.363600  1.0  -0.2865
  N  N499  1  0.250000  0.613600  0.386400  1.0  -0.2862
  N  N500  1  0.750000  0.613600  0.886400  1.0  -0.2862
  N  N501  1  0.000000  0.136400  0.886400  1.0  -0.2853
  N  N502  1  0.500000  0.136400  0.386400  1.0  -0.2853
  N  N503  1  0.750000  0.636400  0.363600  1.0  -0.2859
  N  N504  1  0.250000  0.636400  0.863600  1.0  -0.2859
  N  N505  1  0.250000  0.113600  0.886400  1.0  -0.2862
  N  N506  1  0.750000  0.113600  0.386400  1.0  -0.2862
  N  N507  1  0.000000  0.636400  0.386400  1.0  -0.2853
  N  N508  1  0.500000  0.636400  0.886400  1.0  -0.2853
  N  N509  1  0.750000  0.136400  0.863600  1.0  -0.2859
  N  N510  1  0.250000  0.136400  0.363600  1.0  -0.2859
  N  N511  1  0.500000  0.613600  0.363600  1.0  -0.2865
  N  N512  1  0.000000  0.613600  0.863600  1.0  -0.2865
  N  N513  1  0.613600  0.363600  0.500000  1.0  -0.2874
  N  N514  1  0.613600  0.863600  0.000000  1.0  -0.2874
  N  N515  1  0.136400  0.863600  0.750000  1.0  -0.2857
  N  N516  1  0.136400  0.363600  0.250000  1.0  -0.2857
  N  N517  1  0.636400  0.386400  0.000000  1.0  -0.2854
  N  N518  1  0.636400  0.886400  0.500000  1.0  -0.2854
  N  N519  1  0.113600  0.886400  0.250000  1.0  -0.2869
  N  N520  1  0.113600  0.386400  0.750000  1.0  -0.2869
  N  N521  1  0.863600  0.750000  0.136400  1.0  -0.287
  N  N522  1  0.863600  0.250000  0.636400  1.0  -0.287
  N  N523  1  0.363600  0.500000  0.613600  1.0  -0.2869
  N  N524  1  0.363600  0.000000  0.113600  1.0  -0.2869
  N  N525  1  0.886400  0.250000  0.113600  1.0  -0.2856
  N  N526  1  0.886400  0.750000  0.613600  1.0  -0.2856
  N  N527  1  0.386400  0.000000  0.636400  1.0  -0.2849
  N  N528  1  0.386400  0.500000  0.136400  1.0  -0.2849
  N  N529  1  0.136400  0.500000  0.886400  1.0  -0.2849
  N  N530  1  0.136400  0.000000  0.386400  1.0  -0.2849
  N  N531  1  0.613600  0.750000  0.386400  1.0  -0.287
  N  N532  1  0.613600  0.250000  0.886400  1.0  -0.287
  N  N533  1  0.113600  0.000000  0.863600  1.0  -0.2869
  N  N534  1  0.113600  0.500000  0.363600  1.0  -0.2869
  N  N535  1  0.636400  0.250000  0.363600  1.0  -0.2856
  N  N536  1  0.636400  0.750000  0.863600  1.0  -0.2856
  N  N537  1  0.886400  0.136400  0.500000  1.0  -0.2854
  N  N538  1  0.886400  0.636400  0.000000  1.0  -0.2854
  N  N539  1  0.386400  0.613600  0.750000  1.0  -0.2857
  N  N540  1  0.386400  0.113600  0.250000  1.0  -0.2857
  N  N541  1  0.863600  0.113600  0.000000  1.0  -0.2874
  N  N542  1  0.863600  0.613600  0.500000  1.0  -0.2874
  N  N543  1  0.363600  0.636400  0.250000  1.0  -0.2869
  N  N544  1  0.363600  0.136400  0.750000  1.0  -0.2869
  N  N545  1  0.500000  0.886400  0.136400  1.0  -0.2853
  N  N546  1  0.000000  0.886400  0.636400  1.0  -0.2853
  N  N547  1  0.750000  0.386400  0.613600  1.0  -0.2859
  N  N548  1  0.250000  0.386400  0.113600  1.0  -0.2859
  N  N549  1  0.000000  0.863600  0.113600  1.0  -0.2865
  N  N550  1  0.500000  0.863600  0.613600  1.0  -0.2865
  N  N551  1  0.250000  0.363600  0.636400  1.0  -0.2862
  N  N552  1  0.750000  0.363600  0.136400  1.0  -0.2862
  N  N553  1  0.750000  0.886400  0.113600  1.0  -0.2859
  N  N554  1  0.250000  0.886400  0.613600  1.0  -0.2859
  N  N555  1  0.000000  0.363600  0.613600  1.0  -0.2865
  N  N556  1  0.500000  0.363600  0.113600  1.0  -0.2865
  N  N557  1  0.250000  0.863600  0.136400  1.0  -0.2862
  N  N558  1  0.750000  0.863600  0.636400  1.0  -0.2862
  N  N559  1  0.500000  0.386400  0.636400  1.0  -0.2853
  N  N560  1  0.000000  0.386400  0.136400  1.0  -0.2853
  N  N561  1  0.386400  0.636400  0.500000  1.0  -0.2854
  N  N562  1  0.386400  0.136400  0.000000  1.0  -0.2854
  N  N563  1  0.863600  0.136400  0.250000  1.0  -0.2869
  N  N564  1  0.863600  0.636400  0.750000  1.0  -0.2869
  N  N565  1  0.363600  0.613600  0.000000  1.0  -0.2874
  N  N566  1  0.363600  0.113600  0.500000  1.0  -0.2874
  N  N567  1  0.886400  0.113600  0.750000  1.0  -0.2857
  N  N568  1  0.886400  0.613600  0.250000  1.0  -0.2857
  N  N569  1  0.136400  0.250000  0.863600  1.0  -0.2856
  N  N570  1  0.136400  0.750000  0.363600  1.0  -0.2856
  N  N571  1  0.636400  0.500000  0.386400  1.0  -0.2849
  N  N572  1  0.636400  0.000000  0.886400  1.0  -0.2849
  N  N573  1  0.113600  0.750000  0.886400  1.0  -0.287
  N  N574  1  0.113600  0.250000  0.386400  1.0  -0.287
  N  N575  1  0.613600  0.000000  0.363600  1.0  -0.2869
  N  N576  1  0.613600  0.500000  0.863600  1.0  -0.2869
  O  O577  1  0.750000  0.500000  0.000000  1.0  -0.7331
  O  O578  1  0.750000  0.000000  0.500000  1.0  -0.7331
  O  O579  1  0.500000  0.250000  0.500000  1.0  -0.7331
  O  O580  1  0.500000  0.750000  0.000000  1.0  -0.7331
  O  O581  1  0.000000  0.750000  0.500000  1.0  -0.7331
  O  O582  1  0.000000  0.000000  0.250000  1.0  -0.7331
  O  O583  1  0.000000  0.500000  0.750000  1.0  -0.7331
  O  O584  1  0.250000  0.750000  0.750000  1.0  -0.7331
  O  O585  1  0.250000  0.250000  0.250000  1.0  -0.7331
  O  O586  1  0.500000  0.500000  0.250000  1.0  -0.7331
  O  O587  1  0.500000  0.000000  0.750000  1.0  -0.7331
  O  O588  1  0.250000  0.000000  0.000000  1.0  -0.7331
  O  O589  1  0.750000  0.250000  0.750000  1.0  -0.7331
  O  O590  1  0.250000  0.500000  0.500000  1.0  -0.7331
  O  O591  1  0.000000  0.250000  0.000000  1.0  -0.7331
  O  O592  1  0.750000  0.750000  0.250000  1.0  -0.7331
  O  O593  1  0.250000  0.500000  0.000000  1.0  -0.7331
  O  O594  1  0.250000  0.000000  0.500000  1.0  -0.7331
  O  O595  1  0.500000  0.750000  0.500000  1.0  -0.7331
  O  O596  1  0.500000  0.250000  0.000000  1.0  -0.7331
  O  O597  1  0.000000  0.000000  0.750000  1.0  -0.7331
  O  O598  1  0.000000  0.500000  0.250000  1.0  -0.7331
  O  O599  1  0.750000  0.250000  0.250000  1.0  -0.7331
  O  O600  1  0.750000  0.750000  0.750000  1.0  -0.7331
  O  O601  1  0.000000  0.250000  0.500000  1.0  -0.7331
  O  O602  1  0.500000  0.500000  0.750000  1.0  -0.7331
  O  O603  1  0.750000  0.000000  0.000000  1.0  -0.7331
  O  O604  1  0.250000  0.750000  0.250000  1.0  -0.7331
  O  O605  1  0.500000  0.000000  0.250000  1.0  -0.7331
  O  O606  1  0.750000  0.500000  0.500000  1.0  -0.7331
  O  O607  1  0.000000  0.750000  0.000000  1.0  -0.7331
  O  O608  1  0.250000  0.250000  0.750000  1.0  -0.7331
