# generated using pymatgen
data_Cu3C6N9O
_symmetry_space_group_name_H-M   'P 1'
_cell_length_a   24.71900000
_cell_length_b   24.71900000
_cell_length_c   24.71900000
_cell_angle_alpha   90.00000000
_cell_angle_beta   90.00000000
_cell_angle_gamma   90.00000000
_symmetry_Int_Tables_number   1
_chemical_formula_structural   Cu3C6N9O
_chemical_formula_sum   'Cu96 C192 N288 O32'
_cell_volume   15104.02488696
_cell_formula_units_Z   32
loop_
 _symmetry_equiv_pos_site_id
 _symmetry_equiv_pos_as_xyz
  1  'x, y, z'
loop_
 _atom_site_type_symbol
 _atom_site_label
 _atom_site_symmetry_multiplicity
 _atom_site_fract_x
 _atom_site_fract_y
 _atom_site_fract_z
 _atom_site_occupancy
 _atom_site_charge
  Cu  Cu1  1  0.500000  0.443500  0.693500  1.0  0.7617
  Cu  Cu2  1  0.500000  0.943500  0.193500  1.0  0.7617
  Cu  Cu3  1  0.000000  0.443500  0.193500  1.0  0.7617
  Cu  Cu4  1  0.000000  0.943500  0.693500  1.0  0.7617
  Cu  Cu5  1  0.750000  0.306500  0.193500  1.0  0.7615
  Cu  Cu6  1  0.750000  0.806500  0.693500  1.0  0.7615
  Cu  Cu7  1  0.250000  0.306500  0.693500  1.0  0.7615
  Cu  Cu8  1  0.250000  0.806500  0.193500  1.0  0.7615
  Cu  Cu9  1  0.250000  0.943500  0.556500  1.0  0.7613
  Cu  Cu10  1  0.250000  0.443500  0.056500  1.0  0.7613
  Cu  Cu11  1  0.750000  0.943500  0.056500  1.0  0.7613
  Cu  Cu12  1  0.750000  0.443500  0.556500  1.0  0.7613
  Cu  Cu13  1  0.000000  0.806500  0.056500  1.0  0.7612
  Cu  Cu14  1  0.000000  0.306500  0.556500  1.0  0.7612
  Cu  Cu15  1  0.500000  0.806500  0.556500  1.0  0.7612
  Cu  Cu16  1  0.500000  0.306500  0.056500  1.0  0.7612
  Cu  Cu17  1  0.693500  0.500000  0.443500  1.0  0.7619
  Cu  Cu18  1  0.693500  0.000000  0.943500  1.0  0.7619
  Cu  Cu19  1  0.193500  0.500000  0.943500  1.0  0.7619
  Cu  Cu20  1  0.193500  0.000000  0.443500  1.0  0.7619
  Cu  Cu21  1  0.193500  0.750000  0.306500  1.0  0.7616
  Cu  Cu22  1  0.193500  0.250000  0.806500  1.0  0.7616
  Cu  Cu23  1  0.693500  0.750000  0.806500  1.0  0.7616
  Cu  Cu24  1  0.693500  0.250000  0.306500  1.0  0.7616
  Cu  Cu25  1  0.556500  0.250000  0.943500  1.0  0.7617
  Cu  Cu26  1  0.556500  0.750000  0.443500  1.0  0.7617
  Cu  Cu27  1  0.056500  0.250000  0.443500  1.0  0.7617
  Cu  Cu28  1  0.056500  0.750000  0.943500  1.0  0.7617
  Cu  Cu29  1  0.056500  0.000000  0.806500  1.0  0.7613
  Cu  Cu30  1  0.056500  0.500000  0.306500  1.0  0.7613
  Cu  Cu31  1  0.556500  0.000000  0.306500  1.0  0.7613
  Cu  Cu32  1  0.556500  0.500000  0.806500  1.0  0.7613
  Cu  Cu33  1  0.443500  0.693500  0.500000  1.0  0.7618
  Cu  Cu34  1  0.443500  0.193500  0.000000  1.0  0.7618
  Cu  Cu35  1  0.943500  0.693500  0.000000  1.0  0.7618
  Cu  Cu36  1  0.943500  0.193500  0.500000  1.0  0.7618
  Cu  Cu37  1  0.306500  0.193500  0.750000  1.0  0.7616
  Cu  Cu38  1  0.306500  0.693500  0.250000  1.0  0.7616
  Cu  Cu39  1  0.806500  0.193500  0.250000  1.0  0.7616
  Cu  Cu40  1  0.806500  0.693500  0.750000  1.0  0.7616
  Cu  Cu41  1  0.943500  0.556500  0.250000  1.0  0.7617
  Cu  Cu42  1  0.943500  0.056500  0.750000  1.0  0.7617
  Cu  Cu43  1  0.443500  0.556500  0.750000  1.0  0.7617
  Cu  Cu44  1  0.443500  0.056500  0.250000  1.0  0.7617
  Cu  Cu45  1  0.806500  0.056500  0.000000  1.0  0.7615
  Cu  Cu46  1  0.806500  0.556500  0.500000  1.0  0.7615
  Cu  Cu47  1  0.306500  0.056500  0.500000  1.0  0.7615
  Cu  Cu48  1  0.306500  0.556500  0.000000  1.0  0.7615
  Cu  Cu49  1  0.500000  0.556500  0.306500  1.0  0.7612
  Cu  Cu50  1  0.500000  0.056500  0.806500  1.0  0.7612
  Cu  Cu51  1  0.000000  0.556500  0.806500  1.0  0.7612
  Cu  Cu52  1  0.000000  0.056500  0.306500  1.0  0.7612
  Cu  Cu53  1  0.250000  0.693500  0.806500  1.0  0.7613
  Cu  Cu54  1  0.250000  0.193500  0.306500  1.0  0.7613
  Cu  Cu55  1  0.750000  0.693500  0.306500  1.0  0.7613
  Cu  Cu56  1  0.750000  0.193500  0.806500  1.0  0.7613
  Cu  Cu57  1  0.750000  0.056500  0.443500  1.0  0.7615
  Cu  Cu58  1  0.750000  0.556500  0.943500  1.0  0.7615
  Cu  Cu59  1  0.250000  0.056500  0.943500  1.0  0.7615
  Cu  Cu60  1  0.250000  0.556500  0.443500  1.0  0.7615
  Cu  Cu61  1  0.000000  0.193500  0.943500  1.0  0.7617
  Cu  Cu62  1  0.000000  0.693500  0.443500  1.0  0.7617
  Cu  Cu63  1  0.500000  0.193500  0.443500  1.0  0.7617
  Cu  Cu64  1  0.500000  0.693500  0.943500  1.0  0.7617
  Cu  Cu65  1  0.306500  0.500000  0.556500  1.0  0.7613
  Cu  Cu66  1  0.306500  0.000000  0.056500  1.0  0.7613
  Cu  Cu67  1  0.806500  0.500000  0.056500  1.0  0.7613
  Cu  Cu68  1  0.806500  0.000000  0.556500  1.0  0.7613
  Cu  Cu69  1  0.806500  0.250000  0.693500  1.0  0.7617
  Cu  Cu70  1  0.806500  0.750000  0.193500  1.0  0.7617
  Cu  Cu71  1  0.306500  0.250000  0.193500  1.0  0.7617
  Cu  Cu72  1  0.306500  0.750000  0.693500  1.0  0.7617
  Cu  Cu73  1  0.443500  0.750000  0.056500  1.0  0.7616
  Cu  Cu74  1  0.443500  0.250000  0.556500  1.0  0.7616
  Cu  Cu75  1  0.943500  0.750000  0.556500  1.0  0.7616
  Cu  Cu76  1  0.943500  0.250000  0.056500  1.0  0.7616
  Cu  Cu77  1  0.943500  0.000000  0.193500  1.0  0.7619
  Cu  Cu78  1  0.943500  0.500000  0.693500  1.0  0.7619
  Cu  Cu79  1  0.443500  0.000000  0.693500  1.0  0.7619
  Cu  Cu80  1  0.443500  0.500000  0.193500  1.0  0.7619
  Cu  Cu81  1  0.556500  0.306500  0.500000  1.0  0.7615
  Cu  Cu82  1  0.556500  0.806500  0.000000  1.0  0.7615
  Cu  Cu83  1  0.056500  0.306500  0.000000  1.0  0.7615
  Cu  Cu84  1  0.056500  0.806500  0.500000  1.0  0.7615
  Cu  Cu85  1  0.693500  0.806500  0.250000  1.0  0.7617
  Cu  Cu86  1  0.693500  0.306500  0.750000  1.0  0.7617
  Cu  Cu87  1  0.193500  0.806500  0.750000  1.0  0.7617
  Cu  Cu88  1  0.193500  0.306500  0.250000  1.0  0.7617
  Cu  Cu89  1  0.056500  0.443500  0.750000  1.0  0.7616
  Cu  Cu90  1  0.056500  0.943500  0.250000  1.0  0.7616
  Cu  Cu91  1  0.556500  0.443500  0.250000  1.0  0.7616
  Cu  Cu92  1  0.556500  0.943500  0.750000  1.0  0.7616
  Cu  Cu93  1  0.193500  0.943500  0.000000  1.0  0.7618
  Cu  Cu94  1  0.193500  0.443500  0.500000  1.0  0.7618
  Cu  Cu95  1  0.693500  0.943500  0.500000  1.0  0.7618
  Cu  Cu96  1  0.693500  0.443500  0.000000  1.0  0.7618
  C  C97  1  0.468200  0.342400  0.632700  1.0  0.106
  C  C98  1  0.468200  0.842400  0.132700  1.0  0.106
  C  C99  1  0.968200  0.342400  0.132700  1.0  0.106
  C  C100  1  0.968200  0.842400  0.632700  1.0  0.106
  C  C101  1  0.781800  0.407600  0.132700  1.0  0.1067
  C  C102  1  0.781800  0.907600  0.632700  1.0  0.1067
  C  C103  1  0.281800  0.407600  0.632700  1.0  0.1067
  C  C104  1  0.281800  0.907600  0.132700  1.0  0.1067
  C  C105  1  0.281800  0.842400  0.617300  1.0  0.1072
  C  C106  1  0.281800  0.342400  0.117300  1.0  0.1072
  C  C107  1  0.781800  0.842400  0.117300  1.0  0.1072
  C  C108  1  0.781800  0.342400  0.617300  1.0  0.1072
  C  C109  1  0.968200  0.907600  0.117300  1.0  0.1087
  C  C110  1  0.968200  0.407600  0.617300  1.0  0.1087
  C  C111  1  0.468200  0.907600  0.617300  1.0  0.1087
  C  C112  1  0.468200  0.407600  0.117300  1.0  0.1087
  C  C113  1  0.632700  0.468200  0.342400  1.0  0.1088
  C  C114  1  0.632700  0.968200  0.842400  1.0  0.1088
  C  C115  1  0.132700  0.468200  0.842400  1.0  0.1088
  C  C116  1  0.132700  0.968200  0.342400  1.0  0.1088
  C  C117  1  0.132700  0.781800  0.407600  1.0  0.1074
  C  C118  1  0.132700  0.281800  0.907600  1.0  0.1074
  C  C119  1  0.632700  0.781800  0.907600  1.0  0.1074
  C  C120  1  0.632700  0.281800  0.407600  1.0  0.1074
  C  C121  1  0.617300  0.281800  0.842400  1.0  0.1077
  C  C122  1  0.617300  0.781800  0.342400  1.0  0.1077
  C  C123  1  0.117300  0.281800  0.342400  1.0  0.1077
  C  C124  1  0.117300  0.781800  0.842400  1.0  0.1077
  C  C125  1  0.117300  0.968200  0.907600  1.0  0.1068
  C  C126  1  0.117300  0.468200  0.407600  1.0  0.1068
  C  C127  1  0.617300  0.968200  0.407600  1.0  0.1068
  C  C128  1  0.617300  0.468200  0.907600  1.0  0.1068
  C  C129  1  0.342400  0.632700  0.468200  1.0  0.1054
  C  C130  1  0.342400  0.132700  0.968200  1.0  0.1054
  C  C131  1  0.842400  0.632700  0.968200  1.0  0.1054
  C  C132  1  0.842400  0.132700  0.468200  1.0  0.1054
  C  C133  1  0.407600  0.132700  0.781800  1.0  0.1062
  C  C134  1  0.407600  0.632700  0.281800  1.0  0.1062
  C  C135  1  0.907600  0.132700  0.281800  1.0  0.1062
  C  C136  1  0.907600  0.632700  0.781800  1.0  0.1062
  C  C137  1  0.842400  0.617300  0.281800  1.0  0.1047
  C  C138  1  0.842400  0.117300  0.781800  1.0  0.1047
  C  C139  1  0.342400  0.617300  0.781800  1.0  0.1047
  C  C140  1  0.342400  0.117300  0.281800  1.0  0.1047
  C  C141  1  0.907600  0.117300  0.968200  1.0  0.1073
  C  C142  1  0.907600  0.617300  0.468200  1.0  0.1073
  C  C143  1  0.407600  0.117300  0.468200  1.0  0.1073
  C  C144  1  0.407600  0.617300  0.968200  1.0  0.1073
  C  C145  1  0.092400  0.718200  0.367300  1.0  0.1083
  C  C146  1  0.092400  0.218200  0.867300  1.0  0.1083
  C  C147  1  0.592400  0.718200  0.867300  1.0  0.1083
  C  C148  1  0.592400  0.218200  0.367300  1.0  0.1083
  C  C149  1  0.157600  0.031800  0.867300  1.0  0.1082
  C  C150  1  0.157600  0.531800  0.367300  1.0  0.1082
  C  C151  1  0.657600  0.031800  0.367300  1.0  0.1082
  C  C152  1  0.657600  0.531800  0.867300  1.0  0.1082
  C  C153  1  0.592400  0.531800  0.382700  1.0  0.1065
  C  C154  1  0.592400  0.031800  0.882700  1.0  0.1065
  C  C155  1  0.092400  0.531800  0.882700  1.0  0.1065
  C  C156  1  0.092400  0.031800  0.382700  1.0  0.1065
  C  C157  1  0.657600  0.218200  0.882700  1.0  0.1068
  C  C158  1  0.657600  0.718200  0.382700  1.0  0.1068
  C  C159  1  0.157600  0.218200  0.382700  1.0  0.1068
  C  C160  1  0.157600  0.718200  0.882700  1.0  0.1068
  C  C161  1  0.218200  0.882700  0.657600  1.0  0.1076
  C  C162  1  0.218200  0.382700  0.157600  1.0  0.1076
  C  C163  1  0.718200  0.882700  0.157600  1.0  0.1076
  C  C164  1  0.718200  0.382700  0.657600  1.0  0.1076
  C  C165  1  0.531800  0.382700  0.592400  1.0  0.1084
  C  C166  1  0.531800  0.882700  0.092400  1.0  0.1084
  C  C167  1  0.031800  0.382700  0.092400  1.0  0.1084
  C  C168  1  0.031800  0.882700  0.592400  1.0  0.1084
  C  C169  1  0.031800  0.867300  0.157600  1.0  0.1079
  C  C170  1  0.031800  0.367300  0.657600  1.0  0.1079
  C  C171  1  0.531800  0.867300  0.657600  1.0  0.1079
  C  C172  1  0.531800  0.367300  0.157600  1.0  0.1079
  C  C173  1  0.718200  0.367300  0.092400  1.0  0.108
  C  C174  1  0.718200  0.867300  0.592400  1.0  0.108
  C  C175  1  0.218200  0.367300  0.592400  1.0  0.108
  C  C176  1  0.218200  0.867300  0.092400  1.0  0.108
  C  C177  1  0.382700  0.592400  0.531800  1.0  0.1052
  C  C178  1  0.382700  0.092400  0.031800  1.0  0.1052
  C  C179  1  0.882700  0.592400  0.031800  1.0  0.1052
  C  C180  1  0.882700  0.092400  0.531800  1.0  0.1052
  C  C181  1  0.882700  0.657600  0.218200  1.0  0.1066
  C  C182  1  0.882700  0.157600  0.718200  1.0  0.1066
  C  C183  1  0.382700  0.657600  0.718200  1.0  0.1066
  C  C184  1  0.382700  0.157600  0.218200  1.0  0.1066
  C  C185  1  0.367300  0.092400  0.718200  1.0  0.1053
  C  C186  1  0.367300  0.592400  0.218200  1.0  0.1053
  C  C187  1  0.867300  0.092400  0.218200  1.0  0.1053
  C  C188  1  0.867300  0.592400  0.718200  1.0  0.1053
  C  C189  1  0.867300  0.157600  0.031800  1.0  0.1046
  C  C190  1  0.867300  0.657600  0.531800  1.0  0.1046
  C  C191  1  0.367300  0.157600  0.531800  1.0  0.1046
  C  C192  1  0.367300  0.657600  0.031800  1.0  0.1046
  C  C193  1  0.531800  0.657600  0.367300  1.0  0.1084
  C  C194  1  0.531800  0.157600  0.867300  1.0  0.1084
  C  C195  1  0.031800  0.657600  0.867300  1.0  0.1084
  C  C196  1  0.031800  0.157600  0.367300  1.0  0.1084
  C  C197  1  0.218200  0.592400  0.867300  1.0  0.1075
  C  C198  1  0.218200  0.092400  0.367300  1.0  0.1075
  C  C199  1  0.718200  0.592400  0.367300  1.0  0.1075
  C  C200  1  0.718200  0.092400  0.867300  1.0  0.1075
  C  C201  1  0.718200  0.157600  0.382700  1.0  0.1062
  C  C202  1  0.718200  0.657600  0.882700  1.0  0.1062
  C  C203  1  0.218200  0.157600  0.882700  1.0  0.1062
  C  C204  1  0.218200  0.657600  0.382700  1.0  0.1062
  C  C205  1  0.031800  0.092400  0.882700  1.0  0.1064
  C  C206  1  0.031800  0.592400  0.382700  1.0  0.1064
  C  C207  1  0.531800  0.092400  0.382700  1.0  0.1064
  C  C208  1  0.531800  0.592400  0.882700  1.0  0.1064
  C  C209  1  0.367300  0.531800  0.657600  1.0  0.1075
  C  C210  1  0.367300  0.031800  0.157600  1.0  0.1075
  C  C211  1  0.867300  0.531800  0.157600  1.0  0.1075
  C  C212  1  0.867300  0.031800  0.657600  1.0  0.1075
  C  C213  1  0.867300  0.218200  0.592400  1.0  0.1075
  C  C214  1  0.867300  0.718200  0.092400  1.0  0.1075
  C  C215  1  0.367300  0.218200  0.092400  1.0  0.1075
  C  C216  1  0.367300  0.718200  0.592400  1.0  0.1075
  C  C217  1  0.382700  0.718200  0.157600  1.0  0.1079
  C  C218  1  0.382700  0.218200  0.657600  1.0  0.1079
  C  C219  1  0.882700  0.718200  0.657600  1.0  0.1079
  C  C220  1  0.882700  0.218200  0.157600  1.0  0.1079
  C  C221  1  0.882700  0.031800  0.092400  1.0  0.108
  C  C222  1  0.882700  0.531800  0.592400  1.0  0.108
  C  C223  1  0.382700  0.031800  0.592400  1.0  0.108
  C  C224  1  0.382700  0.531800  0.092400  1.0  0.108
  C  C225  1  0.657600  0.367300  0.531800  1.0  0.1064
  C  C226  1  0.657600  0.867300  0.031800  1.0  0.1064
  C  C227  1  0.157600  0.367300  0.031800  1.0  0.1064
  C  C228  1  0.157600  0.867300  0.531800  1.0  0.1064
  C  C229  1  0.592400  0.867300  0.218200  1.0  0.1064
  C  C230  1  0.592400  0.367300  0.718200  1.0  0.1064
  C  C231  1  0.092400  0.867300  0.718200  1.0  0.1064
  C  C232  1  0.092400  0.367300  0.218200  1.0  0.1064
  C  C233  1  0.157600  0.382700  0.718200  1.0  0.1061
  C  C234  1  0.157600  0.882700  0.218200  1.0  0.1061
  C  C235  1  0.657600  0.382700  0.218200  1.0  0.1061
  C  C236  1  0.657600  0.882700  0.718200  1.0  0.1061
  C  C237  1  0.092400  0.882700  0.031800  1.0  0.1049
  C  C238  1  0.092400  0.382700  0.531800  1.0  0.1049
  C  C239  1  0.592400  0.882700  0.531800  1.0  0.1049
  C  C240  1  0.592400  0.382700  0.031800  1.0  0.1049
  C  C241  1  0.907600  0.281800  0.632700  1.0  0.1074
  C  C242  1  0.907600  0.781800  0.132700  1.0  0.1074
  C  C243  1  0.407600  0.281800  0.132700  1.0  0.1074
  C  C244  1  0.407600  0.781800  0.632700  1.0  0.1074
  C  C245  1  0.842400  0.968200  0.132700  1.0  0.1054
  C  C246  1  0.842400  0.468200  0.632700  1.0  0.1054
  C  C247  1  0.342400  0.968200  0.632700  1.0  0.1054
  C  C248  1  0.342400  0.468200  0.132700  1.0  0.1054
  C  C249  1  0.407600  0.468200  0.617300  1.0  0.1091
  C  C250  1  0.407600  0.968200  0.117300  1.0  0.1091
  C  C251  1  0.907600  0.468200  0.117300  1.0  0.1091
  C  C252  1  0.907600  0.968200  0.617300  1.0  0.1091
  C  C253  1  0.342400  0.781800  0.117300  1.0  0.1076
  C  C254  1  0.342400  0.281800  0.617300  1.0  0.1076
  C  C255  1  0.842400  0.781800  0.617300  1.0  0.1076
  C  C256  1  0.842400  0.281800  0.117300  1.0  0.1076
  C  C257  1  0.781800  0.117300  0.342400  1.0  0.1089
  C  C258  1  0.781800  0.617300  0.842400  1.0  0.1089
  C  C259  1  0.281800  0.117300  0.842400  1.0  0.1089
  C  C260  1  0.281800  0.617300  0.342400  1.0  0.1089
  C  C261  1  0.468200  0.617300  0.407600  1.0  0.1073
  C  C262  1  0.468200  0.117300  0.907600  1.0  0.1073
  C  C263  1  0.968200  0.617300  0.907600  1.0  0.1073
  C  C264  1  0.968200  0.117300  0.407600  1.0  0.1073
  C  C265  1  0.968200  0.132700  0.842400  1.0  0.1079
  C  C266  1  0.968200  0.632700  0.342400  1.0  0.1079
  C  C267  1  0.468200  0.132700  0.342400  1.0  0.1079
  C  C268  1  0.468200  0.632700  0.842400  1.0  0.1079
  C  C269  1  0.281800  0.632700  0.907600  1.0  0.1077
  C  C270  1  0.281800  0.132700  0.407600  1.0  0.1077
  C  C271  1  0.781800  0.632700  0.407600  1.0  0.1077
  C  C272  1  0.781800  0.132700  0.907600  1.0  0.1077
  C  C273  1  0.617300  0.407600  0.468200  1.0  0.1068
  C  C274  1  0.617300  0.907600  0.968200  1.0  0.1068
  C  C275  1  0.117300  0.407600  0.968200  1.0  0.1068
  C  C276  1  0.117300  0.907600  0.468200  1.0  0.1068
  C  C277  1  0.117300  0.342400  0.781800  1.0  0.1043
  C  C278  1  0.117300  0.842400  0.281800  1.0  0.1043
  C  C279  1  0.617300  0.342400  0.281800  1.0  0.1043
  C  C280  1  0.617300  0.842400  0.781800  1.0  0.1043
  C  C281  1  0.632700  0.907600  0.281800  1.0  0.1053
  C  C282  1  0.632700  0.407600  0.781800  1.0  0.1053
  C  C283  1  0.132700  0.907600  0.781800  1.0  0.1053
  C  C284  1  0.132700  0.407600  0.281800  1.0  0.1053
  C  C285  1  0.132700  0.842400  0.968200  1.0  0.1056
  C  C286  1  0.132700  0.342400  0.468200  1.0  0.1056
  C  C287  1  0.632700  0.842400  0.468200  1.0  0.1056
  C  C288  1  0.632700  0.342400  0.968200  1.0  0.1056
  N  N289  1  0.479300  0.313600  0.589100  1.0  -0.2116
  N  N290  1  0.479300  0.813600  0.089100  1.0  -0.2116
  N  N291  1  0.979300  0.313600  0.089100  1.0  -0.2116
  N  N292  1  0.979300  0.813600  0.589100  1.0  -0.2116
  N  N293  1  0.770700  0.436400  0.089100  1.0  -0.2113
  N  N294  1  0.770700  0.936400  0.589100  1.0  -0.2113
  N  N295  1  0.270700  0.436400  0.589100  1.0  -0.2113
  N  N296  1  0.270700  0.936400  0.089100  1.0  -0.2113
  N  N297  1  0.270700  0.813600  0.660900  1.0  -0.2107
  N  N298  1  0.270700  0.313600  0.160900  1.0  -0.2107
  N  N299  1  0.770700  0.813600  0.160900  1.0  -0.2107
  N  N300  1  0.770700  0.313600  0.660900  1.0  -0.2107
  N  N301  1  0.979300  0.936400  0.160900  1.0  -0.2126
  N  N302  1  0.979300  0.436400  0.660900  1.0  -0.2126
  N  N303  1  0.479300  0.936400  0.660900  1.0  -0.2126
  N  N304  1  0.479300  0.436400  0.160900  1.0  -0.2126
  N  N305  1  0.589100  0.479300  0.313600  1.0  -0.2136
  N  N306  1  0.589100  0.979300  0.813600  1.0  -0.2136
  N  N307  1  0.089100  0.479300  0.813600  1.0  -0.2136
  N  N308  1  0.089100  0.979300  0.313600  1.0  -0.2136
  N  N309  1  0.089100  0.770700  0.436400  1.0  -0.2128
  N  N310  1  0.089100  0.270700  0.936400  1.0  -0.2128
  N  N311  1  0.589100  0.770700  0.936400  1.0  -0.2128
  N  N312  1  0.589100  0.270700  0.436400  1.0  -0.2128
  N  N313  1  0.660900  0.270700  0.813600  1.0  -0.2136
  N  N314  1  0.660900  0.770700  0.313600  1.0  -0.2136
  N  N315  1  0.160900  0.270700  0.313600  1.0  -0.2136
  N  N316  1  0.160900  0.770700  0.813600  1.0  -0.2136
  N  N317  1  0.160900  0.979300  0.936400  1.0  -0.2132
  N  N318  1  0.160900  0.479300  0.436400  1.0  -0.2132
  N  N319  1  0.660900  0.979300  0.436400  1.0  -0.2132
  N  N320  1  0.660900  0.479300  0.936400  1.0  -0.2132
  N  N321  1  0.313600  0.589100  0.479300  1.0  -0.2152
  N  N322  1  0.313600  0.089100  0.979300  1.0  -0.2152
  N  N323  1  0.813600  0.589100  0.979300  1.0  -0.2152
  N  N324  1  0.813600  0.089100  0.479300  1.0  -0.2152
  N  N325  1  0.436400  0.089100  0.770700  1.0  -0.2147
  N  N326  1  0.436400  0.589100  0.270700  1.0  -0.2147
  N  N327  1  0.936400  0.089100  0.270700  1.0  -0.2147
  N  N328  1  0.936400  0.589100  0.770700  1.0  -0.2147
  N  N329  1  0.813600  0.660900  0.270700  1.0  -0.2154
  N  N330  1  0.813600  0.160900  0.770700  1.0  -0.2154
  N  N331  1  0.313600  0.660900  0.770700  1.0  -0.2154
  N  N332  1  0.313600  0.160900  0.270700  1.0  -0.2154
  N  N333  1  0.936400  0.160900  0.979300  1.0  -0.2142
  N  N334  1  0.936400  0.660900  0.479300  1.0  -0.2142
  N  N335  1  0.436400  0.160900  0.479300  1.0  -0.2142
  N  N336  1  0.436400  0.660900  0.979300  1.0  -0.2142
  N  N337  1  0.063600  0.729300  0.410900  1.0  -0.2166
  N  N338  1  0.063600  0.229300  0.910900  1.0  -0.2166
  N  N339  1  0.563600  0.729300  0.910900  1.0  -0.2166
  N  N340  1  0.563600  0.229300  0.410900  1.0  -0.2166
  N  N341  1  0.186400  0.020700  0.910900  1.0  -0.2152
  N  N342  1  0.186400  0.520700  0.410900  1.0  -0.2152
  N  N343  1  0.686400  0.020700  0.410900  1.0  -0.2152
  N  N344  1  0.686400  0.520700  0.910900  1.0  -0.2152
  N  N345  1  0.563600  0.520700  0.339100  1.0  -0.2162
  N  N346  1  0.563600  0.020700  0.839100  1.0  -0.2162
  N  N347  1  0.063600  0.520700  0.839100  1.0  -0.2162
  N  N348  1  0.063600  0.020700  0.339100  1.0  -0.2162
  N  N349  1  0.686400  0.229300  0.839100  1.0  -0.2153
  N  N350  1  0.686400  0.729300  0.339100  1.0  -0.2153
  N  N351  1  0.186400  0.229300  0.339100  1.0  -0.2153
  N  N352  1  0.186400  0.729300  0.839100  1.0  -0.2153
  N  N353  1  0.229300  0.839100  0.686400  1.0  -0.2141
  N  N354  1  0.229300  0.339100  0.186400  1.0  -0.2141
  N  N355  1  0.729300  0.839100  0.186400  1.0  -0.2141
  N  N356  1  0.729300  0.339100  0.686400  1.0  -0.2141
  N  N357  1  0.520700  0.339100  0.563600  1.0  -0.2138
  N  N358  1  0.520700  0.839100  0.063600  1.0  -0.2138
  N  N359  1  0.020700  0.339100  0.063600  1.0  -0.2138
  N  N360  1  0.020700  0.839100  0.563600  1.0  -0.2138
  N  N361  1  0.020700  0.910900  0.186400  1.0  -0.2128
  N  N362  1  0.020700  0.410900  0.686400  1.0  -0.2128
  N  N363  1  0.520700  0.910900  0.686400  1.0  -0.2128
  N  N364  1  0.520700  0.410900  0.186400  1.0  -0.2128
  N  N365  1  0.729300  0.410900  0.063600  1.0  -0.2143
  N  N366  1  0.729300  0.910900  0.563600  1.0  -0.2143
  N  N367  1  0.229300  0.410900  0.563600  1.0  -0.2143
  N  N368  1  0.229300  0.910900  0.063600  1.0  -0.2143
  N  N369  1  0.339100  0.563600  0.520700  1.0  -0.213
  N  N370  1  0.339100  0.063600  0.020700  1.0  -0.213
  N  N371  1  0.839100  0.563600  0.020700  1.0  -0.213
  N  N372  1  0.839100  0.063600  0.520700  1.0  -0.213
  N  N373  1  0.839100  0.686400  0.229300  1.0  -0.2129
  N  N374  1  0.839100  0.186400  0.729300  1.0  -0.2129
  N  N375  1  0.339100  0.686400  0.729300  1.0  -0.2129
  N  N376  1  0.339100  0.186400  0.229300  1.0  -0.2129
  N  N377  1  0.410900  0.063600  0.729300  1.0  -0.2127
  N  N378  1  0.410900  0.563600  0.229300  1.0  -0.2127
  N  N379  1  0.910900  0.063600  0.229300  1.0  -0.2127
  N  N380  1  0.910900  0.563600  0.729300  1.0  -0.2127
  N  N381  1  0.910900  0.186400  0.020700  1.0  -0.2141
  N  N382  1  0.910900  0.686400  0.520700  1.0  -0.2141
  N  N383  1  0.410900  0.186400  0.520700  1.0  -0.2141
  N  N384  1  0.410900  0.686400  0.020700  1.0  -0.2141
  N  N385  1  0.520700  0.686400  0.410900  1.0  -0.2108
  N  N386  1  0.520700  0.186400  0.910900  1.0  -0.2108
  N  N387  1  0.020700  0.686400  0.910900  1.0  -0.2108
  N  N388  1  0.020700  0.186400  0.410900  1.0  -0.2108
  N  N389  1  0.229300  0.563600  0.910900  1.0  -0.2111
  N  N390  1  0.229300  0.063600  0.410900  1.0  -0.2111
  N  N391  1  0.729300  0.563600  0.410900  1.0  -0.2111
  N  N392  1  0.729300  0.063600  0.910900  1.0  -0.2111
  N  N393  1  0.729300  0.186400  0.339100  1.0  -0.2121
  N  N394  1  0.729300  0.686400  0.839100  1.0  -0.2121
  N  N395  1  0.229300  0.186400  0.839100  1.0  -0.2121
  N  N396  1  0.229300  0.686400  0.339100  1.0  -0.2121
  N  N397  1  0.020700  0.063600  0.839100  1.0  -0.2101
  N  N398  1  0.020700  0.563600  0.339100  1.0  -0.2101
  N  N399  1  0.520700  0.063600  0.339100  1.0  -0.2101
  N  N400  1  0.520700  0.563600  0.839100  1.0  -0.2101
  N  N401  1  0.410900  0.520700  0.686400  1.0  -0.213
  N  N402  1  0.410900  0.020700  0.186400  1.0  -0.213
  N  N403  1  0.910900  0.520700  0.186400  1.0  -0.213
  N  N404  1  0.910900  0.020700  0.686400  1.0  -0.213
  N  N405  1  0.910900  0.229300  0.563600  1.0  -0.214
  N  N406  1  0.910900  0.729300  0.063600  1.0  -0.214
  N  N407  1  0.410900  0.229300  0.063600  1.0  -0.214
  N  N408  1  0.410900  0.729300  0.563600  1.0  -0.214
  N  N409  1  0.339100  0.729300  0.186400  1.0  -0.2129
  N  N410  1  0.339100  0.229300  0.686400  1.0  -0.2129
  N  N411  1  0.839100  0.729300  0.686400  1.0  -0.2129
  N  N412  1  0.839100  0.229300  0.186400  1.0  -0.2129
  N  N413  1  0.839100  0.020700  0.063600  1.0  -0.2132
  N  N414  1  0.839100  0.520700  0.563600  1.0  -0.2132
  N  N415  1  0.339100  0.020700  0.563600  1.0  -0.2132
  N  N416  1  0.339100  0.520700  0.063600  1.0  -0.2132
  N  N417  1  0.686400  0.410900  0.520700  1.0  -0.2142
  N  N418  1  0.686400  0.910900  0.020700  1.0  -0.2142
  N  N419  1  0.186400  0.410900  0.020700  1.0  -0.2142
  N  N420  1  0.186400  0.910900  0.520700  1.0  -0.2142
  N  N421  1  0.563600  0.910900  0.229300  1.0  -0.2141
  N  N422  1  0.563600  0.410900  0.729300  1.0  -0.2141
  N  N423  1  0.063600  0.910900  0.729300  1.0  -0.2141
  N  N424  1  0.063600  0.410900  0.229300  1.0  -0.2141
  N  N425  1  0.186400  0.339100  0.729300  1.0  -0.2139
  N  N426  1  0.186400  0.839100  0.229300  1.0  -0.2139
  N  N427  1  0.686400  0.339100  0.229300  1.0  -0.2139
  N  N428  1  0.686400  0.839100  0.729300  1.0  -0.2139
  N  N429  1  0.063600  0.839100  0.020700  1.0  -0.2149
  N  N430  1  0.063600  0.339100  0.520700  1.0  -0.2149
  N  N431  1  0.563600  0.839100  0.520700  1.0  -0.2149
  N  N432  1  0.563600  0.339100  0.020700  1.0  -0.2149
  N  N433  1  0.936400  0.270700  0.589100  1.0  -0.2138
  N  N434  1  0.936400  0.770700  0.089100  1.0  -0.2138
  N  N435  1  0.436400  0.270700  0.089100  1.0  -0.2138
  N  N436  1  0.436400  0.770700  0.589100  1.0  -0.2138
  N  N437  1  0.813600  0.979300  0.089100  1.0  -0.2151
  N  N438  1  0.813600  0.479300  0.589100  1.0  -0.2151
  N  N439  1  0.313600  0.979300  0.589100  1.0  -0.2151
  N  N440  1  0.313600  0.479300  0.089100  1.0  -0.2151
  N  N441  1  0.436400  0.479300  0.660900  1.0  -0.214
  N  N442  1  0.436400  0.979300  0.160900  1.0  -0.214
  N  N443  1  0.936400  0.479300  0.160900  1.0  -0.214
  N  N444  1  0.936400  0.979300  0.660900  1.0  -0.214
  N  N445  1  0.313600  0.770700  0.160900  1.0  -0.215
  N  N446  1  0.313600  0.270700  0.660900  1.0  -0.215
  N  N447  1  0.813600  0.770700  0.660900  1.0  -0.215
  N  N448  1  0.813600  0.270700  0.160900  1.0  -0.215
  N  N449  1  0.770700  0.160900  0.313600  1.0  -0.2132
  N  N450  1  0.770700  0.660900  0.813600  1.0  -0.2132
  N  N451  1  0.270700  0.160900  0.813600  1.0  -0.2132
  N  N452  1  0.270700  0.660900  0.313600  1.0  -0.2132
  N  N453  1  0.479300  0.660900  0.436400  1.0  -0.2139
  N  N454  1  0.479300  0.160900  0.936400  1.0  -0.2139
  N  N455  1  0.979300  0.660900  0.936400  1.0  -0.2139
  N  N456  1  0.979300  0.160900  0.436400  1.0  -0.2139
  N  N457  1  0.979300  0.089100  0.813600  1.0  -0.2148
  N  N458  1  0.979300  0.589100  0.313600  1.0  -0.2148
  N  N459  1  0.479300  0.089100  0.313600  1.0  -0.2148
  N  N460  1  0.479300  0.589100  0.813600  1.0  -0.2148
  N  N461  1  0.270700  0.589100  0.936400  1.0  -0.213
  N  N462  1  0.270700  0.089100  0.436400  1.0  -0.213
  N  N463  1  0.770700  0.589100  0.436400  1.0  -0.213
  N  N464  1  0.770700  0.089100  0.936400  1.0  -0.213
  N  N465  1  0.660900  0.436400  0.479300  1.0  -0.2133
  N  N466  1  0.660900  0.936400  0.979300  1.0  -0.2133
  N  N467  1  0.160900  0.436400  0.979300  1.0  -0.2133
  N  N468  1  0.160900  0.936400  0.479300  1.0  -0.2133
  N  N469  1  0.160900  0.313600  0.770700  1.0  -0.2133
  N  N470  1  0.160900  0.813600  0.270700  1.0  -0.2133
  N  N471  1  0.660900  0.313600  0.270700  1.0  -0.2133
  N  N472  1  0.660900  0.813600  0.770700  1.0  -0.2133
  N  N473  1  0.589100  0.936400  0.270700  1.0  -0.2139
  N  N474  1  0.589100  0.436400  0.770700  1.0  -0.2139
  N  N475  1  0.089100  0.936400  0.770700  1.0  -0.2139
  N  N476  1  0.089100  0.436400  0.270700  1.0  -0.2139
  N  N477  1  0.089100  0.813600  0.979300  1.0  -0.2123
  N  N478  1  0.089100  0.313600  0.479300  1.0  -0.2123
  N  N479  1  0.589100  0.813600  0.479300  1.0  -0.2123
  N  N480  1  0.589100  0.313600  0.979300  1.0  -0.2123
  N  N481  1  0.500000  0.386400  0.636400  1.0  -0.2992
  N  N482  1  0.500000  0.886400  0.136400  1.0  -0.2992
  N  N483  1  0.000000  0.386400  0.136400  1.0  -0.2992
  N  N484  1  0.000000  0.886400  0.636400  1.0  -0.2992
  N  N485  1  0.750000  0.363600  0.136400  1.0  -0.3002
  N  N486  1  0.750000  0.863600  0.636400  1.0  -0.3002
  N  N487  1  0.250000  0.363600  0.636400  1.0  -0.3002
  N  N488  1  0.250000  0.863600  0.136400  1.0  -0.3002
  N  N489  1  0.250000  0.886400  0.613600  1.0  -0.2998
  N  N490  1  0.250000  0.386400  0.113600  1.0  -0.2998
  N  N491  1  0.750000  0.886400  0.113600  1.0  -0.2998
  N  N492  1  0.750000  0.386400  0.613600  1.0  -0.2998
  N  N493  1  0.000000  0.863600  0.113600  1.0  -0.3004
  N  N494  1  0.000000  0.363600  0.613600  1.0  -0.3004
  N  N495  1  0.500000  0.863600  0.613600  1.0  -0.3004
  N  N496  1  0.500000  0.363600  0.113600  1.0  -0.3004
  N  N497  1  0.636400  0.500000  0.386400  1.0  -0.2989
  N  N498  1  0.636400  0.000000  0.886400  1.0  -0.2989
  N  N499  1  0.136400  0.500000  0.886400  1.0  -0.2989
  N  N500  1  0.136400  0.000000  0.386400  1.0  -0.2989
  N  N501  1  0.136400  0.750000  0.363600  1.0  -0.2996
  N  N502  1  0.136400  0.250000  0.863600  1.0  -0.2996
  N  N503  1  0.636400  0.750000  0.863600  1.0  -0.2996
  N  N504  1  0.636400  0.250000  0.363600  1.0  -0.2996
  N  N505  1  0.613600  0.250000  0.886400  1.0  -0.3007
  N  N506  1  0.613600  0.750000  0.386400  1.0  -0.3007
  N  N507  1  0.113600  0.250000  0.386400  1.0  -0.3007
  N  N508  1  0.113600  0.750000  0.886400  1.0  -0.3007
  N  N509  1  0.113600  0.000000  0.863600  1.0  -0.301
  N  N510  1  0.113600  0.500000  0.363600  1.0  -0.301
  N  N511  1  0.613600  0.000000  0.363600  1.0  -0.301
  N  N512  1  0.613600  0.500000  0.863600  1.0  -0.301
  N  N513  1  0.386400  0.636400  0.500000  1.0  -0.2995
  N  N514  1  0.386400  0.136400  0.000000  1.0  -0.2995
  N  N515  1  0.886400  0.636400  0.000000  1.0  -0.2995
  N  N516  1  0.886400  0.136400  0.500000  1.0  -0.2995
  N  N517  1  0.363600  0.136400  0.750000  1.0  -0.3009
  N  N518  1  0.363600  0.636400  0.250000  1.0  -0.3009
  N  N519  1  0.863600  0.136400  0.250000  1.0  -0.3009
  N  N520  1  0.863600  0.636400  0.750000  1.0  -0.3009
  N  N521  1  0.886400  0.613600  0.250000  1.0  -0.2996
  N  N522  1  0.886400  0.113600  0.750000  1.0  -0.2996
  N  N523  1  0.386400  0.613600  0.750000  1.0  -0.2996
  N  N524  1  0.386400  0.113600  0.250000  1.0  -0.2996
  N  N525  1  0.863600  0.113600  0.000000  1.0  -0.3015
  N  N526  1  0.863600  0.613600  0.500000  1.0  -0.3015
  N  N527  1  0.363600  0.113600  0.500000  1.0  -0.3015
  N  N528  1  0.363600  0.613600  0.000000  1.0  -0.3015
  N  N529  1  0.500000  0.613600  0.363600  1.0  -0.3004
  N  N530  1  0.500000  0.113600  0.863600  1.0  -0.3004
  N  N531  1  0.000000  0.613600  0.863600  1.0  -0.3004
  N  N532  1  0.000000  0.113600  0.363600  1.0  -0.3004
  N  N533  1  0.250000  0.636400  0.863600  1.0  -0.2998
  N  N534  1  0.250000  0.136400  0.363600  1.0  -0.2998
  N  N535  1  0.750000  0.636400  0.363600  1.0  -0.2998
  N  N536  1  0.750000  0.136400  0.863600  1.0  -0.2998
  N  N537  1  0.750000  0.113600  0.386400  1.0  -0.3002
  N  N538  1  0.750000  0.613600  0.886400  1.0  -0.3002
  N  N539  1  0.250000  0.113600  0.886400  1.0  -0.3002
  N  N540  1  0.250000  0.613600  0.386400  1.0  -0.3002
  N  N541  1  0.000000  0.136400  0.886400  1.0  -0.2992
  N  N542  1  0.000000  0.636400  0.386400  1.0  -0.2992
  N  N543  1  0.500000  0.136400  0.386400  1.0  -0.2992
  N  N544  1  0.500000  0.636400  0.886400  1.0  -0.2992
  N  N545  1  0.363600  0.500000  0.613600  1.0  -0.301
  N  N546  1  0.363600  0.000000  0.113600  1.0  -0.301
  N  N547  1  0.863600  0.500000  0.113600  1.0  -0.301
  N  N548  1  0.863600  0.000000  0.613600  1.0  -0.301
  N  N549  1  0.863600  0.250000  0.636400  1.0  -0.3007
  N  N550  1  0.863600  0.750000  0.136400  1.0  -0.3007
  N  N551  1  0.363600  0.250000  0.136400  1.0  -0.3007
  N  N552  1  0.363600  0.750000  0.636400  1.0  -0.3007
  N  N553  1  0.386400  0.750000  0.113600  1.0  -0.2996
  N  N554  1  0.386400  0.250000  0.613600  1.0  -0.2996
  N  N555  1  0.886400  0.750000  0.613600  1.0  -0.2996
  N  N556  1  0.886400  0.250000  0.113600  1.0  -0.2996
  N  N557  1  0.886400  0.000000  0.136400  1.0  -0.2989
  N  N558  1  0.886400  0.500000  0.636400  1.0  -0.2989
  N  N559  1  0.386400  0.000000  0.636400  1.0  -0.2989
  N  N560  1  0.386400  0.500000  0.136400  1.0  -0.2989
  N  N561  1  0.613600  0.363600  0.500000  1.0  -0.3015
  N  N562  1  0.613600  0.863600  0.000000  1.0  -0.3015
  N  N563  1  0.113600  0.363600  0.000000  1.0  -0.3015
  N  N564  1  0.113600  0.863600  0.500000  1.0  -0.3015
  N  N565  1  0.636400  0.863600  0.250000  1.0  -0.2996
  N  N566  1  0.636400  0.363600  0.750000  1.0  -0.2996
  N  N567  1  0.136400  0.863600  0.750000  1.0  -0.2996
  N  N568  1  0.136400  0.363600  0.250000  1.0  -0.2996
  N  N569  1  0.113600  0.386400  0.750000  1.0  -0.3009
  N  N570  1  0.113600  0.886400  0.250000  1.0  -0.3009
  N  N571  1  0.613600  0.386400  0.250000  1.0  -0.3009
  N  N572  1  0.613600  0.886400  0.750000  1.0  -0.3009
  N  N573  1  0.136400  0.886400  0.000000  1.0  -0.2995
  N  N574  1  0.136400  0.386400  0.500000  1.0  -0.2995
  N  N575  1  0.636400  0.886400  0.500000  1.0  -0.2995
  N  N576  1  0.636400  0.386400  0.000000  1.0  -0.2995
  O  O577  1  0.500000  0.500000  0.750000  1.0  -0.7448
  O  O578  1  0.500000  0.000000  0.250000  1.0  -0.7448
  O  O579  1  0.750000  0.250000  0.250000  1.0  -0.7448
  O  O580  1  0.750000  0.750000  0.750000  1.0  -0.7448
  O  O581  1  0.250000  0.000000  0.500000  1.0  -0.7448
  O  O582  1  0.250000  0.500000  0.000000  1.0  -0.7448
  O  O583  1  0.000000  0.750000  0.000000  1.0  -0.7448
  O  O584  1  0.000000  0.250000  0.500000  1.0  -0.7448
  O  O585  1  0.750000  0.500000  0.500000  1.0  -0.7448
  O  O586  1  0.250000  0.750000  0.250000  1.0  -0.7448
  O  O587  1  0.500000  0.250000  0.000000  1.0  -0.7448
  O  O588  1  0.000000  0.000000  0.750000  1.0  -0.7448
  O  O589  1  0.500000  0.750000  0.500000  1.0  -0.7448
  O  O590  1  0.250000  0.250000  0.750000  1.0  -0.7448
  O  O591  1  0.000000  0.500000  0.250000  1.0  -0.7448
  O  O592  1  0.750000  0.000000  0.000000  1.0  -0.7448
  O  O593  1  0.500000  0.500000  0.250000  1.0  -0.7448
  O  O594  1  0.500000  0.000000  0.750000  1.0  -0.7448
  O  O595  1  0.250000  0.750000  0.750000  1.0  -0.7448
  O  O596  1  0.250000  0.250000  0.250000  1.0  -0.7448
  O  O597  1  0.750000  0.000000  0.500000  1.0  -0.7448
  O  O598  1  0.750000  0.500000  0.000000  1.0  -0.7448
  O  O599  1  0.000000  0.250000  0.000000  1.0  -0.7448
  O  O600  1  0.000000  0.750000  0.500000  1.0  -0.7448
  O  O601  1  0.250000  0.500000  0.500000  1.0  -0.7448
  O  O602  1  0.750000  0.250000  0.750000  1.0  -0.7448
  O  O603  1  0.500000  0.750000  0.000000  1.0  -0.7448
  O  O604  1  0.000000  0.000000  0.250000  1.0  -0.7448
  O  O605  1  0.500000  0.250000  0.500000  1.0  -0.7448
  O  O606  1  0.750000  0.750000  0.250000  1.0  -0.7448
  O  O607  1  0.000000  0.500000  0.750000  1.0  -0.7448
  O  O608  1  0.250000  0.000000  0.000000  1.0  -0.7448
