# generated using pymatgen
data_EuH4(C2O3)2
_symmetry_space_group_name_H-M   'P 1'
_cell_length_a   9.48910000
_cell_length_b   9.54610000
_cell_length_c   10.98420000
_cell_angle_alpha   90.00000000
_cell_angle_beta   90.00000000
_cell_angle_gamma   90.00000000
_symmetry_Int_Tables_number   1
_chemical_formula_structural   EuH4(C2O3)2
_chemical_formula_sum   'Eu4 H16 C16 O24'
_cell_volume   994.99164703
_cell_formula_units_Z   4
loop_
 _symmetry_equiv_pos_site_id
 _symmetry_equiv_pos_as_xyz
  1  'x, y, z'
loop_
 _atom_site_type_symbol
 _atom_site_label
 _atom_site_symmetry_multiplicity
 _atom_site_fract_x
 _atom_site_fract_y
 _atom_site_fract_z
 _atom_site_occupancy
 _atom_site_charge
  Eu  Eu1  1  0.181890  0.193230  0.184580  1.0  2.0583
  Eu  Eu2  1  0.318110  0.806770  0.684580  1.0  2.0583
  Eu  Eu3  1  0.818110  0.693230  0.315420  1.0  2.0543
  Eu  Eu4  1  0.681890  0.306770  0.815420  1.0  2.0538
  H  H5  1  0.723500  0.187900  0.137500  1.0  0.2088
  H  H6  1  0.824300  0.343800  0.037100  1.0  0.3433
  H  H7  1  0.676800  0.285900  0.318100  1.0  0.1741
  H  H8  1  0.580100  0.455900  0.317800  1.0  0.0645
  H  H9  1  0.776500  0.812100  0.637500  1.0  0.2149
  H  H10  1  0.675700  0.656200  0.537100  1.0  0.3461
  H  H11  1  0.823200  0.714100  0.818100  1.0  0.1734
  H  H12  1  0.919900  0.544100  0.817800  1.0  0.0645
  H  H13  1  0.276500  0.687900  0.362500  1.0  0.2074
  H  H14  1  0.175700  0.843800  0.462900  1.0  0.346
  H  H15  1  0.323200  0.785900  0.181900  1.0  0.1726
  H  H16  1  0.419900  0.955900  0.182200  1.0  0.0637
  H  H17  1  0.223500  0.312100  0.862500  1.0  0.2159
  H  H18  1  0.324300  0.156200  0.962900  1.0  0.3444
  H  H19  1  0.176800  0.214100  0.681900  1.0  0.1721
  H  H20  1  0.080100  0.044100  0.682200  1.0  0.0647
  C  C21  1  0.538400  0.260900  0.103100  1.0  0.6609
  C  C22  1  0.696600  0.276100  0.136400  1.0  -0.0283
  C  C23  1  0.717900  0.337000  0.262100  1.0  -0.042
  C  C24  1  0.876100  0.338500  0.292800  1.0  0.6824
  C  C25  1  0.961600  0.739100  0.603100  1.0  0.6595
  C  C26  1  0.803400  0.723900  0.636400  1.0  -0.0272
  C  C27  1  0.782100  0.663000  0.762100  1.0  -0.0414
  C  C28  1  0.623900  0.661500  0.792800  1.0  0.68
  C  C29  1  0.461600  0.760900  0.396900  1.0  0.6595
  C  C30  1  0.303400  0.776100  0.363600  1.0  -0.0269
  C  C31  1  0.282100  0.837000  0.237900  1.0  -0.0425
  C  C32  1  0.123900  0.838500  0.207200  1.0  0.6797
  C  C33  1  0.038400  0.239100  0.896900  1.0  0.6609
  C  C34  1  0.196600  0.223900  0.863600  1.0  -0.026
  C  C35  1  0.217900  0.163000  0.737900  1.0  -0.0431
  C  C36  1  0.376100  0.161500  0.707200  1.0  0.6791
  O  O37  1  0.452000  0.242500  0.186600  1.0  -0.685
  O  O38  1  0.510800  0.261400  0.991200  1.0  -0.6149
  O  O39  1  0.765400  0.355700  0.044500  1.0  -0.7875
  O  O40  1  0.660200  0.473600  0.272200  1.0  -0.6117
  O  O41  1  0.940100  0.223900  0.285200  1.0  -0.7056
  O  O42  1  0.930400  0.452400  0.327100  1.0  -0.7187
  O  O43  1  0.048000  0.757500  0.686600  1.0  -0.6853
  O  O44  1  0.989200  0.738600  0.491200  1.0  -0.6155
  O  O45  1  0.734600  0.644300  0.544500  1.0  -0.7908
  O  O46  1  0.839800  0.526400  0.772200  1.0  -0.6124
  O  O47  1  0.559900  0.776100  0.785200  1.0  -0.705
  O  O48  1  0.569600  0.547600  0.827100  1.0  -0.716
  O  O49  1  0.548000  0.742500  0.313400  1.0  -0.6828
  O  O50  1  0.489200  0.761400  0.508800  1.0  -0.6135
  O  O51  1  0.234600  0.855700  0.455500  1.0  -0.7907
  O  O52  1  0.339800  0.973600  0.227800  1.0  -0.6099
  O  O53  1  0.059900  0.723900  0.214800  1.0  -0.7064
  O  O54  1  0.069600  0.952400  0.172900  1.0  -0.7159
  O  O55  1  0.952000  0.257500  0.813400  1.0  -0.6823
  O  O56  1  0.010800  0.238600  0.008800  1.0  -0.6134
  O  O57  1  0.265400  0.144300  0.955500  1.0  -0.7876
  O  O58  1  0.160200  0.026400  0.727800  1.0  -0.6126
  O  O59  1  0.440100  0.276100  0.714800  1.0  -0.7068
  O  O60  1  0.430400  0.047600  0.672900  1.0  -0.7153
