# generated using pymatgen
data_Sr(C2O3)2
_symmetry_space_group_name_H-M   'P 1'
_cell_length_a   9.49210000
_cell_length_b   9.53940000
_cell_length_c   11.01340000
_cell_angle_alpha   90.00000000
_cell_angle_beta   90.00000000
_cell_angle_gamma   90.00000000
_symmetry_Int_Tables_number   1
_chemical_formula_structural   Sr(C2O3)2
_chemical_formula_sum   'Sr4 C16 O24'
_cell_volume   997.25168192
_cell_formula_units_Z   4
loop_
 _symmetry_equiv_pos_site_id
 _symmetry_equiv_pos_as_xyz
  1  'x, y, z'
loop_
 _atom_site_type_symbol
 _atom_site_label
 _atom_site_symmetry_multiplicity
 _atom_site_fract_x
 _atom_site_fract_y
 _atom_site_fract_z
 _atom_site_occupancy
 _atom_site_charge
  Sr  Sr1  1  0.181480  0.192970  0.184740  1.0  1.6341
  Sr  Sr2  1  0.318520  0.807030  0.684740  1.0  1.6342
  Sr  Sr3  1  0.818520  0.692970  0.315260  1.0  1.6342
  Sr  Sr4  1  0.681480  0.307030  0.815260  1.0  1.6337
  C  C5  1  0.538300  0.259700  0.102800  1.0  0.644
  C  C6  1  0.696000  0.274200  0.135600  1.0  0.1824
  C  C7  1  0.717300  0.335300  0.262800  1.0  0.2234
  C  C8  1  0.875200  0.338000  0.293600  1.0  0.6257
  C  C9  1  0.961700  0.740300  0.602800  1.0  0.6437
  C  C10  1  0.804000  0.725800  0.635600  1.0  0.1788
  C  C11  1  0.782700  0.664700  0.762800  1.0  0.2268
  C  C12  1  0.624800  0.662000  0.793600  1.0  0.6238
  C  C13  1  0.461700  0.759700  0.397200  1.0  0.6438
  C  C14  1  0.304000  0.774200  0.364400  1.0  0.1809
  C  C15  1  0.282700  0.835300  0.237200  1.0  0.2301
  C  C16  1  0.124800  0.838000  0.206400  1.0  0.6258
  C  C17  1  0.038300  0.240300  0.897200  1.0  0.6442
  C  C18  1  0.196000  0.225800  0.864400  1.0  0.1807
  C  C19  1  0.217300  0.164700  0.737200  1.0  0.2286
  C  C20  1  0.375200  0.162000  0.706400  1.0  0.6263
  O  O21  1  0.451900  0.243200  0.186300  1.0  -0.6181
  O  O22  1  0.510900  0.260800  0.990200  1.0  -0.6225
  O  O23  1  0.766800  0.355500  0.044200  1.0  -0.3691
  O  O24  1  0.659200  0.473700  0.271400  1.0  -0.4284
  O  O25  1  0.939800  0.223000  0.284900  1.0  -0.6418
  O  O26  1  0.930100  0.452200  0.326300  1.0  -0.6332
  O  O27  1  0.048100  0.756800  0.686300  1.0  -0.6181
  O  O28  1  0.989100  0.739200  0.490200  1.0  -0.6216
  O  O29  1  0.733200  0.644500  0.544200  1.0  -0.3719
  O  O30  1  0.840800  0.526300  0.771400  1.0  -0.4262
  O  O31  1  0.560200  0.777000  0.784900  1.0  -0.6384
  O  O32  1  0.569900  0.547800  0.826300  1.0  -0.6342
  O  O33  1  0.548100  0.743200  0.313700  1.0  -0.618
  O  O34  1  0.489100  0.760800  0.509800  1.0  -0.6202
  O  O35  1  0.233200  0.855500  0.455800  1.0  -0.3734
  O  O36  1  0.340800  0.973700  0.228600  1.0  -0.4267
  O  O37  1  0.060200  0.723000  0.215100  1.0  -0.6394
  O  O38  1  0.069900  0.952200  0.173700  1.0  -0.6342
  O  O39  1  0.951900  0.256800  0.813700  1.0  -0.6185
  O  O40  1  0.010900  0.239200  0.009800  1.0  -0.621
  O  O41  1  0.266800  0.144500  0.955800  1.0  -0.3719
  O  O42  1  0.159200  0.026300  0.728600  1.0  -0.4263
  O  O43  1  0.439800  0.277000  0.715100  1.0  -0.6387
  O  O44  1  0.430100  0.047800  0.673700  1.0  -0.6331
