# generated using pymatgen
data_FeSn2H18(C2N)6
_symmetry_space_group_name_H-M   'P 1'
_cell_length_a   19.67960000
_cell_length_b   15.56840000
_cell_length_c   28.59780000
_cell_angle_alpha   90.00000000
_cell_angle_beta   103.83000000
_cell_angle_gamma   90.00000000
_symmetry_Int_Tables_number   1
_chemical_formula_structural   FeSn2H18(C2N)6
_chemical_formula_sum   'Fe8 Sn16 H144 C96 N48'
_cell_volume   8507.77979072
_cell_formula_units_Z   8
loop_
 _symmetry_equiv_pos_site_id
 _symmetry_equiv_pos_as_xyz
  1  'x, y, z'
loop_
 _atom_site_type_symbol
 _atom_site_label
 _atom_site_symmetry_multiplicity
 _atom_site_fract_x
 _atom_site_fract_y
 _atom_site_fract_z
 _atom_site_occupancy
 _atom_site_charge
  Fe  Fe1  1  0.758870  0.960300  0.130060  1.0  -0.5219
  Fe  Fe2  1  0.756060  0.488200  0.875200  1.0  -0.3415
  Fe  Fe3  1  0.741130  0.460300  0.369940  1.0  -0.522
  Fe  Fe4  1  0.743940  0.988200  0.624800  1.0  -0.3389
  Fe  Fe5  1  0.241130  0.039700  0.869940  1.0  -0.5217
  Fe  Fe6  1  0.243940  0.511800  0.124800  1.0  -0.34
  Fe  Fe7  1  0.258870  0.539700  0.630060  1.0  -0.5215
  Fe  Fe8  1  0.256060  0.011800  0.375200  1.0  -0.3418
  Sn  Sn9  1  0.767110  0.728160  0.004100  1.0  1.1273
  Sn  Sn10  1  0.746880  0.265730  0.735310  1.0  1.1422
  Sn  Sn11  1  0.773800  0.671350  0.235640  1.0  1.1556
  Sn  Sn12  1  0.006660  0.990420  0.253780  1.0  1.1674
  Sn  Sn13  1  0.732890  0.228160  0.495900  1.0  1.1272
  Sn  Sn14  1  0.753120  0.765730  0.764690  1.0  1.1424
  Sn  Sn15  1  0.726200  0.171350  0.264360  1.0  1.1561
  Sn  Sn16  1  0.493340  0.490420  0.246220  1.0  1.1664
  Sn  Sn17  1  0.232890  0.271840  0.995900  1.0  1.1271
  Sn  Sn18  1  0.253120  0.734270  0.264690  1.0  1.1426
  Sn  Sn19  1  0.226200  0.328650  0.764360  1.0  1.1559
  Sn  Sn20  1  0.993340  0.009580  0.746220  1.0  1.1662
  Sn  Sn21  1  0.267110  0.771840  0.504100  1.0  1.1272
  Sn  Sn22  1  0.246880  0.234270  0.235310  1.0  1.1424
  Sn  Sn23  1  0.273800  0.828650  0.735640  1.0  1.1553
  Sn  Sn24  1  0.506660  0.509580  0.753780  1.0  1.1672
  H  H25  1  0.870900  0.709000  0.962800  1.0  0.1419
  H  H26  1  0.866200  0.808600  0.975500  1.0  0.1445
  H  H27  1  0.813700  0.769100  0.928900  1.0  0.1437
  H  H28  1  0.803400  0.694000  0.096000  1.0  0.1302
  H  H29  1  0.844700  0.629300  0.069200  1.0  0.1385
  H  H30  1  0.764600  0.611200  0.069000  1.0  0.1359
  H  H31  1  0.631900  0.722500  0.971100  1.0  0.1445
  H  H32  1  0.659000  0.812300  0.955100  1.0  0.1434
  H  H33  1  0.649500  0.800100  0.008800  1.0  0.1473
  H  H34  1  0.880000  0.294100  0.743800  1.0  0.142
  H  H35  1  0.838000  0.337200  0.694500  1.0  0.1313
  H  H36  1  0.852300  0.235900  0.696900  1.0  0.1519
  H  H37  1  0.650200  0.383800  0.711200  1.0  0.1741
  H  H38  1  0.614500  0.292600  0.695600  1.0  0.1214
  H  H39  1  0.659300  0.338400  0.662800  1.0  0.1454
  H  H40  1  0.707000  0.131800  0.777200  1.0  0.1376
  H  H41  1  0.718900  0.209600  0.814900  1.0  0.1352
  H  H42  1  0.784500  0.156500  0.806400  1.0  0.1351
  H  H43  1  0.792100  0.728400  0.323900  1.0  0.1341
  H  H44  1  0.721200  0.769400  0.292500  1.0  0.1232
  H  H45  1  0.795100  0.809000  0.289700  1.0  0.1541
  H  H46  1  0.896600  0.602900  0.242400  1.0  0.1462
  H  H47  1  0.896500  0.695800  0.218400  1.0  0.1463
  H  H48  1  0.860700  0.616100  0.186500  1.0  0.1401
  H  H49  1  0.640800  0.641200  0.201200  1.0  0.1459
  H  H50  1  0.682200  0.553400  0.199200  1.0  0.1374
  H  H51  1  0.679900  0.625300  0.158900  1.0  0.1374
  H  H52  1  0.087200  0.880700  0.223800  1.0  0.1179
  H  H53  1  0.051300  0.940500  0.179300  1.0  0.1271
  H  H54  1  0.117200  0.975000  0.219100  1.0  0.191
  H  H55  1  0.969500  0.138800  0.281900  1.0  0.1675
  H  H56  1  0.038400  0.153200  0.262400  1.0  0.121
  H  H57  1  0.963800  0.144400  0.225200  1.0  0.1308
  H  H58  1  0.916000  0.877800  0.269000  1.0  0.1369
  H  H59  1  0.987800  0.862600  0.308400  1.0  0.1454
  H  H60  1  0.936500  0.938700  0.315300  1.0  0.1367
  H  H61  1  0.629100  0.209000  0.537200  1.0  0.1409
  H  H62  1  0.633800  0.308600  0.524500  1.0  0.1432
  H  H63  1  0.686300  0.269100  0.571100  1.0  0.1425
  H  H64  1  0.696600  0.194000  0.404000  1.0  0.1291
  H  H65  1  0.655300  0.129300  0.430800  1.0  0.1387
  H  H66  1  0.735400  0.111200  0.431000  1.0  0.1373
  H  H67  1  0.868100  0.222500  0.528900  1.0  0.1461
  H  H68  1  0.841000  0.312300  0.544900  1.0  0.1441
  H  H69  1  0.850500  0.300100  0.491200  1.0  0.1481
  H  H70  1  0.620000  0.794100  0.756200  1.0  0.1408
  H  H71  1  0.662000  0.837200  0.805500  1.0  0.1307
  H  H72  1  0.647700  0.735900  0.803100  1.0  0.1509
  H  H73  1  0.849800  0.883800  0.788800  1.0  0.1739
  H  H74  1  0.885500  0.792600  0.804400  1.0  0.1222
  H  H75  1  0.840700  0.838400  0.837200  1.0  0.1465
  H  H76  1  0.793000  0.631800  0.722800  1.0  0.1387
  H  H77  1  0.781100  0.709600  0.685100  1.0  0.1337
  H  H78  1  0.715500  0.656500  0.693600  1.0  0.134
  H  H79  1  0.707900  0.228400  0.176100  1.0  0.1317
  H  H80  1  0.778800  0.269400  0.207500  1.0  0.1188
  H  H81  1  0.704900  0.309000  0.210300  1.0  0.1545
  H  H82  1  0.603400  0.102900  0.257600  1.0  0.1448
  H  H83  1  0.603500  0.195800  0.281600  1.0  0.148
  H  H84  1  0.639300  0.116100  0.313500  1.0  0.1399
  H  H85  1  0.859200  0.141200  0.298800  1.0  0.1463
  H  H86  1  0.817800  0.053400  0.300800  1.0  0.1374
  H  H87  1  0.820100  0.125300  0.341100  1.0  0.1373
  H  H88  1  0.412800  0.380700  0.276200  1.0  0.1181
  H  H89  1  0.448700  0.440500  0.320700  1.0  0.1299
  H  H90  1  0.382800  0.475000  0.280900  1.0  0.1915
  H  H91  1  0.530500  0.638800  0.218100  1.0  0.1667
  H  H92  1  0.461600  0.653200  0.237600  1.0  0.1206
  H  H93  1  0.536200  0.644400  0.274800  1.0  0.1342
  H  H94  1  0.584000  0.377800  0.231000  1.0  0.136
  H  H95  1  0.512200  0.362600  0.191600  1.0  0.1439
  H  H96  1  0.563500  0.438700  0.184700  1.0  0.1356
  H  H97  1  0.129100  0.291000  0.037200  1.0  0.1407
  H  H98  1  0.133800  0.191400  0.024500  1.0  0.1458
  H  H99  1  0.186300  0.230900  0.071100  1.0  0.1424
  H  H100  1  0.196600  0.306000  0.904000  1.0  0.1312
  H  H101  1  0.155300  0.370700  0.930800  1.0  0.1374
  H  H102  1  0.235400  0.388800  0.931000  1.0  0.1368
  H  H103  1  0.368100  0.277500  0.028900  1.0  0.1444
  H  H104  1  0.341000  0.187700  0.044900  1.0  0.1446
  H  H105  1  0.350500  0.199900  0.991200  1.0  0.1484
  H  H106  1  0.120000  0.705900  0.256200  1.0  0.1402
  H  H107  1  0.162000  0.662800  0.305500  1.0  0.1319
  H  H108  1  0.147700  0.764100  0.303100  1.0  0.1512
  H  H109  1  0.349800  0.616200  0.288800  1.0  0.1744
  H  H110  1  0.385500  0.707400  0.304400  1.0  0.1225
  H  H111  1  0.340700  0.661600  0.337200  1.0  0.1471
  H  H112  1  0.293000  0.868200  0.222800  1.0  0.1391
  H  H113  1  0.281100  0.790400  0.185100  1.0  0.1338
  H  H114  1  0.215500  0.843500  0.193600  1.0  0.1325
  H  H115  1  0.207900  0.271600  0.676100  1.0  0.1318
  H  H116  1  0.278800  0.230600  0.707500  1.0  0.1191
  H  H117  1  0.204900  0.191000  0.710300  1.0  0.1558
  H  H118  1  0.103400  0.397100  0.757600  1.0  0.1441
  H  H119  1  0.103500  0.304200  0.781600  1.0  0.1468
  H  H120  1  0.139300  0.383900  0.813500  1.0  0.1395
  H  H121  1  0.359200  0.358800  0.798800  1.0  0.1462
  H  H122  1  0.317800  0.446600  0.800800  1.0  0.137
  H  H123  1  0.320100  0.374700  0.841100  1.0  0.137
  H  H124  1  0.912800  0.119300  0.776200  1.0  0.1193
  H  H125  1  0.948700  0.059500  0.820700  1.0  0.1278
  H  H126  1  0.882800  0.025000  0.780900  1.0  0.1924
  H  H127  1  0.030500  0.861200  0.718100  1.0  0.1677
  H  H128  1  0.961600  0.846800  0.737600  1.0  0.12
  H  H129  1  0.036200  0.855600  0.774800  1.0  0.1343
  H  H130  1  0.084000  0.122200  0.731000  1.0  0.1353
  H  H131  1  0.012200  0.137400  0.691600  1.0  0.1448
  H  H132  1  0.063500  0.061300  0.684700  1.0  0.1361
  H  H133  1  0.370900  0.791000  0.462800  1.0  0.1419
  H  H134  1  0.366200  0.691400  0.475500  1.0  0.1471
  H  H135  1  0.313700  0.730900  0.428900  1.0  0.143
  H  H136  1  0.303400  0.806000  0.596000  1.0  0.1316
  H  H137  1  0.344700  0.870700  0.569200  1.0  0.1379
  H  H138  1  0.264600  0.888800  0.569000  1.0  0.1355
  H  H139  1  0.131900  0.777500  0.471100  1.0  0.1421
  H  H140  1  0.159000  0.687700  0.455100  1.0  0.1446
  H  H141  1  0.149500  0.699900  0.508800  1.0  0.1481
  H  H142  1  0.380000  0.205900  0.243800  1.0  0.1415
  H  H143  1  0.338000  0.162800  0.194500  1.0  0.1321
  H  H144  1  0.352300  0.264100  0.196900  1.0  0.1516
  H  H145  1  0.150200  0.116200  0.211200  1.0  0.1749
  H  H146  1  0.114500  0.207400  0.195600  1.0  0.1215
  H  H147  1  0.159300  0.161600  0.162800  1.0  0.1447
  H  H148  1  0.207000  0.368200  0.277200  1.0  0.1375
  H  H149  1  0.218900  0.290400  0.314900  1.0  0.1351
  H  H150  1  0.284500  0.343500  0.306400  1.0  0.1344
  H  H151  1  0.292100  0.771600  0.823900  1.0  0.1344
  H  H152  1  0.221200  0.730600  0.792500  1.0  0.1236
  H  H153  1  0.295100  0.691000  0.789700  1.0  0.1559
  H  H154  1  0.396600  0.897100  0.742400  1.0  0.1457
  H  H155  1  0.396500  0.804200  0.718400  1.0  0.1467
  H  H156  1  0.360700  0.883900  0.686500  1.0  0.1401
  H  H157  1  0.140800  0.858800  0.701200  1.0  0.1461
  H  H158  1  0.182200  0.946600  0.699200  1.0  0.1371
  H  H159  1  0.179900  0.874700  0.658900  1.0  0.137
  H  H160  1  0.587200  0.619300  0.723800  1.0  0.1183
  H  H161  1  0.551300  0.559500  0.679300  1.0  0.1266
  H  H162  1  0.617200  0.525000  0.719100  1.0  0.1925
  H  H163  1  0.469500  0.361200  0.781900  1.0  0.1664
  H  H164  1  0.538400  0.346800  0.762400  1.0  0.1204
  H  H165  1  0.463800  0.355600  0.725200  1.0  0.1307
  H  H166  1  0.416000  0.622200  0.769000  1.0  0.1369
  H  H167  1  0.487800  0.637400  0.808400  1.0  0.1464
  H  H168  1  0.436500  0.561300  0.815300  1.0  0.1367
  C  C169  1  0.839100  0.757700  0.962210  1.0  -0.4304
  C  C170  1  0.799300  0.656000  0.068160  1.0  -0.4168
  C  C171  1  0.662900  0.771600  0.981800  1.0  -0.4351
  C  C172  1  0.842000  0.285900  0.714890  1.0  -0.4455
  C  C173  1  0.655400  0.328600  0.695920  1.0  -0.4293
  C  C174  1  0.738100  0.179300  0.790920  1.0  -0.4819
  C  C175  1  0.770000  0.755900  0.293160  1.0  -0.4289
  C  C176  1  0.869700  0.642700  0.218440  1.0  -0.3844
  C  C177  1  0.681900  0.615300  0.193010  1.0  -0.4649
  C  C178  1  0.074700  0.939900  0.213590  1.0  -0.4326
  C  C179  1  0.992700  0.124700  0.256140  1.0  -0.4746
  C  C180  1  0.954800  0.906000  0.291700  1.0  -0.4137
  C  C181  1  0.784790  0.896530  0.079430  1.0  0.1481
  C  C182  1  0.757370  0.851800  0.163020  1.0  0.1908
  C  C183  1  0.729780  0.020500  0.180670  1.0  0.1969
  C  C184  1  0.854690  0.974100  0.166130  1.0  0.1738
  C  C185  1  0.764730  0.071000  0.100040  1.0  0.18
  C  C186  1  0.663100  0.944800  0.093590  1.0  0.1849
  C  C187  1  0.742890  0.558650  0.927540  1.0  0.1606
  C  C188  1  0.768190  0.418100  0.822420  1.0  0.1545
  C  C189  1  0.770150  0.591200  0.840980  1.0  0.1918
  C  C190  1  0.658490  0.494400  0.841530  1.0  0.1707
  C  C191  1  0.854750  0.489040  0.907150  1.0  0.1962
  C  C192  1  0.738330  0.383360  0.906850  1.0  0.1903
  C  C193  1  0.660900  0.257700  0.537790  1.0  -0.4263
  C  C194  1  0.700700  0.156000  0.431840  1.0  -0.4177
  C  C195  1  0.837100  0.271600  0.518200  1.0  -0.4394
  C  C196  1  0.658000  0.785900  0.785110  1.0  -0.4436
  C  C197  1  0.844600  0.828600  0.804080  1.0  -0.4287
  C  C198  1  0.761900  0.679300  0.709080  1.0  -0.4857
  C  C199  1  0.730000  0.255900  0.206840  1.0  -0.4306
  C  C200  1  0.630300  0.142700  0.281560  1.0  -0.3804
  C  C201  1  0.818100  0.115300  0.306990  1.0  -0.4638
  C  C202  1  0.425300  0.439900  0.286410  1.0  -0.4289
  C  C203  1  0.507300  0.624700  0.243860  1.0  -0.4748
  C  C204  1  0.545200  0.406000  0.208300  1.0  -0.4151
  C  C205  1  0.715210  0.396530  0.420570  1.0  0.1482
  C  C206  1  0.742630  0.351800  0.336980  1.0  0.1914
  C  C207  1  0.770220  0.520500  0.319330  1.0  0.1959
  C  C208  1  0.645310  0.474100  0.333870  1.0  0.174
  C  C209  1  0.735270  0.571000  0.399960  1.0  0.1819
  C  C210  1  0.836900  0.444800  0.406410  1.0  0.1874
  C  C211  1  0.757110  0.058650  0.572460  1.0  0.1591
  C  C212  1  0.731810  0.918100  0.677580  1.0  0.1548
  C  C213  1  0.729850  0.091200  0.659020  1.0  0.1919
  C  C214  1  0.841510  0.994400  0.658470  1.0  0.1749
  C  C215  1  0.645250  0.989040  0.592850  1.0  0.1942
  C  C216  1  0.761670  0.883360  0.593150  1.0  0.1908
  C  C217  1  0.160900  0.242300  0.037790  1.0  -0.4263
  C  C218  1  0.200700  0.344000  0.931840  1.0  -0.4181
  C  C219  1  0.337100  0.228400  0.018200  1.0  -0.4391
  C  C220  1  0.158000  0.714100  0.285110  1.0  -0.4441
  C  C221  1  0.344600  0.671400  0.304080  1.0  -0.4288
  C  C222  1  0.261900  0.820700  0.209080  1.0  -0.4851
  C  C223  1  0.230000  0.244100  0.706840  1.0  -0.4311
  C  C224  1  0.130300  0.357300  0.781560  1.0  -0.3794
  C  C225  1  0.318100  0.384700  0.806990  1.0  -0.467
  C  C226  1  0.925300  0.060100  0.786410  1.0  -0.4273
  C  C227  1  0.007300  0.875300  0.743860  1.0  -0.4751
  C  C228  1  0.045200  0.094000  0.708300  1.0  -0.4154
  C  C229  1  0.215210  0.103470  0.920570  1.0  0.1488
  C  C230  1  0.242630  0.148200  0.836980  1.0  0.1898
  C  C231  1  0.270220  0.979500  0.819330  1.0  0.1963
  C  C232  1  0.145310  0.025900  0.833870  1.0  0.1738
  C  C233  1  0.235270  0.929000  0.899960  1.0  0.1841
  C  C234  1  0.336900  0.055200  0.906410  1.0  0.1882
  C  C235  1  0.257110  0.441350  0.072460  1.0  0.1594
  C  C236  1  0.231810  0.581900  0.177580  1.0  0.1545
  C  C237  1  0.229850  0.408800  0.159020  1.0  0.1913
  C  C238  1  0.341510  0.505600  0.158470  1.0  0.1752
  C  C239  1  0.145250  0.510960  0.092850  1.0  0.1921
  C  C240  1  0.261670  0.616640  0.093150  1.0  0.1882
  C  C241  1  0.339100  0.742300  0.462210  1.0  -0.4309
  C  C242  1  0.299300  0.844000  0.568160  1.0  -0.417
  C  C243  1  0.162900  0.728400  0.481800  1.0  -0.4352
  C  C244  1  0.342000  0.214100  0.214890  1.0  -0.4458
  C  C245  1  0.155400  0.171400  0.195920  1.0  -0.4286
  C  C246  1  0.238100  0.320700  0.290920  1.0  -0.4817
  C  C247  1  0.270000  0.744100  0.793160  1.0  -0.4285
  C  C248  1  0.369700  0.857300  0.718440  1.0  -0.3838
  C  C249  1  0.181900  0.884700  0.693010  1.0  -0.4628
  C  C250  1  0.574700  0.560100  0.713590  1.0  -0.4302
  C  C251  1  0.492700  0.375300  0.756140  1.0  -0.4752
  C  C252  1  0.454800  0.594000  0.791700  1.0  -0.4143
  C  C253  1  0.284790  0.603470  0.579430  1.0  0.1476
  C  C254  1  0.257370  0.648200  0.663020  1.0  0.1894
  C  C255  1  0.229780  0.479500  0.680670  1.0  0.1975
  C  C256  1  0.354690  0.525900  0.666130  1.0  0.1738
  C  C257  1  0.264730  0.429000  0.600040  1.0  0.1827
  C  C258  1  0.163100  0.555200  0.593590  1.0  0.1858
  C  C259  1  0.242890  0.941350  0.427540  1.0  0.1606
  C  C260  1  0.268190  0.081900  0.322420  1.0  0.1539
  C  C261  1  0.270150  0.908800  0.340980  1.0  0.1916
  C  C262  1  0.158490  0.005600  0.341530  1.0  0.1703
  C  C263  1  0.354750  0.010960  0.407150  1.0  0.195
  C  C264  1  0.238330  0.116640  0.406850  1.0  0.1881
  N  N265  1  0.795040  0.853250  0.049270  1.0  -0.5121
  N  N266  1  0.758770  0.788200  0.183350  1.0  -0.507
  N  N267  1  0.715000  0.058100  0.211100  1.0  -0.4989
  N  N268  1  0.911150  0.981500  0.188870  1.0  -0.5474
  N  N269  1  0.767890  0.137510  0.083670  1.0  -0.4225
  N  N270  1  0.607780  0.934500  0.070070  1.0  -0.4313
  N  N271  1  0.738490  0.603880  0.958280  1.0  -0.4642
  N  N272  1  0.770440  0.375100  0.790580  1.0  -0.5134
  N  N273  1  0.776150  0.652000  0.819770  1.0  -0.4736
  N  N274  1  0.601900  0.499100  0.819020  1.0  -0.5028
  N  N275  1  0.912690  0.493600  0.927240  1.0  -0.4124
  N  N276  1  0.727600  0.320000  0.924110  1.0  -0.433
  N  N277  1  0.704960  0.353250  0.450730  1.0  -0.5124
  N  N278  1  0.741230  0.288200  0.316650  1.0  -0.5065
  N  N279  1  0.785000  0.558100  0.288900  1.0  -0.4955
  N  N280  1  0.588850  0.481500  0.311130  1.0  -0.5463
  N  N281  1  0.732110  0.637510  0.416330  1.0  -0.424
  N  N282  1  0.892220  0.434500  0.429930  1.0  -0.4316
  N  N283  1  0.761510  0.103880  0.541720  1.0  -0.4621
  N  N284  1  0.729560  0.875100  0.709420  1.0  -0.5162
  N  N285  1  0.723850  0.152000  0.680230  1.0  -0.4731
  N  N286  1  0.898100  0.999100  0.680980  1.0  -0.4998
  N  N287  1  0.587310  0.993600  0.572760  1.0  -0.4118
  N  N288  1  0.772400  0.820000  0.575890  1.0  -0.4326
  N  N289  1  0.204960  0.146750  0.950730  1.0  -0.5109
  N  N290  1  0.241230  0.211800  0.816650  1.0  -0.5063
  N  N291  1  0.285000  0.941900  0.788900  1.0  -0.4954
  N  N292  1  0.088850  0.018500  0.811130  1.0  -0.5459
  N  N293  1  0.232110  0.862490  0.916330  1.0  -0.4228
  N  N294  1  0.392220  0.065500  0.929930  1.0  -0.4319
  N  N295  1  0.261510  0.396120  0.041720  1.0  -0.4632
  N  N296  1  0.229560  0.624900  0.209420  1.0  -0.5152
  N  N297  1  0.223850  0.348000  0.180230  1.0  -0.473
  N  N298  1  0.398100  0.500900  0.180980  1.0  -0.4989
  N  N299  1  0.087310  0.506400  0.072760  1.0  -0.4124
  N  N300  1  0.272400  0.680000  0.075890  1.0  -0.4336
  N  N301  1  0.295040  0.646750  0.549270  1.0  -0.5119
  N  N302  1  0.258770  0.711800  0.683350  1.0  -0.5074
  N  N303  1  0.215000  0.441900  0.711100  1.0  -0.4998
  N  N304  1  0.411150  0.518500  0.688870  1.0  -0.547
  N  N305  1  0.267890  0.362490  0.583670  1.0  -0.4222
  N  N306  1  0.107780  0.565500  0.570070  1.0  -0.431
  N  N307  1  0.238490  0.896120  0.458280  1.0  -0.4663
  N  N308  1  0.270440  0.124900  0.290580  1.0  -0.5126
  N  N309  1  0.276150  0.848000  0.319770  1.0  -0.4748
  N  N310  1  0.101900  0.000900  0.319020  1.0  -0.5019
  N  N311  1  0.412690  0.006400  0.427240  1.0  -0.4127
  N  N312  1  0.227600  0.180000  0.424110  1.0  -0.4348
