# generated using pymatgen
data_CeH15(C9O2)3
_symmetry_space_group_name_H-M   'P 1'
_cell_length_a   16.51260000
_cell_length_b   16.51260000
_cell_length_c   24.50980000
_cell_angle_alpha   90.00000000
_cell_angle_beta   90.00000000
_cell_angle_gamma   120.00000000
_symmetry_Int_Tables_number   1
_chemical_formula_structural   CeH15(C9O2)3
_chemical_formula_sum   'Ce6 H90 C162 O36'
_cell_volume   5787.63748166
_cell_formula_units_Z   6
loop_
 _symmetry_equiv_pos_site_id
 _symmetry_equiv_pos_as_xyz
  1  'x, y, z'
loop_
 _atom_site_type_symbol
 _atom_site_label
 _atom_site_symmetry_multiplicity
 _atom_site_fract_x
 _atom_site_fract_y
 _atom_site_fract_z
 _atom_site_occupancy
 _atom_site_charge
  Ce  Ce1  1  0.922980  0.922980  0.000000  1.0  2.0621
  Ce  Ce2  1  0.000000  0.077020  0.666667  1.0  2.061
  Ce  Ce3  1  0.077020  0.000000  0.333333  1.0  2.0626
  Ce  Ce4  1  0.077020  0.077020  0.500000  1.0  2.0612
  Ce  Ce5  1  0.000000  0.922980  0.166670  1.0  2.0622
  Ce  Ce6  1  0.922980  0.000000  0.833330  1.0  2.0614
  H  H7  1  0.022300  0.683300  0.996800  1.0  0.1202
  H  H8  1  0.114900  0.615700  0.011000  1.0  0.1187
  H  H9  1  0.281100  0.825800  0.109100  1.0  0.1208
  H  H10  1  0.191100  0.896900  0.096000  1.0  0.1317
  H  H11  1  0.151800  0.535300  0.063100  1.0  0.1027
  H  H12  1  0.125800  0.393400  0.017000  1.0  0.1329
  H  H13  1  0.044500  0.236800  0.019400  1.0  0.1059
  H  H14  1  0.661000  0.977700  0.663470  1.0  0.1195
  H  H15  1  0.500800  0.885100  0.677670  1.0  0.1188
  H  H16  1  0.544700  0.718900  0.775770  1.0  0.1202
  H  H17  1  0.705800  0.808900  0.762670  1.0  0.1317
  H  H18  1  0.383500  0.848200  0.729770  1.0  0.102
  H  H19  1  0.267600  0.874200  0.683670  1.0  0.1327
  H  H20  1  0.192300  0.955500  0.686070  1.0  0.1052
  H  H21  1  0.316700  0.339000  0.330130  1.0  0.1201
  H  H22  1  0.384300  0.499200  0.344330  1.0  0.1187
  H  H23  1  0.174200  0.455300  0.442430  1.0  0.1206
  H  H24  1  0.103100  0.294200  0.429330  1.0  0.1318
  H  H25  1  0.464700  0.616500  0.396430  1.0  0.1028
  H  H26  1  0.606600  0.732400  0.350330  1.0  0.1319
  H  H27  1  0.763200  0.807700  0.352730  1.0  0.1061
  H  H28  1  0.977700  0.316700  0.496800  1.0  0.1207
  H  H29  1  0.885100  0.384300  0.511000  1.0  0.1192
  H  H30  1  0.718900  0.174200  0.609100  1.0  0.1206
  H  H31  1  0.808900  0.103100  0.596000  1.0  0.1318
  H  H32  1  0.848200  0.464700  0.563100  1.0  0.1022
  H  H33  1  0.874200  0.606600  0.517000  1.0  0.1329
  H  H34  1  0.955500  0.763200  0.519400  1.0  0.1058
  H  H35  1  0.339000  0.022300  0.163470  1.0  0.1193
  H  H36  1  0.499200  0.114900  0.177670  1.0  0.1187
  H  H37  1  0.455300  0.281100  0.275770  1.0  0.1202
  H  H38  1  0.294200  0.191100  0.262670  1.0  0.1314
  H  H39  1  0.616500  0.151800  0.229770  1.0  0.1023
  H  H40  1  0.732400  0.125800  0.183670  1.0  0.1327
  H  H41  1  0.807700  0.044500  0.186070  1.0  0.1051
  H  H42  1  0.683300  0.661000  0.830130  1.0  0.1197
  H  H43  1  0.615700  0.500800  0.844330  1.0  0.1183
  H  H44  1  0.825800  0.544700  0.942430  1.0  0.1208
  H  H45  1  0.896900  0.705800  0.929330  1.0  0.1314
  H  H46  1  0.535300  0.383500  0.896430  1.0  0.1022
  H  H47  1  0.393400  0.267600  0.850330  1.0  0.132
  H  H48  1  0.236800  0.192300  0.852730  1.0  0.107
  H  H49  1  0.339000  0.316700  0.669870  1.0  0.12
  H  H50  1  0.499200  0.384300  0.655670  1.0  0.1192
  H  H51  1  0.455300  0.174200  0.557570  1.0  0.1207
  H  H52  1  0.294200  0.103100  0.570670  1.0  0.1311
  H  H53  1  0.616500  0.464700  0.603570  1.0  0.1021
  H  H54  1  0.732400  0.606600  0.649670  1.0  0.1333
  H  H55  1  0.807700  0.763200  0.647270  1.0  0.1055
  H  H56  1  0.683300  0.022300  0.003200  1.0  0.1192
  H  H57  1  0.615700  0.114900  0.989000  1.0  0.1192
  H  H58  1  0.825800  0.281100  0.890900  1.0  0.1205
  H  H59  1  0.896900  0.191100  0.904000  1.0  0.1321
  H  H60  1  0.535300  0.151800  0.936900  1.0  0.1025
  H  H61  1  0.393400  0.125800  0.983000  1.0  0.1327
  H  H62  1  0.236800  0.044500  0.980600  1.0  0.1047
  H  H63  1  0.977700  0.661000  0.336530  1.0  0.1196
  H  H64  1  0.885100  0.500800  0.322330  1.0  0.1191
  H  H65  1  0.718900  0.544700  0.224230  1.0  0.1205
  H  H66  1  0.808900  0.705800  0.237330  1.0  0.1317
  H  H67  1  0.848200  0.383500  0.270230  1.0  0.1024
  H  H68  1  0.874200  0.267600  0.316330  1.0  0.1318
  H  H69  1  0.955500  0.192300  0.313930  1.0  0.1058
  H  H70  1  0.661000  0.683300  0.169870  1.0  0.1202
  H  H71  1  0.500800  0.615700  0.155670  1.0  0.119
  H  H72  1  0.544700  0.825800  0.057570  1.0  0.1205
  H  H73  1  0.705800  0.896900  0.070670  1.0  0.1321
  H  H74  1  0.383500  0.535300  0.103570  1.0  0.1021
  H  H75  1  0.267600  0.393400  0.149670  1.0  0.1328
  H  H76  1  0.192300  0.236800  0.147270  1.0  0.1051
  H  H77  1  0.316700  0.977700  0.503200  1.0  0.1189
  H  H78  1  0.384300  0.885100  0.489000  1.0  0.1192
  H  H79  1  0.174200  0.718900  0.390900  1.0  0.12
  H  H80  1  0.103100  0.808900  0.404000  1.0  0.1312
  H  H81  1  0.464700  0.848200  0.436900  1.0  0.1021
  H  H82  1  0.606600  0.874200  0.483000  1.0  0.133
  H  H83  1  0.763200  0.955500  0.480600  1.0  0.1048
  H  H84  1  0.022300  0.339000  0.836530  1.0  0.1194
  H  H85  1  0.114900  0.499200  0.822330  1.0  0.119
  H  H86  1  0.281100  0.455300  0.724230  1.0  0.1206
  H  H87  1  0.191100  0.294200  0.737330  1.0  0.1319
  H  H88  1  0.151800  0.616500  0.770230  1.0  0.1028
  H  H89  1  0.125800  0.732400  0.816330  1.0  0.1321
  H  H90  1  0.044500  0.807700  0.813930  1.0  0.1062
  H  H91  1  0.387200  0.774400  0.083330  1.0  0.1181
  H  H92  1  0.387200  0.612800  0.750000  1.0  0.1195
  H  H93  1  0.225600  0.612800  0.416670  1.0  0.1203
  H  H94  1  0.612800  0.225600  0.583330  1.0  0.1183
  H  H95  1  0.612800  0.387200  0.250000  1.0  0.1197
  H  H96  1  0.774400  0.387200  0.916670  1.0  0.1193
  C  C97  1  0.029700  0.833400  0.039800  1.0  0.6963
  C  C98  1  0.096400  0.795000  0.046000  1.0  -0.1025
  C  C99  1  0.073900  0.711800  0.019800  1.0  -0.0491
  C  C100  1  0.130300  0.671600  0.028500  1.0  -0.153
  C  C101  1  0.206200  0.711500  0.061500  1.0  0.0279
  C  C102  1  0.228600  0.797000  0.086700  1.0  -0.1073
  C  C103  1  0.174900  0.840100  0.079300  1.0  -0.1188
  C  C104  1  0.259100  0.662900  0.072400  1.0  0.0774
  C  C105  1  0.215100  0.568000  0.071800  1.0  -0.1216
  C  C106  1  0.138300  0.361800  0.044100  1.0  -0.1723
  C  C107  1  0.091100  0.268700  0.045200  1.0  -0.0667
  C  C108  1  0.803700  0.970300  0.706470  1.0  0.6956
  C  C109  1  0.698600  0.903600  0.712670  1.0  -0.1035
  C  C110  1  0.637900  0.926100  0.686470  1.0  -0.0483
  C  C111  1  0.541300  0.869700  0.695170  1.0  -0.1532
  C  C112  1  0.505300  0.793800  0.728170  1.0  0.0288
  C  C113  1  0.568400  0.771400  0.753370  1.0  -0.1054
  C  C114  1  0.665200  0.825100  0.745970  1.0  -0.1176
  C  C115  1  0.403800  0.740900  0.739070  1.0  0.0788
  C  C116  1  0.352900  0.784900  0.738470  1.0  -0.119
  C  C117  1  0.223500  0.861700  0.710770  1.0  -0.174
  C  C118  1  0.177600  0.908900  0.711870  1.0  -0.0674
  C  C119  1  0.166600  0.196300  0.373130  1.0  0.6968
  C  C120  1  0.205000  0.301400  0.379330  1.0  -0.1038
  C  C121  1  0.288200  0.362100  0.353130  1.0  -0.0515
  C  C122  1  0.328400  0.458700  0.361830  1.0  -0.1523
  C  C123  1  0.288500  0.494700  0.394830  1.0  0.0285
  C  C124  1  0.203000  0.431600  0.420030  1.0  -0.1067
  C  C125  1  0.159900  0.334800  0.412630  1.0  -0.1181
  C  C126  1  0.337100  0.596200  0.405730  1.0  0.0792
  C  C127  1  0.432000  0.647100  0.405130  1.0  -0.1221
  C  C128  1  0.638200  0.776500  0.377430  1.0  -0.1705
  C  C129  1  0.731300  0.822400  0.378530  1.0  -0.0616
  C  C130  1  0.970300  0.166600  0.539800  1.0  0.6962
  C  C131  1  0.903600  0.205000  0.546000  1.0  -0.1024
  C  C132  1  0.926100  0.288200  0.519800  1.0  -0.0495
  C  C133  1  0.869700  0.328400  0.528500  1.0  -0.154
  C  C134  1  0.793800  0.288500  0.561500  1.0  0.0281
  C  C135  1  0.771400  0.203000  0.586700  1.0  -0.1071
  C  C136  1  0.825100  0.159900  0.579300  1.0  -0.1187
  C  C137  1  0.740900  0.337100  0.572400  1.0  0.0789
  C  C138  1  0.784900  0.432000  0.571800  1.0  -0.1225
  C  C139  1  0.861700  0.638200  0.544100  1.0  -0.1731
  C  C140  1  0.908900  0.731300  0.545200  1.0  -0.0665
  C  C141  1  0.196300  0.029700  0.206470  1.0  0.6956
  C  C142  1  0.301400  0.096400  0.212670  1.0  -0.1051
  C  C143  1  0.362100  0.073900  0.186470  1.0  -0.0481
  C  C144  1  0.458700  0.130300  0.195170  1.0  -0.152
  C  C145  1  0.494700  0.206200  0.228170  1.0  0.0288
  C  C146  1  0.431600  0.228600  0.253370  1.0  -0.1054
  C  C147  1  0.334800  0.174900  0.245970  1.0  -0.1185
  C  C148  1  0.596200  0.259100  0.239070  1.0  0.0776
  C  C149  1  0.647100  0.215100  0.238470  1.0  -0.1188
  C  C150  1  0.776500  0.138300  0.210770  1.0  -0.1721
  C  C151  1  0.822400  0.091100  0.211870  1.0  -0.0682
  C  C152  1  0.833400  0.803700  0.873130  1.0  0.6964
  C  C153  1  0.795000  0.698600  0.879330  1.0  -0.1035
  C  C154  1  0.711800  0.637900  0.853130  1.0  -0.0513
  C  C155  1  0.671600  0.541300  0.861830  1.0  -0.153
  C  C156  1  0.711500  0.505300  0.894830  1.0  0.0287
  C  C157  1  0.797000  0.568400  0.920030  1.0  -0.108
  C  C158  1  0.840100  0.665200  0.912630  1.0  -0.1196
  C  C159  1  0.662900  0.403800  0.905730  1.0  0.079
  C  C160  1  0.568000  0.352900  0.905130  1.0  -0.1213
  C  C161  1  0.361800  0.223500  0.877430  1.0  -0.1713
  C  C162  1  0.268700  0.177600  0.878530  1.0  -0.0636
  C  C163  1  0.196300  0.166600  0.626870  1.0  0.6969
  C  C164  1  0.301400  0.205000  0.620670  1.0  -0.1025
  C  C165  1  0.362100  0.288200  0.646870  1.0  -0.0512
  C  C166  1  0.458700  0.328400  0.638170  1.0  -0.1529
  C  C167  1  0.494700  0.288500  0.605170  1.0  0.0282
  C  C168  1  0.431600  0.203000  0.579970  1.0  -0.1088
  C  C169  1  0.334800  0.159900  0.587370  1.0  -0.1187
  C  C170  1  0.596200  0.337100  0.594270  1.0  0.0777
  C  C171  1  0.647100  0.432000  0.594870  1.0  -0.1212
  C  C172  1  0.776500  0.638200  0.622570  1.0  -0.1726
  C  C173  1  0.822400  0.731300  0.621470  1.0  -0.0645
  C  C174  1  0.833400  0.029700  0.960200  1.0  0.6963
  C  C175  1  0.795000  0.096400  0.954000  1.0  -0.104
  C  C176  1  0.711800  0.073900  0.980200  1.0  -0.0477
  C  C177  1  0.671600  0.130300  0.971500  1.0  -0.1532
  C  C178  1  0.711500  0.206200  0.938500  1.0  0.0292
  C  C179  1  0.797000  0.228600  0.913300  1.0  -0.1066
  C  C180  1  0.840100  0.174900  0.920700  1.0  -0.1178
  C  C181  1  0.662900  0.259100  0.927600  1.0  0.0789
  C  C182  1  0.568000  0.215100  0.928200  1.0  -0.1183
  C  C183  1  0.361800  0.138300  0.955900  1.0  -0.174
  C  C184  1  0.268700  0.091100  0.954800  1.0  -0.0677
  C  C185  1  0.970300  0.803700  0.293530  1.0  0.6967
  C  C186  1  0.903600  0.698600  0.287330  1.0  -0.1038
  C  C187  1  0.926100  0.637900  0.313530  1.0  -0.0496
  C  C188  1  0.869700  0.541300  0.304830  1.0  -0.1521
  C  C189  1  0.793800  0.505300  0.271830  1.0  0.0289
  C  C190  1  0.771400  0.568400  0.246630  1.0  -0.1077
  C  C191  1  0.825100  0.665200  0.254030  1.0  -0.1195
  C  C192  1  0.740900  0.403800  0.260930  1.0  0.079
  C  C193  1  0.784900  0.352900  0.261530  1.0  -0.1221
  C  C194  1  0.861700  0.223500  0.289230  1.0  -0.1718
  C  C195  1  0.908900  0.177600  0.288130  1.0  -0.0667
  C  C196  1  0.803700  0.833400  0.126870  1.0  0.6968
  C  C197  1  0.698600  0.795000  0.120670  1.0  -0.1023
  C  C198  1  0.637900  0.711800  0.146870  1.0  -0.0508
  C  C199  1  0.541300  0.671600  0.138170  1.0  -0.1539
  C  C200  1  0.505300  0.711500  0.105170  1.0  0.0286
  C  C201  1  0.568400  0.797000  0.079970  1.0  -0.1078
  C  C202  1  0.665200  0.840100  0.087370  1.0  -0.1193
  C  C203  1  0.403800  0.662900  0.094270  1.0  0.0791
  C  C204  1  0.352900  0.568000  0.094870  1.0  -0.1216
  C  C205  1  0.223500  0.361800  0.122570  1.0  -0.1738
  C  C206  1  0.177600  0.268700  0.121470  1.0  -0.063
  C  C207  1  0.166600  0.970300  0.460200  1.0  0.6955
  C  C208  1  0.205000  0.903600  0.454000  1.0  -0.1046
  C  C209  1  0.288200  0.926100  0.480200  1.0  -0.0483
  C  C210  1  0.328400  0.869700  0.471500  1.0  -0.1512
  C  C211  1  0.288500  0.793800  0.438500  1.0  0.029
  C  C212  1  0.203000  0.771400  0.413300  1.0  -0.106
  C  C213  1  0.159900  0.825100  0.420700  1.0  -0.1182
  C  C214  1  0.337100  0.740900  0.427600  1.0  0.0779
  C  C215  1  0.432000  0.784900  0.428200  1.0  -0.1183
  C  C216  1  0.638200  0.861700  0.455900  1.0  -0.1738
  C  C217  1  0.731300  0.908900  0.454800  1.0  -0.0691
  C  C218  1  0.029700  0.196300  0.793530  1.0  0.6979
  C  C219  1  0.096400  0.301400  0.787330  1.0  -0.1038
  C  C220  1  0.073900  0.362100  0.813530  1.0  -0.05
  C  C221  1  0.130300  0.458700  0.804830  1.0  -0.153
  C  C222  1  0.206200  0.494700  0.771830  1.0  0.0289
  C  C223  1  0.228600  0.431600  0.746630  1.0  -0.1091
  C  C224  1  0.174900  0.334800  0.754030  1.0  -0.1188
  C  C225  1  0.259100  0.596200  0.760930  1.0  0.0787
  C  C226  1  0.215100  0.647100  0.761530  1.0  -0.1211
  C  C227  1  0.138300  0.776500  0.789230  1.0  -0.1716
  C  C228  1  0.091100  0.822400  0.788130  1.0  -0.0668
  C  C229  1  0.354600  0.709200  0.083330  1.0  -0.122
  C  C230  1  0.258600  0.517200  0.083330  1.0  0.073
  C  C231  1  0.206000  0.412000  0.083330  1.0  0.0892
  C  C232  1  0.108900  0.217800  0.083330  1.0  -0.101
  C  C233  1  0.056100  0.112200  0.083330  1.0  0.7385
  C  C234  1  0.354600  0.645400  0.750000  1.0  -0.1243
  C  C235  1  0.258600  0.741400  0.750000  1.0  0.0708
  C  C236  1  0.206000  0.794000  0.750000  1.0  0.0883
  C  C237  1  0.108900  0.891100  0.750000  1.0  -0.1088
  C  C238  1  0.056100  0.943900  0.750000  1.0  0.7379
  C  C239  1  0.290800  0.645400  0.416670  1.0  -0.1257
  C  C240  1  0.482800  0.741400  0.416670  1.0  0.0713
  C  C241  1  0.588000  0.794000  0.416670  1.0  0.0873
  C  C242  1  0.782200  0.891100  0.416670  1.0  -0.1091
  C  C243  1  0.887800  0.943900  0.416670  1.0  0.7373
  C  C244  1  0.645400  0.290800  0.583330  1.0  -0.1215
  C  C245  1  0.741400  0.482800  0.583330  1.0  0.0733
  C  C246  1  0.794000  0.588000  0.583330  1.0  0.0885
  C  C247  1  0.891100  0.782200  0.583330  1.0  -0.1025
  C  C248  1  0.943900  0.887800  0.583330  1.0  0.7391
  C  C249  1  0.645400  0.354600  0.250000  1.0  -0.126
  C  C250  1  0.741400  0.258600  0.250000  1.0  0.0712
  C  C251  1  0.794000  0.206000  0.250000  1.0  0.0883
  C  C252  1  0.891100  0.108900  0.250000  1.0  -0.1086
  C  C253  1  0.943900  0.056100  0.250000  1.0  0.7378
  C  C254  1  0.709200  0.354600  0.916670  1.0  -0.1247
  C  C255  1  0.517200  0.258600  0.916670  1.0  0.0701
  C  C256  1  0.412000  0.206000  0.916670  1.0  0.0878
  C  C257  1  0.217800  0.108900  0.916670  1.0  -0.1079
  C  C258  1  0.112200  0.056100  0.916670  1.0  0.7372
  O  O259  1  0.968500  0.799900  0.003600  1.0  -0.6918
  O  O260  1  0.037600  0.898800  0.071000  1.0  -0.7737
  O  O261  1  0.001200  0.072000  0.045200  1.0  -0.701
  O  O262  1  0.831400  0.031500  0.670270  1.0  -0.6955
  O  O263  1  0.861200  0.962400  0.737670  1.0  -0.7745
  O  O264  1  0.070800  0.998800  0.711870  1.0  -0.7028
  O  O265  1  0.200100  0.168600  0.336930  1.0  -0.6943
  O  O266  1  0.101200  0.138800  0.404330  1.0  -0.7751
  O  O267  1  0.928000  0.929200  0.378530  1.0  -0.6992
  O  O268  1  0.031500  0.200100  0.503600  1.0  -0.6937
  O  O269  1  0.962400  0.101200  0.571000  1.0  -0.7729
  O  O270  1  0.998800  0.928000  0.545200  1.0  -0.7011
  O  O271  1  0.168600  0.968500  0.170270  1.0  -0.6943
  O  O272  1  0.138800  0.037600  0.237670  1.0  -0.7725
  O  O273  1  0.929200  0.001200  0.211870  1.0  -0.7021
  O  O274  1  0.799900  0.831400  0.836930  1.0  -0.6939
  O  O275  1  0.898800  0.861200  0.904330  1.0  -0.7749
  O  O276  1  0.072000  0.070800  0.878530  1.0  -0.6985
  O  O277  1  0.168600  0.200100  0.663070  1.0  -0.6926
  O  O278  1  0.138800  0.101200  0.595670  1.0  -0.7733
  O  O279  1  0.929200  0.928000  0.621470  1.0  -0.7007
  O  O280  1  0.799900  0.968500  0.996400  1.0  -0.6943
  O  O281  1  0.898800  0.037600  0.929000  1.0  -0.7738
  O  O282  1  0.072000  0.001200  0.954800  1.0  -0.7024
  O  O283  1  0.031500  0.831400  0.329730  1.0  -0.6938
  O  O284  1  0.962400  0.861200  0.262330  1.0  -0.7748
  O  O285  1  0.998800  0.070800  0.288130  1.0  -0.6991
  O  O286  1  0.831400  0.799900  0.163070  1.0  -0.6924
  O  O287  1  0.861200  0.898800  0.095670  1.0  -0.7729
  O  O288  1  0.070800  0.072000  0.121470  1.0  -0.7012
  O  O289  1  0.200100  0.031500  0.496400  1.0  -0.6944
  O  O290  1  0.101200  0.962400  0.429000  1.0  -0.7725
  O  O291  1  0.928000  0.998800  0.454800  1.0  -0.7027
  O  O292  1  0.968500  0.168600  0.829730  1.0  -0.6937
  O  O293  1  0.037600  0.138800  0.762330  1.0  -0.7751
  O  O294  1  0.001200  0.929200  0.788130  1.0  -0.6981
