# generated using pymatgen
data_AgH10(C2N)6
_symmetry_space_group_name_H-M   'P 1'
_cell_length_a   10.36050000
_cell_length_b   10.52240000
_cell_length_c   15.01400000
_cell_angle_alpha   89.97900000
_cell_angle_beta   76.65600000
_cell_angle_gamma   89.98000000
_symmetry_Int_Tables_number   1
_chemical_formula_structural   AgH10(C2N)6
_chemical_formula_sum   'Ag4 H40 C48 N24'
_cell_volume   1592.59587264
_cell_formula_units_Z   4
loop_
 _symmetry_equiv_pos_site_id
 _symmetry_equiv_pos_as_xyz
  1  'x, y, z'
loop_
 _atom_site_type_symbol
 _atom_site_label
 _atom_site_symmetry_multiplicity
 _atom_site_fract_x
 _atom_site_fract_y
 _atom_site_fract_z
 _atom_site_occupancy
 _atom_site_charge
  Ag  Ag1  1  0.637770  0.387870  0.515390  1.0  0.3359
  Ag  Ag2  1  0.637780  0.112130  0.015390  1.0  0.356
  Ag  Ag3  1  0.362220  0.887870  0.984610  1.0  0.356
  Ag  Ag4  1  0.362230  0.612130  0.484610  1.0  0.3364
  H  H5  1  0.766000  0.062000  0.187000  1.0  0.0816
  H  H6  1  0.921000  0.186000  0.936000  1.0  0.0676
  H  H7  1  0.136000  0.191000  0.969000  1.0  0.0895
  H  H8  1  0.971000  0.057000  0.221000  1.0  0.0971
  H  H9  1  0.340000  0.121000  0.358000  1.0  0.0973
  H  H10  1  0.443000  0.191000  0.467000  1.0  0.0639
  H  H11  1  0.676000  0.413000  0.285000  1.0  0.0697
  H  H12  1  0.574000  0.337000  0.179000  1.0  0.1813
  H  H13  1  0.118000  0.281000  0.256000  1.0  0.1914
  H  H14  1  0.103000  0.174000  0.307000  1.0  0.2697
  H  H15  1  0.446000  0.311000  0.965000  1.0  0.0572
  H  H16  1  0.678000  0.100000  0.787000  1.0  0.0548
  H  H17  1  0.977000  0.442000  0.717000  1.0  0.1021
  H  H18  1  0.342000  0.381000  0.856000  1.0  0.0899
  H  H19  1  0.578000  0.166000  0.674000  1.0  0.1747
  H  H20  1  0.927000  0.303000  0.442000  1.0  0.0684
  H  H21  1  0.775000  0.445000  0.681000  1.0  0.0432
  H  H22  1  0.134000  0.316000  0.474000  1.0  0.1161
  H  H23  1  0.099000  0.215000  0.748000  1.0  0.3207
  H  H24  1  0.115000  0.308000  0.787000  1.0  0.1813
  H  H25  1  0.554000  0.689000  0.035000  1.0  0.0574
  H  H26  1  0.322000  0.900000  0.213000  1.0  0.0556
  H  H27  1  0.023000  0.558000  0.283000  1.0  0.1016
  H  H28  1  0.658000  0.619000  0.144000  1.0  0.0897
  H  H29  1  0.422000  0.834000  0.326000  1.0  0.175
  H  H30  1  0.073000  0.697000  0.558000  1.0  0.0662
  H  H31  1  0.225000  0.555000  0.319000  1.0  0.0434
  H  H32  1  0.866000  0.684000  0.526000  1.0  0.1172
  H  H33  1  0.901000  0.785000  0.252000  1.0  0.3236
  H  H34  1  0.885000  0.692000  0.213000  1.0  0.1816
  H  H35  1  0.234000  0.938000  0.813000  1.0  0.0811
  H  H36  1  0.079000  0.814000  0.064000  1.0  0.0648
  H  H37  1  0.864000  0.809000  0.031000  1.0  0.0894
  H  H38  1  0.029000  0.943000  0.779000  1.0  0.0966
  H  H39  1  0.660000  0.879000  0.642000  1.0  0.0971
  H  H40  1  0.557000  0.809000  0.533000  1.0  0.0638
  H  H41  1  0.324000  0.587000  0.715000  1.0  0.0703
  H  H42  1  0.426000  0.663000  0.821000  1.0  0.1814
  H  H43  1  0.882000  0.719000  0.744000  1.0  0.19
  H  H44  1  0.897000  0.826000  0.693000  1.0  0.2695
  C  C45  1  0.847700  0.089400  0.139300  1.0  0.0848
  C  C46  1  0.939400  0.163700  0.996900  1.0  0.0855
  C  C47  1  0.064300  0.165800  0.013300  1.0  -0.1307
  C  C48  1  0.080000  0.128000  0.098800  1.0  -0.0227
  C  C49  1  0.968400  0.087700  0.163200  1.0  -0.1927
  C  C50  1  0.211900  0.133600  0.119400  1.0  0.2749
  C  C51  1  0.371300  0.181500  0.184200  1.0  0.2464
  C  C52  1  0.443500  0.224100  0.253000  1.0  -0.0452
  C  C53  1  0.407000  0.178100  0.341500  1.0  -0.1742
  C  C54  1  0.475100  0.219500  0.404700  1.0  0.1129
  C  C55  1  0.609700  0.345200  0.299700  1.0  0.1189
  C  C56  1  0.548800  0.307800  0.231600  1.0  -0.1288
  C  C57  1  0.474800  0.280300  0.905400  1.0  0.1378
  C  C58  1  0.610000  0.155700  0.799900  1.0  0.1519
  C  C59  1  0.372300  0.318000  0.684000  1.0  0.2294
  C  C60  1  0.443000  0.275700  0.753400  1.0  -0.0406
  C  C61  1  0.406800  0.321500  0.841400  1.0  -0.1826
  C  C62  1  0.549100  0.192100  0.730800  1.0  -0.1595
  C  C63  1  0.939700  0.336200  0.496700  1.0  0.11
  C  C64  1  0.847200  0.410900  0.639200  1.0  0.1431
  C  C65  1  0.211900  0.366300  0.619300  1.0  0.2555
  C  C66  1  0.079500  0.372200  0.598800  1.0  -0.047
  C  C67  1  0.063900  0.334200  0.514200  1.0  -0.1714
  C  C68  1  0.967300  0.411400  0.663300  1.0  -0.19
  C  C69  1  0.525200  0.719700  0.094600  1.0  0.138
  C  C70  1  0.390000  0.844300  0.200100  1.0  0.1516
  C  C71  1  0.627700  0.682000  0.316000  1.0  0.2298
  C  C72  1  0.557000  0.724300  0.246600  1.0  -0.0423
  C  C73  1  0.593200  0.678500  0.158600  1.0  -0.1831
  C  C74  1  0.450900  0.807900  0.269200  1.0  -0.1564
  C  C75  1  0.060300  0.663800  0.503300  1.0  0.112
  C  C76  1  0.152800  0.589100  0.360800  1.0  0.143
  C  C77  1  0.788100  0.633700  0.380700  1.0  0.2557
  C  C78  1  0.920500  0.627800  0.401200  1.0  -0.0461
  C  C79  1  0.936100  0.665800  0.485800  1.0  -0.1711
  C  C80  1  0.032700  0.588600  0.336700  1.0  -0.1915
  C  C81  1  0.152300  0.910600  0.860700  1.0  0.0841
  C  C82  1  0.060600  0.836300  0.003100  1.0  0.0858
  C  C83  1  0.935700  0.834200  0.986700  1.0  -0.1306
  C  C84  1  0.920000  0.872000  0.901200  1.0  -0.022
  C  C85  1  0.031600  0.912300  0.836800  1.0  -0.194
  C  C86  1  0.788100  0.866400  0.880600  1.0  0.2742
  C  C87  1  0.628700  0.818500  0.815800  1.0  0.2458
  C  C88  1  0.556500  0.775900  0.747000  1.0  -0.046
  C  C89  1  0.593000  0.821900  0.658500  1.0  -0.1758
  C  C90  1  0.524900  0.780500  0.595300  1.0  0.1126
  C  C91  1  0.390300  0.654800  0.700300  1.0  0.118
  C  C92  1  0.451200  0.692200  0.768400  1.0  -0.1274
  N  N93  1  0.323000  0.101300  0.062200  1.0  -0.3013
  N  N94  1  0.831000  0.126700  0.058300  1.0  -0.3337
  N  N95  1  0.424700  0.132400  0.104100  1.0  -0.276
  N  N96  1  0.573200  0.303900  0.385900  1.0  -0.3841
  N  N97  1  0.238400  0.182500  0.197000  1.0  0.0515
  N  N98  1  0.150900  0.238400  0.273000  1.0  -0.5994
  N  N99  1  0.573600  0.196300  0.886000  1.0  -0.3834
  N  N100  1  0.322500  0.398700  0.562700  1.0  -0.2728
  N  N101  1  0.831300  0.373000  0.558200  1.0  -0.32
  N  N102  1  0.425200  0.367400  0.604100  1.0  -0.278
  N  N103  1  0.238300  0.317600  0.697200  1.0  0.0971
  N  N104  1  0.151300  0.259500  0.772300  1.0  -0.5726
  N  N105  1  0.426400  0.803700  0.114000  1.0  -0.3841
  N  N106  1  0.677500  0.601300  0.437300  1.0  -0.2735
  N  N107  1  0.168700  0.627000  0.441800  1.0  -0.3167
  N  N108  1  0.574800  0.632600  0.395900  1.0  -0.277
  N  N109  1  0.761700  0.682400  0.302800  1.0  0.0962
  N  N110  1  0.848700  0.740500  0.227700  1.0  -0.5747
  N  N111  1  0.677000  0.898700  0.937800  1.0  -0.3016
  N  N112  1  0.169000  0.873300  0.941700  1.0  -0.3321
  N  N113  1  0.575300  0.867600  0.895900  1.0  -0.2756
  N  N114  1  0.426800  0.696100  0.614100  1.0  -0.3863
  N  N115  1  0.761600  0.817500  0.803000  1.0  0.0515
  N  N116  1  0.849100  0.761600  0.727000  1.0  -0.6005
