# generated using pymatgen
data_AgH10(C2N)6
_symmetry_space_group_name_H-M   'P 1'
_cell_length_a   15.20350000
_cell_length_b   16.59190000
_cell_length_c   16.12400000
_cell_angle_alpha   90.00000000
_cell_angle_beta   116.84900000
_cell_angle_gamma   90.00000000
_symmetry_Int_Tables_number   1
_chemical_formula_structural   AgH10(C2N)6
_chemical_formula_sum   'Ag8 H80 C96 N48'
_cell_volume   3628.89713645
_cell_formula_units_Z   8
loop_
 _symmetry_equiv_pos_site_id
 _symmetry_equiv_pos_as_xyz
  1  'x, y, z'
loop_
 _atom_site_type_symbol
 _atom_site_label
 _atom_site_symmetry_multiplicity
 _atom_site_fract_x
 _atom_site_fract_y
 _atom_site_fract_z
 _atom_site_occupancy
 _atom_site_charge
  Ag  Ag1  1  0.070270  0.411060  0.395580  1.0  0.3624
  Ag  Ag2  1  0.570270  0.911060  0.395580  1.0  0.3624
  Ag  Ag3  1  0.929730  0.411060  0.104420  1.0  0.3619
  Ag  Ag4  1  0.429730  0.911060  0.104420  1.0  0.3619
  Ag  Ag5  1  0.929730  0.588940  0.604420  1.0  0.3618
  Ag  Ag6  1  0.429730  0.088940  0.604420  1.0  0.3618
  Ag  Ag7  1  0.070270  0.588940  0.895580  1.0  0.3623
  Ag  Ag8  1  0.570270  0.088940  0.895580  1.0  0.3623
  H  H9  1  0.189000  0.305500  0.600100  1.0  0.0576
  H  H10  1  0.195700  0.071700  0.533500  1.0  0.1031
  H  H11  1  0.080600  0.102800  0.379800  1.0  0.0969
  H  H12  1  0.022800  0.233400  0.344000  1.0  0.0477
  H  H13  1  0.400200  0.085500  0.160100  1.0  0.0439
  H  H14  1  0.363700  0.216200  0.106700  1.0  0.0901
  H  H15  1  0.334200  0.246400  0.953400  1.0  0.0941
  H  H16  1  0.386700  0.012800  0.923000  1.0  0.0562
  H  H17  1  0.132000  0.181700  0.728000  1.0  0.314
  H  H18  1  0.182000  0.263000  0.750000  1.0  0.2929
  H  H19  1  0.689000  0.805500  0.600100  1.0  0.0576
  H  H20  1  0.695700  0.571700  0.533500  1.0  0.1031
  H  H21  1  0.580600  0.602800  0.379800  1.0  0.0969
  H  H22  1  0.522800  0.733400  0.344000  1.0  0.0477
  H  H23  1  0.900200  0.585500  0.160100  1.0  0.0439
  H  H24  1  0.863700  0.716200  0.106700  1.0  0.0901
  H  H25  1  0.834200  0.746400  0.953400  1.0  0.0941
  H  H26  1  0.886700  0.512800  0.923000  1.0  0.0562
  H  H27  1  0.632000  0.681700  0.728000  1.0  0.314
  H  H28  1  0.682000  0.763000  0.750000  1.0  0.2929
  H  H29  1  0.811000  0.305500  0.899900  1.0  0.0575
  H  H30  1  0.804300  0.071700  0.966500  1.0  0.1035
  H  H31  1  0.919400  0.102800  0.120200  1.0  0.0971
  H  H32  1  0.977200  0.233400  0.156000  1.0  0.0478
  H  H33  1  0.599800  0.085500  0.339900  1.0  0.0446
  H  H34  1  0.636300  0.216200  0.393300  1.0  0.0901
  H  H35  1  0.665800  0.246400  0.546600  1.0  0.0942
  H  H36  1  0.613300  0.012800  0.577000  1.0  0.0565
  H  H37  1  0.868000  0.181700  0.772000  1.0  0.3196
  H  H38  1  0.818000  0.263000  0.750000  1.0  0.291
  H  H39  1  0.311000  0.805500  0.899900  1.0  0.0575
  H  H40  1  0.304300  0.571700  0.966500  1.0  0.1035
  H  H41  1  0.419400  0.602800  0.120200  1.0  0.0971
  H  H42  1  0.477200  0.733400  0.156000  1.0  0.0478
  H  H43  1  0.099800  0.585500  0.339900  1.0  0.0446
  H  H44  1  0.136300  0.716200  0.393300  1.0  0.0901
  H  H45  1  0.165800  0.746400  0.546600  1.0  0.0942
  H  H46  1  0.113300  0.512800  0.577000  1.0  0.0565
  H  H47  1  0.368000  0.681700  0.772000  1.0  0.3196
  H  H48  1  0.318000  0.763000  0.750000  1.0  0.291
  H  H49  1  0.811000  0.694500  0.399900  1.0  0.058
  H  H50  1  0.804300  0.928300  0.466500  1.0  0.1037
  H  H51  1  0.919400  0.897200  0.620200  1.0  0.0973
  H  H52  1  0.977200  0.766600  0.656000  1.0  0.0472
  H  H53  1  0.599800  0.914500  0.839900  1.0  0.0446
  H  H54  1  0.636300  0.783800  0.893300  1.0  0.0913
  H  H55  1  0.665800  0.753600  0.046600  1.0  0.0944
  H  H56  1  0.613300  0.987200  0.077000  1.0  0.0567
  H  H57  1  0.868000  0.818300  0.272000  1.0  0.3212
  H  H58  1  0.818000  0.737000  0.250000  1.0  0.2926
  H  H59  1  0.311000  0.194500  0.399900  1.0  0.058
  H  H60  1  0.304300  0.428300  0.466500  1.0  0.1037
  H  H61  1  0.419400  0.397200  0.620200  1.0  0.0973
  H  H62  1  0.477200  0.266600  0.656000  1.0  0.0472
  H  H63  1  0.099800  0.414500  0.839900  1.0  0.0446
  H  H64  1  0.136300  0.283800  0.893300  1.0  0.0913
  H  H65  1  0.165800  0.253600  0.046600  1.0  0.0944
  H  H66  1  0.113300  0.487200  0.077000  1.0  0.0567
  H  H67  1  0.368000  0.318300  0.272000  1.0  0.3212
  H  H68  1  0.318000  0.237000  0.250000  1.0  0.2926
  H  H69  1  0.189000  0.694500  0.100100  1.0  0.0584
  H  H70  1  0.195700  0.928300  0.033500  1.0  0.1034
  H  H71  1  0.080600  0.897200  0.879800  1.0  0.0979
  H  H72  1  0.022800  0.766600  0.844000  1.0  0.0474
  H  H73  1  0.400200  0.914500  0.660100  1.0  0.044
  H  H74  1  0.363700  0.783800  0.606700  1.0  0.0916
  H  H75  1  0.334200  0.753600  0.453400  1.0  0.0941
  H  H76  1  0.386700  0.987200  0.423000  1.0  0.057
  H  H77  1  0.132000  0.818300  0.228000  1.0  0.3139
  H  H78  1  0.182000  0.737000  0.250000  1.0  0.2938
  H  H79  1  0.689000  0.194500  0.100100  1.0  0.0584
  H  H80  1  0.695700  0.428300  0.033500  1.0  0.1034
  H  H81  1  0.580600  0.397200  0.879800  1.0  0.0979
  H  H82  1  0.522800  0.266600  0.844000  1.0  0.0474
  H  H83  1  0.900200  0.414500  0.660100  1.0  0.044
  H  H84  1  0.863700  0.283800  0.606700  1.0  0.0916
  H  H85  1  0.834200  0.253600  0.453400  1.0  0.0941
  H  H86  1  0.886700  0.487200  0.423000  1.0  0.057
  H  H87  1  0.632000  0.318300  0.228000  1.0  0.3139
  H  H88  1  0.682000  0.237000  0.250000  1.0  0.2938
  C  C89  1  0.166770  0.263580  0.555040  1.0  0.129
  C  C90  1  0.203160  0.186560  0.582660  1.0  -0.0505
  C  C91  1  0.171430  0.125080  0.516830  1.0  -0.092
  C  C92  1  0.103700  0.143350  0.426440  1.0  -0.2058
  C  C93  1  0.070470  0.221580  0.405740  1.0  0.1378
  C  C94  1  0.389600  0.097240  0.098600  1.0  0.1092
  C  C95  1  0.367400  0.175200  0.067300  1.0  -0.1973
  C  C96  1  0.350500  0.193150  0.977100  1.0  -0.1285
  C  C97  1  0.357820  0.131670  0.922830  1.0  -0.0541
  C  C98  1  0.381340  0.054810  0.960510  1.0  0.1144
  C  C99  1  0.276200  0.167050  0.678450  1.0  0.2396
  C  C100  1  0.342930  0.142700  0.827000  1.0  0.2629
  C  C101  1  0.666770  0.763580  0.555040  1.0  0.129
  C  C102  1  0.703160  0.686560  0.582660  1.0  -0.0505
  C  C103  1  0.671430  0.625080  0.516830  1.0  -0.092
  C  C104  1  0.603700  0.643350  0.426440  1.0  -0.2058
  C  C105  1  0.570470  0.721580  0.405740  1.0  0.1378
  C  C106  1  0.889600  0.597240  0.098600  1.0  0.1092
  C  C107  1  0.867400  0.675200  0.067300  1.0  -0.1973
  C  C108  1  0.850500  0.693150  0.977100  1.0  -0.1285
  C  C109  1  0.857820  0.631670  0.922830  1.0  -0.0541
  C  C110  1  0.881340  0.554810  0.960510  1.0  0.1144
  C  C111  1  0.776200  0.667050  0.678450  1.0  0.2396
  C  C112  1  0.842930  0.642700  0.827000  1.0  0.2629
  C  C113  1  0.833230  0.263580  0.944960  1.0  0.1285
  C  C114  1  0.796840  0.186560  0.917340  1.0  -0.0503
  C  C115  1  0.828570  0.125080  0.983170  1.0  -0.0911
  C  C116  1  0.896300  0.143350  0.073560  1.0  -0.2056
  C  C117  1  0.929530  0.221580  0.094260  1.0  0.138
  C  C118  1  0.610400  0.097240  0.401400  1.0  0.1107
  C  C119  1  0.632600  0.175200  0.432700  1.0  -0.1967
  C  C120  1  0.649500  0.193150  0.522900  1.0  -0.1285
  C  C121  1  0.642180  0.131670  0.577170  1.0  -0.0546
  C  C122  1  0.618660  0.054810  0.539490  1.0  0.1155
  C  C123  1  0.723800  0.167050  0.821550  1.0  0.2401
  C  C124  1  0.657070  0.142700  0.673000  1.0  0.263
  C  C125  1  0.333230  0.763580  0.944960  1.0  0.1285
  C  C126  1  0.296840  0.686560  0.917340  1.0  -0.0503
  C  C127  1  0.328570  0.625080  0.983170  1.0  -0.0911
  C  C128  1  0.396300  0.643350  0.073560  1.0  -0.2056
  C  C129  1  0.429530  0.721580  0.094260  1.0  0.138
  C  C130  1  0.110400  0.597240  0.401400  1.0  0.1107
  C  C131  1  0.132600  0.675200  0.432700  1.0  -0.1967
  C  C132  1  0.149500  0.693150  0.522900  1.0  -0.1285
  C  C133  1  0.142180  0.631670  0.577170  1.0  -0.0546
  C  C134  1  0.118660  0.554810  0.539490  1.0  0.1155
  C  C135  1  0.223800  0.667050  0.821550  1.0  0.2401
  C  C136  1  0.157070  0.642700  0.673000  1.0  0.263
  C  C137  1  0.833230  0.736420  0.444960  1.0  0.1282
  C  C138  1  0.796840  0.813440  0.417340  1.0  -0.0503
  C  C139  1  0.828570  0.874920  0.483170  1.0  -0.0882
  C  C140  1  0.896300  0.856650  0.573560  1.0  -0.2052
  C  C141  1  0.929530  0.778420  0.594260  1.0  0.1383
  C  C142  1  0.610400  0.902760  0.901400  1.0  0.111
  C  C143  1  0.632600  0.824800  0.932700  1.0  -0.1963
  C  C144  1  0.649500  0.806850  0.022900  1.0  -0.1284
  C  C145  1  0.642180  0.868330  0.077170  1.0  -0.0549
  C  C146  1  0.618660  0.945190  0.039490  1.0  0.1145
  C  C147  1  0.723800  0.832950  0.321550  1.0  0.24
  C  C148  1  0.657070  0.857300  0.173000  1.0  0.2634
  C  C149  1  0.333230  0.236420  0.444960  1.0  0.1282
  C  C150  1  0.296840  0.313440  0.417340  1.0  -0.0503
  C  C151  1  0.328570  0.374920  0.483170  1.0  -0.0882
  C  C152  1  0.396300  0.356650  0.573560  1.0  -0.2052
  C  C153  1  0.429530  0.278420  0.594260  1.0  0.1383
  C  C154  1  0.110400  0.402760  0.901400  1.0  0.111
  C  C155  1  0.132600  0.324800  0.932700  1.0  -0.1963
  C  C156  1  0.149500  0.306850  0.022900  1.0  -0.1284
  C  C157  1  0.142180  0.368330  0.077170  1.0  -0.0549
  C  C158  1  0.118660  0.445190  0.039490  1.0  0.1145
  C  C159  1  0.223800  0.332950  0.321550  1.0  0.24
  C  C160  1  0.157070  0.357300  0.173000  1.0  0.2634
  C  C161  1  0.166770  0.736420  0.055040  1.0  0.129
  C  C162  1  0.203160  0.813440  0.082660  1.0  -0.0508
  C  C163  1  0.171430  0.874920  0.016830  1.0  -0.0882
  C  C164  1  0.103700  0.856650  0.926440  1.0  -0.2043
  C  C165  1  0.070470  0.778420  0.905740  1.0  0.1375
  C  C166  1  0.389600  0.902760  0.598600  1.0  0.1086
  C  C167  1  0.367400  0.824800  0.567300  1.0  -0.1963
  C  C168  1  0.350500  0.806850  0.477100  1.0  -0.128
  C  C169  1  0.357820  0.868330  0.422830  1.0  -0.0545
  C  C170  1  0.381340  0.945190  0.460510  1.0  0.1142
  C  C171  1  0.276200  0.832950  0.178450  1.0  0.2395
  C  C172  1  0.342930  0.857300  0.327000  1.0  0.2633
  C  C173  1  0.666770  0.236420  0.055040  1.0  0.129
  C  C174  1  0.703160  0.313440  0.082660  1.0  -0.0508
  C  C175  1  0.671430  0.374920  0.016830  1.0  -0.0882
  C  C176  1  0.603700  0.356650  0.926440  1.0  -0.2043
  C  C177  1  0.570470  0.278420  0.905740  1.0  0.1375
  C  C178  1  0.889600  0.402760  0.598600  1.0  0.1086
  C  C179  1  0.867400  0.324800  0.567300  1.0  -0.1963
  C  C180  1  0.850500  0.306850  0.477100  1.0  -0.128
  C  C181  1  0.857820  0.368330  0.422830  1.0  -0.0545
  C  C182  1  0.881340  0.445190  0.460510  1.0  0.1142
  C  C183  1  0.776200  0.332950  0.178450  1.0  0.2395
  C  C184  1  0.842930  0.357300  0.327000  1.0  0.2633
  N  N185  1  0.101460  0.281830  0.467410  1.0  -0.3954
  N  N186  1  0.396870  0.037040  0.046980  1.0  -0.3356
  N  N187  1  0.403220  0.115630  0.795820  1.0  -0.2514
  N  N188  1  0.360620  0.131100  0.701200  1.0  -0.2543
  N  N189  1  0.262950  0.176980  0.756210  1.0  0.0366
  N  N190  1  0.182210  0.209600  0.765140  1.0  -0.6322
  N  N191  1  0.601460  0.781830  0.467410  1.0  -0.3954
  N  N192  1  0.896870  0.537040  0.046980  1.0  -0.3356
  N  N193  1  0.903220  0.615630  0.795820  1.0  -0.2514
  N  N194  1  0.860620  0.631100  0.701200  1.0  -0.2543
  N  N195  1  0.762950  0.676980  0.756210  1.0  0.0366
  N  N196  1  0.682210  0.709600  0.765140  1.0  -0.6322
  N  N197  1  0.898540  0.281830  0.032590  1.0  -0.3962
  N  N198  1  0.603130  0.037040  0.453020  1.0  -0.3358
  N  N199  1  0.596780  0.115630  0.704180  1.0  -0.25
  N  N200  1  0.639380  0.131100  0.798800  1.0  -0.2551
  N  N201  1  0.737050  0.176980  0.743790  1.0  0.0368
  N  N202  1  0.817790  0.209600  0.734860  1.0  -0.6338
  N  N203  1  0.398540  0.781830  0.032590  1.0  -0.3962
  N  N204  1  0.103130  0.537040  0.453020  1.0  -0.3358
  N  N205  1  0.096780  0.615630  0.704180  1.0  -0.25
  N  N206  1  0.139380  0.631100  0.798800  1.0  -0.2551
  N  N207  1  0.237050  0.676980  0.743790  1.0  0.0368
  N  N208  1  0.317790  0.709600  0.734860  1.0  -0.6338
  N  N209  1  0.898540  0.718170  0.532590  1.0  -0.3958
  N  N210  1  0.603130  0.962960  0.953020  1.0  -0.3351
  N  N211  1  0.596780  0.884370  0.204180  1.0  -0.249
  N  N212  1  0.639380  0.868900  0.298800  1.0  -0.2548
  N  N213  1  0.737050  0.823020  0.243790  1.0  0.0365
  N  N214  1  0.817790  0.790400  0.234860  1.0  -0.6345
  N  N215  1  0.398540  0.218170  0.532590  1.0  -0.3958
  N  N216  1  0.103130  0.462960  0.953020  1.0  -0.3351
  N  N217  1  0.096780  0.384370  0.204180  1.0  -0.249
  N  N218  1  0.139380  0.368900  0.298800  1.0  -0.2548
  N  N219  1  0.237050  0.323020  0.243790  1.0  0.0365
  N  N220  1  0.317790  0.290400  0.234860  1.0  -0.6345
  N  N221  1  0.101460  0.718170  0.967410  1.0  -0.3955
  N  N222  1  0.396870  0.962960  0.546980  1.0  -0.3353
  N  N223  1  0.403220  0.884370  0.295820  1.0  -0.2513
  N  N224  1  0.360620  0.868900  0.201200  1.0  -0.2536
  N  N225  1  0.262950  0.823020  0.256210  1.0  0.0365
  N  N226  1  0.182210  0.790400  0.265140  1.0  -0.6329
  N  N227  1  0.601460  0.218170  0.967410  1.0  -0.3955
  N  N228  1  0.896870  0.462960  0.546980  1.0  -0.3353
  N  N229  1  0.903220  0.384370  0.295820  1.0  -0.2513
  N  N230  1  0.860620  0.368900  0.201200  1.0  -0.2536
  N  N231  1  0.762950  0.323020  0.256210  1.0  0.0365
  N  N232  1  0.682210  0.290400  0.265140  1.0  -0.6329
