# generated using pymatgen
data_AgH10C12N6ClO4
_symmetry_space_group_name_H-M   'P 1'
_cell_length_a   10.78980000
_cell_length_b   10.78980000
_cell_length_c   15.99830000
_cell_angle_alpha   106.08000000
_cell_angle_beta   106.08000000
_cell_angle_gamma   97.87870000
_symmetry_Int_Tables_number   1
_chemical_formula_structural   AgH10C12N6ClO4
_chemical_formula_sum   'Ag4 H40 C48 N24 Cl4 O16'
_cell_volume   1672.89299676
_cell_formula_units_Z   4
loop_
 _symmetry_equiv_pos_site_id
 _symmetry_equiv_pos_as_xyz
  1  'x, y, z'
loop_
 _atom_site_type_symbol
 _atom_site_label
 _atom_site_symmetry_multiplicity
 _atom_site_fract_x
 _atom_site_fract_y
 _atom_site_fract_z
 _atom_site_occupancy
 _atom_site_charge
  Ag  Ag1  1  0.256940  0.603500  0.608040  1.0  0.4064
  Ag  Ag2  1  0.396500  0.743060  0.891960  1.0  0.4064
  Ag  Ag3  1  0.743060  0.396500  0.391960  1.0  0.4065
  Ag  Ag4  1  0.603500  0.256940  0.108040  1.0  0.4073
  H  H5  1  0.277500  0.399700  0.404000  1.0  0.0809
  H  H6  1  0.573700  0.214700  0.470700  1.0  0.1194
  H  H7  1  0.581300  0.294100  0.625200  1.0  0.1167
  H  H8  1  0.436900  0.422900  0.662400  1.0  0.0753
  H  H9  1  0.435200  0.966600  0.078500  1.0  0.0887
  H  H10  1  0.133200  0.153600  0.055100  1.0  0.1136
  H  H11  1  0.039500  0.014700  0.900200  1.0  0.1082
  H  H12  1  0.144100  0.854300  0.841600  1.0  0.0887
  H  H13  1  0.188900  0.089100  0.275000  1.0  0.3311
  H  H14  1  0.152000  0.198000  0.256500  1.0  0.3568
  H  H15  1  0.600300  0.722500  0.096000  1.0  0.0811
  H  H16  1  0.785300  0.426300  0.029300  1.0  0.1204
  H  H17  1  0.705900  0.418700  0.874800  1.0  0.1155
  H  H18  1  0.577100  0.563100  0.837600  1.0  0.0768
  H  H19  1  0.033400  0.564800  0.421500  1.0  0.0889
  H  H20  1  0.846400  0.866800  0.444900  1.0  0.1142
  H  H21  1  0.985300  0.960500  0.599800  1.0  0.1078
  H  H22  1  0.145700  0.855900  0.658400  1.0  0.0887
  H  H23  1  0.910900  0.811100  0.225000  1.0  0.3355
  H  H24  1  0.802000  0.848000  0.243500  1.0  0.3565
  H  H25  1  0.722500  0.600300  0.596000  1.0  0.0809
  H  H26  1  0.426300  0.785300  0.529300  1.0  0.1197
  H  H27  1  0.418700  0.705900  0.374800  1.0  0.1159
  H  H28  1  0.563100  0.577100  0.337600  1.0  0.0768
  H  H29  1  0.564800  0.033400  0.921500  1.0  0.0892
  H  H30  1  0.866800  0.846400  0.944900  1.0  0.1135
  H  H31  1  0.960500  0.985300  0.099800  1.0  0.108
  H  H32  1  0.855900  0.145700  0.158400  1.0  0.0884
  H  H33  1  0.811100  0.910900  0.725000  1.0  0.3317
  H  H34  1  0.848000  0.802000  0.743500  1.0  0.3563
  H  H35  1  0.399700  0.277500  0.904000  1.0  0.0808
  H  H36  1  0.214700  0.573700  0.970700  1.0  0.1201
  H  H37  1  0.294100  0.581300  0.125200  1.0  0.1166
  H  H38  1  0.422900  0.436900  0.162400  1.0  0.0761
  H  H39  1  0.966600  0.435200  0.578500  1.0  0.0889
  H  H40  1  0.153600  0.133200  0.555100  1.0  0.1141
  H  H41  1  0.014700  0.039500  0.400200  1.0  0.1073
  H  H42  1  0.854300  0.144100  0.341600  1.0  0.089
  H  H43  1  0.089100  0.188900  0.775000  1.0  0.3332
  H  H44  1  0.198000  0.152000  0.756500  1.0  0.3604
  C  C45  1  0.340300  0.378060  0.449230  1.0  0.1614
  C  C46  1  0.423480  0.299400  0.421630  1.0  -0.0115
  C  C47  1  0.515280  0.267580  0.487600  1.0  -0.0518
  C  C48  1  0.519900  0.314520  0.578520  1.0  -0.1335
  C  C49  1  0.433590  0.391570  0.600010  1.0  0.1678
  C  C50  1  0.423420  0.254740  0.325870  1.0  0.2597
  C  C51  1  0.366230  0.156010  0.178160  1.0  0.257
  C  C52  1  0.353260  0.976080  0.042230  1.0  0.14
  C  C53  1  0.294310  0.072390  0.082620  1.0  -0.0171
  C  C54  1  0.175430  0.088310  0.029700  1.0  -0.0961
  C  C55  1  0.120300  0.005920  0.938520  1.0  -0.1587
  C  C56  1  0.183820  0.911140  0.903800  1.0  0.1624
  C  C57  1  0.621940  0.659700  0.050770  1.0  0.1606
  C  C58  1  0.700600  0.576520  0.078370  1.0  -0.0118
  C  C59  1  0.732420  0.484720  0.012400  1.0  -0.0498
  C  C60  1  0.685480  0.480100  0.921480  1.0  -0.132
  C  C61  1  0.608430  0.566410  0.899990  1.0  0.167
  C  C62  1  0.745260  0.576580  0.174130  1.0  0.2571
  C  C63  1  0.843990  0.633770  0.321840  1.0  0.2554
  C  C64  1  0.023920  0.646740  0.457770  1.0  0.1385
  C  C65  1  0.927610  0.705690  0.417380  1.0  -0.0176
  C  C66  1  0.911690  0.824570  0.470300  1.0  -0.0961
  C  C67  1  0.994080  0.879700  0.561480  1.0  -0.161
  C  C68  1  0.088860  0.816180  0.596200  1.0  0.1612
  C  C69  1  0.659700  0.621940  0.550770  1.0  0.1611
  C  C70  1  0.576520  0.700600  0.578370  1.0  -0.0125
  C  C71  1  0.484720  0.732420  0.512400  1.0  -0.0523
  C  C72  1  0.480100  0.685480  0.421480  1.0  -0.1381
  C  C73  1  0.566410  0.608430  0.399990  1.0  0.1678
  C  C74  1  0.576580  0.745260  0.674130  1.0  0.2557
  C  C75  1  0.633770  0.843990  0.821840  1.0  0.2555
  C  C76  1  0.646740  0.023920  0.957770  1.0  0.1381
  C  C77  1  0.705690  0.927610  0.917380  1.0  -0.0177
  C  C78  1  0.824570  0.911690  0.970300  1.0  -0.0955
  C  C79  1  0.879700  0.994080  0.061480  1.0  -0.1587
  C  C80  1  0.816180  0.088860  0.096200  1.0  0.1622
  C  C81  1  0.378060  0.340300  0.949230  1.0  0.1624
  C  C82  1  0.299400  0.423480  0.921630  1.0  -0.0117
  C  C83  1  0.267580  0.515280  0.987600  1.0  -0.0501
  C  C84  1  0.314520  0.519900  0.078520  1.0  -0.135
  C  C85  1  0.391570  0.433590  0.100010  1.0  0.1676
  C  C86  1  0.254740  0.423420  0.825870  1.0  0.2576
  C  C87  1  0.156010  0.366230  0.678160  1.0  0.2544
  C  C88  1  0.976080  0.353260  0.542230  1.0  0.1393
  C  C89  1  0.072390  0.294310  0.582620  1.0  -0.0175
  C  C90  1  0.088310  0.175430  0.529700  1.0  -0.094
  C  C91  1  0.005920  0.120300  0.438520  1.0  -0.1553
  C  C92  1  0.911140  0.183820  0.403800  1.0  0.1614
  N  N93  1  0.345540  0.424420  0.537510  1.0  -0.3652
  N  N94  1  0.529420  0.274820  0.302350  1.0  -0.2531
  N  N95  1  0.493110  0.212170  0.208190  1.0  -0.2415
  N  N96  1  0.317770  0.181970  0.249550  1.0  0.1064
  N  N97  1  0.186240  0.133440  0.242100  1.0  -0.5951
  N  N98  1  0.299190  0.896170  0.954360  1.0  -0.3259
  N  N99  1  0.575580  0.654460  0.962490  1.0  -0.3655
  N  N100  1  0.725180  0.470580  0.197650  1.0  -0.2563
  N  N101  1  0.787830  0.506890  0.291810  1.0  -0.2386
  N  N102  1  0.818030  0.682230  0.250450  1.0  0.1059
  N  N103  1  0.866560  0.813760  0.257900  1.0  -0.5948
  N  N104  1  0.103830  0.700810  0.545640  1.0  -0.3262
  N  N105  1  0.654460  0.575580  0.462490  1.0  -0.3661
  N  N106  1  0.470580  0.725180  0.697650  1.0  -0.2536
  N  N107  1  0.506890  0.787830  0.791810  1.0  -0.2388
  N  N108  1  0.682230  0.818030  0.750450  1.0  0.1067
  N  N109  1  0.813760  0.866560  0.757900  1.0  -0.5942
  N  N110  1  0.700810  0.103830  0.045640  1.0  -0.325
  N  N111  1  0.424420  0.345540  0.037510  1.0  -0.3659
  N  N112  1  0.274820  0.529420  0.802350  1.0  -0.2526
  N  N113  1  0.212170  0.493110  0.708190  1.0  -0.2397
  N  N114  1  0.181970  0.317770  0.749550  1.0  0.1058
  N  N115  1  0.133440  0.186240  0.742100  1.0  -0.5934
  N  N116  1  0.896170  0.299190  0.454360  1.0  -0.327
  Cl  Cl117  1  0.557330  0.904430  0.270210  1.0  1.5902
  Cl  Cl118  1  0.095570  0.442670  0.229790  1.0  1.5911
  Cl  Cl119  1  0.442670  0.095570  0.729790  1.0  1.5909
  Cl  Cl120  1  0.904430  0.557330  0.770210  1.0  1.5921
  O  O121  1  0.631020  0.955320  0.219380  1.0  -0.6205
  O  O122  1  0.424500  0.911500  0.237800  1.0  -0.6131
  O  O123  1  0.568000  0.772800  0.260600  1.0  -0.5727
  O  O124  1  0.617900  0.986700  0.365600  1.0  -0.6725
  O  O125  1  0.044680  0.368980  0.280620  1.0  -0.6194
  O  O126  1  0.088500  0.575500  0.262200  1.0  -0.6185
  O  O127  1  0.227200  0.432000  0.239400  1.0  -0.5765
  O  O128  1  0.013300  0.382100  0.134400  1.0  -0.6705
  O  O129  1  0.368980  0.044680  0.780620  1.0  -0.6194
  O  O130  1  0.575500  0.088500  0.762200  1.0  -0.6141
  O  O131  1  0.432000  0.227200  0.739400  1.0  -0.5718
  O  O132  1  0.382100  0.013300  0.634400  1.0  -0.6724
  O  O133  1  0.955320  0.631020  0.719380  1.0  -0.6209
  O  O134  1  0.911500  0.424500  0.737800  1.0  -0.6155
  O  O135  1  0.772800  0.568000  0.760600  1.0  -0.5743
  O  O136  1  0.986700  0.617900  0.865600  1.0  -0.6719
