# generated using pymatgen
data_Ti3Ga(PO4)5
_symmetry_space_group_name_H-M   'P 1'
_cell_length_a   5.09960000
_cell_length_b   21.25950000
_cell_length_c   8.92090000
_cell_angle_alpha   90.00000000
_cell_angle_beta   90.23940000
_cell_angle_gamma   90.00000000
_symmetry_Int_Tables_number   1
_chemical_formula_structural   Ti3Ga(PO4)5
_chemical_formula_sum   'Ti6 Ga2 P10 O40'
_cell_volume   967.15045107
_cell_formula_units_Z   2
loop_
 _symmetry_equiv_pos_site_id
 _symmetry_equiv_pos_as_xyz
  1  'x, y, z'
loop_
 _atom_site_type_symbol
 _atom_site_label
 _atom_site_symmetry_multiplicity
 _atom_site_fract_x
 _atom_site_fract_y
 _atom_site_fract_z
 _atom_site_occupancy
 _atom_site_charge
  Ti  Ti1  1  0.727810  0.100400  0.021960  1.0  2.0309
  Ti  Ti2  1  0.272190  0.600400  0.978040  1.0  2.0324
  Ti  Ti3  1  0.272190  0.899600  0.978040  1.0  2.0342
  Ti  Ti4  1  0.727810  0.399600  0.021960  1.0  2.0326
  Ti  Ti5  1  0.000000  0.500000  0.500000  1.0  1.6745
  Ti  Ti6  1  0.000000  0.000000  0.500000  1.0  1.6745
  Ga  Ga7  1  0.315300  0.250000  0.243920  1.0  1.7183
  Ga  Ga8  1  0.684700  0.750000  0.756080  1.0  1.721
  P  P9  1  0.213230  0.385780  0.265430  1.0  1.8344
  P  P10  1  0.239730  0.046140  0.839910  1.0  1.8524
  P  P11  1  0.786770  0.885780  0.734570  1.0  1.8337
  P  P12  1  0.760270  0.546140  0.160090  1.0  1.8537
  P  P13  1  0.786770  0.614220  0.734570  1.0  1.8336
  P  P14  1  0.760270  0.953860  0.160090  1.0  1.854
  P  P15  1  0.213230  0.114220  0.265430  1.0  1.8345
  P  P16  1  0.239730  0.453860  0.839910  1.0  1.852
  P  P17  1  0.802700  0.250000  0.055810  1.0  1.8226
  P  P18  1  0.197300  0.750000  0.944190  1.0  1.8236
  O  O19  1  0.263800  0.322700  0.349000  1.0  -0.7809
  O  O20  1  0.720400  0.190700  0.969300  1.0  -0.7276
  O  O21  1  0.417400  0.392430  0.141600  1.0  -0.9291
  O  O22  1  0.024900  0.091400  0.893700  1.0  -0.8707
  O  O23  1  0.938400  0.382920  0.195900  1.0  -0.9264
  O  O24  1  0.750900  0.012400  0.061800  1.0  -0.8835
  O  O25  1  0.505900  0.080860  0.844300  1.0  -0.7548
  O  O26  1  0.234700  0.438850  0.379900  1.0  -0.7933
  O  O27  1  0.184900  0.029500  0.676000  1.0  -0.8217
  O  O28  1  0.736200  0.822700  0.651000  1.0  -0.78
  O  O29  1  0.279600  0.690700  0.030700  1.0  -0.7272
  O  O30  1  0.582600  0.892430  0.858400  1.0  -0.9275
  O  O31  1  0.975100  0.591400  0.106300  1.0  -0.8697
  O  O32  1  0.061600  0.882920  0.804100  1.0  -0.9285
  O  O33  1  0.249100  0.512400  0.938200  1.0  -0.8827
  O  O34  1  0.494100  0.580860  0.155700  1.0  -0.7541
  O  O35  1  0.765300  0.938850  0.620100  1.0  -0.7943
  O  O36  1  0.815100  0.529500  0.324000  1.0  -0.8216
  O  O37  1  0.736200  0.677300  0.651000  1.0  -0.7797
  O  O38  1  0.279600  0.809300  0.030700  1.0  -0.7262
  O  O39  1  0.582600  0.607570  0.858400  1.0  -0.9276
  O  O40  1  0.975100  0.908600  0.106300  1.0  -0.8692
  O  O41  1  0.061600  0.617080  0.804100  1.0  -0.9279
  O  O42  1  0.249100  0.987600  0.938200  1.0  -0.8828
  O  O43  1  0.494100  0.919140  0.155700  1.0  -0.7554
  O  O44  1  0.765300  0.561150  0.620100  1.0  -0.7948
  O  O45  1  0.815100  0.970500  0.324000  1.0  -0.8204
  O  O46  1  0.263800  0.177300  0.349000  1.0  -0.7801
  O  O47  1  0.720400  0.309300  0.969300  1.0  -0.7273
  O  O48  1  0.417400  0.107570  0.141600  1.0  -0.9292
  O  O49  1  0.024900  0.408600  0.893700  1.0  -0.8704
  O  O50  1  0.938400  0.117080  0.195900  1.0  -0.9261
  O  O51  1  0.750900  0.487600  0.061800  1.0  -0.8836
  O  O52  1  0.505900  0.419140  0.844300  1.0  -0.7547
  O  O53  1  0.234700  0.061150  0.379900  1.0  -0.7935
  O  O54  1  0.184900  0.470500  0.676000  1.0  -0.82
  O  O55  1  0.667600  0.250000  0.210900  1.0  -0.8253
  O  O56  1  0.102600  0.250000  0.078600  1.0  -0.8605
  O  O57  1  0.332400  0.750000  0.789100  1.0  -0.8247
  O  O58  1  0.897400  0.750000  0.921400  1.0  -0.8601
