# generated using pymatgen
data_Cu3H22(C21O8)2
_symmetry_space_group_name_H-M   'P 1'
_cell_length_a   31.40650000
_cell_length_b   31.40650000
_cell_length_c   21.57320000
_cell_angle_alpha   90.00000000
_cell_angle_beta   90.00000000
_cell_angle_gamma   90.00000000
_symmetry_Int_Tables_number   1
_chemical_formula_structural   Cu3H22(C21O8)2
_chemical_formula_sum   'Cu24 H176 C336 O128'
_cell_volume   21279.11936371
_cell_formula_units_Z   8
loop_
 _symmetry_equiv_pos_site_id
 _symmetry_equiv_pos_as_xyz
  1  'x, y, z'
loop_
 _atom_site_type_symbol
 _atom_site_label
 _atom_site_symmetry_multiplicity
 _atom_site_fract_x
 _atom_site_fract_y
 _atom_site_fract_z
 _atom_site_occupancy
 _atom_site_charge
  Cu  Cu1  1  0.968140  0.498300  0.299700  1.0  0.897
  Cu  Cu2  1  0.531860  0.001700  0.299700  1.0  0.8981
  Cu  Cu3  1  0.001700  0.968140  0.299700  1.0  0.8973
  Cu  Cu4  1  0.498300  0.531860  0.299700  1.0  0.8968
  Cu  Cu5  1  0.531860  0.498300  0.200300  1.0  0.8969
  Cu  Cu6  1  0.968140  0.001700  0.200300  1.0  0.8989
  Cu  Cu7  1  0.498300  0.968140  0.200300  1.0  0.8976
  Cu  Cu8  1  0.001700  0.531860  0.200300  1.0  0.8972
  Cu  Cu9  1  0.031860  0.501700  0.700300  1.0  0.8972
  Cu  Cu10  1  0.468140  0.998300  0.700300  1.0  0.8985
  Cu  Cu11  1  0.998300  0.031860  0.700300  1.0  0.8979
  Cu  Cu12  1  0.501700  0.468140  0.700300  1.0  0.8966
  Cu  Cu13  1  0.468140  0.501700  0.799700  1.0  0.897
  Cu  Cu14  1  0.031860  0.998300  0.799700  1.0  0.8975
  Cu  Cu15  1  0.501700  0.031860  0.799700  1.0  0.8979
  Cu  Cu16  1  0.998300  0.468140  0.799700  1.0  0.8968
  Cu  Cu17  1  0.250000  0.250000  0.421000  1.0  0.8651
  Cu  Cu18  1  0.250000  0.250000  0.543090  1.0  0.8982
  Cu  Cu19  1  0.250000  0.250000  0.079000  1.0  0.8635
  Cu  Cu20  1  0.250000  0.250000  0.956910  1.0  0.8975
  Cu  Cu21  1  0.750000  0.750000  0.579000  1.0  0.8635
  Cu  Cu22  1  0.750000  0.750000  0.456910  1.0  0.8975
  Cu  Cu23  1  0.750000  0.750000  0.921000  1.0  0.8651
  Cu  Cu24  1  0.750000  0.750000  0.043090  1.0  0.8982
  H  H25  1  0.255360  0.384420  0.574510  1.0  0.1288
  H  H26  1  0.082200  0.460240  0.387940  1.0  0.1129
  H  H27  1  0.390440  0.453990  0.593470  1.0  0.0927
  H  H28  1  0.230690  0.384990  0.389420  1.0  0.1051
  H  H29  1  0.134270  0.525800  0.250190  1.0  0.1007
  H  H30  1  0.325880  0.447330  0.544240  1.0  0.123
  H  H31  1  0.234880  0.494250  0.480890  1.0  0.1253
  H  H32  1  0.203960  0.512350  0.287820  1.0  0.1188
  H  H33  1  0.335690  0.493580  0.747060  1.0  0.1096
  H  H34  1  0.148280  0.446540  0.429720  1.0  0.1154
  H  H35  1  0.266580  0.490730  0.696790  1.0  0.1153
  H  H36  1  0.244640  0.115580  0.574510  1.0  0.1286
  H  H37  1  0.417800  0.039760  0.387940  1.0  0.1131
  H  H38  1  0.109560  0.046010  0.593470  1.0  0.0927
  H  H39  1  0.269310  0.115010  0.389420  1.0  0.1054
  H  H40  1  0.365730  0.974200  0.250190  1.0  0.1007
  H  H41  1  0.174120  0.052670  0.544240  1.0  0.1229
  H  H42  1  0.265120  0.005750  0.480890  1.0  0.1255
  H  H43  1  0.296040  0.987650  0.287820  1.0  0.1188
  H  H44  1  0.164310  0.006420  0.747060  1.0  0.1097
  H  H45  1  0.351720  0.053460  0.429720  1.0  0.1154
  H  H46  1  0.233420  0.009270  0.696790  1.0  0.1154
  H  H47  1  0.115580  0.255360  0.574510  1.0  0.1284
  H  H48  1  0.039760  0.082200  0.387940  1.0  0.1132
  H  H49  1  0.046010  0.390440  0.593470  1.0  0.0925
  H  H50  1  0.115010  0.230690  0.389420  1.0  0.1063
  H  H51  1  0.974200  0.134270  0.250190  1.0  0.1013
  H  H52  1  0.052670  0.325880  0.544240  1.0  0.1237
  H  H53  1  0.005750  0.234880  0.480890  1.0  0.1259
  H  H54  1  0.987650  0.203960  0.287820  1.0  0.119
  H  H55  1  0.006420  0.335690  0.747060  1.0  0.1105
  H  H56  1  0.053460  0.148280  0.429720  1.0  0.1161
  H  H57  1  0.009270  0.266580  0.696790  1.0  0.1157
  H  H58  1  0.384420  0.244640  0.574510  1.0  0.1286
  H  H59  1  0.460240  0.417800  0.387940  1.0  0.1131
  H  H60  1  0.453990  0.109560  0.593470  1.0  0.0926
  H  H61  1  0.384990  0.269310  0.389420  1.0  0.1065
  H  H62  1  0.525800  0.365730  0.250190  1.0  0.1015
  H  H63  1  0.447330  0.174120  0.544240  1.0  0.124
  H  H64  1  0.494250  0.265120  0.480890  1.0  0.125
  H  H65  1  0.512350  0.296040  0.287820  1.0  0.1183
  H  H66  1  0.493580  0.164310  0.747060  1.0  0.1103
  H  H67  1  0.446540  0.351720  0.429720  1.0  0.1161
  H  H68  1  0.490730  0.233420  0.696790  1.0  0.1159
  H  H69  1  0.244640  0.384420  0.925490  1.0  0.1288
  H  H70  1  0.417800  0.460240  0.112060  1.0  0.1125
  H  H71  1  0.109560  0.453990  0.906530  1.0  0.093
  H  H72  1  0.269310  0.384990  0.110580  1.0  0.1062
  H  H73  1  0.365730  0.525800  0.249810  1.0  0.1011
  H  H74  1  0.174120  0.447330  0.955760  1.0  0.1231
  H  H75  1  0.265120  0.494250  0.019110  1.0  0.1251
  H  H76  1  0.296040  0.512350  0.212180  1.0  0.1186
  H  H77  1  0.164310  0.493580  0.752940  1.0  0.1097
  H  H78  1  0.351720  0.446540  0.070280  1.0  0.1155
  H  H79  1  0.233420  0.490730  0.803210  1.0  0.1165
  H  H80  1  0.255360  0.115580  0.925490  1.0  0.1288
  H  H81  1  0.082200  0.039760  0.112060  1.0  0.1128
  H  H82  1  0.390440  0.046010  0.906530  1.0  0.0928
  H  H83  1  0.230690  0.115010  0.110580  1.0  0.1064
  H  H84  1  0.134270  0.974200  0.249810  1.0  0.1008
  H  H85  1  0.325880  0.052670  0.955760  1.0  0.1228
  H  H86  1  0.234880  0.005750  0.019110  1.0  0.1259
  H  H87  1  0.203960  0.987650  0.212180  1.0  0.1186
  H  H88  1  0.335690  0.006420  0.752940  1.0  0.1095
  H  H89  1  0.148280  0.053460  0.070280  1.0  0.1147
  H  H90  1  0.266580  0.009270  0.803210  1.0  0.1156
  H  H91  1  0.384420  0.255360  0.925490  1.0  0.1285
  H  H92  1  0.460240  0.082200  0.112060  1.0  0.1127
  H  H93  1  0.453990  0.390440  0.906530  1.0  0.0924
  H  H94  1  0.384990  0.230690  0.110580  1.0  0.1077
  H  H95  1  0.525800  0.134270  0.249810  1.0  0.1016
  H  H96  1  0.447330  0.325880  0.955760  1.0  0.1239
  H  H97  1  0.494250  0.234880  0.019110  1.0  0.1253
  H  H98  1  0.512350  0.203960  0.212180  1.0  0.1188
  H  H99  1  0.493580  0.335690  0.752940  1.0  0.11
  H  H100  1  0.446540  0.148280  0.070280  1.0  0.1155
  H  H101  1  0.490730  0.266580  0.803210  1.0  0.1161
  H  H102  1  0.115580  0.244640  0.925490  1.0  0.1288
  H  H103  1  0.039760  0.417800  0.112060  1.0  0.113
  H  H104  1  0.046010  0.109560  0.906530  1.0  0.0929
  H  H105  1  0.115010  0.269310  0.110580  1.0  0.1073
  H  H106  1  0.974200  0.365730  0.249810  1.0  0.1018
  H  H107  1  0.052670  0.174120  0.955760  1.0  0.1243
  H  H108  1  0.005750  0.265120  0.019110  1.0  0.126
  H  H109  1  0.987650  0.296040  0.212180  1.0  0.1189
  H  H110  1  0.006420  0.164310  0.752940  1.0  0.1103
  H  H111  1  0.053460  0.351720  0.070280  1.0  0.1158
  H  H112  1  0.009270  0.233420  0.803210  1.0  0.1164
  H  H113  1  0.744640  0.615580  0.425490  1.0  0.1288
  H  H114  1  0.917800  0.539760  0.612060  1.0  0.113
  H  H115  1  0.609560  0.546010  0.406530  1.0  0.0929
  H  H116  1  0.769310  0.615010  0.610580  1.0  0.1067
  H  H117  1  0.865730  0.474200  0.749810  1.0  0.1011
  H  H118  1  0.674120  0.552670  0.455760  1.0  0.1231
  H  H119  1  0.765120  0.505750  0.519110  1.0  0.1247
  H  H120  1  0.796040  0.487650  0.712180  1.0  0.1191
  H  H121  1  0.664310  0.506420  0.252940  1.0  0.1094
  H  H122  1  0.851720  0.553460  0.570280  1.0  0.1154
  H  H123  1  0.733420  0.509270  0.303210  1.0  0.1158
  H  H124  1  0.755360  0.884420  0.425490  1.0  0.1288
  H  H125  1  0.582200  0.960240  0.612060  1.0  0.1127
  H  H126  1  0.890440  0.953990  0.406530  1.0  0.093
  H  H127  1  0.730690  0.884990  0.610580  1.0  0.1063
  H  H128  1  0.634270  0.025800  0.749810  1.0  0.101
  H  H129  1  0.825880  0.947330  0.455760  1.0  0.1228
  H  H130  1  0.734880  0.994250  0.519110  1.0  0.1255
  H  H131  1  0.703960  0.012350  0.712180  1.0  0.1188
  H  H132  1  0.835690  0.993580  0.252940  1.0  0.1098
  H  H133  1  0.648280  0.946540  0.570280  1.0  0.1149
  H  H134  1  0.766580  0.990730  0.303210  1.0  0.1163
  H  H135  1  0.884420  0.744640  0.425490  1.0  0.1286
  H  H136  1  0.960240  0.917800  0.612060  1.0  0.113
  H  H137  1  0.953990  0.609560  0.406530  1.0  0.093
  H  H138  1  0.884990  0.769310  0.610580  1.0  0.1077
  H  H139  1  0.025800  0.865730  0.749810  1.0  0.1016
  H  H140  1  0.947330  0.674120  0.455760  1.0  0.1241
  H  H141  1  0.994250  0.765120  0.519110  1.0  0.1249
  H  H142  1  0.012350  0.796040  0.712180  1.0  0.1183
  H  H143  1  0.993580  0.664310  0.252940  1.0  0.1101
  H  H144  1  0.946540  0.851720  0.570280  1.0  0.1155
  H  H145  1  0.990730  0.733420  0.303210  1.0  0.1167
  H  H146  1  0.615580  0.755360  0.425490  1.0  0.1288
  H  H147  1  0.539760  0.582200  0.612060  1.0  0.1129
  H  H148  1  0.546010  0.890440  0.406530  1.0  0.0925
  H  H149  1  0.615010  0.730690  0.610580  1.0  0.1074
  H  H150  1  0.474200  0.634270  0.749810  1.0  0.1017
  H  H151  1  0.552670  0.825880  0.455760  1.0  0.124
  H  H152  1  0.505750  0.734880  0.519110  1.0  0.1255
  H  H153  1  0.487650  0.703960  0.712180  1.0  0.1194
  H  H154  1  0.506420  0.835690  0.252940  1.0  0.1104
  H  H155  1  0.553460  0.648280  0.570280  1.0  0.116
  H  H156  1  0.509270  0.766580  0.303210  1.0  0.116
  H  H157  1  0.755360  0.615580  0.074510  1.0  0.1286
  H  H158  1  0.582200  0.539760  0.887940  1.0  0.1128
  H  H159  1  0.890440  0.546010  0.093470  1.0  0.0926
  H  H160  1  0.730690  0.615010  0.889420  1.0  0.1051
  H  H161  1  0.634270  0.474200  0.750190  1.0  0.1009
  H  H162  1  0.825880  0.552670  0.044240  1.0  0.1229
  H  H163  1  0.734880  0.505750  0.980890  1.0  0.1256
  H  H164  1  0.703960  0.487650  0.787820  1.0  0.1183
  H  H165  1  0.835690  0.506420  0.247060  1.0  0.1096
  H  H166  1  0.648280  0.553460  0.929720  1.0  0.1153
  H  H167  1  0.766580  0.509270  0.196790  1.0  0.1153
  H  H168  1  0.744640  0.884420  0.074510  1.0  0.1287
  H  H169  1  0.917800  0.960240  0.887940  1.0  0.1127
  H  H170  1  0.609560  0.953990  0.093470  1.0  0.0926
  H  H171  1  0.769310  0.884990  0.889420  1.0  0.1054
  H  H172  1  0.865730  0.025800  0.750190  1.0  0.1006
  H  H173  1  0.674120  0.947330  0.044240  1.0  0.1228
  H  H174  1  0.765120  0.994250  0.980890  1.0  0.1254
  H  H175  1  0.796040  0.012350  0.787820  1.0  0.1186
  H  H176  1  0.664310  0.993580  0.247060  1.0  0.1096
  H  H177  1  0.851720  0.946540  0.929720  1.0  0.1153
  H  H178  1  0.733420  0.990730  0.196790  1.0  0.1156
  H  H179  1  0.615580  0.744640  0.074510  1.0  0.1284
  H  H180  1  0.539760  0.917800  0.887940  1.0  0.1133
  H  H181  1  0.546010  0.609560  0.093470  1.0  0.0924
  H  H182  1  0.615010  0.769310  0.889420  1.0  0.1065
  H  H183  1  0.474200  0.865730  0.750190  1.0  0.1012
  H  H184  1  0.552670  0.674120  0.044240  1.0  0.1242
  H  H185  1  0.505750  0.765120  0.980890  1.0  0.1258
  H  H186  1  0.487650  0.796040  0.787820  1.0  0.1183
  H  H187  1  0.506420  0.664310  0.247060  1.0  0.1103
  H  H188  1  0.553460  0.851720  0.929720  1.0  0.116
  H  H189  1  0.509270  0.733420  0.196790  1.0  0.1154
  H  H190  1  0.884420  0.755360  0.074510  1.0  0.1286
  H  H191  1  0.960240  0.582200  0.887940  1.0  0.1129
  H  H192  1  0.953990  0.890440  0.093470  1.0  0.0926
  H  H193  1  0.884990  0.730690  0.889420  1.0  0.1063
  H  H194  1  0.025800  0.634270  0.750190  1.0  0.1016
  H  H195  1  0.947330  0.825880  0.044240  1.0  0.1236
  H  H196  1  0.994250  0.734880  0.980890  1.0  0.1247
  H  H197  1  0.012350  0.703960  0.787820  1.0  0.1188
  H  H198  1  0.993580  0.835690  0.247060  1.0  0.1104
  H  H199  1  0.946540  0.648280  0.929720  1.0  0.1158
  H  H200  1  0.990730  0.766580  0.196790  1.0  0.1157
  C  C201  1  0.369400  0.474600  0.674100  1.0  -0.1288
  C  C202  1  0.102900  0.495600  0.316600  1.0  -0.1527
  C  C203  1  0.242300  0.377600  0.482700  1.0  -0.1503
  C  C204  1  0.411400  0.479200  0.704200  1.0  0.6817
  C  C205  1  0.057300  0.505900  0.293300  1.0  0.7067
  C  C206  1  0.249000  0.399000  0.538100  1.0  -0.1124
  C  C207  1  0.246500  0.329800  0.482400  1.0  0.6959
  C  C208  1  0.106600  0.470700  0.368800  1.0  -0.0483
  C  C209  1  0.289900  0.468400  0.617200  1.0  0.248
  C  C210  1  0.230700  0.440300  0.430500  1.0  0.2492
  C  C211  1  0.245900  0.443100  0.536900  1.0  0.1771
  C  C212  1  0.365800  0.461000  0.615000  1.0  -0.0323
  C  C213  1  0.233800  0.399300  0.426800  1.0  -0.0609
  C  C214  1  0.180400  0.474500  0.360500  1.0  0.0934
  C  C215  1  0.138000  0.509900  0.286100  1.0  -0.0316
  C  C216  1  0.327200  0.457100  0.584900  1.0  -0.1533
  C  C217  1  0.236800  0.464700  0.482200  1.0  -0.1374
  C  C218  1  0.179700  0.501600  0.306800  1.0  -0.1147
  C  C219  1  0.333600  0.485000  0.705900  1.0  -0.0422
  C  C220  1  0.145600  0.461400  0.392600  1.0  -0.118
  C  C221  1  0.291200  0.482700  0.675900  1.0  -0.1242
  C  C222  1  0.130600  0.025400  0.674100  1.0  -0.1287
  C  C223  1  0.397100  0.004400  0.316600  1.0  -0.1519
  C  C224  1  0.257700  0.122400  0.482700  1.0  -0.1504
  C  C225  1  0.088600  0.020800  0.704200  1.0  0.6818
  C  C226  1  0.442700  0.994100  0.293300  1.0  0.7071
  C  C227  1  0.251000  0.101000  0.538100  1.0  -0.1136
  C  C228  1  0.253500  0.170200  0.482400  1.0  0.6962
  C  C229  1  0.393400  0.029300  0.368800  1.0  -0.049
  C  C230  1  0.210100  0.031600  0.617200  1.0  0.2467
  C  C231  1  0.269300  0.059700  0.430500  1.0  0.2484
  C  C232  1  0.254100  0.056900  0.536900  1.0  0.1767
  C  C233  1  0.134200  0.039000  0.615000  1.0  -0.0328
  C  C234  1  0.266200  0.100700  0.426800  1.0  -0.0619
  C  C235  1  0.319600  0.025500  0.360500  1.0  0.0928
  C  C236  1  0.362000  0.990100  0.286100  1.0  -0.0323
  C  C237  1  0.172800  0.042900  0.584900  1.0  -0.1531
  C  C238  1  0.263200  0.035300  0.482200  1.0  -0.1363
  C  C239  1  0.320300  0.998400  0.306800  1.0  -0.1192
  C  C240  1  0.166400  0.015000  0.705900  1.0  -0.0429
  C  C241  1  0.354400  0.038600  0.392600  1.0  -0.1177
  C  C242  1  0.208800  0.017300  0.675900  1.0  -0.1209
  C  C243  1  0.025400  0.369400  0.674100  1.0  -0.1278
  C  C244  1  0.004400  0.102900  0.316600  1.0  -0.1537
  C  C245  1  0.122400  0.242300  0.482700  1.0  -0.152
  C  C246  1  0.020800  0.411400  0.704200  1.0  0.6834
  C  C247  1  0.994100  0.057300  0.293300  1.0  0.7075
  C  C248  1  0.101000  0.249000  0.538100  1.0  -0.1129
  C  C249  1  0.170200  0.246500  0.482400  1.0  0.695
  C  C250  1  0.029300  0.106600  0.368800  1.0  -0.0496
  C  C251  1  0.031600  0.289900  0.617200  1.0  0.2485
  C  C252  1  0.059700  0.230700  0.430500  1.0  0.2493
  C  C253  1  0.056900  0.245900  0.536900  1.0  0.1771
  C  C254  1  0.039000  0.365800  0.615000  1.0  -0.034
  C  C255  1  0.100700  0.233800  0.426800  1.0  -0.06
  C  C256  1  0.025500  0.180400  0.360500  1.0  0.0926
  C  C257  1  0.990100  0.138000  0.286100  1.0  -0.0305
  C  C258  1  0.042900  0.327200  0.584900  1.0  -0.1539
  C  C259  1  0.035300  0.236800  0.482200  1.0  -0.1411
  C  C260  1  0.998400  0.179700  0.306800  1.0  -0.1166
  C  C261  1  0.015000  0.333600  0.705900  1.0  -0.0429
  C  C262  1  0.038600  0.145600  0.392600  1.0  -0.1174
  C  C263  1  0.017300  0.291200  0.675900  1.0  -0.1244
  C  C264  1  0.474600  0.130600  0.674100  1.0  -0.1275
  C  C265  1  0.495600  0.397100  0.316600  1.0  -0.1525
  C  C266  1  0.377600  0.257700  0.482700  1.0  -0.1523
  C  C267  1  0.479200  0.088600  0.704200  1.0  0.6832
  C  C268  1  0.505900  0.442700  0.293300  1.0  0.7089
  C  C269  1  0.399000  0.251000  0.538100  1.0  -0.1124
  C  C270  1  0.329800  0.253500  0.482400  1.0  0.6955
  C  C271  1  0.470700  0.393400  0.368800  1.0  -0.0495
  C  C272  1  0.468400  0.210100  0.617200  1.0  0.2478
  C  C273  1  0.440300  0.269300  0.430500  1.0  0.2495
  C  C274  1  0.443100  0.254100  0.536900  1.0  0.1763
  C  C275  1  0.461000  0.134200  0.615000  1.0  -0.0325
  C  C276  1  0.399300  0.266200  0.426800  1.0  -0.0582
  C  C277  1  0.474500  0.319600  0.360500  1.0  0.0912
  C  C278  1  0.509900  0.362000  0.286100  1.0  -0.0308
  C  C279  1  0.457100  0.172800  0.584900  1.0  -0.1542
  C  C280  1  0.464700  0.263200  0.482200  1.0  -0.1391
  C  C281  1  0.501600  0.320300  0.306800  1.0  -0.1149
  C  C282  1  0.485000  0.166400  0.705900  1.0  -0.041
  C  C283  1  0.461400  0.354400  0.392600  1.0  -0.1181
  C  C284  1  0.482700  0.208800  0.675900  1.0  -0.1223
  C  C285  1  0.130600  0.474600  0.825900  1.0  -0.1291
  C  C286  1  0.397100  0.495600  0.183400  1.0  -0.1517
  C  C287  1  0.257700  0.377600  0.017300  1.0  -0.1505
  C  C288  1  0.088600  0.479200  0.795800  1.0  0.6815
  C  C289  1  0.442700  0.505900  0.206700  1.0  0.707
  C  C290  1  0.251000  0.399000  0.961900  1.0  -0.1119
  C  C291  1  0.253500  0.329800  0.017600  1.0  0.6956
  C  C292  1  0.393400  0.470700  0.131200  1.0  -0.0478
  C  C293  1  0.210100  0.468400  0.882800  1.0  0.2475
  C  C294  1  0.269300  0.440300  0.069500  1.0  0.2469
  C  C295  1  0.254100  0.443100  0.963100  1.0  0.1782
  C  C296  1  0.134200  0.461000  0.885000  1.0  -0.0332
  C  C297  1  0.266200  0.399300  0.073200  1.0  -0.0628
  C  C298  1  0.319600  0.474500  0.139500  1.0  0.0922
  C  C299  1  0.362000  0.509900  0.213900  1.0  -0.0314
  C  C300  1  0.172800  0.457100  0.915100  1.0  -0.154
  C  C301  1  0.263200  0.464700  0.017800  1.0  -0.1368
  C  C302  1  0.320300  0.501600  0.193200  1.0  -0.1189
  C  C303  1  0.166400  0.485000  0.794100  1.0  -0.0467
  C  C304  1  0.354400  0.461400  0.107400  1.0  -0.1181
  C  C305  1  0.208800  0.482700  0.824100  1.0  -0.1219
  C  C306  1  0.369400  0.025400  0.825900  1.0  -0.1288
  C  C307  1  0.102900  0.004400  0.183400  1.0  -0.153
  C  C308  1  0.242300  0.122400  0.017300  1.0  -0.1506
  C  C309  1  0.411400  0.020800  0.795800  1.0  0.6815
  C  C310  1  0.057300  0.994100  0.206700  1.0  0.7069
  C  C311  1  0.249000  0.101000  0.961900  1.0  -0.1128
  C  C312  1  0.246500  0.170200  0.017600  1.0  0.6958
  C  C313  1  0.106600  0.029300  0.131200  1.0  -0.0495
  C  C314  1  0.289900  0.031600  0.882800  1.0  0.2476
  C  C315  1  0.230700  0.059700  0.069500  1.0  0.2466
  C  C316  1  0.245900  0.056900  0.963100  1.0  0.178
  C  C317  1  0.365800  0.039000  0.885000  1.0  -0.0322
  C  C318  1  0.233800  0.100700  0.073200  1.0  -0.0634
  C  C319  1  0.180400  0.025500  0.139500  1.0  0.0933
  C  C320  1  0.138000  0.990100  0.213900  1.0  -0.0318
  C  C321  1  0.327200  0.042900  0.915100  1.0  -0.1535
  C  C322  1  0.236800  0.035300  0.017800  1.0  -0.1355
  C  C323  1  0.179700  0.998400  0.193200  1.0  -0.1134
  C  C324  1  0.333600  0.015000  0.794100  1.0  -0.0448
  C  C325  1  0.145600  0.038600  0.107400  1.0  -0.1175
  C  C326  1  0.291200  0.017300  0.824100  1.0  -0.1243
  C  C327  1  0.474600  0.369400  0.825900  1.0  -0.1278
  C  C328  1  0.495600  0.102900  0.183400  1.0  -0.1528
  C  C329  1  0.377600  0.242300  0.017300  1.0  -0.1522
  C  C330  1  0.479200  0.411400  0.795800  1.0  0.6832
  C  C331  1  0.505900  0.057300  0.206700  1.0  0.7081
  C  C332  1  0.399000  0.249000  0.961900  1.0  -0.1104
  C  C333  1  0.329800  0.246500  0.017600  1.0  0.6951
  C  C334  1  0.470700  0.106600  0.131200  1.0  -0.0491
  C  C335  1  0.468400  0.289900  0.882800  1.0  0.249
  C  C336  1  0.440300  0.230700  0.069500  1.0  0.2473
  C  C337  1  0.443100  0.245900  0.963100  1.0  0.1781
  C  C338  1  0.461000  0.365800  0.885000  1.0  -0.0335
  C  C339  1  0.399300  0.233800  0.073200  1.0  -0.0614
  C  C340  1  0.474500  0.180400  0.139500  1.0  0.0916
  C  C341  1  0.509900  0.138000  0.213900  1.0  -0.0304
  C  C342  1  0.457100  0.327200  0.915100  1.0  -0.1544
  C  C343  1  0.464700  0.236800  0.017800  1.0  -0.1385
  C  C344  1  0.501600  0.179700  0.193200  1.0  -0.1133
  C  C345  1  0.485000  0.333600  0.794100  1.0  -0.0459
  C  C346  1  0.461400  0.145600  0.107400  1.0  -0.1177
  C  C347  1  0.482700  0.291200  0.824100  1.0  -0.1237
  C  C348  1  0.025400  0.130600  0.825900  1.0  -0.1278
  C  C349  1  0.004400  0.397100  0.183400  1.0  -0.153
  C  C350  1  0.122400  0.257700  0.017300  1.0  -0.1523
  C  C351  1  0.020800  0.088600  0.795800  1.0  0.683
  C  C352  1  0.994100  0.442700  0.206700  1.0  0.7084
  C  C353  1  0.101000  0.251000  0.961900  1.0  -0.1122
  C  C354  1  0.170200  0.253500  0.017600  1.0  0.6948
  C  C355  1  0.029300  0.393400  0.131200  1.0  -0.0505
  C  C356  1  0.031600  0.210100  0.882800  1.0  0.2487
  C  C357  1  0.059700  0.269300  0.069500  1.0  0.2463
  C  C358  1  0.056900  0.254100  0.963100  1.0  0.1786
  C  C359  1  0.039000  0.134200  0.885000  1.0  -0.0333
  C  C360  1  0.100700  0.266200  0.073200  1.0  -0.0613
  C  C361  1  0.025500  0.319600  0.139500  1.0  0.0917
  C  C362  1  0.990100  0.362000  0.213900  1.0  -0.0307
  C  C363  1  0.042900  0.172800  0.915100  1.0  -0.1538
  C  C364  1  0.035300  0.263200  0.017800  1.0  -0.1406
  C  C365  1  0.998400  0.320300  0.193200  1.0  -0.1162
  C  C366  1  0.015000  0.166400  0.794100  1.0  -0.0449
  C  C367  1  0.038600  0.354400  0.107400  1.0  -0.1176
  C  C368  1  0.017300  0.208800  0.824100  1.0  -0.1252
  C  C369  1  0.630600  0.525400  0.325900  1.0  -0.1291
  C  C370  1  0.897100  0.504400  0.683400  1.0  -0.1519
  C  C371  1  0.757700  0.622400  0.517300  1.0  -0.1505
  C  C372  1  0.588600  0.520800  0.295800  1.0  0.6815
  C  C373  1  0.942700  0.494100  0.706700  1.0  0.7071
  C  C374  1  0.751000  0.601000  0.461900  1.0  -0.113
  C  C375  1  0.753500  0.670200  0.517600  1.0  0.6959
  C  C376  1  0.893400  0.529300  0.631200  1.0  -0.0491
  C  C377  1  0.710100  0.531600  0.382800  1.0  0.2472
  C  C378  1  0.769300  0.559700  0.569500  1.0  0.2472
  C  C379  1  0.754100  0.556900  0.463100  1.0  0.1781
  C  C380  1  0.634200  0.539000  0.385000  1.0  -0.0333
  C  C381  1  0.766200  0.600700  0.573200  1.0  -0.0638
  C  C382  1  0.819600  0.525500  0.639500  1.0  0.0923
  C  C383  1  0.862000  0.490100  0.713900  1.0  -0.0318
  C  C384  1  0.672800  0.542900  0.415100  1.0  -0.1538
  C  C385  1  0.763200  0.535300  0.517800  1.0  -0.1355
  C  C386  1  0.820300  0.498400  0.693200  1.0  -0.1193
  C  C387  1  0.666400  0.515000  0.294100  1.0  -0.0454
  C  C388  1  0.854400  0.538600  0.607400  1.0  -0.1175
  C  C389  1  0.708800  0.517300  0.324100  1.0  -0.1219
  C  C390  1  0.869400  0.974600  0.325900  1.0  -0.1288
  C  C391  1  0.602900  0.995600  0.683400  1.0  -0.1527
  C  C392  1  0.742300  0.877600  0.517300  1.0  -0.1506
  C  C393  1  0.911400  0.979200  0.295800  1.0  0.6814
  C  C394  1  0.557300  0.005900  0.706700  1.0  0.7068
  C  C395  1  0.749000  0.899000  0.461900  1.0  -0.1115
  C  C396  1  0.746500  0.829800  0.517600  1.0  0.6956
  C  C397  1  0.606600  0.970700  0.631200  1.0  -0.0485
  C  C398  1  0.789900  0.968400  0.382800  1.0  0.2485
  C  C399  1  0.730700  0.940300  0.569500  1.0  0.2463
  C  C400  1  0.745900  0.943100  0.463100  1.0  0.1789
  C  C401  1  0.865800  0.961000  0.385000  1.0  -0.0323
  C  C402  1  0.733800  0.899300  0.573200  1.0  -0.0628
  C  C403  1  0.680400  0.974500  0.639500  1.0  0.093
  C  C404  1  0.638000  0.009900  0.713900  1.0  -0.031
  C  C405  1  0.827200  0.957100  0.415100  1.0  -0.1537
  C  C406  1  0.736800  0.964700  0.517800  1.0  -0.1371
  C  C407  1  0.679700  0.001600  0.693200  1.0  -0.113
  C  C408  1  0.833600  0.985000  0.294100  1.0  -0.0463
  C  C409  1  0.645600  0.961400  0.607400  1.0  -0.1184
  C  C410  1  0.791200  0.982700  0.324100  1.0  -0.1249
  C  C411  1  0.974600  0.630600  0.325900  1.0  -0.1279
  C  C412  1  0.995600  0.897100  0.683400  1.0  -0.1527
  C  C413  1  0.877600  0.757700  0.517300  1.0  -0.1524
  C  C414  1  0.979200  0.588600  0.295800  1.0  0.683
  C  C415  1  0.005900  0.942700  0.706700  1.0  0.7089
  C  C416  1  0.899000  0.751000  0.461900  1.0  -0.1101
  C  C417  1  0.829800  0.753500  0.517600  1.0  0.6952
  C  C418  1  0.970700  0.893400  0.631200  1.0  -0.0497
  C  C419  1  0.968400  0.710100  0.382800  1.0  0.2483
  C  C420  1  0.940300  0.769300  0.569500  1.0  0.247
  C  C421  1  0.943100  0.754100  0.463100  1.0  0.1789
  C  C422  1  0.961000  0.634200  0.385000  1.0  -0.0337
  C  C423  1  0.899300  0.766200  0.573200  1.0  -0.0614
  C  C424  1  0.974500  0.819600  0.639500  1.0  0.0911
  C  C425  1  0.009900  0.862000  0.713900  1.0  -0.0305
  C  C426  1  0.957100  0.672800  0.415100  1.0  -0.155
  C  C427  1  0.964700  0.763200  0.517800  1.0  -0.1384
  C  C428  1  0.001600  0.820300  0.693200  1.0  -0.1134
  C  C429  1  0.985000  0.666400  0.294100  1.0  -0.0455
  C  C430  1  0.961400  0.854400  0.607400  1.0  -0.1178
  C  C431  1  0.982700  0.708800  0.324100  1.0  -0.1242
  C  C432  1  0.525400  0.869400  0.325900  1.0  -0.1278
  C  C433  1  0.504400  0.602900  0.683400  1.0  -0.1536
  C  C434  1  0.622400  0.742300  0.517300  1.0  -0.1522
  C  C435  1  0.520800  0.911400  0.295800  1.0  0.6832
  C  C436  1  0.494100  0.557300  0.706700  1.0  0.7076
  C  C437  1  0.601000  0.749000  0.461900  1.0  -0.1128
  C  C438  1  0.670200  0.746500  0.517600  1.0  0.6947
  C  C439  1  0.529300  0.606600  0.631200  1.0  -0.05
  C  C440  1  0.531600  0.789900  0.382800  1.0  0.2489
  C  C441  1  0.559700  0.730700  0.569500  1.0  0.2468
  C  C442  1  0.556900  0.745900  0.463100  1.0  0.1778
  C  C443  1  0.539000  0.865800  0.385000  1.0  -0.0332
  C  C444  1  0.600700  0.733800  0.573200  1.0  -0.0613
  C  C445  1  0.525500  0.680400  0.639500  1.0  0.0923
  C  C446  1  0.490100  0.638000  0.713900  1.0  -0.0311
  C  C447  1  0.542900  0.827200  0.415100  1.0  -0.1535
  C  C448  1  0.535300  0.736800  0.517800  1.0  -0.1407
  C  C449  1  0.498400  0.679700  0.693200  1.0  -0.1165
  C  C450  1  0.515000  0.833600  0.294100  1.0  -0.0447
  C  C451  1  0.538600  0.645600  0.607400  1.0  -0.1179
  C  C452  1  0.517300  0.791200  0.324100  1.0  -0.1256
  C  C453  1  0.869400  0.525400  0.174100  1.0  -0.1289
  C  C454  1  0.602900  0.504400  0.816600  1.0  -0.1532
  C  C455  1  0.742300  0.622400  0.982700  1.0  -0.1504
  C  C456  1  0.911400  0.520800  0.204200  1.0  0.6817
  C  C457  1  0.557300  0.494100  0.793300  1.0  0.7069
  C  C458  1  0.749000  0.601000  0.038100  1.0  -0.1136
  C  C459  1  0.746500  0.670200  0.982400  1.0  0.696
  C  C460  1  0.606600  0.529300  0.868800  1.0  -0.0498
  C  C461  1  0.789900  0.531600  0.117200  1.0  0.2471
  C  C462  1  0.730700  0.559700  0.930500  1.0  0.2485
  C  C463  1  0.745900  0.556900  0.036900  1.0  0.1773
  C  C464  1  0.865800  0.539000  0.115000  1.0  -0.0323
  C  C465  1  0.733800  0.600700  0.926800  1.0  -0.0616
  C  C466  1  0.680400  0.525500  0.860500  1.0  0.0938
  C  C467  1  0.638000  0.490100  0.786100  1.0  -0.0328
  C  C468  1  0.827200  0.542900  0.084900  1.0  -0.1534
  C  C469  1  0.736800  0.535300  0.982200  1.0  -0.1362
  C  C470  1  0.679700  0.498400  0.806800  1.0  -0.115
  C  C471  1  0.833600  0.515000  0.205900  1.0  -0.0424
  C  C472  1  0.645600  0.538600  0.892600  1.0  -0.1178
  C  C473  1  0.791200  0.517300  0.175900  1.0  -0.1234
  C  C474  1  0.630600  0.974600  0.174100  1.0  -0.1287
  C  C475  1  0.897100  0.995600  0.816600  1.0  -0.1516
  C  C476  1  0.757700  0.877600  0.982700  1.0  -0.1502
  C  C477  1  0.588600  0.979200  0.204200  1.0  0.6818
  C  C478  1  0.942700  0.005900  0.793300  1.0  0.7069
  C  C479  1  0.751000  0.899000  0.038100  1.0  -0.113
  C  C480  1  0.753500  0.829800  0.982400  1.0  0.6959
  C  C481  1  0.893400  0.970700  0.868800  1.0  -0.0476
  C  C482  1  0.710100  0.968400  0.117200  1.0  0.247
  C  C483  1  0.769300  0.940300  0.930500  1.0  0.2493
  C  C484  1  0.754100  0.943100  0.036900  1.0  0.1759
  C  C485  1  0.634200  0.961000  0.115000  1.0  -0.0328
  C  C486  1  0.766200  0.899300  0.926800  1.0  -0.0611
  C  C487  1  0.819600  0.974500  0.860500  1.0  0.0926
  C  C488  1  0.862000  0.009900  0.786100  1.0  -0.0312
  C  C489  1  0.672800  0.957100  0.084900  1.0  -0.153
  C  C490  1  0.763200  0.964700  0.982200  1.0  -0.1373
  C  C491  1  0.820300  0.001600  0.806800  1.0  -0.119
  C  C492  1  0.666400  0.985000  0.205900  1.0  -0.0424
  C  C493  1  0.854400  0.961400  0.892600  1.0  -0.118
  C  C494  1  0.708800  0.982700  0.175900  1.0  -0.1211
  C  C495  1  0.525400  0.630600  0.174100  1.0  -0.1275
  C  C496  1  0.504400  0.897100  0.816600  1.0  -0.1528
  C  C497  1  0.622400  0.757700  0.982700  1.0  -0.1521
  C  C498  1  0.520800  0.588600  0.204200  1.0  0.6832
  C  C499  1  0.494100  0.942700  0.793300  1.0  0.7085
  C  C500  1  0.601000  0.751000  0.038100  1.0  -0.1122
  C  C501  1  0.670200  0.753500  0.982400  1.0  0.6951
  C  C502  1  0.529300  0.893400  0.868800  1.0  -0.0495
  C  C503  1  0.531600  0.710100  0.117200  1.0  0.2482
  C  C504  1  0.559700  0.769300  0.930500  1.0  0.2483
  C  C505  1  0.556900  0.754100  0.036900  1.0  0.1767
  C  C506  1  0.539000  0.634200  0.115000  1.0  -0.0329
  C  C507  1  0.600700  0.766200  0.926800  1.0  -0.0597
  C  C508  1  0.525500  0.819600  0.860500  1.0  0.0919
  C  C509  1  0.490100  0.862000  0.786100  1.0  -0.0302
  C  C510  1  0.542900  0.672800  0.084900  1.0  -0.1535
  C  C511  1  0.535300  0.763200  0.982200  1.0  -0.1411
  C  C512  1  0.498400  0.820300  0.806800  1.0  -0.1161
  C  C513  1  0.515000  0.666400  0.205900  1.0  -0.0426
  C  C514  1  0.538600  0.854400  0.892600  1.0  -0.1173
  C  C515  1  0.517300  0.708800  0.175900  1.0  -0.124
  C  C516  1  0.974600  0.869400  0.174100  1.0  -0.1278
  C  C517  1  0.995600  0.602900  0.816600  1.0  -0.1528
  C  C518  1  0.877600  0.742300  0.982700  1.0  -0.1522
  C  C519  1  0.979200  0.911400  0.204200  1.0  0.6834
  C  C520  1  0.005900  0.557300  0.793300  1.0  0.7079
  C  C521  1  0.899000  0.749000  0.038100  1.0  -0.1128
  C  C522  1  0.829800  0.746500  0.982400  1.0  0.6954
  C  C523  1  0.970700  0.606600  0.868800  1.0  -0.0491
  C  C524  1  0.968400  0.789900  0.117200  1.0  0.2486
  C  C525  1  0.940300  0.730700  0.930500  1.0  0.25
  C  C526  1  0.943100  0.745900  0.036900  1.0  0.1767
  C  C527  1  0.961000  0.865800  0.115000  1.0  -0.0334
  C  C528  1  0.899300  0.733800  0.926800  1.0  -0.0586
  C  C529  1  0.974500  0.680400  0.860500  1.0  0.092
  C  C530  1  0.009900  0.638000  0.786100  1.0  -0.0308
  C  C531  1  0.957100  0.827200  0.084900  1.0  -0.1545
  C  C532  1  0.964700  0.736800  0.982200  1.0  -0.1391
  C  C533  1  0.001600  0.679700  0.806800  1.0  -0.1154
  C  C534  1  0.985000  0.833600  0.205900  1.0  -0.0416
  C  C535  1  0.961400  0.645600  0.892600  1.0  -0.1177
  C  C536  1  0.982700  0.791200  0.175900  1.0  -0.1225
  O  O537  1  0.412350  0.493130  0.758800  1.0  -0.5588
  O  O538  1  0.442340  0.467720  0.671600  1.0  -0.5705
  O  O539  1  0.027600  0.492630  0.325300  1.0  -0.5615
  O  O540  1  0.055860  0.525500  0.243600  1.0  -0.5658
  O  O541  1  0.251810  0.312190  0.533400  1.0  -0.5579
  O  O542  1  0.241180  0.312090  0.430100  1.0  -0.5694
  O  O543  1  0.249280  0.466290  0.592900  1.0  -0.3164
  O  O544  1  0.224940  0.466500  0.375700  1.0  -0.3279
  O  O545  1  0.087650  0.006870  0.758800  1.0  -0.5583
  O  O546  1  0.057660  0.032280  0.671600  1.0  -0.57
  O  O547  1  0.472400  0.007370  0.325300  1.0  -0.561
  O  O548  1  0.444140  0.974500  0.243600  1.0  -0.5664
  O  O549  1  0.248190  0.187810  0.533400  1.0  -0.5581
  O  O550  1  0.258820  0.187910  0.430100  1.0  -0.5691
  O  O551  1  0.250720  0.033710  0.592900  1.0  -0.3183
  O  O552  1  0.275060  0.033500  0.375700  1.0  -0.3278
  O  O553  1  0.006870  0.412350  0.758800  1.0  -0.5587
  O  O554  1  0.032280  0.442340  0.671600  1.0  -0.5711
  O  O555  1  0.007370  0.027600  0.325300  1.0  -0.5615
  O  O556  1  0.974500  0.055860  0.243600  1.0  -0.565
  O  O557  1  0.187810  0.251810  0.533400  1.0  -0.5578
  O  O558  1  0.187910  0.241180  0.430100  1.0  -0.5692
  O  O559  1  0.033710  0.249280  0.592900  1.0  -0.3169
  O  O560  1  0.033500  0.224940  0.375700  1.0  -0.3253
  O  O561  1  0.493130  0.087650  0.758800  1.0  -0.5578
  O  O562  1  0.467720  0.057660  0.671600  1.0  -0.5704
  O  O563  1  0.492630  0.472400  0.325300  1.0  -0.562
  O  O564  1  0.525500  0.444140  0.243600  1.0  -0.5652
  O  O565  1  0.312190  0.248190  0.533400  1.0  -0.5579
  O  O566  1  0.312090  0.258820  0.430100  1.0  -0.569
  O  O567  1  0.466290  0.250720  0.592900  1.0  -0.3183
  O  O568  1  0.466500  0.275060  0.375700  1.0  -0.3268
  O  O569  1  0.087650  0.493130  0.741200  1.0  -0.5588
  O  O570  1  0.057660  0.467720  0.828400  1.0  -0.5691
  O  O571  1  0.472400  0.492630  0.174700  1.0  -0.5614
  O  O572  1  0.444140  0.525500  0.256400  1.0  -0.5668
  O  O573  1  0.248190  0.312190  0.966600  1.0  -0.5596
  O  O574  1  0.258820  0.312090  0.069900  1.0  -0.5682
  O  O575  1  0.250720  0.466290  0.907100  1.0  -0.3203
  O  O576  1  0.275060  0.466500  0.124300  1.0  -0.3262
  O  O577  1  0.412350  0.006870  0.741200  1.0  -0.56
  O  O578  1  0.442340  0.032280  0.828400  1.0  -0.5694
  O  O579  1  0.027600  0.007370  0.174700  1.0  -0.5618
  O  O580  1  0.055860  0.974500  0.256400  1.0  -0.5654
  O  O581  1  0.251810  0.187810  0.966600  1.0  -0.5592
  O  O582  1  0.241180  0.187910  0.069900  1.0  -0.5692
  O  O583  1  0.249280  0.033710  0.907100  1.0  -0.3153
  O  O584  1  0.224940  0.033500  0.124300  1.0  -0.3274
  O  O585  1  0.493130  0.412350  0.741200  1.0  -0.5596
  O  O586  1  0.467720  0.442340  0.828400  1.0  -0.5692
  O  O587  1  0.492630  0.027600  0.174700  1.0  -0.562
  O  O588  1  0.525500  0.055860  0.256400  1.0  -0.5651
  O  O589  1  0.312190  0.251810  0.966600  1.0  -0.5591
  O  O590  1  0.312090  0.241180  0.069900  1.0  -0.5685
  O  O591  1  0.466290  0.249280  0.907100  1.0  -0.318
  O  O592  1  0.466500  0.224940  0.124300  1.0  -0.3239
  O  O593  1  0.006870  0.087650  0.741200  1.0  -0.559
  O  O594  1  0.032280  0.057660  0.828400  1.0  -0.5698
  O  O595  1  0.007370  0.472400  0.174700  1.0  -0.5626
  O  O596  1  0.974500  0.444140  0.256400  1.0  -0.5649
  O  O597  1  0.187810  0.248190  0.966600  1.0  -0.5594
  O  O598  1  0.187910  0.258820  0.069900  1.0  -0.5684
  O  O599  1  0.033710  0.250720  0.907100  1.0  -0.3177
  O  O600  1  0.033500  0.275060  0.124300  1.0  -0.3269
  O  O601  1  0.587650  0.506870  0.241200  1.0  -0.5595
  O  O602  1  0.557660  0.532280  0.328400  1.0  -0.5689
  O  O603  1  0.972400  0.507370  0.674700  1.0  -0.562
  O  O604  1  0.944140  0.474500  0.756400  1.0  -0.5661
  O  O605  1  0.748190  0.687810  0.466600  1.0  -0.5593
  O  O606  1  0.758820  0.687910  0.569900  1.0  -0.5684
  O  O607  1  0.750720  0.533710  0.407100  1.0  -0.3186
  O  O608  1  0.775060  0.533500  0.624300  1.0  -0.3272
  O  O609  1  0.912350  0.993130  0.241200  1.0  -0.559
  O  O610  1  0.942340  0.967720  0.328400  1.0  -0.5694
  O  O611  1  0.527600  0.992630  0.674700  1.0  -0.5617
  O  O612  1  0.555860  0.025500  0.756400  1.0  -0.566
  O  O613  1  0.751810  0.812190  0.466600  1.0  -0.5596
  O  O614  1  0.741180  0.812090  0.569900  1.0  -0.5691
  O  O615  1  0.749280  0.966290  0.407100  1.0  -0.3164
  O  O616  1  0.724940  0.966500  0.624300  1.0  -0.3268
  O  O617  1  0.993130  0.587650  0.241200  1.0  -0.5594
  O  O618  1  0.967720  0.557660  0.328400  1.0  -0.5696
  O  O619  1  0.992630  0.972400  0.674700  1.0  -0.5625
  O  O620  1  0.025500  0.944140  0.756400  1.0  -0.5649
  O  O621  1  0.812190  0.748190  0.466600  1.0  -0.559
  O  O622  1  0.812090  0.758820  0.569900  1.0  -0.5685
  O  O623  1  0.966290  0.750720  0.407100  1.0  -0.3194
  O  O624  1  0.966500  0.775060  0.624300  1.0  -0.3263
  O  O625  1  0.506870  0.912350  0.241200  1.0  -0.5593
  O  O626  1  0.532280  0.942340  0.328400  1.0  -0.5691
  O  O627  1  0.507370  0.527600  0.674700  1.0  -0.5618
  O  O628  1  0.474500  0.555860  0.756400  1.0  -0.5655
  O  O629  1  0.687810  0.751810  0.466600  1.0  -0.5593
  O  O630  1  0.687910  0.741180  0.569900  1.0  -0.5685
  O  O631  1  0.533710  0.749280  0.407100  1.0  -0.3167
  O  O632  1  0.533500  0.724940  0.624300  1.0  -0.3237
  O  O633  1  0.912350  0.506870  0.258800  1.0  -0.5592
  O  O634  1  0.942340  0.532280  0.171600  1.0  -0.5703
  O  O635  1  0.527600  0.507370  0.825300  1.0  -0.5614
  O  O636  1  0.555860  0.474500  0.743600  1.0  -0.5659
  O  O637  1  0.751810  0.687810  0.033400  1.0  -0.5578
  O  O638  1  0.741180  0.687910  0.930100  1.0  -0.5693
  O  O639  1  0.749280  0.533710  0.092900  1.0  -0.3148
  O  O640  1  0.724940  0.533500  0.875700  1.0  -0.3289
  O  O641  1  0.587650  0.993130  0.258800  1.0  -0.5578
  O  O642  1  0.557660  0.967720  0.171600  1.0  -0.5701
  O  O643  1  0.972400  0.992630  0.825300  1.0  -0.5608
  O  O644  1  0.944140  0.025500  0.743600  1.0  -0.5667
  O  O645  1  0.748190  0.812190  0.033400  1.0  -0.5581
  O  O646  1  0.758820  0.812090  0.930100  1.0  -0.5692
  O  O647  1  0.750720  0.966290  0.092900  1.0  -0.32
  O  O648  1  0.775060  0.966500  0.875700  1.0  -0.3268
  O  O649  1  0.506870  0.587650  0.258800  1.0  -0.5585
  O  O650  1  0.532280  0.557660  0.171600  1.0  -0.5715
  O  O651  1  0.507370  0.972400  0.825300  1.0  -0.5613
  O  O652  1  0.474500  0.944140  0.743600  1.0  -0.5652
  O  O653  1  0.687810  0.748190  0.033400  1.0  -0.5578
  O  O654  1  0.687910  0.758820  0.930100  1.0  -0.5691
  O  O655  1  0.533710  0.750720  0.092900  1.0  -0.317
  O  O656  1  0.533500  0.775060  0.875700  1.0  -0.3265
  O  O657  1  0.993130  0.912350  0.258800  1.0  -0.5583
  O  O658  1  0.967720  0.942340  0.171600  1.0  -0.5697
  O  O659  1  0.992630  0.527600  0.825300  1.0  -0.5619
  O  O660  1  0.025500  0.555860  0.743600  1.0  -0.5653
  O  O661  1  0.812190  0.751810  0.033400  1.0  -0.5581
  O  O662  1  0.812090  0.741180  0.930100  1.0  -0.5692
  O  O663  1  0.966290  0.749280  0.092900  1.0  -0.3181
  O  O664  1  0.966500  0.724940  0.875700  1.0  -0.3261
