# generated using pymatgen
data_Cu2NiH36C30(N3O5)2
_symmetry_space_group_name_H-M   'P 1'
_cell_length_a   19.69930000
_cell_length_b   19.69930000
_cell_length_c   29.29830000
_cell_angle_alpha   90.00000000
_cell_angle_beta   90.00000000
_cell_angle_gamma   120.00000000
_symmetry_Int_Tables_number   1
_chemical_formula_structural   Cu2NiH36C30(N3O5)2
_chemical_formula_sum   'Cu12 Ni6 H216 C180 N36 O60'
_cell_volume   9846.33576962
_cell_formula_units_Z   6
loop_
 _symmetry_equiv_pos_site_id
 _symmetry_equiv_pos_as_xyz
  1  'x, y, z'
loop_
 _atom_site_type_symbol
 _atom_site_label
 _atom_site_symmetry_multiplicity
 _atom_site_fract_x
 _atom_site_fract_y
 _atom_site_fract_z
 _atom_site_occupancy
 _atom_site_charge
  Cu  Cu1  1  0.363100  0.671350  0.669330  1.0  0.8493
  Cu  Cu2  1  0.243820  0.565300  0.501810  1.0  0.7432
  Cu  Cu3  1  0.328650  0.691750  0.336000  1.0  0.8433
  Cu  Cu4  1  0.434700  0.678520  0.168480  1.0  0.7519
  Cu  Cu5  1  0.308250  0.636900  0.002660  1.0  0.8435
  Cu  Cu6  1  0.321480  0.756180  0.835140  1.0  0.7419
  Cu  Cu7  1  0.671350  0.363100  0.330670  1.0  0.8479
  Cu  Cu8  1  0.565300  0.243820  0.498190  1.0  0.7428
  Cu  Cu9  1  0.691750  0.328650  0.664000  1.0  0.8457
  Cu  Cu10  1  0.678520  0.434700  0.831520  1.0  0.7488
  Cu  Cu11  1  0.636900  0.308250  0.997340  1.0  0.8432
  Cu  Cu12  1  0.756180  0.321480  0.164860  1.0  0.745
  Ni  Ni13  1  0.488050  0.516480  0.760370  1.0  0.758
  Ni  Ni14  1  0.483520  0.971570  0.427040  1.0  0.7575
  Ni  Ni15  1  0.028430  0.511950  0.093700  1.0  0.7605
  Ni  Ni16  1  0.516480  0.488050  0.239630  1.0  0.76
  Ni  Ni17  1  0.971570  0.483520  0.572960  1.0  0.7576
  Ni  Ni18  1  0.511950  0.028430  0.906300  1.0  0.7569
  H  H19  1  0.406900  0.539800  0.609900  1.0  0.09
  H  H20  1  0.343800  0.403900  0.598500  1.0  0.1115
  H  H21  1  0.258700  0.278700  0.620000  1.0  0.0947
  H  H22  1  0.160100  0.244100  0.673500  1.0  0.1078
  H  H23  1  0.157900  0.344600  0.711200  1.0  0.0865
  H  H24  1  0.251100  0.476800  0.694700  1.0  0.0949
  H  H25  1  0.093200  0.521300  0.423800  1.0  0.0967
  H  H26  1  0.180300  0.704500  0.484900  1.0  0.0957
  H  H27  1  0.140000  0.796900  0.480500  1.0  0.0893
  H  H28  1  0.045600  0.785600  0.425700  1.0  0.108
  H  H29  1  0.991100  0.669900  0.377600  1.0  0.0917
  H  H30  1  0.019200  0.571900  0.391000  1.0  0.1001
  H  H31  1  0.628600  0.586900  0.770900  1.0  0.1039
  H  H32  1  0.538100  0.424700  0.753000  1.0  0.0921
  H  H33  1  0.664100  0.540200  0.671400  1.0  0.0901
  H  H34  1  0.657100  0.520800  0.724500  1.0  0.0733
  H  H35  1  0.444700  0.618900  0.765700  1.0  0.0974
  H  H36  1  0.524800  0.462700  0.664600  1.0  0.0844
  H  H37  1  0.562800  0.412100  0.682800  1.0  0.0648
  H  H38  1  0.551000  0.648800  0.833800  1.0  0.0654
  H  H39  1  0.536300  0.708700  0.803800  1.0  0.0779
  H  H40  1  0.686900  0.652300  0.711100  1.0  0.0538
  H  H41  1  0.604500  0.620100  0.685100  1.0  0.0729
  H  H42  1  0.398100  0.617200  0.834000  1.0  0.0717
  H  H43  1  0.430700  0.563500  0.854300  1.0  0.0636
  H  H44  1  0.334100  0.398200  0.827700  1.0  0.0696
  H  H45  1  0.267600  0.384300  0.791500  1.0  0.0883
  H  H46  1  0.294900  0.489600  0.838900  1.0  0.1098
  H  H47  1  0.310300  0.515500  0.787100  1.0  0.1007
  H  H48  1  0.446500  0.329200  0.719300  1.0  0.0685
  H  H49  1  0.416700  0.381500  0.694700  1.0  0.0785
  H  H50  1  0.343000  0.428300  0.738400  1.0  0.0974
  H  H51  1  0.588300  0.689100  0.740500  1.0  0.0677
  H  H52  1  0.646900  0.695900  0.779500  1.0  0.0802
  H  H53  1  0.389400  0.334500  0.788300  1.0  0.0836
  H  H54  1  0.324100  0.306500  0.748600  1.0  0.0599
  H  H55  1  0.460200  0.867100  0.276570  1.0  0.0893
  H  H56  1  0.596100  0.939900  0.265170  1.0  0.1123
  H  H57  1  0.721300  0.980000  0.286670  1.0  0.0933
  H  H58  1  0.755900  0.916000  0.340170  1.0  0.1059
  H  H59  1  0.655400  0.813300  0.377870  1.0  0.0854
  H  H60  1  0.523200  0.774300  0.361370  1.0  0.0956
  H  H61  1  0.478700  0.571900  0.090470  1.0  0.0997
  H  H62  1  0.295500  0.475800  0.151570  1.0  0.0962
  H  H63  1  0.203100  0.343100  0.147170  1.0  0.091
  H  H64  1  0.214400  0.260000  0.092370  1.0  0.1082
  H  H65  1  0.330100  0.321200  0.044270  1.0  0.0922
  H  H66  1  0.428100  0.447300  0.057670  1.0  0.1
  H  H67  1  0.413100  0.041700  0.437570  1.0  0.1022
  H  H68  1  0.575300  0.113400  0.419670  1.0  0.0922
  H  H69  1  0.459800  0.123900  0.338070  1.0  0.0911
  H  H70  1  0.479200  0.136300  0.391170  1.0  0.0733
  H  H71  1  0.381100  0.825800  0.432370  1.0  0.0968
  H  H72  1  0.537300  0.062100  0.331270  1.0  0.0847
  H  H73  1  0.587900  0.150700  0.349470  1.0  0.0649
  H  H74  1  0.351200  0.902200  0.500470  1.0  0.067
  H  H75  1  0.291300  0.827600  0.470470  1.0  0.0804
  H  H76  1  0.347700  0.034600  0.377770  1.0  0.0544
  H  H77  1  0.379900  0.984400  0.351770  1.0  0.0728
  H  H78  1  0.382800  0.780900  0.500670  1.0  0.0679
  H  H79  1  0.436500  0.867200  0.520970  1.0  0.0649
  H  H80  1  0.601800  0.935900  0.494370  1.0  0.0699
  H  H81  1  0.615700  0.883300  0.458170  1.0  0.086
  H  H82  1  0.510400  0.805300  0.505570  1.0  0.1057
  H  H83  1  0.484500  0.794800  0.453770  1.0  0.1
  H  H84  1  0.670800  0.117300  0.385970  1.0  0.0746
  H  H85  1  0.618500  0.035200  0.361370  1.0  0.0791
  H  H86  1  0.571700  0.914700  0.405070  1.0  0.0986
  H  H87  1  0.310900  0.899200  0.407170  1.0  0.0692
  H  H88  1  0.304100  0.951000  0.446170  1.0  0.0801
  H  H89  1  0.665500  0.054900  0.454970  1.0  0.0815
  H  H90  1  0.693500  0.017600  0.415270  1.0  0.0631
  H  H91  1  0.132900  0.593100  0.943230  1.0  0.0894
  H  H92  1  0.060100  0.656200  0.931830  1.0  0.1107
  H  H93  1  0.020000  0.741300  0.953330  1.0  0.0911
  H  H94  1  0.084000  0.839900  0.006830  1.0  0.1086
  H  H95  1  0.186700  0.842100  0.044530  1.0  0.0841
  H  H96  1  0.225700  0.748900  0.028030  1.0  0.0951
  H  H97  1  0.428100  0.906800  0.757130  1.0  0.0987
  H  H98  1  0.524200  0.819700  0.818230  1.0  0.0962
  H  H99  1  0.656900  0.860000  0.813830  1.0  0.0895
  H  H100  1  0.740000  0.954400  0.759030  1.0  0.106
  H  H101  1  0.678800  0.008900  0.710930  1.0  0.0919
  H  H102  1  0.552700  0.980800  0.724330  1.0  0.0999
  H  H103  1  0.958300  0.371400  0.104230  1.0  0.1003
  H  H104  1  0.886600  0.461900  0.086330  1.0  0.0945
  H  H105  1  0.876100  0.335900  0.004730  1.0  0.0898
  H  H106  1  0.863700  0.342900  0.057830  1.0  0.0726
  H  H107  1  0.174200  0.555300  0.099030  1.0  0.098
  H  H108  1  0.937900  0.475200  0.997930  1.0  0.0843
  H  H109  1  0.849300  0.437200  0.016130  1.0  0.0673
  H  H110  1  0.097800  0.449000  0.167130  1.0  0.0647
  H  H111  1  0.172400  0.463700  0.137130  1.0  0.0775
  H  H112  1  0.965400  0.313100  0.044430  1.0  0.053
  H  H113  1  0.015600  0.395500  0.018430  1.0  0.073
  H  H114  1  0.219100  0.601900  0.167330  1.0  0.0602
  H  H115  1  0.132800  0.569300  0.187630  1.0  0.0638
  H  H116  1  0.064100  0.665900  0.161030  1.0  0.0681
  H  H117  1  0.116700  0.732400  0.124830  1.0  0.0889
  H  H118  1  0.194700  0.705100  0.172230  1.0  0.1042
  H  H119  1  0.205200  0.689700  0.120430  1.0  0.1018
  H  H120  1  0.882700  0.553500  0.052630  1.0  0.0724
  H  H121  1  0.964800  0.583300  0.028030  1.0  0.0807
  H  H122  1  0.085300  0.657000  0.071730  1.0  0.0967
  H  H123  1  0.100800  0.411700  0.073830  1.0  0.0707
  H  H124  1  0.049000  0.353100  0.112830  1.0  0.0775
  H  H125  1  0.945100  0.610600  0.121630  1.0  0.0812
  H  H126  1  0.982400  0.675900  0.081930  1.0  0.0633
  H  H127  1  0.539800  0.406900  0.390100  1.0  0.0909
  H  H128  1  0.403900  0.343800  0.401500  1.0  0.1119
  H  H129  1  0.278700  0.258700  0.380000  1.0  0.0928
  H  H130  1  0.244100  0.160100  0.326500  1.0  0.1074
  H  H131  1  0.344600  0.157900  0.288800  1.0  0.0844
  H  H132  1  0.476800  0.251100  0.305300  1.0  0.0955
  H  H133  1  0.521300  0.093200  0.576200  1.0  0.0994
  H  H134  1  0.704500  0.180300  0.515100  1.0  0.0959
  H  H135  1  0.796900  0.140000  0.519500  1.0  0.0888
  H  H136  1  0.785600  0.045600  0.574300  1.0  0.1064
  H  H137  1  0.669900  0.991100  0.622400  1.0  0.0911
  H  H138  1  0.571900  0.019200  0.609000  1.0  0.1
  H  H139  1  0.586900  0.628600  0.229100  1.0  0.0999
  H  H140  1  0.424700  0.538100  0.247000  1.0  0.0941
  H  H141  1  0.540200  0.664100  0.328600  1.0  0.0879
  H  H142  1  0.520800  0.657100  0.275500  1.0  0.0723
  H  H143  1  0.618900  0.444700  0.234300  1.0  0.0985
  H  H144  1  0.462700  0.524800  0.335400  1.0  0.0838
  H  H145  1  0.412100  0.562800  0.317200  1.0  0.0682
  H  H146  1  0.648800  0.551000  0.166200  1.0  0.0675
  H  H147  1  0.708700  0.536300  0.196200  1.0  0.0799
  H  H148  1  0.652300  0.686900  0.288900  1.0  0.0532
  H  H149  1  0.620100  0.604500  0.314900  1.0  0.072
  H  H150  1  0.617200  0.398100  0.166000  1.0  0.0614
  H  H151  1  0.563500  0.430700  0.145700  1.0  0.0652
  H  H152  1  0.398200  0.334100  0.172300  1.0  0.0686
  H  H153  1  0.384300  0.267600  0.208500  1.0  0.0849
  H  H154  1  0.489600  0.294900  0.161100  1.0  0.1012
  H  H155  1  0.515500  0.310300  0.212900  1.0  0.1002
  H  H156  1  0.329200  0.446500  0.280700  1.0  0.0745
  H  H157  1  0.381500  0.416700  0.305300  1.0  0.0812
  H  H158  1  0.428300  0.343000  0.261600  1.0  0.0966
  H  H159  1  0.689100  0.588300  0.259500  1.0  0.0694
  H  H160  1  0.695900  0.646900  0.220500  1.0  0.0815
  H  H161  1  0.334500  0.389400  0.211700  1.0  0.0809
  H  H162  1  0.306500  0.324100  0.251400  1.0  0.0612
  H  H163  1  0.867100  0.460200  0.723430  1.0  0.0891
  H  H164  1  0.939900  0.596100  0.734830  1.0  0.1104
  H  H165  1  0.980000  0.721300  0.713330  1.0  0.0938
  H  H166  1  0.916000  0.755900  0.659830  1.0  0.108
  H  H167  1  0.813300  0.655400  0.622130  1.0  0.0862
  H  H168  1  0.774300  0.523200  0.638630  1.0  0.0952
  H  H169  1  0.571900  0.478700  0.909530  1.0  0.0973
  H  H170  1  0.475800  0.295500  0.848430  1.0  0.0958
  H  H171  1  0.343100  0.203100  0.852830  1.0  0.0886
  H  H172  1  0.260000  0.214400  0.907630  1.0  0.1076
  H  H173  1  0.321200  0.330100  0.955730  1.0  0.0916
  H  H174  1  0.447300  0.428100  0.942330  1.0  0.0997
  H  H175  1  0.041700  0.413100  0.562430  1.0  0.1059
  H  H176  1  0.113400  0.575300  0.580330  1.0  0.0925
  H  H177  1  0.123900  0.459800  0.661930  1.0  0.0885
  H  H178  1  0.136300  0.479200  0.608830  1.0  0.0728
  H  H179  1  0.825800  0.381100  0.567630  1.0  0.0979
  H  H180  1  0.062100  0.537300  0.668730  1.0  0.0836
  H  H181  1  0.150700  0.587900  0.650530  1.0  0.0658
  H  H182  1  0.902200  0.351200  0.499530  1.0  0.0677
  H  H183  1  0.827600  0.291300  0.529530  1.0  0.0804
  H  H184  1  0.034600  0.347700  0.622230  1.0  0.0527
  H  H185  1  0.984400  0.379900  0.648230  1.0  0.0719
  H  H186  1  0.780900  0.382800  0.499330  1.0  0.0711
  H  H187  1  0.867200  0.436500  0.479030  1.0  0.0651
  H  H188  1  0.935900  0.601800  0.505630  1.0  0.0714
  H  H189  1  0.883300  0.615700  0.541830  1.0  0.0881
  H  H190  1  0.805300  0.510400  0.494430  1.0  0.1079
  H  H191  1  0.794800  0.484500  0.546230  1.0  0.1013
  H  H192  1  0.117300  0.670800  0.614030  1.0  0.0729
  H  H193  1  0.035200  0.618500  0.638630  1.0  0.0788
  H  H194  1  0.914700  0.571700  0.594930  1.0  0.0969
  H  H195  1  0.899200  0.310900  0.592830  1.0  0.0684
  H  H196  1  0.951000  0.304100  0.553830  1.0  0.0813
  H  H197  1  0.054900  0.665500  0.545030  1.0  0.0818
  H  H198  1  0.017600  0.693500  0.584730  1.0  0.0637
  H  H199  1  0.593100  0.132900  0.056770  1.0  0.0906
  H  H200  1  0.656200  0.060100  0.068170  1.0  0.1116
  H  H201  1  0.741300  0.020000  0.046670  1.0  0.0928
  H  H202  1  0.839900  0.084000  0.993170  1.0  0.1061
  H  H203  1  0.842100  0.186700  0.955470  1.0  0.0852
  H  H204  1  0.748900  0.225700  0.971970  1.0  0.0957
  H  H205  1  0.906800  0.428100  0.242870  1.0  0.0983
  H  H206  1  0.819700  0.524200  0.181770  1.0  0.0963
  H  H207  1  0.860000  0.656900  0.186170  1.0  0.0907
  H  H208  1  0.954400  0.740000  0.240970  1.0  0.1088
  H  H209  1  0.008900  0.678800  0.289070  1.0  0.0921
  H  H210  1  0.980800  0.552700  0.275670  1.0  0.0993
  H  H211  1  0.371400  0.958300  0.895770  1.0  0.1028
  H  H212  1  0.461900  0.886600  0.913670  1.0  0.0927
  H  H213  1  0.335900  0.876100  0.995270  1.0  0.0903
  H  H214  1  0.342900  0.863700  0.942170  1.0  0.0729
  H  H215  1  0.555300  0.174200  0.900970  1.0  0.0955
  H  H216  1  0.475200  0.937900  0.002070  1.0  0.0848
  H  H217  1  0.437200  0.849300  0.983870  1.0  0.068
  H  H218  1  0.449000  0.097800  0.832870  1.0  0.0687
  H  H219  1  0.463700  0.172400  0.862870  1.0  0.0799
  H  H220  1  0.313100  0.965400  0.955570  1.0  0.0539
  H  H221  1  0.395500  0.015600  0.981570  1.0  0.0723
  H  H222  1  0.601900  0.219100  0.832670  1.0  0.0686
  H  H223  1  0.569300  0.132800  0.812370  1.0  0.0662
  H  H224  1  0.665900  0.064100  0.838970  1.0  0.0714
  H  H225  1  0.732400  0.116700  0.875170  1.0  0.0871
  H  H226  1  0.705100  0.194700  0.827770  1.0  0.1051
  H  H227  1  0.689700  0.205200  0.879570  1.0  0.1005
  H  H228  1  0.553500  0.882700  0.947370  1.0  0.0699
  H  H229  1  0.583300  0.964800  0.971970  1.0  0.0811
  H  H230  1  0.657000  0.085300  0.928270  1.0  0.0969
  H  H231  1  0.411700  0.100800  0.926170  1.0  0.0694
  H  H232  1  0.353100  0.049000  0.887170  1.0  0.08
  H  H233  1  0.610600  0.945100  0.878370  1.0  0.0818
  H  H234  1  0.675900  0.982400  0.918070  1.0  0.0627
  C  C235  1  0.307800  0.591700  0.590000  1.0  0.5936
  C  C236  1  0.285000  0.656700  0.587000  1.0  0.613
  C  C237  1  0.421400  0.568000  0.678300  1.0  0.6323
  C  C238  1  0.373100  0.537800  0.635900  1.0  0.0341
  C  C239  1  0.310900  0.454100  0.644800  1.0  0.1204
  C  C240  1  0.308000  0.395000  0.622900  1.0  -0.1883
  C  C241  1  0.255000  0.320000  0.635100  1.0  -0.1319
  C  C242  1  0.197000  0.297400  0.667300  1.0  -0.0889
  C  C243  1  0.196500  0.355700  0.688500  1.0  -0.1194
  C  C244  1  0.252800  0.435800  0.678600  1.0  -0.1496
  C  C245  1  0.335700  0.633700  0.425300  1.0  0.5911
  C  C246  1  0.251000  0.617100  0.413600  1.0  0.553
  C  C247  1  0.120100  0.562000  0.447900  1.0  -0.0075
  C  C248  1  0.086000  0.523100  0.496500  1.0  0.5757
  C  C249  1  0.103200  0.628800  0.439400  1.0  0.0182
  C  C250  1  0.139300  0.696100  0.464600  1.0  -0.1326
  C  C251  1  0.116700  0.752700  0.460800  1.0  -0.1356
  C  C252  1  0.060000  0.747000  0.428800  1.0  -0.1105
  C  C253  1  0.027000  0.676000  0.401200  1.0  -0.1382
  C  C254  1  0.045800  0.619000  0.408000  1.0  -0.0927
  C  C255  1  0.631000  0.531000  0.698700  1.0  -0.172
  C  C256  1  0.553000  0.456000  0.690300  1.0  0.0506
  C  C257  1  0.536000  0.658500  0.803100  1.0  0.0713
  C  C258  1  0.632000  0.608000  0.709300  1.0  0.0734
  C  C259  1  0.409000  0.574000  0.826700  1.0  0.0361
  C  C260  1  0.323000  0.420000  0.800400  1.0  0.0519
  C  C261  1  0.331000  0.500000  0.813000  1.0  -0.1582
  C  C262  1  0.438000  0.374000  0.723800  1.0  0.0107
  C  C263  1  0.594000  0.661000  0.766900  1.0  -0.0011
  C  C264  1  0.375000  0.350000  0.759600  1.0  -0.0131
  C  C265  1  0.408300  0.716100  0.256670  1.0  0.5944
  C  C266  1  0.343300  0.628300  0.253670  1.0  0.6128
  C  C267  1  0.432000  0.853400  0.344970  1.0  0.6304
  C  C268  1  0.462200  0.835300  0.302570  1.0  0.0341
  C  C269  1  0.545900  0.856800  0.311470  1.0  0.1207
  C  C270  1  0.605000  0.913000  0.289570  1.0  -0.1907
  C  C271  1  0.680000  0.935000  0.301770  1.0  -0.1357
  C  C272  1  0.702600  0.899600  0.333970  1.0  -0.0899
  C  C273  1  0.644300  0.840800  0.355170  1.0  -0.1234
  C  C274  1  0.564200  0.817000  0.345270  1.0  -0.1408
  C  C275  1  0.366300  0.702000  0.091970  1.0  0.5898
  C  C276  1  0.382900  0.633900  0.080270  1.0  0.5549
  C  C277  1  0.438000  0.558100  0.114570  1.0  -0.0084
  C  C278  1  0.476900  0.562900  0.163170  1.0  0.5784
  C  C279  1  0.371200  0.474400  0.106070  1.0  0.0189
  C  C280  1  0.303900  0.443200  0.131270  1.0  -0.1333
  C  C281  1  0.247300  0.364000  0.127470  1.0  -0.14
  C  C282  1  0.253000  0.313000  0.095470  1.0  -0.1037
  C  C283  1  0.324000  0.351000  0.067870  1.0  -0.1362
  C  C284  1  0.381000  0.426800  0.074670  1.0  -0.0937
  C  C285  1  0.469000  0.100000  0.365370  1.0  -0.1735
  C  C286  1  0.544000  0.097000  0.356970  1.0  0.0506
  C  C287  1  0.341500  0.877500  0.469770  1.0  0.0664
  C  C288  1  0.392000  0.024000  0.375970  1.0  0.0759
  C  C289  1  0.426000  0.835000  0.493370  1.0  0.0389
  C  C290  1  0.580000  0.903000  0.467070  1.0  0.0512
  C  C291  1  0.500000  0.831000  0.479670  1.0  -0.1547
  C  C292  1  0.626000  0.064000  0.390470  1.0  0.0024
  C  C293  1  0.339000  0.933000  0.433570  1.0  -0.006
  C  C294  1  0.650000  0.025000  0.426270  1.0  -0.0186
  C  C295  1  0.283900  0.692200  0.923330  1.0  0.589
  C  C296  1  0.371700  0.715000  0.920330  1.0  0.6137
  C  C297  1  0.146600  0.578600  0.011630  1.0  0.6291
  C  C298  1  0.164700  0.626900  0.969230  1.0  0.033
  C  C299  1  0.143200  0.689100  0.978130  1.0  0.1208
  C  C300  1  0.087000  0.692000  0.956230  1.0  -0.1852
  C  C301  1  0.065000  0.745000  0.968430  1.0  -0.1401
  C  C302  1  0.100400  0.803000  0.000630  1.0  -0.0905
  C  C303  1  0.159200  0.803500  0.021830  1.0  -0.1165
  C  C304  1  0.183000  0.747200  0.011930  1.0  -0.1474
  C  C305  1  0.298000  0.664300  0.758630  1.0  0.5887
  C  C306  1  0.366100  0.749000  0.746930  1.0  0.5562
  C  C307  1  0.441900  0.879900  0.781230  1.0  -0.0078
  C  C308  1  0.437100  0.914000  0.829830  1.0  0.5775
  C  C309  1  0.525600  0.896800  0.772730  1.0  0.0186
  C  C310  1  0.556800  0.860700  0.797930  1.0  -0.1312
  C  C311  1  0.636000  0.883300  0.794130  1.0  -0.1437
  C  C312  1  0.687000  0.940000  0.762130  1.0  -0.1024
  C  C313  1  0.649000  0.973000  0.734530  1.0  -0.134
  C  C314  1  0.573200  0.954200  0.741330  1.0  -0.0934
  C  C315  1  0.900000  0.369000  0.032030  1.0  -0.171
  C  C316  1  0.903000  0.447000  0.023630  1.0  0.0489
  C  C317  1  0.122500  0.464000  0.136430  1.0  0.07
  C  C318  1  0.976000  0.368000  0.042630  1.0  0.0751
  C  C319  1  0.165000  0.591000  0.160030  1.0  0.0367
  C  C320  1  0.097000  0.677000  0.133730  1.0  0.0544
  C  C321  1  0.169000  0.669000  0.146330  1.0  -0.1584
  C  C322  1  0.936000  0.562000  0.057130  1.0  0.0074
  C  C323  1  0.067000  0.406000  0.100230  1.0  -0.002
  C  C324  1  0.975000  0.625000  0.092930  1.0  -0.0179
  C  C325  1  0.591700  0.307800  0.410000  1.0  0.5902
  C  C326  1  0.656700  0.285000  0.413000  1.0  0.6132
  C  C327  1  0.568000  0.421400  0.321700  1.0  0.6292
  C  C328  1  0.537800  0.373100  0.364100  1.0  0.0314
  C  C329  1  0.454100  0.310900  0.355200  1.0  0.1194
  C  C330  1  0.395000  0.308000  0.377100  1.0  -0.1817
  C  C331  1  0.320000  0.255000  0.364900  1.0  -0.141
  C  C332  1  0.297400  0.197000  0.332700  1.0  -0.0928
  C  C333  1  0.355700  0.196500  0.311500  1.0  -0.119
  C  C334  1  0.435800  0.252800  0.321400  1.0  -0.1468
  C  C335  1  0.633700  0.335700  0.574700  1.0  0.5894
  C  C336  1  0.617100  0.251000  0.586400  1.0  0.5556
  C  C337  1  0.562000  0.120100  0.552100  1.0  -0.0093
  C  C338  1  0.523100  0.086000  0.503500  1.0  0.5753
  C  C339  1  0.628800  0.103200  0.560600  1.0  0.0185
  C  C340  1  0.696100  0.139300  0.535400  1.0  -0.1304
  C  C341  1  0.752700  0.116700  0.539200  1.0  -0.1444
  C  C342  1  0.747000  0.060000  0.571200  1.0  -0.1018
  C  C343  1  0.676000  0.027000  0.598800  1.0  -0.1327
  C  C344  1  0.619000  0.045800  0.592000  1.0  -0.096
  C  C345  1  0.531000  0.631000  0.301300  1.0  -0.1736
  C  C346  1  0.456000  0.553000  0.309700  1.0  0.0501
  C  C347  1  0.658500  0.536000  0.196900  1.0  0.0719
  C  C348  1  0.608000  0.632000  0.290700  1.0  0.0715
  C  C349  1  0.574000  0.409000  0.173300  1.0  0.0328
  C  C350  1  0.420000  0.323000  0.199600  1.0  0.0532
  C  C351  1  0.500000  0.331000  0.187000  1.0  -0.1522
  C  C352  1  0.374000  0.438000  0.276200  1.0  0.0065
  C  C353  1  0.661000  0.594000  0.233100  1.0  -0.0046
  C  C354  1  0.350000  0.375000  0.240400  1.0  -0.018
  C  C355  1  0.716100  0.408300  0.743330  1.0  0.5935
  C  C356  1  0.628300  0.343300  0.746330  1.0  0.612
  C  C357  1  0.853400  0.432000  0.655030  1.0  0.6331
  C  C358  1  0.835300  0.462200  0.697430  1.0  0.0325
  C  C359  1  0.856800  0.545900  0.688530  1.0  0.1204
  C  C360  1  0.913000  0.605000  0.710430  1.0  -0.1852
  C  C361  1  0.935000  0.680000  0.698230  1.0  -0.1289
  C  C362  1  0.899600  0.702600  0.666030  1.0  -0.0869
  C  C363  1  0.840800  0.644300  0.644830  1.0  -0.12
  C  C364  1  0.817000  0.564200  0.654730  1.0  -0.1468
  C  C365  1  0.702000  0.366300  0.908030  1.0  0.5912
  C  C366  1  0.633900  0.382900  0.919730  1.0  0.5516
  C  C367  1  0.558100  0.438000  0.885430  1.0  -0.0084
  C  C368  1  0.562900  0.476900  0.836830  1.0  0.5759
  C  C369  1  0.474400  0.371200  0.893930  1.0  0.0192
  C  C370  1  0.443200  0.303900  0.868730  1.0  -0.1329
  C  C371  1  0.364000  0.247300  0.872530  1.0  -0.137
  C  C372  1  0.313000  0.253000  0.904530  1.0  -0.1091
  C  C373  1  0.351000  0.324000  0.932130  1.0  -0.1368
  C  C374  1  0.426800  0.381000  0.925330  1.0  -0.0946
  C  C375  1  0.100000  0.469000  0.634630  1.0  -0.1738
  C  C376  1  0.097000  0.544000  0.643030  1.0  0.0525
  C  C377  1  0.877500  0.341500  0.530230  1.0  0.0747
  C  C378  1  0.024000  0.392000  0.624030  1.0  0.0754
  C  C379  1  0.835000  0.426000  0.506630  1.0  0.0358
  C  C380  1  0.903000  0.580000  0.532930  1.0  0.0498
  C  C381  1  0.831000  0.500000  0.520330  1.0  -0.1543
  C  C382  1  0.064000  0.626000  0.609530  1.0  0.0101
  C  C383  1  0.933000  0.339000  0.566430  1.0  0.0014
  C  C384  1  0.025000  0.650000  0.573730  1.0  -0.0148
  C  C385  1  0.692200  0.283900  0.076670  1.0  0.5946
  C  C386  1  0.715000  0.371700  0.079670  1.0  0.6134
  C  C387  1  0.578600  0.146600  0.988370  1.0  0.6287
  C  C388  1  0.626900  0.164700  0.030770  1.0  0.0308
  C  C389  1  0.689100  0.143200  0.021870  1.0  0.1215
  C  C390  1  0.692000  0.087000  0.043770  1.0  -0.1848
  C  C391  1  0.745000  0.065000  0.031570  1.0  -0.1362
  C  C392  1  0.803000  0.100400  0.999370  1.0  -0.0899
  C  C393  1  0.803500  0.159200  0.978170  1.0  -0.1233
  C  C394  1  0.747200  0.183000  0.988070  1.0  -0.1406
  C  C395  1  0.664300  0.298000  0.241370  1.0  0.5908
  C  C396  1  0.749000  0.366100  0.253070  1.0  0.555
  C  C397  1  0.879900  0.441900  0.218770  1.0  -0.0085
  C  C398  1  0.914000  0.437100  0.170170  1.0  0.5777
  C  C399  1  0.896800  0.525600  0.227270  1.0  0.0195
  C  C400  1  0.860700  0.556800  0.202070  1.0  -0.1328
  C  C401  1  0.883300  0.636000  0.205870  1.0  -0.1406
  C  C402  1  0.940000  0.687000  0.237870  1.0  -0.1012
  C  C403  1  0.973000  0.649000  0.265470  1.0  -0.1321
  C  C404  1  0.954200  0.573200  0.258670  1.0  -0.0949
  C  C405  1  0.369000  0.900000  0.967970  1.0  -0.1732
  C  C406  1  0.447000  0.903000  0.976370  1.0  0.0548
  C  C407  1  0.464000  0.122500  0.863570  1.0  0.0691
  C  C408  1  0.368000  0.976000  0.957370  1.0  0.0739
  C  C409  1  0.591000  0.165000  0.839970  1.0  0.0371
  C  C410  1  0.677000  0.097000  0.866270  1.0  0.0483
  C  C411  1  0.669000  0.169000  0.853670  1.0  -0.1575
  C  C412  1  0.562000  0.936000  0.942870  1.0  0.0045
  C  C413  1  0.406000  0.067000  0.899770  1.0  -0.0055
  C  C414  1  0.625000  0.975000  0.907070  1.0  -0.0187
  N  N415  1  0.340600  0.589800  0.626400  1.0  -0.3707
  N  N416  1  0.202400  0.585800  0.448000  1.0  -0.3039
  N  N417  1  0.596600  0.597900  0.748800  1.0  -0.1969
  N  N418  1  0.510400  0.439500  0.729900  1.0  -0.2801
  N  N419  1  0.464200  0.598300  0.790500  1.0  -0.3603
  N  N420  1  0.369300  0.424200  0.766600  1.0  -0.4004
  N  N421  1  0.410200  0.750800  0.293070  1.0  -0.3713
  N  N422  1  0.414200  0.616600  0.114670  1.0  -0.3065
  N  N423  1  0.402100  0.998700  0.415470  1.0  -0.2007
  N  N424  1  0.560500  0.070900  0.396570  1.0  -0.2794
  N  N425  1  0.401700  0.865900  0.457170  1.0  -0.3613
  N  N426  1  0.575800  0.945100  0.433270  1.0  -0.3986
  N  N427  1  0.249200  0.659400  0.959730  1.0  -0.3712
  N  N428  1  0.383400  0.797600  0.781330  1.0  -0.3067
  N  N429  1  0.001300  0.403400  0.082130  1.0  -0.194
  N  N430  1  0.929100  0.489600  0.063230  1.0  -0.2809
  N  N431  1  0.134100  0.535800  0.123830  1.0  -0.3613
  N  N432  1  0.054900  0.630700  0.099930  1.0  -0.3974
  N  N433  1  0.589800  0.340600  0.373600  1.0  -0.3699
  N  N434  1  0.585800  0.202400  0.552000  1.0  -0.3065
  N  N435  1  0.597900  0.596600  0.251200  1.0  -0.1944
  N  N436  1  0.439500  0.510400  0.270100  1.0  -0.2808
  N  N437  1  0.598300  0.464200  0.209500  1.0  -0.3621
  N  N438  1  0.424200  0.369300  0.233400  1.0  -0.4008
  N  N439  1  0.750800  0.410200  0.706930  1.0  -0.3712
  N  N440  1  0.616600  0.414200  0.885330  1.0  -0.3061
  N  N441  1  0.998700  0.402100  0.584530  1.0  -0.1955
  N  N442  1  0.070900  0.560500  0.603430  1.0  -0.2787
  N  N443  1  0.865900  0.401700  0.542830  1.0  -0.3612
  N  N444  1  0.945100  0.575800  0.566730  1.0  -0.3985
  N  N445  1  0.659400  0.249200  0.040270  1.0  -0.3711
  N  N446  1  0.797600  0.383400  0.218670  1.0  -0.306
  N  N447  1  0.403400  0.001300  0.917870  1.0  -0.2001
  N  N448  1  0.489600  0.929100  0.936770  1.0  -0.28
  N  N449  1  0.535800  0.134100  0.876170  1.0  -0.3607
  N  N450  1  0.630700  0.054900  0.900070  1.0  -0.3987
  O  O451  1  0.309700  0.703200  0.623300  1.0  -0.5706
  O  O452  1  0.257500  0.665700  0.552700  1.0  -0.5869
  O  O453  1  0.290500  0.544300  0.555300  1.0  -0.5901
  O  O454  1  0.427100  0.629600  0.698200  1.0  -0.6311
  O  O455  1  0.454100  0.531800  0.694400  1.0  -0.6128
  O  O456  1  0.344700  0.615900  0.466600  1.0  -0.5845
  O  O457  1  0.238200  0.635100  0.374500  1.0  -0.5723
  O  O458  1  0.385100  0.659200  0.395600  1.0  -0.5766
  O  O459  1  0.133000  0.511600  0.520200  1.0  -0.5818
  O  O460  1  0.016700  0.508100  0.505400  1.0  -0.5809
  O  O461  1  0.296800  0.606500  0.289970  1.0  -0.5721
  O  O462  1  0.334300  0.591800  0.219370  1.0  -0.5901
  O  O463  1  0.455700  0.746200  0.221970  1.0  -0.5945
  O  O464  1  0.370400  0.797500  0.364870  1.0  -0.6328
  O  O465  1  0.468200  0.922300  0.361070  1.0  -0.6168
  O  O466  1  0.384100  0.728800  0.133270  1.0  -0.5824
  O  O467  1  0.364900  0.603100  0.041170  1.0  -0.5744
  O  O468  1  0.340800  0.725900  0.062270  1.0  -0.5801
  O  O469  1  0.488400  0.621400  0.186870  1.0  -0.5778
  O  O470  1  0.491900  0.508600  0.172070  1.0  -0.5806
  O  O471  1  0.393500  0.690300  0.956630  1.0  -0.5712
  O  O472  1  0.408200  0.742500  0.886030  1.0  -0.5884
  O  O473  1  0.253800  0.709500  0.888630  1.0  -0.5894
  O  O474  1  0.202500  0.572900  0.031530  1.0  -0.6334
  O  O475  1  0.077700  0.545900  0.027730  1.0  -0.6147
  O  O476  1  0.271200  0.655300  0.799930  1.0  -0.5841
  O  O477  1  0.396900  0.761800  0.707830  1.0  -0.575
  O  O478  1  0.274100  0.614900  0.728930  1.0  -0.5788
  O  O479  1  0.378600  0.867000  0.853530  1.0  -0.5828
  O  O480  1  0.491400  0.983300  0.838730  1.0  -0.5806
  O  O481  1  0.703200  0.309700  0.376700  1.0  -0.5726
  O  O482  1  0.665700  0.257500  0.447300  1.0  -0.5883
  O  O483  1  0.544300  0.290500  0.444700  1.0  -0.5886
  O  O484  1  0.629600  0.427100  0.301800  1.0  -0.632
  O  O485  1  0.531800  0.454100  0.305600  1.0  -0.6133
  O  O486  1  0.615900  0.344700  0.533400  1.0  -0.5842
  O  O487  1  0.635100  0.238200  0.625500  1.0  -0.5745
  O  O488  1  0.659200  0.385100  0.604400  1.0  -0.5808
  O  O489  1  0.511600  0.133000  0.479800  1.0  -0.5819
  O  O490  1  0.508100  0.016700  0.494600  1.0  -0.5851
  O  O491  1  0.606500  0.296800  0.710030  1.0  -0.5693
  O  O492  1  0.591800  0.334300  0.780630  1.0  -0.5887
  O  O493  1  0.746200  0.455700  0.778030  1.0  -0.589
  O  O494  1  0.797500  0.370400  0.635130  1.0  -0.6304
  O  O495  1  0.922300  0.468200  0.638930  1.0  -0.6133
  O  O496  1  0.728800  0.384100  0.866730  1.0  -0.5865
  O  O497  1  0.603100  0.364900  0.958830  1.0  -0.5721
  O  O498  1  0.725900  0.340800  0.937730  1.0  -0.577
  O  O499  1  0.621400  0.488400  0.813130  1.0  -0.5799
  O  O500  1  0.508600  0.491900  0.827930  1.0  -0.5838
  O  O501  1  0.690300  0.393500  0.043370  1.0  -0.5741
  O  O502  1  0.742500  0.408200  0.113970  1.0  -0.5889
  O  O503  1  0.709500  0.253800  0.111370  1.0  -0.5941
  O  O504  1  0.572900  0.202500  0.968470  1.0  -0.632
  O  O505  1  0.545900  0.077700  0.972270  1.0  -0.6155
  O  O506  1  0.655300  0.271200  0.200070  1.0  -0.5815
  O  O507  1  0.761800  0.396900  0.292170  1.0  -0.5732
  O  O508  1  0.614900  0.274100  0.271070  1.0  -0.5779
  O  O509  1  0.867000  0.378600  0.146470  1.0  -0.5797
  O  O510  1  0.983300  0.491400  0.161270  1.0  -0.5828
