# generated using pymatgen
data_MgH6(C3O)4
_symmetry_space_group_name_H-M   'P 1'
_cell_length_a   11.74360000
_cell_length_b   11.74360000
_cell_length_c   20.97900000
_cell_angle_alpha   97.33270000
_cell_angle_beta   97.33270000
_cell_angle_gamma   100.33300000
_symmetry_Int_Tables_number   1
_chemical_formula_structural   MgH6(C3O)4
_chemical_formula_sum   'Mg6 H36 C72 O24'
_cell_volume   2789.26345926
_cell_formula_units_Z   6
loop_
 _symmetry_equiv_pos_site_id
 _symmetry_equiv_pos_as_xyz
  1  'x, y, z'
loop_
 _atom_site_type_symbol
 _atom_site_label
 _atom_site_symmetry_multiplicity
 _atom_site_fract_x
 _atom_site_fract_y
 _atom_site_fract_z
 _atom_site_occupancy
 _atom_site_charge
  Mg  Mg1  1  0.049880  0.540420  0.307680  1.0  1.5687
  Mg  Mg2  1  0.459580  0.950120  0.192320  1.0  1.5688
  Mg  Mg3  1  0.950120  0.459580  0.692320  1.0  1.5663
  Mg  Mg4  1  0.540420  0.049880  0.807680  1.0  1.5677
  Mg  Mg5  1  0.248150  0.751850  0.250000  1.0  1.5473
  Mg  Mg6  1  0.751850  0.248150  0.750000  1.0  1.5467
  H  H7  1  0.124400  0.023000  0.361000  1.0  0.1066
  H  H8  1  0.079700  0.166500  0.433700  1.0  0.1087
  H  H9  1  0.999500  0.776100  0.463300  1.0  0.1042
  H  H10  1  0.501800  0.730800  0.414300  1.0  0.076
  H  H11  1  0.635400  0.706000  0.499300  1.0  0.1064
  H  H12  1  0.304200  0.414800  0.417800  1.0  0.1022
  H  H13  1  0.033900  0.310700  0.110000  1.0  0.1041
  H  H14  1  0.989900  0.271700  0.998400  1.0  0.0936
  H  H15  1  0.053900  0.656900  0.108700  1.0  0.1019
  H  H16  1  0.977000  0.875600  0.139000  1.0  0.1071
  H  H17  1  0.833500  0.920300  0.066300  1.0  0.1088
  H  H18  1  0.223900  0.000500  0.036700  1.0  0.1028
  H  H19  1  0.269200  0.498200  0.085700  1.0  0.0746
  H  H20  1  0.294000  0.364600  0.000700  1.0  0.1078
  H  H21  1  0.585200  0.695800  0.082200  1.0  0.1026
  H  H22  1  0.689300  0.966100  0.390000  1.0  0.1045
  H  H23  1  0.728300  0.010100  0.501600  1.0  0.0938
  H  H24  1  0.343100  0.946100  0.391300  1.0  0.1004
  H  H25  1  0.875600  0.977000  0.639000  1.0  0.107
  H  H26  1  0.920300  0.833500  0.566300  1.0  0.1091
  H  H27  1  0.000500  0.223900  0.536700  1.0  0.1038
  H  H28  1  0.498200  0.269200  0.585700  1.0  0.0755
  H  H29  1  0.364600  0.294000  0.500700  1.0  0.1067
  H  H30  1  0.695800  0.585200  0.582200  1.0  0.1024
  H  H31  1  0.966100  0.689300  0.890000  1.0  0.1047
  H  H32  1  0.010100  0.728300  0.001600  1.0  0.0937
  H  H33  1  0.946100  0.343100  0.891300  1.0  0.1017
  H  H34  1  0.023000  0.124400  0.861000  1.0  0.1065
  H  H35  1  0.166500  0.079700  0.933700  1.0  0.1086
  H  H36  1  0.776100  0.999500  0.963300  1.0  0.1026
  H  H37  1  0.730800  0.501800  0.914300  1.0  0.0739
  H  H38  1  0.706000  0.635400  0.999300  1.0  0.1074
  H  H39  1  0.414800  0.304200  0.917800  1.0  0.1024
  H  H40  1  0.310700  0.033900  0.610000  1.0  0.1038
  H  H41  1  0.271700  0.989900  0.498400  1.0  0.0944
  H  H42  1  0.656900  0.053900  0.608700  1.0  0.1026
  C  C43  1  0.102400  0.795200  0.359800  1.0  0.7617
  C  C44  1  0.068800  0.886600  0.406300  1.0  -0.1459
  C  C45  1  0.090200  0.002000  0.397600  1.0  -0.0461
  C  C46  1  0.063400  0.087200  0.440700  1.0  -0.1461
  C  C47  1  0.012100  0.058900  0.495300  1.0  0.0381
  C  C48  1  0.016700  0.856300  0.458200  1.0  -0.0764
  C  C49  1  0.301900  0.590500  0.351800  1.0  0.7812
  C  C50  1  0.390000  0.574000  0.406800  1.0  -0.1542
  C  C51  1  0.488900  0.660500  0.432600  1.0  -0.0365
  C  C52  1  0.567600  0.646600  0.483500  1.0  -0.145
  C  C53  1  0.549100  0.544700  0.512700  1.0  0.0423
  C  C54  1  0.371800  0.473600  0.434600  1.0  -0.0866
  C  C55  1  0.066600  0.509200  0.191300  1.0  0.7379
  C  C56  1  0.047000  0.488200  0.119200  1.0  -0.1175
  C  C57  1  0.028000  0.373400  0.086000  1.0  -0.0571
  C  C58  1  0.001100  0.350100  0.019900  1.0  -0.1218
  C  C59  1  0.989500  0.440900  0.983100  1.0  0.0368
  C  C60  1  0.039600  0.579200  0.085800  1.0  -0.07
  C  C61  1  0.204800  0.897600  0.140200  1.0  0.7585
  C  C62  1  0.113400  0.931200  0.093700  1.0  -0.1483
  C  C63  1  0.998000  0.909800  0.102400  1.0  -0.0461
  C  C64  1  0.912800  0.936600  0.059300  1.0  -0.1451
  C  C65  1  0.941100  0.987900  0.004700  1.0  0.0374
  C  C66  1  0.143700  0.983300  0.041800  1.0  -0.0783
  C  C67  1  0.409500  0.698100  0.148200  1.0  0.7848
  C  C68  1  0.426000  0.610000  0.093200  1.0  -0.1569
  C  C69  1  0.339500  0.511100  0.067400  1.0  -0.0351
  C  C70  1  0.353400  0.432400  0.016500  1.0  -0.1529
  C  C71  1  0.455300  0.450900  0.987300  1.0  0.0428
  C  C72  1  0.526400  0.628200  0.065400  1.0  -0.0878
  C  C73  1  0.490800  0.933400  0.308700  1.0  0.7385
  C  C74  1  0.511800  0.953000  0.380800  1.0  -0.1177
  C  C75  1  0.626600  0.972000  0.414000  1.0  -0.0552
  C  C76  1  0.649900  0.998900  0.480100  1.0  -0.1169
  C  C77  1  0.559100  0.010500  0.516900  1.0  0.0371
  C  C78  1  0.420800  0.960400  0.414200  1.0  -0.0663
  C  C79  1  0.897600  0.204800  0.640200  1.0  0.7624
  C  C80  1  0.931200  0.113400  0.593700  1.0  -0.1468
  C  C81  1  0.909800  0.998000  0.602400  1.0  -0.0469
  C  C82  1  0.936600  0.912800  0.559300  1.0  -0.1406
  C  C83  1  0.987900  0.941100  0.504700  1.0  0.0379
  C  C84  1  0.983300  0.143700  0.541800  1.0  -0.075
  C  C85  1  0.698100  0.409500  0.648200  1.0  0.7695
  C  C86  1  0.610000  0.426000  0.593200  1.0  -0.1541
  C  C87  1  0.511100  0.339500  0.567400  1.0  -0.0366
  C  C88  1  0.432400  0.353400  0.516500  1.0  -0.1545
  C  C89  1  0.450900  0.455300  0.487300  1.0  0.0422
  C  C90  1  0.628200  0.526400  0.565400  1.0  -0.087
  C  C91  1  0.933400  0.490800  0.808700  1.0  0.7376
  C  C92  1  0.953000  0.511800  0.880800  1.0  -0.1177
  C  C93  1  0.972000  0.626600  0.914000  1.0  -0.0582
  C  C94  1  0.998900  0.649900  0.980100  1.0  -0.1219
  C  C95  1  0.010500  0.559100  0.016900  1.0  0.0371
  C  C96  1  0.960400  0.420800  0.914200  1.0  -0.0696
  C  C97  1  0.795200  0.102400  0.859800  1.0  0.761
  C  C98  1  0.886600  0.068800  0.906300  1.0  -0.1461
  C  C99  1  0.002000  0.090200  0.897600  1.0  -0.0476
  C  C100  1  0.087200  0.063400  0.940700  1.0  -0.147
  C  C101  1  0.058900  0.012100  0.995300  1.0  0.0369
  C  C102  1  0.856300  0.016700  0.958200  1.0  -0.0757
  C  C103  1  0.590500  0.301900  0.851800  1.0  0.7669
  C  C104  1  0.574000  0.390000  0.906800  1.0  -0.1554
  C  C105  1  0.660500  0.488900  0.932600  1.0  -0.0352
  C  C106  1  0.646600  0.567600  0.983500  1.0  -0.1455
  C  C107  1  0.544700  0.549100  0.012700  1.0  0.0428
  C  C108  1  0.473600  0.371800  0.934600  1.0  -0.0867
  C  C109  1  0.509200  0.066600  0.691300  1.0  0.7386
  C  C110  1  0.488200  0.047000  0.619200  1.0  -0.1181
  C  C111  1  0.373400  0.028000  0.586000  1.0  -0.0545
  C  C112  1  0.350100  0.001100  0.519900  1.0  -0.1219
  C  C113  1  0.440900  0.989500  0.483100  1.0  0.0368
  C  C114  1  0.579200  0.039600  0.585800  1.0  -0.0715
  O  O115  1  0.073700  0.689900  0.369200  1.0  -0.7423
  O  O116  1  0.155300  0.828900  0.315440  1.0  -0.6592
  O  O117  1  0.329100  0.674700  0.322340  1.0  -0.6956
  O  O118  1  0.208100  0.514900  0.339830  1.0  -0.8034
  O  O119  1  0.105000  0.611400  0.223070  1.0  -0.8324
  O  O120  1  0.035300  0.423300  0.219840  1.0  -0.6956
  O  O121  1  0.310100  0.926300  0.130800  1.0  -0.7449
  O  O122  1  0.171100  0.844700  0.184560  1.0  -0.6628
  O  O123  1  0.325300  0.670900  0.177660  1.0  -0.6975
  O  O124  1  0.485100  0.791900  0.160170  1.0  -0.8057
  O  O125  1  0.388600  0.895000  0.276930  1.0  -0.8341
  O  O126  1  0.576700  0.964700  0.280160  1.0  -0.6949
  O  O127  1  0.926300  0.310100  0.630800  1.0  -0.7431
  O  O128  1  0.844700  0.171100  0.684560  1.0  -0.6628
  O  O129  1  0.670900  0.325300  0.677660  1.0  -0.6968
  O  O130  1  0.791900  0.485100  0.660170  1.0  -0.8043
  O  O131  1  0.895000  0.388600  0.776930  1.0  -0.8314
  O  O132  1  0.964700  0.576700  0.780160  1.0  -0.69
  O  O133  1  0.689900  0.073700  0.869200  1.0  -0.7403
  O  O134  1  0.828900  0.155300  0.815440  1.0  -0.6568
  O  O135  1  0.674700  0.329100  0.822340  1.0  -0.6964
  O  O136  1  0.514900  0.208100  0.839830  1.0  -0.8036
  O  O137  1  0.611400  0.105000  0.723070  1.0  -0.8358
  O  O138  1  0.423300  0.035300  0.719840  1.0  -0.6919
