# generated using pymatgen
data_ZnH6(C3O)4
_symmetry_space_group_name_H-M   'P 1'
_cell_length_a   10.32700000
_cell_length_b   11.06700000
_cell_length_c   11.69200000
_cell_angle_alpha   112.33000000
_cell_angle_beta   97.31000000
_cell_angle_gamma   106.79000000
_symmetry_Int_Tables_number   1
_chemical_formula_structural   ZnH6(C3O)4
_chemical_formula_sum   'Zn3 H18 C36 O12'
_cell_volume   1140.20673539
_cell_formula_units_Z   3
loop_
 _symmetry_equiv_pos_site_id
 _symmetry_equiv_pos_as_xyz
  1  'x, y, z'
loop_
 _atom_site_type_symbol
 _atom_site_label
 _atom_site_symmetry_multiplicity
 _atom_site_fract_x
 _atom_site_fract_y
 _atom_site_fract_z
 _atom_site_occupancy
 _atom_site_charge
  Zn  Zn1  1  0.833360  0.167110  0.860020  1.0  1.099
  Zn  Zn2  1  0.166640  0.832890  0.139980  1.0  1.0994
  Zn  Zn3  1  0.000000  0.000000  0.000000  1.0  1.1501
  H  H4  1  0.095200  0.330900  0.336000  1.0  0.0951
  H  H5  1  0.228100  0.453700  0.568000  1.0  0.0982
  H  H6  1  0.749300  0.398900  0.223800  1.0  0.1018
  H  H7  1  0.677500  0.660200  0.820000  1.0  0.0907
  H  H8  1  0.558100  0.427300  0.685500  1.0  0.1142
  H  H9  1  0.575100  0.763600  0.534900  1.0  0.1111
  H  H10  1  0.352500  0.146000  0.914200  1.0  0.1086
  H  H11  1  0.584000  0.290600  0.983100  1.0  0.1075
  H  H12  1  0.233200  0.469100  0.940100  1.0  0.0991
  H  H13  1  0.904800  0.669100  0.664000  1.0  0.0967
  H  H14  1  0.771900  0.546300  0.432000  1.0  0.0981
  H  H15  1  0.250700  0.601100  0.776200  1.0  0.1019
  H  H16  1  0.322500  0.339800  0.180000  1.0  0.0904
  H  H17  1  0.441900  0.572700  0.314500  1.0  0.1137
  H  H18  1  0.424900  0.236400  0.465100  1.0  0.1111
  H  H19  1  0.647500  0.854000  0.085800  1.0  0.1081
  H  H20  1  0.416000  0.709400  0.016900  1.0  0.1077
  H  H21  1  0.766800  0.530900  0.059900  1.0  0.1013
  C  C22  1  0.910500  0.255300  0.124700  1.0  0.7041
  C  C23  1  0.921800  0.350400  0.260400  1.0  -0.1445
  C  C24  1  0.031700  0.375300  0.356300  1.0  -0.0574
  C  C25  1  0.050300  0.467600  0.486000  1.0  0.0392
  C  C26  1  0.162600  0.495700  0.586400  1.0  -0.1023
  C  C27  1  0.823400  0.415800  0.289200  1.0  -0.0537
  C  C28  1  0.720800  0.887900  0.778300  1.0  0.7046
  C  C29  1  0.639200  0.735800  0.688900  1.0  -0.1413
  C  C30  1  0.633400  0.632700  0.734900  1.0  -0.0408
  C  C31  1  0.563100  0.493700  0.654200  1.0  -0.1188
  C  C32  1  0.573300  0.695500  0.563500  1.0  -0.0558
  C  C33  1  0.497600  0.448900  0.523300  1.0  0.0331
  C  C34  1  0.117400  0.200500  0.885200  1.0  0.7083
  C  C35  1  0.268500  0.294600  0.922000  1.0  -0.1314
  C  C36  1  0.376200  0.240700  0.934300  1.0  -0.0481
  C  C37  1  0.514600  0.327300  0.975300  1.0  -0.1265
  C  C38  1  0.553700  0.472700  0.006400  1.0  0.0359
  C  C39  1  0.304000  0.434600  0.950000  1.0  -0.0486
  C  C40  1  0.089500  0.744700  0.875300  1.0  0.7051
  C  C41  1  0.078200  0.649600  0.739600  1.0  -0.1444
  C  C42  1  0.968300  0.624700  0.643700  1.0  -0.0537
  C  C43  1  0.949700  0.532400  0.514000  1.0  0.0392
  C  C44  1  0.837400  0.504300  0.413600  1.0  -0.107
  C  C45  1  0.176600  0.584200  0.710800  1.0  -0.054
  C  C46  1  0.279200  0.112100  0.221700  1.0  0.7038
  C  C47  1  0.360800  0.264200  0.311100  1.0  -0.141
  C  C48  1  0.366600  0.367300  0.265100  1.0  -0.0401
  C  C49  1  0.436900  0.506300  0.345800  1.0  -0.1189
  C  C50  1  0.426700  0.304500  0.436500  1.0  -0.0568
  C  C51  1  0.502400  0.551100  0.476700  1.0  0.0337
  C  C52  1  0.882600  0.799500  0.114800  1.0  0.7101
  C  C53  1  0.731500  0.705400  0.078000  1.0  -0.13
  C  C54  1  0.623800  0.759300  0.065700  1.0  -0.0473
  C  C55  1  0.485400  0.672700  0.024700  1.0  -0.1305
  C  C56  1  0.446300  0.527300  0.993600  1.0  0.0363
  C  C57  1  0.696000  0.565400  0.050000  1.0  -0.0444
  O  O58  1  0.993500  0.191550  0.107290  1.0  -0.6131
  O  O59  1  0.819000  0.249400  0.036220  1.0  -0.6186
  O  O60  1  0.713600  0.977870  0.735840  1.0  -0.6286
  O  O61  1  0.791300  0.921810  0.888080  1.0  -0.6292
  O  O62  1  0.086300  0.077710  0.875590  1.0  -0.6228
  O  O63  1  0.027100  0.253200  0.865400  1.0  -0.6479
  O  O64  1  0.006500  0.808450  0.892710  1.0  -0.612
  O  O65  1  0.181000  0.750600  0.963780  1.0  -0.6198
  O  O66  1  0.286400  0.022130  0.264160  1.0  -0.6292
  O  O67  1  0.208700  0.078190  0.111920  1.0  -0.6294
  O  O68  1  0.913700  0.922290  0.124410  1.0  -0.6214
  O  O69  1  0.972900  0.746800  0.134600  1.0  -0.6482
