# generated using pymatgen
data_ZnH8(C4N3)4
_symmetry_space_group_name_H-M   'P 1'
_cell_length_a   13.55100000
_cell_length_b   16.18100000
_cell_length_c   16.54000000
_cell_angle_alpha   109.46000000
_cell_angle_beta   101.21000000
_cell_angle_gamma   109.75000000
_symmetry_Int_Tables_number   1
_chemical_formula_structural   ZnH8(C4N3)4
_chemical_formula_sum   'Zn6 H48 C96 N72'
_cell_volume   3019.67492593
_cell_formula_units_Z   6
loop_
 _symmetry_equiv_pos_site_id
 _symmetry_equiv_pos_as_xyz
  1  'x, y, z'
loop_
 _atom_site_type_symbol
 _atom_site_label
 _atom_site_symmetry_multiplicity
 _atom_site_fract_x
 _atom_site_fract_y
 _atom_site_fract_z
 _atom_site_occupancy
 _atom_site_charge
  Zn  Zn1  1  0.504570  0.423150  0.824760  1.0  0.636
  Zn  Zn2  1  0.829590  0.543170  0.426530  1.0  0.6447
  Zn  Zn3  1  0.410810  0.796470  0.489120  1.0  0.7602
  Zn  Zn4  1  0.495430  0.576850  0.175240  1.0  0.6324
  Zn  Zn5  1  0.170410  0.456830  0.573470  1.0  0.6497
  Zn  Zn6  1  0.589190  0.203530  0.510880  1.0  0.7447
  H  H7  1  0.875900  0.679600  0.878500  1.0  0.1149
  H  H8  1  0.841200  0.671000  0.731000  1.0  0.1037
  H  H9  1  0.658000  0.583900  0.628900  1.0  0.1155
  H  H10  1  0.523900  0.491900  0.667900  1.0  0.0772
  H  H11  1  0.029500  0.732300  0.110800  1.0  0.1154
  H  H12  1  0.168300  0.874900  0.132800  1.0  0.1116
  H  H13  1  0.119000  0.988500  0.101100  1.0  0.1206
  H  H14  1  0.935000  0.949000  0.032700  1.0  0.092
  H  H15  1  0.004100  0.885500  0.678400  1.0  0.1079
  H  H16  1  0.838500  0.898000  0.682300  1.0  0.1126
  H  H17  1  0.669000  0.767700  0.585300  1.0  0.1276
  H  H18  1  0.667900  0.629100  0.488400  1.0  0.0765
  H  H19  1  0.125500  0.818200  0.786800  1.0  0.1235
  H  H20  1  0.213000  0.960700  0.922000  1.0  0.1122
  H  H21  1  0.317200  0.104200  0.916900  1.0  0.1228
  H  H22  1  0.341800  0.099700  0.783300  1.0  0.0736
  H  H23  1  0.044400  0.755700  0.289900  1.0  0.1075
  H  H24  1  0.988200  0.600600  0.179900  1.0  0.1052
  H  H25  1  0.093300  0.517800  0.193500  1.0  0.1232
  H  H26  1  0.250500  0.590500  0.320400  1.0  0.0613
  H  H27  1  0.095800  0.959700  0.319900  1.0  0.1068
  H  H28  1  0.909200  0.908300  0.242000  1.0  0.1061
  H  H29  1  0.776400  0.824500  0.290300  1.0  0.118
  H  H30  1  0.831300  0.791700  0.409100  1.0  0.0715
  H  H31  1  0.124100  0.320400  0.121500  1.0  0.1143
  H  H32  1  0.158800  0.329000  0.269000  1.0  0.1035
  H  H33  1  0.342000  0.416100  0.371100  1.0  0.1144
  H  H34  1  0.476100  0.508100  0.332100  1.0  0.0776
  H  H35  1  0.970500  0.267700  0.889200  1.0  0.1146
  H  H36  1  0.831700  0.125100  0.867200  1.0  0.1115
  H  H37  1  0.881000  0.011500  0.898900  1.0  0.1208
  H  H38  1  0.065000  0.051000  0.967300  1.0  0.0922
  H  H39  1  0.995900  0.114500  0.321600  1.0  0.1076
  H  H40  1  0.161500  0.102000  0.317700  1.0  0.111
  H  H41  1  0.331000  0.232300  0.414700  1.0  0.1279
  H  H42  1  0.332100  0.370900  0.511600  1.0  0.0777
  H  H43  1  0.874500  0.181800  0.213200  1.0  0.1241
  H  H44  1  0.787000  0.039300  0.078000  1.0  0.1113
  H  H45  1  0.682800  0.895800  0.083100  1.0  0.1232
  H  H46  1  0.658200  0.900300  0.216700  1.0  0.073
  H  H47  1  0.955600  0.244300  0.710100  1.0  0.1084
  H  H48  1  0.011800  0.399400  0.820100  1.0  0.1052
  H  H49  1  0.906700  0.482200  0.806500  1.0  0.1234
  H  H50  1  0.749500  0.409500  0.679600  1.0  0.0616
  H  H51  1  0.904200  0.040300  0.680100  1.0  0.1074
  H  H52  1  0.090800  0.091700  0.758000  1.0  0.1068
  H  H53  1  0.223600  0.175500  0.709700  1.0  0.1187
  H  H54  1  0.168700  0.208300  0.590900  1.0  0.0722
  C  C55  1  0.546800  0.412100  0.000500  1.0  0.248
  C  C56  1  0.722600  0.561900  0.189100  1.0  0.3107
  C  C57  1  0.645400  0.499300  0.019200  1.0  0.1065
  C  C58  1  0.729500  0.567600  0.102900  1.0  0.1727
  C  C59  1  0.815300  0.655900  0.031500  1.0  0.136
  C  C60  1  0.731000  0.588500  0.946900  1.0  0.1481
  C  C61  1  0.718200  0.590700  0.856200  1.0  0.1842
  C  C62  1  0.804500  0.642300  0.835000  1.0  -0.1385
  C  C63  1  0.783800  0.638100  0.747500  1.0  0.0087
  C  C64  1  0.675900  0.584000  0.686200  1.0  -0.1342
  C  C65  1  0.595800  0.530800  0.710500  1.0  0.1692
  C  C66  1  0.905500  0.750600  0.048600  1.0  0.1897
  C  C67  1  0.011400  0.774800  0.091700  1.0  -0.1658
  C  C68  1  0.093600  0.860800  0.108100  1.0  0.0078
  C  C69  1  0.064100  0.927700  0.087200  1.0  -0.1717
  C  C70  1  0.953700  0.903600  0.046100  1.0  0.1571
  C  C71  1  0.029900  0.514400  0.408500  1.0  0.2383
  C  C72  1  0.279600  0.637300  0.537100  1.0  0.3019
  C  C73  1  0.077500  0.611400  0.485100  1.0  0.1189
  C  C74  1  0.190100  0.670200  0.541400  1.0  0.1424
  C  C75  1  0.143100  0.787200  0.625300  1.0  0.1806
  C  C76  1  0.028700  0.728600  0.571500  1.0  0.1057
  C  C77  1  0.928700  0.747300  0.580300  1.0  0.1792
  C  C78  1  0.935200  0.833400  0.640100  1.0  -0.1395
  C  C79  1  0.836300  0.840700  0.642100  1.0  -0.0009
  C  C80  1  0.735800  0.763700  0.584900  1.0  -0.1475
  C  C81  1  0.736100  0.681400  0.527800  1.0  0.1672
  C  C82  1  0.187600  0.879100  0.709900  1.0  0.2269
  C  C83  1  0.170800  0.876500  0.787600  1.0  -0.1524
  C  C84  1  0.221400  0.961100  0.867700  1.0  -0.0087
  C  C85  1  0.284100  0.045400  0.864800  1.0  -0.1687
  C  C86  1  0.297500  0.042000  0.784000  1.0  0.1927
  C  C87  1  0.508800  0.002100  0.616700  1.0  0.2724
  C  C88  1  0.426900  0.162000  0.620000  1.0  0.3131
  C  C89  1  0.399800  0.986100  0.561400  1.0  0.1061
  C  C90  1  0.358700  0.054700  0.564100  1.0  0.158
  C  C91  1  0.189100  0.932600  0.457400  1.0  0.1592
  C  C92  1  0.235000  0.865100  0.444000  1.0  0.1209
  C  C93  1  0.182500  0.763200  0.369900  1.0  0.179
  C  C94  1  0.086500  0.721600  0.295700  1.0  -0.1417
  C  C95  1  0.053400  0.629300  0.230100  1.0  -0.0405
  C  C96  1  0.114400  0.580000  0.237900  1.0  -0.1371
  C  C97  1  0.209000  0.624800  0.313800  1.0  0.1846
  C  C98  1  0.069500  0.905400  0.410300  1.0  0.2358
  C  C99  1  0.040700  0.925600  0.337800  1.0  -0.1392
  C  C100  1  0.930400  0.895100  0.291600  1.0  -0.0181
  C  C101  1  0.851900  0.845000  0.319700  1.0  -0.1383
  C  C102  1  0.885500  0.825600  0.390500  1.0  0.1898
  C  C103  1  0.453200  0.587900  0.999500  1.0  0.2532
  C  C104  1  0.277400  0.438100  0.810900  1.0  0.3097
  C  C105  1  0.354600  0.500700  0.980800  1.0  0.1084
  C  C106  1  0.270500  0.432400  0.897100  1.0  0.174
  C  C107  1  0.184700  0.344100  0.968500  1.0  0.1361
  C  C108  1  0.269000  0.411500  0.053100  1.0  0.1444
  C  C109  1  0.281800  0.409300  0.143800  1.0  0.1849
  C  C110  1  0.195500  0.357700  0.165000  1.0  -0.1347
  C  C111  1  0.216200  0.361900  0.252500  1.0  0.0074
  C  C112  1  0.324100  0.416000  0.313800  1.0  -0.1302
  C  C113  1  0.404200  0.469200  0.289500  1.0  0.1705
  C  C114  1  0.094500  0.249400  0.951400  1.0  0.1896
  C  C115  1  0.988600  0.225200  0.908300  1.0  -0.1678
  C  C116  1  0.906400  0.139200  0.891900  1.0  0.007
  C  C117  1  0.935900  0.072300  0.912800  1.0  -0.1748
  C  C118  1  0.046300  0.096400  0.953900  1.0  0.1609
  C  C119  1  0.970100  0.485600  0.591500  1.0  0.2388
  C  C120  1  0.720400  0.362700  0.462900  1.0  0.299
  C  C121  1  0.922500  0.388600  0.514900  1.0  0.1198
  C  C122  1  0.809900  0.329800  0.458600  1.0  0.144
  C  C123  1  0.856900  0.212800  0.374700  1.0  0.1796
  C  C124  1  0.971300  0.271400  0.428500  1.0  0.1044
  C  C125  1  0.071300  0.252700  0.419700  1.0  0.1816
  C  C126  1  0.064800  0.166600  0.359900  1.0  -0.1397
  C  C127  1  0.163700  0.159300  0.357900  1.0  -0.0007
  C  C128  1  0.264200  0.236300  0.415100  1.0  -0.1482
  C  C129  1  0.263900  0.318600  0.472200  1.0  0.1675
  C  C130  1  0.812400  0.120900  0.290100  1.0  0.2271
  C  C131  1  0.829200  0.123500  0.212400  1.0  -0.1525
  C  C132  1  0.778600  0.038900  0.132300  1.0  -0.0114
  C  C133  1  0.715900  0.954600  0.135200  1.0  -0.1661
  C  C134  1  0.702500  0.958000  0.216000  1.0  0.192
  C  C135  1  0.491200  0.997900  0.383300  1.0  0.271
  C  C136  1  0.573100  0.838000  0.380000  1.0  0.3128
  C  C137  1  0.600200  0.013900  0.438600  1.0  0.1049
  C  C138  1  0.641300  0.945300  0.435900  1.0  0.1571
  C  C139  1  0.810900  0.067400  0.542600  1.0  0.1599
  C  C140  1  0.765000  0.134900  0.556000  1.0  0.1216
  C  C141  1  0.817500  0.236800  0.630100  1.0  0.1785
  C  C142  1  0.913500  0.278400  0.704300  1.0  -0.1406
  C  C143  1  0.946600  0.370700  0.769900  1.0  -0.062
  C  C144  1  0.885600  0.420000  0.762100  1.0  -0.1378
  C  C145  1  0.791000  0.375200  0.686200  1.0  0.1853
  C  C146  1  0.930500  0.094600  0.589700  1.0  0.2348
  C  C147  1  0.959300  0.074400  0.662200  1.0  -0.1309
  C  C148  1  0.069600  0.104900  0.708400  1.0  -0.0186
  C  C149  1  0.148100  0.155000  0.680300  1.0  -0.1399
  C  C150  1  0.114500  0.174400  0.609500  1.0  0.1898
  N  N151  1  0.470000  0.364100  0.917700  1.0  -0.2825
  N  N152  1  0.391900  0.288300  0.920000  1.0  -0.0837
  N  N153  1  0.422500  0.291600  0.002200  1.0  -0.0975
  N  N154  1  0.522100  0.371100  0.055600  1.0  -0.3205
  N  N155  1  0.640100  0.567200  0.219800  1.0  -0.2072
  N  N156  1  0.663300  0.562100  0.299700  1.0  -0.1337
  N  N157  1  0.757400  0.554000  0.314400  1.0  0.0324
  N  N158  1  0.797400  0.553400  0.246200  1.0  -0.3272
  N  N159  1  0.647800  0.512600  0.943600  1.0  -0.273
  N  N160  1  0.814300  0.643300  0.107600  1.0  -0.3409
  N  N161  1  0.617200  0.532600  0.793800  1.0  -0.3113
  N  N162  1  0.869000  0.813100  0.024000  1.0  -0.4049
  N  N163  1  0.918800  0.468500  0.369600  1.0  -0.2408
  N  N164  1  0.898400  0.383700  0.301900  1.0  -0.1109
  N  N165  1  0.995200  0.380300  0.302700  1.0  -0.1268
  N  N166  1  0.080700  0.463400  0.371400  1.0  -0.3261
  N  N167  1  0.374700  0.685900  0.527800  1.0  -0.2228
  N  N168  1  0.437500  0.637300  0.534800  1.0  -0.082
  N  N169  1  0.382400  0.563100  0.549300  1.0  -0.0851
  N  N170  1  0.281500  0.561300  0.550800  1.0  -0.251
  N  N171  1  0.001200  0.642900  0.501300  1.0  -0.2562
  N  N172  1  0.221000  0.758200  0.608600  1.0  -0.3178
  N  N173  1  0.830400  0.671700  0.525200  1.0  -0.3148
  N  N174  1  0.250200  0.960000  0.705800  1.0  -0.394
  N  N175  1  0.533000  0.926300  0.600400  1.0  -0.2504
  N  N176  1  0.637700  0.961300  0.657600  1.0  -0.1119
  N  N177  1  0.672500  0.055300  0.707100  1.0  -0.114
  N  N178  1  0.591000  0.084000  0.681800  1.0  -0.3273
  N  N179  1  0.414100  0.212900  0.694600  1.0  -0.288
  N  N180  1  0.487500  0.305000  0.719400  1.0  0.0249
  N  N181  1  0.540300  0.309300  0.662100  1.0  -0.1305
  N  N182  1  0.503700  0.218400  0.597800  1.0  -0.2521
  N  N183  1  0.337600  0.893700  0.499300  1.0  -0.265
  N  N184  1  0.252700  0.027200  0.514300  1.0  -0.3576
  N  N185  1  0.245100  0.714600  0.378800  1.0  -0.3374
  N  N186  1  0.994700  0.853200  0.436200  1.0  -0.4227
  N  N187  1  0.530000  0.635900  0.082300  1.0  -0.2827
  N  N188  1  0.608100  0.711700  0.080000  1.0  -0.0834
  N  N189  1  0.577500  0.708400  0.997800  1.0  -0.1095
  N  N190  1  0.477900  0.628900  0.944400  1.0  -0.3194
  N  N191  1  0.359900  0.432800  0.780200  1.0  -0.2083
  N  N192  1  0.336700  0.437900  0.700300  1.0  -0.1344
  N  N193  1  0.242600  0.446000  0.685600  1.0  0.0325
  N  N194  1  0.202600  0.446600  0.753800  1.0  -0.3243
  N  N195  1  0.352200  0.487400  0.056400  1.0  -0.2635
  N  N196  1  0.185700  0.356700  0.892400  1.0  -0.3415
  N  N197  1  0.382800  0.467400  0.206200  1.0  -0.3093
  N  N198  1  0.131000  0.186900  0.976000  1.0  -0.4044
  N  N199  1  0.081200  0.531500  0.630400  1.0  -0.2418
  N  N200  1  0.101600  0.616300  0.698100  1.0  -0.1116
  N  N201  1  0.004800  0.619700  0.697300  1.0  -0.1282
  N  N202  1  0.919300  0.536600  0.628600  1.0  -0.3232
  N  N203  1  0.625300  0.314100  0.472200  1.0  -0.2231
  N  N204  1  0.562500  0.362700  0.465200  1.0  -0.0821
  N  N205  1  0.617600  0.436900  0.450700  1.0  -0.0851
  N  N206  1  0.718500  0.438700  0.449200  1.0  -0.2508
  N  N207  1  0.998800  0.357100  0.498700  1.0  -0.2583
  N  N208  1  0.779000  0.241800  0.391400  1.0  -0.3172
  N  N209  1  0.169600  0.328300  0.474800  1.0  -0.3171
  N  N210  1  0.749800  0.040000  0.294200  1.0  -0.3925
  N  N211  1  0.467000  0.073700  0.399600  1.0  -0.2542
  N  N212  1  0.362300  0.038700  0.342400  1.0  -0.1129
  N  N213  1  0.327500  0.944700  0.292900  1.0  -0.1126
  N  N214  1  0.409000  0.916000  0.318200  1.0  -0.3354
  N  N215  1  0.585900  0.787100  0.305400  1.0  -0.2867
  N  N216  1  0.512500  0.695000  0.280600  1.0  0.0265
  N  N217  1  0.459700  0.690700  0.337900  1.0  -0.1273
  N  N218  1  0.496300  0.781600  0.402200  1.0  -0.2497
  N  N219  1  0.662400  0.106300  0.500700  1.0  -0.2647
  N  N220  1  0.747300  0.972800  0.485700  1.0  -0.3452
  N  N221  1  0.754900  0.285400  0.621200  1.0  -0.3378
  N  N222  1  0.005300  0.146800  0.563800  1.0  -0.4218
