# generated using pymatgen
data_Cd3H46C56(N5O7)2
_symmetry_space_group_name_H-M   'P 1'
_cell_length_a   11.06030000
_cell_length_b   16.32200000
_cell_length_c   19.47230000
_cell_angle_alpha   65.76380000
_cell_angle_beta   73.50080000
_cell_angle_gamma   70.19520000
_symmetry_Int_Tables_number   1
_chemical_formula_structural   Cd3H46C56(N5O7)2
_chemical_formula_sum   'Cd6 H92 C112 N20 O28'
_cell_volume   2972.49896593
_cell_formula_units_Z   2
loop_
 _symmetry_equiv_pos_site_id
 _symmetry_equiv_pos_as_xyz
  1  'x, y, z'
loop_
 _atom_site_type_symbol
 _atom_site_label
 _atom_site_symmetry_multiplicity
 _atom_site_fract_x
 _atom_site_fract_y
 _atom_site_fract_z
 _atom_site_occupancy
 _atom_site_charge
  Cd  Cd1  1  0.001600  0.408260  0.474760  1.0  1.0814
  Cd  Cd2  1  0.884620  0.091740  0.025240  1.0  1.0828
  Cd  Cd3  1  0.998400  0.591740  0.525240  1.0  1.0808
  Cd  Cd4  1  0.115380  0.908260  0.974760  1.0  1.0833
  Cd  Cd5  1  0.818460  0.250000  0.750000  1.0  1.1127
  Cd  Cd6  1  0.181540  0.750000  0.250000  1.0  1.1127
  H  H7  1  0.750400  0.736100  0.690300  1.0  0.0648
  H  H8  1  0.569300  0.451900  0.696100  1.0  0.0981
  H  H9  1  0.318200  0.573700  0.792500  1.0  0.0803
  H  H10  1  0.358500  0.493300  0.759700  1.0  0.0842
  H  H11  1  0.317800  0.432800  0.892200  1.0  0.1206
  H  H12  1  0.465100  0.393300  0.863100  1.0  0.1154
  H  H13  1  0.424300  0.473800  0.895800  1.0  0.1071
  H  H14  1  0.515500  0.856300  0.837300  1.0  0.0868
  H  H15  1  0.362900  0.886700  0.846900  1.0  0.0862
  H  H16  1  0.420600  0.901600  0.945600  1.0  0.1058
  H  H17  1  0.506600  0.798600  0.968400  1.0  0.0863
  H  H18  1  0.405600  0.671000  0.024200  1.0  0.0771
  H  H19  1  0.253100  0.690100  0.039700  1.0  0.0876
  H  H20  1  0.248600  0.744400  0.910400  1.0  0.0712
  H  H21  1  0.346900  0.645700  0.931300  1.0  0.09
  H  H22  1  0.585000  0.932600  0.557400  1.0  0.1037
  H  H23  1  0.741800  0.842100  0.493300  1.0  0.0868
  H  H24  1  0.494700  0.690200  0.532600  1.0  0.101
  H  H25  1  0.339100  0.778600  0.599200  1.0  0.0912
  H  H26  1  0.447300  0.952200  0.673600  1.0  0.0915
  H  H27  1  0.284300  0.056900  0.722500  1.0  0.1108
  H  H28  1  0.028800  0.033600  0.624800  1.0  0.0881
  H  H29  1  0.192000  0.928900  0.575900  1.0  0.1048
  H  H30  1  0.176800  0.763900  0.809700  1.0  0.0649
  H  H31  1  0.717300  0.048100  0.803900  1.0  0.0972
  H  H32  1  0.684400  0.926300  0.707500  1.0  0.081
  H  H33  1  0.611500  0.006700  0.740300  1.0  0.0822
  H  H34  1  0.642800  0.067200  0.607800  1.0  0.1204
  H  H35  1  0.721500  0.106700  0.636900  1.0  0.1162
  H  H36  1  0.793900  0.026200  0.604200  1.0  0.1076
  H  H37  1  0.209100  0.643700  0.662700  1.0  0.0852
  H  H38  1  0.096500  0.613300  0.653100  1.0  0.0881
  H  H39  1  0.267800  0.598400  0.554400  1.0  0.1075
  H  H40  1  0.273600  0.701400  0.531600  1.0  0.088
  H  H41  1  0.100800  0.829000  0.475800  1.0  0.077
  H  H42  1  0.982900  0.809900  0.460300  1.0  0.0871
  H  H43  1  0.903400  0.755600  0.589600  1.0  0.0718
  H  H44  1  0.923900  0.854300  0.568700  1.0  0.0888
  H  H45  1  0.075000  0.567400  0.942600  1.0  0.1041
  H  H46  1  0.077200  0.657900  0.006700  1.0  0.0853
  H  H47  1  0.717500  0.809800  0.967400  1.0  0.1021
  H  H48  1  0.716900  0.721400  0.900800  1.0  0.0896
  H  H49  1  0.073100  0.547800  0.826400  1.0  0.092
  H  H50  1  0.063700  0.443100  0.777500  1.0  0.1111
  H  H51  1  0.687200  0.466400  0.875200  1.0  0.0887
  H  H52  1  0.696800  0.571100  0.924100  1.0  0.1045
  H  H53  1  0.249600  0.263900  0.309700  1.0  0.0647
  H  H54  1  0.430700  0.548100  0.303900  1.0  0.0981
  H  H55  1  0.681800  0.426300  0.207500  1.0  0.0823
  H  H56  1  0.641500  0.506700  0.240300  1.0  0.084
  H  H57  1  0.682200  0.567200  0.107800  1.0  0.1226
  H  H58  1  0.534900  0.606700  0.136900  1.0  0.1161
  H  H59  1  0.575700  0.526200  0.104200  1.0  0.1085
  H  H60  1  0.484500  0.143700  0.162700  1.0  0.0863
  H  H61  1  0.637100  0.113300  0.153100  1.0  0.0867
  H  H62  1  0.579400  0.098400  0.054400  1.0  0.1068
  H  H63  1  0.493400  0.201400  0.031600  1.0  0.086
  H  H64  1  0.594400  0.329000  0.975800  1.0  0.0774
  H  H65  1  0.746900  0.309900  0.960300  1.0  0.0888
  H  H66  1  0.751400  0.255600  0.089600  1.0  0.0707
  H  H67  1  0.653100  0.354300  0.068700  1.0  0.0896
  H  H68  1  0.415000  0.067400  0.442600  1.0  0.1032
  H  H69  1  0.258200  0.157900  0.506700  1.0  0.0872
  H  H70  1  0.505300  0.309800  0.467400  1.0  0.1013
  H  H71  1  0.660900  0.221400  0.400800  1.0  0.0907
  H  H72  1  0.552700  0.047800  0.326400  1.0  0.0911
  H  H73  1  0.715700  0.943100  0.277500  1.0  0.1107
  H  H74  1  0.971200  0.966400  0.375200  1.0  0.0881
  H  H75  1  0.808000  0.071100  0.424100  1.0  0.1045
  H  H76  1  0.823200  0.236100  0.190300  1.0  0.0644
  H  H77  1  0.282700  0.951900  0.196100  1.0  0.098
  H  H78  1  0.315600  0.073700  0.292500  1.0  0.079
  H  H79  1  0.388500  0.993300  0.259700  1.0  0.0823
  H  H80  1  0.357200  0.932800  0.392200  1.0  0.1197
  H  H81  1  0.278500  0.893300  0.363100  1.0  0.1181
  H  H82  1  0.206100  0.973800  0.395800  1.0  0.106
  H  H83  1  0.790900  0.356300  0.337300  1.0  0.0858
  H  H84  1  0.903500  0.386700  0.346900  1.0  0.0893
  H  H85  1  0.732200  0.401600  0.445600  1.0  0.1056
  H  H86  1  0.726400  0.298600  0.468400  1.0  0.0867
  H  H87  1  0.899200  0.171000  0.524200  1.0  0.0781
  H  H88  1  0.017100  0.190100  0.539700  1.0  0.0877
  H  H89  1  0.096600  0.244400  0.410400  1.0  0.071
  H  H90  1  0.076100  0.145700  0.431300  1.0  0.0889
  H  H91  1  0.925000  0.432600  0.057400  1.0  0.1044
  H  H92  1  0.922800  0.342100  0.993300  1.0  0.0856
  H  H93  1  0.282500  0.190200  0.032600  1.0  0.1011
  H  H94  1  0.283100  0.278600  0.099200  1.0  0.0897
  H  H95  1  0.926900  0.452200  0.173600  1.0  0.092
  H  H96  1  0.936300  0.556900  0.222500  1.0  0.1108
  H  H97  1  0.312800  0.533600  0.124800  1.0  0.089
  H  H98  1  0.303200  0.428900  0.075900  1.0  0.1047
  C  C99  1  0.789560  0.456590  0.611890  1.0  0.7598
  C  C100  1  0.708990  0.518670  0.656730  1.0  -0.3706
  C  C101  1  0.747580  0.591630  0.660970  1.0  0.5092
  C  C102  1  0.657170  0.639720  0.710840  1.0  -0.3626
  C  C103  1  0.678240  0.714120  0.720420  1.0  0.3061
  C  C104  1  0.501220  0.717450  0.814110  1.0  0.5663
  C  C105  1  0.542380  0.613870  0.755110  1.0  0.4159
  C  C106  1  0.592600  0.499730  0.699330  1.0  0.127
  C  C107  1  0.385710  0.518690  0.788250  1.0  0.0309
  C  C108  1  0.399490  0.448280  0.866940  1.0  -0.3357
  C  C109  1  0.436230  0.839930  0.869410  1.0  -0.009
  C  C110  1  0.427870  0.839360  0.948320  1.0  -0.0264
  C  C111  1  0.326740  0.712070  0.004450  1.0  -0.0139
  C  C112  1  0.331620  0.709480  0.927440  1.0  -0.0206
  C  C113  1  0.566230  0.884400  0.552020  1.0  -0.1339
  C  C114  1  0.660080  0.830040  0.513620  1.0  -0.0379
  C  C115  1  0.634790  0.757830  0.504850  1.0  -0.141
  C  C116  1  0.512970  0.739110  0.537350  1.0  -0.0387
  C  C117  1  0.419210  0.792750  0.576630  1.0  -0.1396
  C  C118  1  0.442500  0.867140  0.582960  1.0  0.0426
  C  C119  1  0.337870  0.930290  0.618890  1.0  0.0472
  C  C120  1  0.363440  0.968740  0.663380  1.0  -0.1442
  C  C121  1  0.265790  0.031480  0.692940  1.0  -0.0266
  C  C122  1  0.139220  0.056450  0.678030  1.0  -0.122
  C  C123  1  0.113010  0.017550  0.634470  1.0  -0.0639
  C  C124  1  0.210970  0.954750  0.604990  1.0  -0.1286
  C  C125  1  0.735430  0.700220  0.460920  1.0  0.6768
  C  C126  1  0.032200  0.124500  0.709500  1.0  0.6471
  C  C127  1  0.858040  0.043410  0.888110  1.0  0.7631
  C  C128  1  0.884390  0.981330  0.843270  1.0  -0.3462
  C  C129  1  0.000180  0.908370  0.839030  1.0  0.5119
  C  C130  1  0.007730  0.860280  0.789160  1.0  -0.3645
  C  C131  1  0.112780  0.785880  0.779580  1.0  0.3037
  C  C132  1  0.032780  0.782550  0.685890  1.0  0.5648
  C  C133  1  0.911360  0.886130  0.744890  1.0  0.4151
  C  C134  1  0.791660  0.000270  0.800670  1.0  0.1264
  C  C135  1  0.692650  0.981310  0.711750  1.0  0.0314
  C  C136  1  0.714710  0.051720  0.633060  1.0  -0.335
  C  C137  1  0.145570  0.660070  0.630590  1.0  -0.0118
  C  C138  1  0.215550  0.660640  0.551680  1.0  -0.0265
  C  C139  1  0.043260  0.787930  0.495550  1.0  -0.0128
  C  C140  1  0.968540  0.790520  0.572560  1.0  -0.0189
  C  C141  1  0.002650  0.615600  0.947980  1.0  -0.1354
  C  C142  1  0.003740  0.669960  0.986380  1.0  -0.0385
  C  C143  1  0.897470  0.742170  0.995150  1.0  -0.1409
  C  C144  1  0.789430  0.760890  0.962650  1.0  -0.0416
  C  C145  1  0.788590  0.707250  0.923370  1.0  -0.1369
  C  C146  1  0.892600  0.632860  0.917040  1.0  0.0422
  C  C147  1  0.887050  0.569710  0.881110  1.0  0.0458
  C  C148  1  0.995560  0.531260  0.836620  1.0  -0.1469
  C  C149  1  0.990210  0.468520  0.807060  1.0  -0.0265
  C  C150  1  0.873700  0.443550  0.821970  1.0  -0.1173
  C  C151  1  0.765030  0.482450  0.865530  1.0  -0.0659
  C  C152  1  0.770710  0.545250  0.895010  1.0  -0.1287
  C  C153  1  0.896570  0.799780  0.039080  1.0  0.6879
  C  C154  1  0.866200  0.375500  0.790500  1.0  0.6512
  C  C155  1  0.210440  0.543410  0.388110  1.0  0.76
  C  C156  1  0.291010  0.481330  0.343270  1.0  -0.3636
  C  C157  1  0.252420  0.408370  0.339030  1.0  0.5105
  C  C158  1  0.342830  0.360280  0.289160  1.0  -0.3636
  C  C159  1  0.321760  0.285880  0.279580  1.0  0.3043
  C  C160  1  0.498780  0.282550  0.185890  1.0  0.5653
  C  C161  1  0.457620  0.386130  0.244890  1.0  0.4151
  C  C162  1  0.407400  0.500270  0.300670  1.0  0.1256
  C  C163  1  0.614290  0.481310  0.211750  1.0  0.0284
  C  C164  1  0.600510  0.551720  0.133060  1.0  -0.337
  C  C165  1  0.563770  0.160070  0.130590  1.0  -0.0073
  C  C166  1  0.572130  0.160640  0.051680  1.0  -0.0243
  C  C167  1  0.673260  0.287930  0.995550  1.0  -0.0115
  C  C168  1  0.668380  0.290520  0.072560  1.0  -0.0211
  C  C169  1  0.433770  0.115600  0.447980  1.0  -0.1339
  C  C170  1  0.339920  0.169960  0.486380  1.0  -0.0392
  C  C171  1  0.365210  0.242170  0.495150  1.0  -0.1391
  C  C172  1  0.487030  0.260890  0.462650  1.0  -0.0408
  C  C173  1  0.580790  0.207250  0.423370  1.0  -0.1391
  C  C174  1  0.557500  0.132860  0.417040  1.0  0.0425
  C  C175  1  0.662130  0.069710  0.381110  1.0  0.0462
  C  C176  1  0.636560  0.031260  0.336620  1.0  -0.1436
  C  C177  1  0.734210  0.968520  0.307060  1.0  -0.0245
  C  C178  1  0.860780  0.943550  0.321970  1.0  -0.1186
  C  C179  1  0.886990  0.982450  0.365530  1.0  -0.0701
  C  C180  1  0.789030  0.045250  0.395010  1.0  -0.129
  C  C181  1  0.264570  0.299780  0.539080  1.0  0.6802
  C  C182  1  0.967800  0.875500  0.290500  1.0  0.6504
  C  C183  1  0.141960  0.956590  0.111890  1.0  0.7652
  C  C184  1  0.115610  0.018670  0.156730  1.0  -0.365
  C  C185  1  0.999820  0.091630  0.160970  1.0  0.5128
  C  C186  1  0.992270  0.139720  0.210840  1.0  -0.3624
  C  C187  1  0.887220  0.214120  0.220420  1.0  0.3033
  C  C188  1  0.967220  0.217450  0.314110  1.0  0.5657
  C  C189  1  0.088640  0.113870  0.255110  1.0  0.4147
  C  C190  1  0.208340  0.999730  0.199330  1.0  0.1259
  C  C191  1  0.307350  0.018690  0.288250  1.0  0.0314
  C  C192  1  0.285290  0.948280  0.366940  1.0  -0.3298
  C  C193  1  0.854430  0.339930  0.369410  1.0  -0.0121
  C  C194  1  0.784450  0.339360  0.448320  1.0  -0.0277
  C  C195  1  0.956740  0.212070  0.504450  1.0  -0.0146
  C  C196  1  0.031460  0.209480  0.427440  1.0  -0.0181
  C  C197  1  0.997350  0.384400  0.052020  1.0  -0.1345
  C  C198  1  0.996260  0.330040  0.013620  1.0  -0.0378
  C  C199  1  0.102530  0.257830  0.004850  1.0  -0.1413
  C  C200  1  0.210570  0.239110  0.037350  1.0  -0.0398
  C  C201  1  0.211410  0.292750  0.076630  1.0  -0.1363
  C  C202  1  0.107400  0.367140  0.082960  1.0  0.0425
  C  C203  1  0.112950  0.430290  0.118890  1.0  0.0465
  C  C204  1  0.004440  0.468740  0.163380  1.0  -0.1473
  C  C205  1  0.009790  0.531480  0.192940  1.0  -0.0255
  C  C206  1  0.126300  0.556450  0.178030  1.0  -0.1185
  C  C207  1  0.234970  0.517550  0.134470  1.0  -0.0735
  C  C208  1  0.229290  0.454750  0.104990  1.0  -0.1276
  C  C209  1  0.103430  0.200220  0.960920  1.0  0.6884
  C  C210  1  0.133800  0.624500  0.209500  1.0  0.6487
  N  N211  1  0.314210  0.807320  0.999260  1.0  -0.2735
  N  N212  1  0.435700  0.749230  0.871790  1.0  -0.1782
  N  N213  1  0.602840  0.754830  0.769050  1.0  -0.5126
  N  N214  1  0.464380  0.651640  0.806460  1.0  -0.5542
  N  N215  1  0.509620  0.545540  0.745620  1.0  -0.062
  N  N216  1  0.120790  0.692680  0.500740  1.0  -0.2739
  N  N217  1  0.056720  0.750770  0.628210  1.0  -0.1783
  N  N218  1  0.126720  0.745170  0.730950  1.0  -0.51
  N  N219  1  0.922480  0.848360  0.693540  1.0  -0.5547
  N  N220  1  0.800780  0.954460  0.754380  1.0  -0.063
  N  N221  1  0.685790  0.192680  0.000740  1.0  -0.2726
  N  N222  1  0.564300  0.250770  0.128210  1.0  -0.1789
  N  N223  1  0.397160  0.245170  0.230950  1.0  -0.5114
  N  N224  1  0.535620  0.348360  0.193540  1.0  -0.5521
  N  N225  1  0.490380  0.454460  0.254380  1.0  -0.0631
  N  N226  1  0.879210  0.307320  0.499260  1.0  -0.2771
  N  N227  1  0.943280  0.249230  0.371790  1.0  -0.1777
  N  N228  1  0.873280  0.254830  0.269050  1.0  -0.5128
  N  N229  1  0.077520  0.151640  0.306460  1.0  -0.5531
  N  N230  1  0.199220  0.045540  0.245620  1.0  -0.0614
  O  O231  1  0.768110  0.379240  0.630200  1.0  -0.6296
  O  O232  1  0.875430  0.486090  0.555510  1.0  -0.6516
  O  O233  1  0.853040  0.614400  0.628240  1.0  -0.5509
  O  O234  1  0.853110  0.701600  0.450920  1.0  -0.6353
  O  O235  1  0.697700  0.655280  0.436640  1.0  -0.5637
  O  O236  1  0.929060  0.160670  0.680750  1.0  -0.6015
  O  O237  1  0.046830  0.141500  0.763160  1.0  -0.5911
  O  O238  1  0.777550  0.120760  0.869800  1.0  -0.6287
  O  O239  1  0.917030  0.013910  0.944490  1.0  -0.6531
  O  O240  1  0.095680  0.885600  0.871760  1.0  -0.5524
  O  O241  1  0.005630  0.798400  0.049080  1.0  -0.6388
  O  O242  1  0.789620  0.844720  0.063360  1.0  -0.5639
  O  O243  1  0.770480  0.339330  0.819250  1.0  -0.6012
  O  O244  1  0.951490  0.358500  0.736840  1.0  -0.5971
  O  O245  1  0.231890  0.620760  0.369800  1.0  -0.6284
  O  O246  1  0.124570  0.513910  0.444490  1.0  -0.6517
  O  O247  1  0.146960  0.385600  0.371760  1.0  -0.5515
  O  O248  1  0.146890  0.298400  0.549080  1.0  -0.6344
  O  O249  1  0.302300  0.344720  0.563360  1.0  -0.5623
  O  O250  1  0.070940  0.839330  0.319250  1.0  -0.6043
  O  O251  1  0.953170  0.858500  0.236840  1.0  -0.5932
  O  O252  1  0.222450  0.879240  0.130200  1.0  -0.6287
  O  O253  1  0.082970  0.986090  0.055510  1.0  -0.654
  O  O254  1  0.904320  0.114400  0.128240  1.0  -0.552
  O  O255  1  0.994370  0.201600  0.950920  1.0  -0.6367
  O  O256  1  0.210380  0.155280  0.936640  1.0  -0.5639
  O  O257  1  0.229520  0.660670  0.180750  1.0  -0.6045
  O  O258  1  0.048510  0.641500  0.263160  1.0  -0.5898
