# generated using pymatgen
data_CdH16C20N3ClO3F2
_symmetry_space_group_name_H-M   'P 1'
_cell_length_a   6.42320000
_cell_length_b   15.49530000
_cell_length_c   23.75940000
_cell_angle_alpha   90.00000000
_cell_angle_beta   90.00000000
_cell_angle_gamma   99.74900000
_symmetry_Int_Tables_number   1
_chemical_formula_structural   CdH16C20N3ClO3F2
_chemical_formula_sum   'Cd4 H64 C80 N12 Cl4 O12 F8'
_cell_volume   2330.60963535
_cell_formula_units_Z   4
loop_
 _symmetry_equiv_pos_site_id
 _symmetry_equiv_pos_as_xyz
  1  'x, y, z'
loop_
 _atom_site_type_symbol
 _atom_site_label
 _atom_site_symmetry_multiplicity
 _atom_site_fract_x
 _atom_site_fract_y
 _atom_site_fract_z
 _atom_site_occupancy
 _atom_site_charge
  Cd  Cd1  1  0.734370  0.969830  0.465940  1.0  0.9814
  Cd  Cd2  1  0.265630  0.530170  0.965940  1.0  0.9802
  Cd  Cd3  1  0.265630  0.030170  0.534060  1.0  0.9807
  Cd  Cd4  1  0.734370  0.469830  0.034060  1.0  0.9819
  H  H5  1  0.159500  0.094600  0.327300  1.0  0.1216
  H  H6  1  0.054000  0.367500  0.266900  1.0  0.1133
  H  H7  1  0.590400  0.300400  0.409300  1.0  0.0936
  H  H8  1  0.640700  0.397300  0.272600  1.0  0.0915
  H  H9  1  0.666400  0.547600  0.257700  1.0  0.1302
  H  H10  1  0.990700  0.593700  0.401300  1.0  0.1408
  H  H11  1  0.984000  0.444400  0.412100  1.0  0.1215
  H  H12  1  0.297000  0.436800  0.222900  1.0  0.0805
  H  H13  1  0.170400  0.391700  0.171200  1.0  0.0778
  H  H14  1  0.435400  0.499600  0.137500  1.0  0.0876
  H  H15  1  0.606900  0.460500  0.171500  1.0  0.0648
  H  H16  1  0.689800  0.318500  0.143300  1.0  0.0594
  H  H17  1  0.579100  0.271900  0.089900  1.0  0.0966
  H  H18  1  0.255200  0.248900  0.136900  1.0  0.0692
  H  H19  1  0.420900  0.205800  0.170700  1.0  0.0741
  H  H20  1  0.506300  0.407600  0.067300  1.0  0.2094
  H  H21  1  0.840500  0.405400  0.827300  1.0  0.1213
  H  H22  1  0.946000  0.132500  0.766900  1.0  0.1125
  H  H23  1  0.409600  0.199600  0.909300  1.0  0.0939
  H  H24  1  0.359300  0.102700  0.772600  1.0  0.0913
  H  H25  1  0.333600  0.952400  0.757700  1.0  0.1304
  H  H26  1  0.009300  0.906300  0.901300  1.0  0.1408
  H  H27  1  0.016000  0.055600  0.912100  1.0  0.1218
  H  H28  1  0.703000  0.063200  0.722900  1.0  0.0813
  H  H29  1  0.829600  0.108300  0.671200  1.0  0.0764
  H  H30  1  0.564600  0.000400  0.637500  1.0  0.0878
  H  H31  1  0.393100  0.039500  0.671500  1.0  0.0626
  H  H32  1  0.310200  0.181500  0.643300  1.0  0.0618
  H  H33  1  0.420900  0.228100  0.589900  1.0  0.0963
  H  H34  1  0.744800  0.251100  0.636900  1.0  0.0709
  H  H35  1  0.579100  0.294200  0.670700  1.0  0.0779
  H  H36  1  0.493700  0.092400  0.567300  1.0  0.2087
  H  H37  1  0.840500  0.905400  0.672700  1.0  0.121
  H  H38  1  0.946000  0.632500  0.733100  1.0  0.1123
  H  H39  1  0.409600  0.699600  0.590700  1.0  0.0935
  H  H40  1  0.359300  0.602700  0.727400  1.0  0.0915
  H  H41  1  0.333600  0.452400  0.742300  1.0  0.1299
  H  H42  1  0.009300  0.406300  0.598700  1.0  0.1411
  H  H43  1  0.016000  0.555600  0.587900  1.0  0.1213
  H  H44  1  0.703000  0.563200  0.777100  1.0  0.081
  H  H45  1  0.829600  0.608300  0.828800  1.0  0.0768
  H  H46  1  0.564600  0.500400  0.862500  1.0  0.0879
  H  H47  1  0.393100  0.539500  0.828500  1.0  0.0629
  H  H48  1  0.310200  0.681500  0.856700  1.0  0.0632
  H  H49  1  0.420900  0.728100  0.910100  1.0  0.0963
  H  H50  1  0.744800  0.751100  0.863100  1.0  0.0692
  H  H51  1  0.579100  0.794200  0.829300  1.0  0.0768
  H  H52  1  0.493700  0.592400  0.932700  1.0  0.2028
  H  H53  1  0.159500  0.594600  0.172700  1.0  0.1212
  H  H54  1  0.054000  0.867500  0.233100  1.0  0.1131
  H  H55  1  0.590400  0.800400  0.090700  1.0  0.0934
  H  H56  1  0.640700  0.897300  0.227400  1.0  0.0914
  H  H57  1  0.666400  0.047600  0.242300  1.0  0.1295
  H  H58  1  0.990700  0.093700  0.098700  1.0  0.1415
  H  H59  1  0.984000  0.944400  0.087900  1.0  0.1213
  H  H60  1  0.297000  0.936800  0.277100  1.0  0.0814
  H  H61  1  0.170400  0.891700  0.328800  1.0  0.0771
  H  H62  1  0.435400  0.999600  0.362500  1.0  0.0872
  H  H63  1  0.606900  0.960500  0.328500  1.0  0.0652
  H  H64  1  0.689800  0.818500  0.356700  1.0  0.0596
  H  H65  1  0.579100  0.771900  0.410100  1.0  0.0974
  H  H66  1  0.255200  0.748900  0.363100  1.0  0.0694
  H  H67  1  0.420900  0.705800  0.329300  1.0  0.0734
  H  H68  1  0.506300  0.907600  0.432700  1.0  0.2029
  C  C69  1  0.534300  0.151900  0.453730  1.0  0.7139
  C  C70  1  0.688200  0.186070  0.408180  1.0  -0.341
  C  C71  1  0.841800  0.139720  0.383520  1.0  0.4445
  C  C72  1  0.977100  0.187400  0.340830  1.0  -0.1279
  C  C73  1  0.137100  0.149700  0.315830  1.0  -0.146
  C  C74  1  0.260300  0.193400  0.274830  1.0  0.1722
  C  C75  1  0.228600  0.274400  0.252600  1.0  0.1317
  C  C76  1  0.077000  0.312800  0.279070  1.0  -0.2734
  C  C77  1  0.956100  0.271890  0.323810  1.0  0.1562
  C  C78  1  0.685600  0.270500  0.391500  1.0  0.1117
  C  C79  1  0.811300  0.406710  0.343740  1.0  0.0971
  C  C80  1  0.825100  0.581400  0.330000  1.0  0.3029
  C  C81  1  0.714100  0.436900  0.298000  1.0  -0.089
  C  C82  1  0.724800  0.526100  0.289500  1.0  -0.2139
  C  C83  1  0.922000  0.554100  0.375200  1.0  -0.2075
  C  C84  1  0.915900  0.465000  0.381600  1.0  -0.1064
  C  C85  1  0.306000  0.400100  0.190170  1.0  -0.0162
  C  C86  1  0.475700  0.445500  0.150700  1.0  0.0065
  C  C87  1  0.559100  0.308400  0.121990  1.0  0.0073
  C  C88  1  0.385100  0.261100  0.158480  1.0  -0.0107
  C  C89  1  0.465700  0.348100  0.953730  1.0  0.7127
  C  C90  1  0.311800  0.313930  0.908180  1.0  -0.3425
  C  C91  1  0.158200  0.360280  0.883520  1.0  0.4453
  C  C92  1  0.022900  0.312600  0.840830  1.0  -0.127
  C  C93  1  0.862900  0.350300  0.815830  1.0  -0.1458
  C  C94  1  0.739700  0.306600  0.774830  1.0  0.173
  C  C95  1  0.771400  0.225600  0.752600  1.0  0.1317
  C  C96  1  0.923000  0.187200  0.779070  1.0  -0.275
  C  C97  1  0.043900  0.228110  0.823810  1.0  0.1565
  C  C98  1  0.314400  0.229500  0.891500  1.0  0.1118
  C  C99  1  0.188700  0.093290  0.843740  1.0  0.0942
  C  C100  1  0.174900  0.918600  0.830000  1.0  0.3027
  C  C101  1  0.285900  0.063100  0.798000  1.0  -0.0898
  C  C102  1  0.275200  0.973900  0.789500  1.0  -0.2136
  C  C103  1  0.078000  0.945900  0.875200  1.0  -0.2073
  C  C104  1  0.084100  0.035000  0.881600  1.0  -0.1075
  C  C105  1  0.694000  0.099900  0.690170  1.0  -0.0171
  C  C106  1  0.524300  0.054500  0.650700  1.0  0.0068
  C  C107  1  0.440900  0.191600  0.621990  1.0  0.0069
  C  C108  1  0.614900  0.238900  0.658480  1.0  -0.0104
  C  C109  1  0.465700  0.848100  0.546270  1.0  0.712
  C  C110  1  0.311800  0.813930  0.591820  1.0  -0.3424
  C  C111  1  0.158200  0.860280  0.616480  1.0  0.4464
  C  C112  1  0.022900  0.812600  0.659170  1.0  -0.1281
  C  C113  1  0.862900  0.850300  0.684170  1.0  -0.1463
  C  C114  1  0.739700  0.806600  0.725170  1.0  0.1728
  C  C115  1  0.771400  0.725600  0.747400  1.0  0.1332
  C  C116  1  0.923000  0.687200  0.720930  1.0  -0.2748
  C  C117  1  0.043900  0.728110  0.676190  1.0  0.1558
  C  C118  1  0.314400  0.729500  0.608500  1.0  0.1122
  C  C119  1  0.188700  0.593290  0.656260  1.0  0.0948
  C  C120  1  0.174900  0.418600  0.670000  1.0  0.3026
  C  C121  1  0.285900  0.563100  0.702000  1.0  -0.0893
  C  C122  1  0.275200  0.473900  0.710500  1.0  -0.2137
  C  C123  1  0.078000  0.445900  0.624800  1.0  -0.2062
  C  C124  1  0.084100  0.535000  0.618400  1.0  -0.1085
  C  C125  1  0.694000  0.599900  0.809830  1.0  -0.017
  C  C126  1  0.524300  0.554500  0.849300  1.0  0.0071
  C  C127  1  0.440900  0.691600  0.878010  1.0  0.0056
  C  C128  1  0.614900  0.738900  0.841520  1.0  -0.0105
  C  C129  1  0.534300  0.651900  0.046270  1.0  0.7141
  C  C130  1  0.688200  0.686070  0.091820  1.0  -0.343
  C  C131  1  0.841800  0.639720  0.116480  1.0  0.445
  C  C132  1  0.977100  0.687400  0.159170  1.0  -0.1288
  C  C133  1  0.137100  0.649700  0.184170  1.0  -0.146
  C  C134  1  0.260300  0.693400  0.225170  1.0  0.1723
  C  C135  1  0.228600  0.774400  0.247400  1.0  0.1325
  C  C136  1  0.077000  0.812800  0.220930  1.0  -0.274
  C  C137  1  0.956100  0.771890  0.176190  1.0  0.1555
  C  C138  1  0.685600  0.770500  0.108500  1.0  0.1131
  C  C139  1  0.811300  0.906710  0.156260  1.0  0.0971
  C  C140  1  0.825100  0.081400  0.170000  1.0  0.3047
  C  C141  1  0.714100  0.936900  0.202000  1.0  -0.0876
  C  C142  1  0.724800  0.026100  0.210500  1.0  -0.2143
  C  C143  1  0.922000  0.054100  0.124800  1.0  -0.2062
  C  C144  1  0.915900  0.965000  0.118400  1.0  -0.1079
  C  C145  1  0.306000  0.900100  0.309830  1.0  -0.0156
  C  C146  1  0.475700  0.945500  0.349300  1.0  0.0073
  C  C147  1  0.559100  0.808400  0.378010  1.0  0.0077
  C  C148  1  0.385100  0.761100  0.341520  1.0  -0.0095
  N  N149  1  0.511900  0.392150  0.101950  1.0  -0.4057
  N  N150  1  0.352800  0.314890  0.208390  1.0  -0.2004
  N  N151  1  0.809900  0.313450  0.351340  1.0  -0.0137
  N  N152  1  0.488100  0.107850  0.601950  1.0  -0.4056
  N  N153  1  0.647200  0.185110  0.708390  1.0  -0.2007
  N  N154  1  0.190100  0.186550  0.851340  1.0  -0.0136
  N  N155  1  0.488100  0.607850  0.898050  1.0  -0.4061
  N  N156  1  0.647200  0.685110  0.791610  1.0  -0.202
  N  N157  1  0.190100  0.686550  0.648660  1.0  -0.0135
  N  N158  1  0.511900  0.892150  0.398050  1.0  -0.4065
  N  N159  1  0.352800  0.814890  0.291610  1.0  -0.2019
  N  N160  1  0.809900  0.813450  0.148660  1.0  -0.0135
  Cl  Cl161  1  0.056060  0.898280  0.465950  1.0  -0.5419
  Cl  Cl162  1  0.943940  0.601720  0.965950  1.0  -0.5416
  Cl  Cl163  1  0.943940  0.101720  0.534050  1.0  -0.5412
  Cl  Cl164  1  0.056060  0.398280  0.034050  1.0  -0.5415
  O  O165  1  0.488500  0.068420  0.460630  1.0  -0.6366
  O  O166  1  0.458800  0.204360  0.483480  1.0  -0.5834
  O  O167  1  0.867100  0.063570  0.395540  1.0  -0.5244
  O  O168  1  0.511500  0.431580  0.960630  1.0  -0.6368
  O  O169  1  0.541200  0.295640  0.983480  1.0  -0.5828
  O  O170  1  0.132900  0.436430  0.895540  1.0  -0.5243
  O  O171  1  0.511500  0.931580  0.539370  1.0  -0.6371
  O  O172  1  0.541200  0.795640  0.516520  1.0  -0.5829
  O  O173  1  0.132900  0.936430  0.604460  1.0  -0.5236
  O  O174  1  0.488500  0.568420  0.039370  1.0  -0.6368
  O  O175  1  0.458800  0.704360  0.016520  1.0  -0.584
  O  O176  1  0.867100  0.563570  0.104460  1.0  -0.5238
  F  F177  1  0.426000  0.156730  0.256260  1.0  -0.1572
  F  F178  1  0.833000  0.668440  0.322590  1.0  -0.1563
  F  F179  1  0.574000  0.343270  0.756260  1.0  -0.1579
  F  F180  1  0.167000  0.831560  0.822590  1.0  -0.1554
  F  F181  1  0.574000  0.843270  0.743740  1.0  -0.1583
  F  F182  1  0.167000  0.331560  0.677410  1.0  -0.1564
  F  F183  1  0.426000  0.656730  0.243740  1.0  -0.158
  F  F184  1  0.833000  0.168440  0.177410  1.0  -0.1581
