# generated using pymatgen
data_K7Fe2H18C23S2(NO12)2
_symmetry_space_group_name_H-M   'P 1'
_cell_length_a   12.46480000
_cell_length_b   20.88300000
_cell_length_c   20.88300000
_cell_angle_alpha   120.00000000
_cell_angle_beta   90.00000000
_cell_angle_gamma   90.00000000
_symmetry_Int_Tables_number   1
_chemical_formula_structural   K7Fe2H18C23S2(NO12)2
_chemical_formula_sum   'K21 Fe6 H54 C69 S6 N6 O72'
_cell_volume   4707.62351170
_cell_formula_units_Z   3
loop_
 _symmetry_equiv_pos_site_id
 _symmetry_equiv_pos_as_xyz
  1  'x, y, z'
loop_
 _atom_site_type_symbol
 _atom_site_label
 _atom_site_symmetry_multiplicity
 _atom_site_fract_x
 _atom_site_fract_y
 _atom_site_fract_z
 _atom_site_occupancy
 _atom_site_charge
  K  K1  1  0.721950  0.631390  0.040450  1.0  0.9353
  K  K2  1  0.611070  0.519820  0.625520  1.0  0.9406
  K  K3  1  0.371300  0.194500  0.350000  1.0  1.0526
  K  K4  1  0.055280  0.409060  0.368610  1.0  0.9384
  K  K5  1  0.944400  0.105700  0.480180  1.0  0.9371
  K  K6  1  0.704630  0.155500  0.805500  1.0  1.0504
  K  K7  1  0.388620  0.959550  0.590940  1.0  0.9324
  K  K8  1  0.277740  0.374480  0.894300  1.0  0.936
  K  K9  1  0.037970  0.650000  0.844500  1.0  1.0534
  K  K10  1  0.278050  0.590940  0.959550  1.0  0.9433
  K  K11  1  0.388930  0.894300  0.374480  1.0  0.9368
  K  K12  1  0.628700  0.844500  0.650000  1.0  1.0465
  K  K13  1  0.944720  0.040450  0.631390  1.0  0.9317
  K  K14  1  0.055600  0.625520  0.519820  1.0  0.9359
  K  K15  1  0.295370  0.350000  0.194500  1.0  1.0552
  K  K16  1  0.611380  0.368610  0.409060  1.0  0.934
  K  K17  1  0.722260  0.480180  0.105700  1.0  0.9388
  K  K18  1  0.962030  0.805500  0.155500  1.0  1.0538
  K  K19  1  0.000000  0.458100  0.000000  1.0  0.9502
  K  K20  1  0.333333  0.541900  0.541900  1.0  0.9495
  K  K21  1  0.666667  0.000000  0.458100  1.0  0.9497
  Fe  Fe22  1  0.536260  0.492580  0.914850  1.0  0.9177
  Fe  Fe23  1  0.869590  0.422270  0.507420  1.0  0.923
  Fe  Fe24  1  0.202930  0.085150  0.577730  1.0  0.9171
  Fe  Fe25  1  0.463740  0.577730  0.085150  1.0  0.9203
  Fe  Fe26  1  0.130410  0.914850  0.492580  1.0  0.9144
  Fe  Fe27  1  0.797070  0.507420  0.422270  1.0  0.9167
  H  H28  1  0.693000  0.410000  0.732100  1.0  0.0944
  H  H29  1  0.762300  0.445100  0.804500  1.0  0.1077
  H  H30  1  0.746700  0.340000  0.810400  1.0  0.1033
  H  H31  1  0.644100  0.326200  0.845500  1.0  0.1159
  H  H32  1  0.498200  0.330700  0.780500  1.0  0.1145
  H  H33  1  0.581300  0.314900  0.717900  1.0  0.0899
  H  H34  1  0.290200  0.525400  0.789900  1.0  0.1029
  H  H35  1  0.281700  0.487600  0.667500  1.0  0.1145
  H  H36  1  0.512100  0.336900  0.624700  1.0  0.1061
  H  H37  1  0.026330  0.322100  0.590000  1.0  0.0939
  H  H38  1  0.095630  0.359400  0.554900  1.0  0.1078
  H  H39  1  0.080030  0.470400  0.660000  1.0  0.1021
  H  H40  1  0.977430  0.519300  0.673800  1.0  0.1137
  H  H41  1  0.831530  0.449800  0.669300  1.0  0.1145
  H  H42  1  0.914630  0.403000  0.685100  1.0  0.0905
  H  H43  1  0.623530  0.264500  0.474600  1.0  0.1038
  H  H44  1  0.615030  0.179900  0.512400  1.0  0.1156
  H  H45  1  0.845430  0.287800  0.663100  1.0  0.1051
  H  H46  1  0.359670  0.267900  0.677900  1.0  0.0965
  H  H47  1  0.428970  0.195500  0.640600  1.0  0.1077
  H  H48  1  0.413370  0.189600  0.529600  1.0  0.103
  H  H49  1  0.310770  0.154500  0.480700  1.0  0.1114
  H  H50  1  0.164870  0.219500  0.550200  1.0  0.1142
  H  H51  1  0.247970  0.282100  0.597000  1.0  0.0899
  H  H52  1  0.956870  0.210100  0.735500  1.0  0.1042
  H  H53  1  0.948370  0.332500  0.820100  1.0  0.116
  H  H54  1  0.178770  0.375300  0.712200  1.0  0.1057
  H  H55  1  0.307000  0.677900  0.267900  1.0  0.0934
  H  H56  1  0.237700  0.640600  0.195500  1.0  0.1064
  H  H57  1  0.253300  0.529600  0.189600  1.0  0.1037
  H  H58  1  0.355900  0.480700  0.154500  1.0  0.1154
  H  H59  1  0.501800  0.550200  0.219500  1.0  0.1141
  H  H60  1  0.418700  0.597000  0.282100  1.0  0.0908
  H  H61  1  0.709800  0.735500  0.210100  1.0  0.1043
  H  H62  1  0.718300  0.820100  0.332500  1.0  0.1145
  H  H63  1  0.487900  0.712200  0.375300  1.0  0.1048
  H  H64  1  0.973670  0.732100  0.410000  1.0  0.0968
  H  H65  1  0.904370  0.804500  0.445100  1.0  0.1082
  H  H66  1  0.919970  0.810400  0.340000  1.0  0.1023
  H  H67  1  0.022570  0.845500  0.326200  1.0  0.1127
  H  H68  1  0.168470  0.780500  0.330700  1.0  0.1153
  H  H69  1  0.085370  0.717900  0.314900  1.0  0.0895
  H  H70  1  0.376470  0.789900  0.525400  1.0  0.102
  H  H71  1  0.384970  0.667500  0.487600  1.0  0.1161
  H  H72  1  0.154570  0.624700  0.336900  1.0  0.1059
  H  H73  1  0.640330  0.590000  0.322100  1.0  0.0931
  H  H74  1  0.571030  0.554900  0.359400  1.0  0.1073
  H  H75  1  0.586630  0.660000  0.470400  1.0  0.1038
  H  H76  1  0.689230  0.673800  0.519300  1.0  0.1145
  H  H77  1  0.835130  0.669300  0.449800  1.0  0.1136
  H  H78  1  0.752030  0.685100  0.403000  1.0  0.0898
  H  H79  1  0.043130  0.474600  0.264500  1.0  0.1039
  H  H80  1  0.051630  0.512400  0.179900  1.0  0.1161
  H  H81  1  0.821230  0.663100  0.287800  1.0  0.1058
  C  C82  1  0.690000  0.440700  0.785500  1.0  -0.1573
  C  C83  1  0.649200  0.516700  0.805400  1.0  0.7485
  C  C84  1  0.687000  0.364000  0.843700  1.0  -0.1262
  C  C85  1  0.729200  0.418200  0.920900  1.0  0.7271
  C  C86  1  0.542500  0.353700  0.759400  1.0  -0.0938
  C  C87  1  0.470800  0.393820  0.732020  1.0  0.0356
  C  C88  1  0.404400  0.452200  0.784400  1.0  0.2978
  C  C89  1  0.333800  0.486700  0.756900  1.0  -0.1235
  C  C90  1  0.329000  0.464500  0.684000  1.0  -0.0448
  C  C91  1  0.394200  0.407200  0.633100  1.0  -0.2402
  C  C92  1  0.466400  0.373600  0.658240  1.0  -0.092
  C  C93  1  0.023330  0.344800  0.559300  1.0  -0.1647
  C  C94  1  0.982530  0.288700  0.483300  1.0  0.7469
  C  C95  1  0.020330  0.479700  0.636000  1.0  -0.1375
  C  C96  1  0.062530  0.502700  0.581800  1.0  0.7241
  C  C97  1  0.875830  0.405700  0.646300  1.0  -0.0967
  C  C98  1  0.804130  0.338200  0.606180  1.0  0.0374
  C  C99  1  0.737730  0.332200  0.547800  1.0  0.3047
  C  C100  1  0.667130  0.270200  0.513300  1.0  -0.1203
  C  C101  1  0.662330  0.219500  0.535500  1.0  -0.0475
  C  C102  1  0.727530  0.225900  0.592800  1.0  -0.2346
  C  C103  1  0.799730  0.284640  0.626400  1.0  -0.0927
  C  C104  1  0.356670  0.214500  0.655200  1.0  -0.1593
  C  C105  1  0.315870  0.194600  0.711300  1.0  0.7472
  C  C106  1  0.353670  0.156300  0.520300  1.0  -0.1281
  C  C107  1  0.395870  0.079100  0.497300  1.0  0.7235
  C  C108  1  0.209170  0.240600  0.594300  1.0  -0.0956
  C  C109  1  0.137470  0.267980  0.661800  1.0  0.0369
  C  C110  1  0.071070  0.215600  0.667800  1.0  0.2955
  C  C111  1  0.000470  0.243100  0.729800  1.0  -0.1246
  C  C112  1  0.995670  0.316000  0.780500  1.0  -0.0489
  C  C113  1  0.060870  0.366900  0.774100  1.0  -0.2394
  C  C114  1  0.133070  0.341760  0.715360  1.0  -0.0912
  C  C115  1  0.310000  0.655200  0.214500  1.0  -0.162
  C  C116  1  0.350800  0.711300  0.194600  1.0  0.7479
  C  C117  1  0.313000  0.520300  0.156300  1.0  -0.1393
  C  C118  1  0.270800  0.497300  0.079100  1.0  0.7234
  C  C119  1  0.457500  0.594300  0.240600  1.0  -0.0962
  C  C120  1  0.529200  0.661800  0.267980  1.0  0.0382
  C  C121  1  0.595600  0.667800  0.215600  1.0  0.3035
  C  C122  1  0.666200  0.729800  0.243100  1.0  -0.1194
  C  C123  1  0.671000  0.780500  0.316000  1.0  -0.0457
  C  C124  1  0.605800  0.774100  0.366900  1.0  -0.238
  C  C125  1  0.533600  0.715360  0.341760  1.0  -0.0923
  C  C126  1  0.976670  0.785500  0.440700  1.0  -0.1615
  C  C127  1  0.017470  0.805400  0.516700  1.0  0.7457
  C  C128  1  0.979670  0.843700  0.364000  1.0  -0.125
  C  C129  1  0.937470  0.920900  0.418200  1.0  0.7249
  C  C130  1  0.124170  0.759400  0.353700  1.0  -0.0953
  C  C131  1  0.195870  0.732020  0.393820  1.0  0.0372
  C  C132  1  0.262270  0.784400  0.452200  1.0  0.295
  C  C133  1  0.332870  0.756900  0.486700  1.0  -0.1251
  C  C134  1  0.337670  0.684000  0.464500  1.0  -0.0503
  C  C135  1  0.272470  0.633100  0.407200  1.0  -0.2392
  C  C136  1  0.200270  0.658240  0.373600  1.0  -0.0915
  C  C137  1  0.643330  0.559300  0.344800  1.0  -0.1562
  C  C138  1  0.684130  0.483300  0.288700  1.0  0.745
  C  C139  1  0.646330  0.636000  0.479700  1.0  -0.127
  C  C140  1  0.604130  0.581800  0.502700  1.0  0.7259
  C  C141  1  0.790830  0.646300  0.405700  1.0  -0.0924
  C  C142  1  0.862530  0.606180  0.338200  1.0  0.0357
  C  C143  1  0.928930  0.547800  0.332200  1.0  0.2977
  C  C144  1  0.999530  0.513300  0.270200  1.0  -0.1251
  C  C145  1  0.004330  0.535500  0.219500  1.0  -0.0464
  C  C146  1  0.939130  0.592800  0.225900  1.0  -0.2392
  C  C147  1  0.866930  0.626400  0.284640  1.0  -0.0935
  C  C148  1  0.500000  0.414600  0.000000  1.0  0.8836
  C  C149  1  0.833330  0.585400  0.585400  1.0  0.8816
  C  C150  1  0.166670  0.000000  0.414600  1.0  0.8836
  S  S151  1  0.386760  0.379220  0.537640  1.0  1.3836
  S  S152  1  0.720090  0.158420  0.620780  1.0  1.3881
  S  S153  1  0.053430  0.462360  0.841580  1.0  1.3842
  S  S154  1  0.613240  0.841580  0.462360  1.0  1.3868
  S  S155  1  0.279910  0.537640  0.379220  1.0  1.3872
  S  S156  1  0.946570  0.620780  0.158420  1.0  1.3838
  N  N157  1  0.620600  0.404400  0.816010  1.0  -0.1086
  N  N158  1  0.953930  0.411610  0.595600  1.0  -0.1105
  N  N159  1  0.287270  0.183990  0.588390  1.0  -0.1098
  N  N160  1  0.379400  0.588390  0.183990  1.0  -0.111
  N  N161  1  0.046070  0.816010  0.404400  1.0  -0.11
  N  N162  1  0.712730  0.595600  0.411610  1.0  -0.1091
  O  O163  1  0.485000  0.414400  0.938920  1.0  -0.6694
  O  O164  1  0.597600  0.551150  0.866740  1.0  -0.6088
  O  O165  1  0.672000  0.541900  0.764940  1.0  -0.596
  O  O166  1  0.687500  0.483260  0.953720  1.0  -0.6706
  O  O167  1  0.799200  0.397280  0.947860  1.0  -0.6174
  O  O168  1  0.404200  0.473010  0.855670  1.0  -0.7465
  O  O169  1  0.467900  0.422500  0.526440  1.0  -0.7628
  O  O170  1  0.279900  0.399100  0.526380  1.0  -0.6718
  O  O171  1  0.408500  0.300680  0.496050  1.0  -0.697
  O  O172  1  0.086500  0.307000  0.919600  1.0  -0.6481
  O  O173  1  0.743400  0.773300  0.087600  1.0  -0.5947
  O  O174  1  0.818330  0.524520  0.585600  1.0  -0.6685
  O  O175  1  0.930930  0.315590  0.448850  1.0  -0.6082
  O  O176  1  0.005330  0.223040  0.458100  1.0  -0.5983
  O  O177  1  0.020830  0.470460  0.516740  1.0  -0.6754
  O  O178  1  0.132530  0.550580  0.602720  1.0  -0.6109
  O  O179  1  0.737530  0.382660  0.526990  1.0  -0.746
  O  O180  1  0.801230  0.103940  0.577500  1.0  -0.7654
  O  O181  1  0.613230  0.127280  0.600900  1.0  -0.6768
  O  O182  1  0.741830  0.195370  0.699320  1.0  -0.7065
  O  O183  1  0.419830  0.612600  0.693000  1.0  -0.638
  O  O184  1  0.076730  0.314300  0.226700  1.0  -0.589
  O  O185  1  0.151670  0.061080  0.475480  1.0  -0.6684
  O  O186  1  0.264270  0.133260  0.684410  1.0  -0.61
  O  O187  1  0.338670  0.235060  0.776960  1.0  -0.6098
  O  O188  1  0.354170  0.046280  0.529540  1.0  -0.672
  O  O189  1  0.465870  0.052140  0.449420  1.0  -0.6149
  O  O190  1  0.070870  0.144330  0.617340  1.0  -0.7447
  O  O191  1  0.134570  0.473560  0.896060  1.0  -0.7663
  O  O192  1  0.946570  0.473620  0.872720  1.0  -0.6752
  O  O193  1  0.075170  0.503950  0.804630  1.0  -0.703
  O  O194  1  0.753170  0.080400  0.387400  1.0  -0.6467
  O  O195  1  0.410070  0.912400  0.685700  1.0  -0.6072
  O  O196  1  0.515000  0.475480  0.061080  1.0  -0.6679
  O  O197  1  0.402400  0.684410  0.133260  1.0  -0.6092
  O  O198  1  0.328000  0.776960  0.235060  1.0  -0.5949
  O  O199  1  0.312500  0.529540  0.046280  1.0  -0.6739
  O  O200  1  0.200800  0.449420  0.052140  1.0  -0.6086
  O  O201  1  0.595800  0.617340  0.144330  1.0  -0.746
  O  O202  1  0.532100  0.896060  0.473560  1.0  -0.7629
  O  O203  1  0.720100  0.872720  0.473620  1.0  -0.6775
  O  O204  1  0.591500  0.804630  0.503950  1.0  -0.7023
  O  O205  1  0.913500  0.387400  0.080400  1.0  -0.6469
  O  O206  1  0.256600  0.685700  0.912400  1.0  -0.6055
  O  O207  1  0.181670  0.938920  0.414400  1.0  -0.6683
  O  O208  1  0.069070  0.866740  0.551150  1.0  -0.606
  O  O209  1  0.994670  0.764940  0.541900  1.0  -0.6109
  O  O210  1  0.979170  0.953720  0.483260  1.0  -0.6693
  O  O211  1  0.867470  0.947860  0.397280  1.0  -0.6146
  O  O212  1  0.262470  0.855670  0.473010  1.0  -0.7408
  O  O213  1  0.198770  0.526440  0.422500  1.0  -0.7654
  O  O214  1  0.386770  0.526380  0.399100  1.0  -0.6799
  O  O215  1  0.258170  0.496050  0.300680  1.0  -0.7066
  O  O216  1  0.580170  0.919600  0.307000  1.0  -0.6483
  O  O217  1  0.923270  0.087600  0.773300  1.0  -0.594
  O  O218  1  0.848330  0.585600  0.524520  1.0  -0.6691
  O  O219  1  0.735730  0.448850  0.315590  1.0  -0.6125
  O  O220  1  0.661330  0.458100  0.223040  1.0  -0.5981
  O  O221  1  0.645830  0.516740  0.470460  1.0  -0.6691
  O  O222  1  0.534130  0.602720  0.550580  1.0  -0.618
  O  O223  1  0.929130  0.526990  0.382660  1.0  -0.7451
  O  O224  1  0.865430  0.577500  0.103940  1.0  -0.7648
  O  O225  1  0.053430  0.600900  0.127280  1.0  -0.674
  O  O226  1  0.924830  0.699320  0.195370  1.0  -0.6958
  O  O227  1  0.246830  0.693000  0.612600  1.0  -0.645
  O  O228  1  0.589930  0.226700  0.314300  1.0  -0.5932
  O  O229  1  0.500000  0.577060  0.000000  1.0  -0.7321
  O  O230  1  0.500000  0.355000  0.000000  1.0  -0.4908
  O  O231  1  0.833330  0.422940  0.422940  1.0  -0.732
  O  O232  1  0.833330  0.645000  0.645000  1.0  -0.4915
  O  O233  1  0.166670  0.000000  0.577060  1.0  -0.7257
  O  O234  1  0.166670  0.000000  0.355000  1.0  -0.4885
