# generated using pymatgen
data_Mn3H46C72(N5O6)2
_symmetry_space_group_name_H-M   'P 1'
_cell_length_a   18.89400000
_cell_length_b   31.68100000
_cell_length_c   13.87600000
_cell_angle_alpha   90.00000000
_cell_angle_beta   90.00000000
_cell_angle_gamma   90.00000000
_symmetry_Int_Tables_number   1
_chemical_formula_structural   Mn3H46C72(N5O6)2
_chemical_formula_sum   'Mn12 H184 C288 N40 O48'
_cell_volume   8305.90737506
_cell_formula_units_Z   4
loop_
 _symmetry_equiv_pos_site_id
 _symmetry_equiv_pos_as_xyz
  1  'x, y, z'
loop_
 _atom_site_type_symbol
 _atom_site_label
 _atom_site_symmetry_multiplicity
 _atom_site_fract_x
 _atom_site_fract_y
 _atom_site_fract_z
 _atom_site_occupancy
 _atom_site_charge
  Mn  Mn1  1  0.262140  0.916630  0.474990  1.0  1.0471
  Mn  Mn2  1  0.237860  0.083370  0.974990  1.0  1.0469
  Mn  Mn3  1  0.737860  0.416630  0.525010  1.0  1.0475
  Mn  Mn4  1  0.762140  0.583370  0.025010  1.0  1.0466
  Mn  Mn5  1  0.737860  0.083370  0.525010  1.0  1.0469
  Mn  Mn6  1  0.762140  0.916630  0.025010  1.0  1.0469
  Mn  Mn7  1  0.262140  0.583370  0.474990  1.0  1.0466
  Mn  Mn8  1  0.237860  0.416630  0.974990  1.0  1.0477
  Mn  Mn9  1  0.573680  0.250000  0.042100  1.0  1.0117
  Mn  Mn10  1  0.926320  0.750000  0.542100  1.0  1.0122
  Mn  Mn11  1  0.426320  0.750000  0.957900  1.0  1.0113
  Mn  Mn12  1  0.073680  0.250000  0.457900  1.0  1.0109
  H  H13  1  0.269300  0.922200  0.246400  1.0  0.0869
  H  H14  1  0.420200  0.042000  0.499800  1.0  0.119
  H  H15  1  0.362100  0.993900  0.755500  1.0  0.1029
  H  H16  1  0.363200  0.066100  0.794800  1.0  0.0879
  H  H17  1  0.475400  0.184000  0.923800  1.0  0.0863
  H  H18  1  0.178900  0.786400  0.396600  1.0  0.0968
  H  H19  1  0.195500  0.848600  0.621600  1.0  0.0734
  H  H20  1  0.422100  0.117600  0.880200  1.0  0.1172
  H  H21  1  0.514300  0.067600  0.593500  1.0  0.0934
  H  H22  1  0.318400  0.965300  0.129500  1.0  0.1176
  H  H23  1  0.574100  0.118400  0.678900  1.0  0.0996
  H  H24  1  0.389100  0.021200  0.178000  1.0  0.092
  H  H25  1  0.408800  0.032800  0.340100  1.0  0.1212
  H  H26  1  0.231900  0.888000  0.888900  1.0  0.104
  H  H27  1  0.297700  0.943000  0.827600  1.0  0.1017
  H  H28  1  0.388700  0.786400  0.429300  1.0  0.1023
  H  H29  1  0.176500  0.841400  0.785100  1.0  0.1093
  H  H30  1  0.678700  0.191700  0.929400  1.0  0.0935
  H  H31  1  0.647600  0.135400  0.820500  1.0  0.1031
  H  H32  1  0.078100  0.051600  0.449800  1.0  0.1003
  H  H33  1  0.039300  0.932200  0.526400  1.0  0.1007
  H  H34  1  0.230700  0.077800  0.746400  1.0  0.0866
  H  H35  1  0.079800  0.958000  0.999800  1.0  0.12
  H  H36  1  0.137900  0.006100  0.255500  1.0  0.1026
  H  H37  1  0.136800  0.933900  0.294800  1.0  0.0878
  H  H38  1  0.024600  0.816000  0.423800  1.0  0.0867
  H  H39  1  0.321100  0.213600  0.896600  1.0  0.097
  H  H40  1  0.304500  0.151400  0.121600  1.0  0.0733
  H  H41  1  0.077900  0.882400  0.380200  1.0  0.1172
  H  H42  1  0.985700  0.932400  0.093500  1.0  0.0934
  H  H43  1  0.181600  0.034700  0.629500  1.0  0.1176
  H  H44  1  0.925900  0.881600  0.178900  1.0  0.0994
  H  H45  1  0.110900  0.978800  0.678000  1.0  0.0921
  H  H46  1  0.091200  0.967200  0.840100  1.0  0.1205
  H  H47  1  0.268100  0.112000  0.388900  1.0  0.1035
  H  H48  1  0.202300  0.057000  0.327600  1.0  0.1021
  H  H49  1  0.111300  0.213600  0.929300  1.0  0.103
  H  H50  1  0.323500  0.158600  0.285100  1.0  0.1085
  H  H51  1  0.821300  0.808300  0.429400  1.0  0.0941
  H  H52  1  0.852400  0.864600  0.320500  1.0  0.1023
  H  H53  1  0.421900  0.948400  0.949800  1.0  0.1
  H  H54  1  0.460700  0.067800  0.026400  1.0  0.1
  H  H55  1  0.730700  0.422200  0.753600  1.0  0.0873
  H  H56  1  0.579800  0.542000  0.500200  1.0  0.1191
  H  H57  1  0.637900  0.493900  0.244500  1.0  0.1043
  H  H58  1  0.636800  0.566100  0.205200  1.0  0.0886
  H  H59  1  0.524600  0.684000  0.076200  1.0  0.0867
  H  H60  1  0.821100  0.286400  0.603400  1.0  0.0974
  H  H61  1  0.804500  0.348600  0.378400  1.0  0.0738
  H  H62  1  0.577900  0.617600  0.119800  1.0  0.1178
  H  H63  1  0.485700  0.567600  0.406500  1.0  0.0931
  H  H64  1  0.681600  0.465300  0.870500  1.0  0.1172
  H  H65  1  0.425900  0.618400  0.321100  1.0  0.0998
  H  H66  1  0.610900  0.521200  0.822000  1.0  0.0922
  H  H67  1  0.591200  0.532800  0.659900  1.0  0.1213
  H  H68  1  0.768100  0.388000  0.111100  1.0  0.1033
  H  H69  1  0.702300  0.443000  0.172400  1.0  0.1018
  H  H70  1  0.611300  0.286400  0.570700  1.0  0.1022
  H  H71  1  0.823500  0.341400  0.214900  1.0  0.1096
  H  H72  1  0.321300  0.691700  0.070600  1.0  0.0943
  H  H73  1  0.352400  0.635400  0.179500  1.0  0.1029
  H  H74  1  0.921900  0.551600  0.550200  1.0  0.1007
  H  H75  1  0.960700  0.432200  0.473600  1.0  0.1002
  H  H76  1  0.769300  0.577800  0.253600  1.0  0.0868
  H  H77  1  0.920200  0.458000  0.000200  1.0  0.1202
  H  H78  1  0.862100  0.506100  0.744500  1.0  0.1037
  H  H79  1  0.863200  0.433900  0.705200  1.0  0.0886
  H  H80  1  0.975400  0.316000  0.576200  1.0  0.0865
  H  H81  1  0.678900  0.713600  0.103400  1.0  0.0971
  H  H82  1  0.695500  0.651400  0.878400  1.0  0.073
  H  H83  1  0.922100  0.382400  0.619800  1.0  0.1172
  H  H84  1  0.014300  0.432400  0.906500  1.0  0.0937
  H  H85  1  0.818400  0.534700  0.370500  1.0  0.117
  H  H86  1  0.074100  0.381600  0.821100  1.0  0.1004
  H  H87  1  0.889100  0.478800  0.322000  1.0  0.0923
  H  H88  1  0.908800  0.467200  0.159900  1.0  0.1214
  H  H89  1  0.731900  0.612000  0.611100  1.0  0.1038
  H  H90  1  0.797700  0.557000  0.672400  1.0  0.1016
  H  H91  1  0.888700  0.713600  0.070700  1.0  0.1016
  H  H92  1  0.676500  0.658600  0.714900  1.0  0.1092
  H  H93  1  0.178700  0.308300  0.570600  1.0  0.094
  H  H94  1  0.147600  0.364600  0.679500  1.0  0.103
  H  H95  1  0.578100  0.448400  0.050200  1.0  0.1002
  H  H96  1  0.539300  0.567800  0.973600  1.0  0.1002
  H  H97  1  0.730700  0.077800  0.753600  1.0  0.0865
  H  H98  1  0.579800  0.958000  0.500200  1.0  0.1203
  H  H99  1  0.637900  0.006100  0.244500  1.0  0.1043
  H  H100  1  0.636800  0.933900  0.205200  1.0  0.0884
  H  H101  1  0.524600  0.816000  0.076200  1.0  0.0867
  H  H102  1  0.821100  0.213600  0.603400  1.0  0.0975
  H  H103  1  0.804500  0.151400  0.378400  1.0  0.0733
  H  H104  1  0.577900  0.882400  0.119800  1.0  0.1175
  H  H105  1  0.485700  0.932400  0.406500  1.0  0.0934
  H  H106  1  0.681600  0.034700  0.870500  1.0  0.1171
  H  H107  1  0.425900  0.881600  0.321100  1.0  0.0997
  H  H108  1  0.610900  0.978800  0.822000  1.0  0.0926
  H  H109  1  0.591200  0.967200  0.659900  1.0  0.1207
  H  H110  1  0.768100  0.112000  0.111100  1.0  0.1034
  H  H111  1  0.702300  0.057000  0.172400  1.0  0.1019
  H  H112  1  0.611300  0.213600  0.570700  1.0  0.1025
  H  H113  1  0.823500  0.158600  0.214900  1.0  0.1092
  H  H114  1  0.321300  0.808300  0.070600  1.0  0.0946
  H  H115  1  0.352400  0.864600  0.179500  1.0  0.1032
  H  H116  1  0.921900  0.948400  0.550200  1.0  0.1003
  H  H117  1  0.960700  0.067800  0.473600  1.0  0.1001
  H  H118  1  0.769300  0.922200  0.253600  1.0  0.0872
  H  H119  1  0.920200  0.042000  0.000200  1.0  0.119
  H  H120  1  0.862100  0.993900  0.744500  1.0  0.1038
  H  H121  1  0.863200  0.066100  0.705200  1.0  0.0888
  H  H122  1  0.975400  0.184000  0.576200  1.0  0.0865
  H  H123  1  0.678900  0.786400  0.103400  1.0  0.0972
  H  H124  1  0.695500  0.848600  0.878400  1.0  0.0733
  H  H125  1  0.922100  0.117600  0.619800  1.0  0.1177
  H  H126  1  0.014300  0.067600  0.906500  1.0  0.0934
  H  H127  1  0.818400  0.965300  0.370500  1.0  0.1173
  H  H128  1  0.074100  0.118400  0.821100  1.0  0.0999
  H  H129  1  0.889100  0.021200  0.322000  1.0  0.092
  H  H130  1  0.908800  0.032800  0.159900  1.0  0.1213
  H  H131  1  0.731900  0.888000  0.611100  1.0  0.1037
  H  H132  1  0.797700  0.943000  0.672400  1.0  0.1016
  H  H133  1  0.888700  0.786400  0.070700  1.0  0.1018
  H  H134  1  0.676500  0.841400  0.714900  1.0  0.1093
  H  H135  1  0.178700  0.191700  0.570600  1.0  0.0939
  H  H136  1  0.147600  0.135400  0.679500  1.0  0.104
  H  H137  1  0.578100  0.051600  0.050200  1.0  0.1002
  H  H138  1  0.539300  0.932200  0.973600  1.0  0.1006
  H  H139  1  0.269300  0.577800  0.246400  1.0  0.0868
  H  H140  1  0.420200  0.458000  0.499800  1.0  0.1198
  H  H141  1  0.362100  0.506100  0.755500  1.0  0.1027
  H  H142  1  0.363200  0.433900  0.794800  1.0  0.0879
  H  H143  1  0.475400  0.316000  0.923800  1.0  0.0865
  H  H144  1  0.178900  0.713600  0.396600  1.0  0.0969
  H  H145  1  0.195500  0.651400  0.621600  1.0  0.0732
  H  H146  1  0.422100  0.382400  0.880200  1.0  0.1171
  H  H147  1  0.514300  0.432400  0.593500  1.0  0.0938
  H  H148  1  0.318400  0.534700  0.129500  1.0  0.1176
  H  H149  1  0.574100  0.381600  0.678900  1.0  0.0994
  H  H150  1  0.389100  0.478800  0.178000  1.0  0.092
  H  H151  1  0.408800  0.467200  0.340100  1.0  0.1212
  H  H152  1  0.231900  0.612000  0.888900  1.0  0.1038
  H  H153  1  0.297700  0.557000  0.827600  1.0  0.1018
  H  H154  1  0.388700  0.713600  0.429300  1.0  0.1021
  H  H155  1  0.176500  0.658600  0.785100  1.0  0.1089
  H  H156  1  0.678700  0.308300  0.929400  1.0  0.0936
  H  H157  1  0.647600  0.364600  0.820500  1.0  0.1031
  H  H158  1  0.078100  0.448400  0.449800  1.0  0.1
  H  H159  1  0.039300  0.567800  0.526400  1.0  0.1001
  H  H160  1  0.230700  0.422200  0.746400  1.0  0.0871
  H  H161  1  0.079800  0.542000  0.999800  1.0  0.1193
  H  H162  1  0.137900  0.493900  0.255500  1.0  0.1028
  H  H163  1  0.136800  0.566100  0.294800  1.0  0.0878
  H  H164  1  0.024600  0.684000  0.423800  1.0  0.0864
  H  H165  1  0.321100  0.286400  0.896600  1.0  0.097
  H  H166  1  0.304500  0.348600  0.121600  1.0  0.0737
  H  H167  1  0.077900  0.617600  0.380200  1.0  0.1172
  H  H168  1  0.985700  0.567600  0.093500  1.0  0.0932
  H  H169  1  0.181600  0.465300  0.629500  1.0  0.1176
  H  H170  1  0.925900  0.618400  0.178900  1.0  0.1
  H  H171  1  0.110900  0.521200  0.678000  1.0  0.0924
  H  H172  1  0.091200  0.532800  0.840100  1.0  0.1212
  H  H173  1  0.268100  0.388000  0.388900  1.0  0.1037
  H  H174  1  0.202300  0.443000  0.327600  1.0  0.1018
  H  H175  1  0.111300  0.286400  0.929300  1.0  0.1028
  H  H176  1  0.323500  0.341400  0.285100  1.0  0.1091
  H  H177  1  0.821300  0.691700  0.429400  1.0  0.0939
  H  H178  1  0.852400  0.635400  0.320500  1.0  0.1033
  H  H179  1  0.421900  0.551600  0.949800  1.0  0.1007
  H  H180  1  0.460700  0.432200  0.026400  1.0  0.1004
  H  H181  1  0.947700  0.250000  0.192000  1.0  0.1039
  H  H182  1  0.712300  0.250000  0.288100  1.0  0.1009
  H  H183  1  0.802000  0.250000  0.403000  1.0  0.0843
  H  H184  1  0.858100  0.250000  0.078200  1.0  0.1028
  H  H185  1  0.552300  0.750000  0.692000  1.0  0.1037
  H  H186  1  0.787700  0.750000  0.788100  1.0  0.1016
  H  H187  1  0.698000  0.750000  0.903000  1.0  0.0842
  H  H188  1  0.641900  0.750000  0.578200  1.0  0.1024
  H  H189  1  0.052300  0.750000  0.808000  1.0  0.1034
  H  H190  1  0.287700  0.750000  0.711900  1.0  0.1016
  H  H191  1  0.198000  0.750000  0.597000  1.0  0.0838
  H  H192  1  0.141900  0.750000  0.921800  1.0  0.103
  H  H193  1  0.447700  0.250000  0.308000  1.0  0.104
  H  H194  1  0.212300  0.250000  0.211900  1.0  0.1013
  H  H195  1  0.302000  0.250000  0.097000  1.0  0.084
  H  H196  1  0.358100  0.250000  0.421800  1.0  0.1024
  C  C197  1  0.297700  0.944800  0.265200  1.0  0.1666
  C  C198  1  0.325600  0.961900  0.640500  1.0  0.1742
  C  C199  1  0.395700  0.022200  0.536400  1.0  -0.0604
  C  C200  1  0.361400  0.993400  0.688500  1.0  -0.1142
  C  C201  1  0.349700  0.984400  0.386500  1.0  0.1538
  C  C202  1  0.357700  0.989700  0.491500  1.0  0.122
  C  C203  1  0.406300  0.076100  0.772000  1.0  -0.1173
  C  C204  1  0.285700  0.927000  0.688000  1.0  0.1721
  C  C205  1  0.396200  0.024400  0.636200  1.0  0.0375
  C  C206  1  0.280900  0.841200  0.425000  1.0  0.6412
  C  C207  1  0.433700  0.059600  0.687100  1.0  0.0345
  C  C208  1  0.523000  0.179400  0.910200  1.0  0.1589
  C  C209  1  0.221400  0.771900  0.404100  1.0  -0.0533
  C  C210  1  0.216000  0.867800  0.663800  1.0  0.1723
  C  C211  1  0.283100  0.794100  0.414900  1.0  -0.1656
  C  C212  1  0.441300  0.106900  0.823500  1.0  -0.203
  C  C213  1  0.505500  0.121700  0.789700  1.0  0.1681
  C  C214  1  0.496300  0.076900  0.652200  1.0  -0.1154
  C  C215  1  0.326800  0.970400  0.194500  1.0  -0.1126
  C  C216  1  0.532000  0.107400  0.703000  1.0  -0.1957
  C  C217  1  0.368600  0.003500  0.223700  1.0  -0.0793
  C  C218  1  0.380300  0.010500  0.320200  1.0  -0.149
  C  C219  1  0.237100  0.891000  0.822600  1.0  -0.0968
  C  C220  1  0.276900  0.923500  0.786300  1.0  -0.1515
  C  C221  1  0.346200  0.771800  0.423500  1.0  -0.0727
  C  C222  1  0.204900  0.863000  0.761500  1.0  -0.104
  C  C223  1  0.632800  0.183300  0.915000  1.0  -0.0123
  C  C224  1  0.615800  0.152700  0.853000  1.0  -0.1109
  C  C225  1  0.071100  0.990200  0.485300  1.0  -0.1189
  C  C226  1  0.148600  0.980100  0.469800  1.0  0.6283
  C  C227  1  0.046800  0.030700  0.470000  1.0  -0.0263
  C  C228  1  0.023500  0.959600  0.515700  1.0  -0.0417
  C  C229  1  0.202300  0.055200  0.765200  1.0  0.1641
  C  C230  1  0.174400  0.038100  0.140500  1.0  0.1736
  C  C231  1  0.104300  0.977800  0.036400  1.0  -0.0612
  C  C232  1  0.138600  0.006600  0.188500  1.0  -0.1138
  C  C233  1  0.150300  0.015600  0.886500  1.0  0.1542
  C  C234  1  0.142300  0.010300  0.991500  1.0  0.1219
  C  C235  1  0.093700  0.923900  0.272000  1.0  -0.117
  C  C236  1  0.214300  0.073000  0.188000  1.0  0.1718
  C  C237  1  0.103800  0.975600  0.136200  1.0  0.0376
  C  C238  1  0.219100  0.158800  0.925000  1.0  0.6414
  C  C239  1  0.066300  0.940400  0.187100  1.0  0.0349
  C  C240  1  0.977000  0.820600  0.410200  1.0  0.1618
  C  C241  1  0.278600  0.228100  0.904100  1.0  -0.0553
  C  C242  1  0.284000  0.132200  0.163800  1.0  0.1725
  C  C243  1  0.216900  0.205900  0.914900  1.0  -0.1667
  C  C244  1  0.058700  0.893100  0.323500  1.0  -0.2023
  C  C245  1  0.994500  0.878300  0.289700  1.0  0.1692
  C  C246  1  0.003700  0.923100  0.152200  1.0  -0.1154
  C  C247  1  0.173200  0.029600  0.694500  1.0  -0.1136
  C  C248  1  0.968000  0.892600  0.203000  1.0  -0.1953
  C  C249  1  0.131400  0.996500  0.723700  1.0  -0.0794
  C  C250  1  0.119700  0.989500  0.820200  1.0  -0.1478
  C  C251  1  0.262900  0.109000  0.322600  1.0  -0.0959
  C  C252  1  0.223100  0.076500  0.286300  1.0  -0.1528
  C  C253  1  0.153800  0.228200  0.923500  1.0  -0.0725
  C  C254  1  0.295100  0.137000  0.261500  1.0  -0.1044
  C  C255  1  0.867200  0.816700  0.415000  1.0  -0.0107
  C  C256  1  0.884200  0.847300  0.353000  1.0  -0.1104
  C  C257  1  0.428900  0.009800  0.985300  1.0  -0.1198
  C  C258  1  0.351400  0.019900  0.969800  1.0  0.6293
  C  C259  1  0.453200  0.969300  0.970000  1.0  -0.0258
  C  C260  1  0.476500  0.040400  0.015700  1.0  -0.0437
  C  C261  1  0.702300  0.444800  0.734800  1.0  0.1644
  C  C262  1  0.674400  0.461900  0.359500  1.0  0.1729
  C  C263  1  0.604300  0.522200  0.463600  1.0  -0.0608
  C  C264  1  0.638600  0.493400  0.311500  1.0  -0.1137
  C  C265  1  0.650300  0.484400  0.613500  1.0  0.1534
  C  C266  1  0.642300  0.489700  0.508500  1.0  0.1223
  C  C267  1  0.593700  0.576100  0.228000  1.0  -0.1151
  C  C268  1  0.714300  0.427000  0.312000  1.0  0.1715
  C  C269  1  0.603800  0.524400  0.363800  1.0  0.0385
  C  C270  1  0.719100  0.341200  0.575000  1.0  0.6407
  C  C271  1  0.566300  0.559600  0.312900  1.0  0.0357
  C  C272  1  0.477000  0.679400  0.089800  1.0  0.1615
  C  C273  1  0.778600  0.271900  0.595900  1.0  -0.054
  C  C274  1  0.784000  0.367800  0.336200  1.0  0.1734
  C  C275  1  0.716900  0.294100  0.585100  1.0  -0.1663
  C  C276  1  0.558700  0.606900  0.176500  1.0  -0.202
  C  C277  1  0.494500  0.621700  0.210300  1.0  0.1689
  C  C278  1  0.503700  0.576900  0.347800  1.0  -0.1163
  C  C279  1  0.673200  0.470400  0.805500  1.0  -0.115
  C  C280  1  0.468000  0.607400  0.297000  1.0  -0.1955
  C  C281  1  0.631400  0.503500  0.776300  1.0  -0.079
  C  C282  1  0.619700  0.510500  0.679800  1.0  -0.1485
  C  C283  1  0.762900  0.391000  0.177400  1.0  -0.0963
  C  C284  1  0.723100  0.423500  0.213700  1.0  -0.1512
  C  C285  1  0.653800  0.271800  0.576500  1.0  -0.0735
  C  C286  1  0.795100  0.363000  0.238500  1.0  -0.104
  C  C287  1  0.367200  0.683300  0.085000  1.0  -0.01
  C  C288  1  0.384200  0.652700  0.147000  1.0  -0.1115
  C  C289  1  0.928900  0.490200  0.514700  1.0  -0.1198
  C  C290  1  0.851400  0.480100  0.530200  1.0  0.6296
  C  C291  1  0.953200  0.530700  0.530000  1.0  -0.0256
  C  C292  1  0.976500  0.459600  0.484300  1.0  -0.0421
  C  C293  1  0.797700  0.555200  0.234800  1.0  0.1655
  C  C294  1  0.825600  0.538100  0.859500  1.0  0.1739
  C  C295  1  0.895700  0.477800  0.963600  1.0  -0.0601
  C  C296  1  0.861400  0.506600  0.811500  1.0  -0.1146
  C  C297  1  0.849700  0.515600  0.113500  1.0  0.1533
  C  C298  1  0.857700  0.510300  0.008500  1.0  0.1222
  C  C299  1  0.906300  0.423900  0.728000  1.0  -0.1151
  C  C300  1  0.785700  0.573000  0.812000  1.0  0.1727
  C  C301  1  0.896200  0.475600  0.863800  1.0  0.0381
  C  C302  1  0.780900  0.658800  0.075000  1.0  0.6407
  C  C303  1  0.933700  0.440400  0.812900  1.0  0.0345
  C  C304  1  0.023000  0.320600  0.589800  1.0  0.1597
  C  C305  1  0.721400  0.728100  0.095900  1.0  -0.0534
  C  C306  1  0.716000  0.632200  0.836200  1.0  0.1728
  C  C307  1  0.783100  0.705900  0.085100  1.0  -0.1658
  C  C308  1  0.941300  0.393100  0.676500  1.0  -0.203
  C  C309  1  0.005500  0.378300  0.710300  1.0  0.1692
  C  C310  1  0.996300  0.423100  0.847800  1.0  -0.1161
  C  C311  1  0.826800  0.529600  0.305500  1.0  -0.1149
  C  C312  1  0.032000  0.392600  0.797000  1.0  -0.1951
  C  C313  1  0.868600  0.496500  0.276300  1.0  -0.0791
  C  C314  1  0.880300  0.489500  0.179800  1.0  -0.1488
  C  C315  1  0.737100  0.609000  0.677400  1.0  -0.0968
  C  C316  1  0.776900  0.576500  0.713700  1.0  -0.1516
  C  C317  1  0.846200  0.728200  0.076500  1.0  -0.0735
  C  C318  1  0.704900  0.637000  0.738500  1.0  -0.1041
  C  C319  1  0.132800  0.316700  0.585000  1.0  -0.0115
  C  C320  1  0.115800  0.347300  0.647000  1.0  -0.109
  C  C321  1  0.571100  0.509800  0.014700  1.0  -0.1191
  C  C322  1  0.648600  0.519900  0.030200  1.0  0.6285
  C  C323  1  0.546800  0.469300  0.030000  1.0  -0.0264
  C  C324  1  0.523500  0.540400  0.984300  1.0  -0.0434
  C  C325  1  0.702300  0.055200  0.734800  1.0  0.1608
  C  C326  1  0.674400  0.038100  0.359500  1.0  0.1733
  C  C327  1  0.604300  0.977800  0.463600  1.0  -0.0611
  C  C328  1  0.638600  0.006600  0.311500  1.0  -0.1143
  C  C329  1  0.650300  0.015600  0.613500  1.0  0.1534
  C  C330  1  0.642300  0.010300  0.508500  1.0  0.1222
  C  C331  1  0.593700  0.923900  0.228000  1.0  -0.1149
  C  C332  1  0.714300  0.073000  0.312000  1.0  0.1727
  C  C333  1  0.603800  0.975600  0.363800  1.0  0.0386
  C  C334  1  0.719100  0.158800  0.575000  1.0  0.6408
  C  C335  1  0.566300  0.940400  0.312900  1.0  0.0353
  C  C336  1  0.477000  0.820600  0.089800  1.0  0.1613
  C  C337  1  0.778600  0.228100  0.595900  1.0  -0.0543
  C  C338  1  0.784000  0.132200  0.336200  1.0  0.1731
  C  C339  1  0.716900  0.205900  0.585100  1.0  -0.1664
  C  C340  1  0.558700  0.893100  0.176500  1.0  -0.2021
  C  C341  1  0.494500  0.878300  0.210300  1.0  0.1696
  C  C342  1  0.503700  0.923100  0.347800  1.0  -0.1154
  C  C343  1  0.673200  0.029600  0.805500  1.0  -0.1151
  C  C344  1  0.468000  0.892600  0.297000  1.0  -0.1941
  C  C345  1  0.631400  0.996500  0.776300  1.0  -0.0789
  C  C346  1  0.619700  0.989500  0.679800  1.0  -0.1479
  C  C347  1  0.762900  0.109000  0.177400  1.0  -0.0969
  C  C348  1  0.723100  0.076500  0.213700  1.0  -0.1521
  C  C349  1  0.653800  0.228200  0.576500  1.0  -0.0726
  C  C350  1  0.795100  0.137000  0.238500  1.0  -0.1045
  C  C351  1  0.367200  0.816700  0.085000  1.0  -0.01
  C  C352  1  0.384200  0.847300  0.147000  1.0  -0.1104
  C  C353  1  0.928900  0.009800  0.514700  1.0  -0.1199
  C  C354  1  0.851400  0.019900  0.530200  1.0  0.6296
  C  C355  1  0.953200  0.969300  0.530000  1.0  -0.0253
  C  C356  1  0.976500  0.040400  0.484300  1.0  -0.0434
  C  C357  1  0.797700  0.944800  0.234800  1.0  0.1638
  C  C358  1  0.825600  0.961900  0.859500  1.0  0.1739
  C  C359  1  0.895700  0.022200  0.963600  1.0  -0.06
  C  C360  1  0.861400  0.993400  0.811500  1.0  -0.1137
  C  C361  1  0.849700  0.984400  0.113500  1.0  0.1533
  C  C362  1  0.857700  0.989700  0.008500  1.0  0.1222
  C  C363  1  0.906300  0.076100  0.728000  1.0  -0.1157
  C  C364  1  0.785700  0.927000  0.812000  1.0  0.1723
  C  C365  1  0.896200  0.024400  0.863800  1.0  0.038
  C  C366  1  0.780900  0.841200  0.075000  1.0  0.6408
  C  C367  1  0.933700  0.059600  0.812900  1.0  0.0351
  C  C368  1  0.023000  0.179400  0.589800  1.0  0.1592
  C  C369  1  0.721400  0.771900  0.095900  1.0  -0.0532
  C  C370  1  0.716000  0.867800  0.836200  1.0  0.1732
  C  C371  1  0.783100  0.794100  0.085100  1.0  -0.1664
  C  C372  1  0.941300  0.106900  0.676500  1.0  -0.2027
  C  C373  1  0.005500  0.121700  0.710300  1.0  0.1685
  C  C374  1  0.996300  0.076900  0.847800  1.0  -0.1169
  C  C375  1  0.826800  0.970400  0.305500  1.0  -0.1149
  C  C376  1  0.032000  0.107400  0.797000  1.0  -0.1953
  C  C377  1  0.868600  0.003500  0.276300  1.0  -0.0797
  C  C378  1  0.880300  0.010500  0.179800  1.0  -0.1488
  C  C379  1  0.737100  0.891000  0.677400  1.0  -0.0962
  C  C380  1  0.776900  0.923500  0.713700  1.0  -0.1513
  C  C381  1  0.846200  0.771800  0.076500  1.0  -0.0726
  C  C382  1  0.704900  0.863000  0.738500  1.0  -0.1038
  C  C383  1  0.132800  0.183300  0.585000  1.0  -0.0114
  C  C384  1  0.115800  0.152700  0.647000  1.0  -0.1102
  C  C385  1  0.571100  0.990200  0.014700  1.0  -0.1191
  C  C386  1  0.648600  0.980100  0.030200  1.0  0.6285
  C  C387  1  0.546800  0.030700  0.030000  1.0  -0.0258
  C  C388  1  0.523500  0.959600  0.984300  1.0  -0.0422
  C  C389  1  0.297700  0.555200  0.265200  1.0  0.1634
  C  C390  1  0.325600  0.538100  0.640500  1.0  0.1742
  C  C391  1  0.395700  0.477800  0.536400  1.0  -0.0606
  C  C392  1  0.361400  0.506600  0.688500  1.0  -0.1143
  C  C393  1  0.349700  0.515600  0.386500  1.0  0.1542
  C  C394  1  0.357700  0.510300  0.491500  1.0  0.1218
  C  C395  1  0.406300  0.423900  0.772000  1.0  -0.1169
  C  C396  1  0.285700  0.573000  0.688000  1.0  0.1721
  C  C397  1  0.396200  0.475600  0.636200  1.0  0.0373
  C  C398  1  0.280900  0.658800  0.425000  1.0  0.6413
  C  C399  1  0.433700  0.440400  0.687100  1.0  0.0344
  C  C400  1  0.523000  0.320600  0.910200  1.0  0.1602
  C  C401  1  0.221400  0.728100  0.404100  1.0  -0.0538
  C  C402  1  0.216000  0.632200  0.663800  1.0  0.1725
  C  C403  1  0.283100  0.705900  0.414900  1.0  -0.1657
  C  C404  1  0.441300  0.393100  0.823500  1.0  -0.2032
  C  C405  1  0.505500  0.378300  0.789700  1.0  0.1688
  C  C406  1  0.496300  0.423100  0.652200  1.0  -0.1152
  C  C407  1  0.326800  0.529600  0.194500  1.0  -0.1131
  C  C408  1  0.532000  0.392600  0.703000  1.0  -0.1961
  C  C409  1  0.368600  0.496500  0.223700  1.0  -0.0789
  C  C410  1  0.380300  0.489500  0.320200  1.0  -0.149
  C  C411  1  0.237100  0.609000  0.822600  1.0  -0.0963
  C  C412  1  0.276900  0.576500  0.786300  1.0  -0.152
  C  C413  1  0.346200  0.728200  0.423500  1.0  -0.0734
  C  C414  1  0.204900  0.637000  0.761500  1.0  -0.1045
  C  C415  1  0.632800  0.316700  0.915000  1.0  -0.0124
  C  C416  1  0.615800  0.347300  0.853000  1.0  -0.1096
  C  C417  1  0.071100  0.509800  0.485300  1.0  -0.1189
  C  C418  1  0.148600  0.519900  0.469800  1.0  0.6283
  C  C419  1  0.046800  0.469300  0.470000  1.0  -0.027
  C  C420  1  0.023500  0.540400  0.515700  1.0  -0.0438
  C  C421  1  0.202300  0.444800  0.765200  1.0  0.1614
  C  C422  1  0.174400  0.461900  0.140500  1.0  0.1732
  C  C423  1  0.104300  0.522200  0.036400  1.0  -0.0609
  C  C424  1  0.138600  0.493400  0.188500  1.0  -0.1141
  C  C425  1  0.150300  0.484400  0.886500  1.0  0.1538
  C  C426  1  0.142300  0.489700  0.991500  1.0  0.122
  C  C427  1  0.093700  0.576100  0.272000  1.0  -0.1168
  C  C428  1  0.214300  0.427000  0.188000  1.0  0.1712
  C  C429  1  0.103800  0.524400  0.136200  1.0  0.0379
  C  C430  1  0.219100  0.341200  0.925000  1.0  0.641
  C  C431  1  0.066300  0.559600  0.187100  1.0  0.0349
  C  C432  1  0.977000  0.679400  0.410200  1.0  0.1612
  C  C433  1  0.278600  0.271900  0.904100  1.0  -0.0546
  C  C434  1  0.284000  0.367800  0.163800  1.0  0.1724
  C  C435  1  0.216900  0.294100  0.914900  1.0  -0.1656
  C  C436  1  0.058700  0.606900  0.323500  1.0  -0.202
  C  C437  1  0.994500  0.621700  0.289700  1.0  0.1685
  C  C438  1  0.003700  0.576900  0.152200  1.0  -0.1155
  C  C439  1  0.173200  0.470400  0.694500  1.0  -0.1129
  C  C440  1  0.968000  0.607400  0.203000  1.0  -0.1959
  C  C441  1  0.131400  0.503500  0.723700  1.0  -0.0795
  C  C442  1  0.119700  0.510500  0.820200  1.0  -0.1487
  C  C443  1  0.262900  0.391000  0.322600  1.0  -0.0965
  C  C444  1  0.223100  0.423500  0.286300  1.0  -0.1517
  C  C445  1  0.153800  0.271800  0.923500  1.0  -0.0734
  C  C446  1  0.295100  0.363000  0.261500  1.0  -0.104
  C  C447  1  0.867200  0.683300  0.415000  1.0  -0.0106
  C  C448  1  0.884200  0.652700  0.353000  1.0  -0.1116
  C  C449  1  0.428900  0.490200  0.985300  1.0  -0.1198
  C  C450  1  0.351400  0.480100  0.969800  1.0  0.6293
  C  C451  1  0.453200  0.530700  0.970000  1.0  -0.0258
  C  C452  1  0.476500  0.459600  0.015700  1.0  -0.0417
  C  C453  1  0.942000  0.250000  0.383000  1.0  0.674
  C  C454  1  0.884100  0.250000  0.309100  1.0  -0.1253
  C  C455  1  0.900700  0.250000  0.211700  1.0  -0.061
  C  C456  1  0.775500  0.250000  0.171900  1.0  -0.1183
  C  C457  1  0.759400  0.250000  0.268500  1.0  -0.0244
  C  C458  1  0.719100  0.250000  0.098000  1.0  0.6859
  C  C459  1  0.813400  0.250000  0.337800  1.0  -0.047
  C  C460  1  0.846800  0.250000  0.143400  1.0  -0.0605
  C  C461  1  0.558000  0.750000  0.883000  1.0  0.6742
  C  C462  1  0.615900  0.750000  0.809100  1.0  -0.1238
  C  C463  1  0.599300  0.750000  0.711700  1.0  -0.0618
  C  C464  1  0.724500  0.750000  0.671900  1.0  -0.119
  C  C465  1  0.740600  0.750000  0.768500  1.0  -0.0236
  C  C466  1  0.780900  0.750000  0.598000  1.0  0.6851
  C  C467  1  0.686600  0.750000  0.837800  1.0  -0.0463
  C  C468  1  0.653200  0.750000  0.643400  1.0  -0.059
  C  C469  1  0.058000  0.750000  0.617000  1.0  0.6729
  C  C470  1  0.115900  0.750000  0.690900  1.0  -0.1254
  C  C471  1  0.099300  0.750000  0.788300  1.0  -0.0598
  C  C472  1  0.224500  0.750000  0.828100  1.0  -0.119
  C  C473  1  0.240600  0.750000  0.731500  1.0  -0.0238
  C  C474  1  0.280900  0.750000  0.902000  1.0  0.6853
  C  C475  1  0.186600  0.750000  0.662200  1.0  -0.0453
  C  C476  1  0.153200  0.750000  0.856600  1.0  -0.0609
  C  C477  1  0.442000  0.250000  0.117000  1.0  0.673
  C  C478  1  0.384100  0.250000  0.190900  1.0  -0.1244
  C  C479  1  0.400700  0.250000  0.288300  1.0  -0.0608
  C  C480  1  0.275500  0.250000  0.328100  1.0  -0.1176
  C  C481  1  0.259400  0.250000  0.231500  1.0  -0.0248
  C  C482  1  0.219100  0.250000  0.402000  1.0  0.6858
  C  C483  1  0.313400  0.250000  0.162200  1.0  -0.0457
  C  C484  1  0.346800  0.250000  0.356600  1.0  -0.0597
  N  N485  1  0.255300  0.899200  0.627700  1.0  -0.3253
  N  N486  1  0.324100  0.960300  0.544200  1.0  -0.3358
  N  N487  1  0.308800  0.951200  0.359500  1.0  -0.3257
  N  N488  1  0.545000  0.151100  0.845700  1.0  0.0053
  N  N489  1  0.574100  0.200200  0.952500  1.0  -0.4071
  N  N490  1  0.244700  0.100800  0.127700  1.0  -0.3268
  N  N491  1  0.175900  0.039700  0.044200  1.0  -0.3357
  N  N492  1  0.191200  0.048800  0.859500  1.0  -0.3265
  N  N493  1  0.955000  0.848900  0.345700  1.0  0.006
  N  N494  1  0.925900  0.799800  0.452500  1.0  -0.4068
  N  N495  1  0.744700  0.399200  0.372300  1.0  -0.3262
  N  N496  1  0.675900  0.460300  0.455800  1.0  -0.3344
  N  N497  1  0.691200  0.451200  0.640500  1.0  -0.3263
  N  N498  1  0.455000  0.651100  0.154300  1.0  0.0047
  N  N499  1  0.425900  0.700200  0.047500  1.0  -0.4067
  N  N500  1  0.755300  0.600800  0.872300  1.0  -0.326
  N  N501  1  0.824100  0.539700  0.955800  1.0  -0.3357
  N  N502  1  0.808800  0.548800  0.140500  1.0  -0.3275
  N  N503  1  0.045000  0.348900  0.654300  1.0  0.005
  N  N504  1  0.074100  0.299800  0.547500  1.0  -0.4078
  N  N505  1  0.744700  0.100800  0.372300  1.0  -0.3265
  N  N506  1  0.675900  0.039700  0.455800  1.0  -0.3355
  N  N507  1  0.691200  0.048800  0.640500  1.0  -0.327
  N  N508  1  0.455000  0.848900  0.154300  1.0  0.0056
  N  N509  1  0.425900  0.799800  0.047500  1.0  -0.4074
  N  N510  1  0.755300  0.899200  0.872300  1.0  -0.3253
  N  N511  1  0.824100  0.960300  0.955800  1.0  -0.3345
  N  N512  1  0.808800  0.951200  0.140500  1.0  -0.3267
  N  N513  1  0.045000  0.151100  0.654300  1.0  0.0046
  N  N514  1  0.074100  0.200200  0.547500  1.0  -0.4071
  N  N515  1  0.255300  0.600800  0.627700  1.0  -0.326
  N  N516  1  0.324100  0.539700  0.544200  1.0  -0.3359
  N  N517  1  0.308800  0.548800  0.359500  1.0  -0.327
  N  N518  1  0.545000  0.348900  0.845700  1.0  0.0056
  N  N519  1  0.574100  0.299800  0.952500  1.0  -0.4073
  N  N520  1  0.244700  0.399200  0.127700  1.0  -0.3265
  N  N521  1  0.175900  0.460300  0.044200  1.0  -0.3357
  N  N522  1  0.191200  0.451200  0.859500  1.0  -0.3254
  N  N523  1  0.955000  0.651100  0.345700  1.0  0.0052
  N  N524  1  0.925900  0.700200  0.452500  1.0  -0.4068
  O  O525  1  0.189200  0.008200  0.444500  1.0  -0.5538
  O  O526  1  0.223100  0.860100  0.419300  1.0  -0.5682
  O  O527  1  0.336800  0.861000  0.446300  1.0  -0.5754
  O  O528  1  0.165600  0.941700  0.486100  1.0  -0.6027
  O  O529  1  0.310800  0.991800  0.944500  1.0  -0.5531
  O  O530  1  0.276900  0.139900  0.919300  1.0  -0.5662
  O  O531  1  0.163200  0.139000  0.946300  1.0  -0.5753
  O  O532  1  0.334400  0.058300  0.986100  1.0  -0.6035
  O  O533  1  0.810800  0.508200  0.555500  1.0  -0.553
  O  O534  1  0.776900  0.360100  0.580700  1.0  -0.5663
  O  O535  1  0.663200  0.361000  0.553700  1.0  -0.5749
  O  O536  1  0.834400  0.441700  0.513900  1.0  -0.603
  O  O537  1  0.689200  0.491800  0.055500  1.0  -0.5538
  O  O538  1  0.723100  0.639900  0.080700  1.0  -0.5689
  O  O539  1  0.836800  0.639000  0.053700  1.0  -0.5752
  O  O540  1  0.665600  0.558300  0.013900  1.0  -0.6045
  O  O541  1  0.810800  0.991800  0.555500  1.0  -0.5534
  O  O542  1  0.776900  0.139900  0.580700  1.0  -0.5671
  O  O543  1  0.663200  0.139000  0.553700  1.0  -0.5755
  O  O544  1  0.834400  0.058300  0.513900  1.0  -0.604
  O  O545  1  0.689200  0.008200  0.055500  1.0  -0.5539
  O  O546  1  0.723100  0.860100  0.080700  1.0  -0.5681
  O  O547  1  0.836800  0.861000  0.053700  1.0  -0.5753
  O  O548  1  0.665600  0.941700  0.013900  1.0  -0.6031
  O  O549  1  0.189200  0.491800  0.444500  1.0  -0.5535
  O  O550  1  0.223100  0.639900  0.419300  1.0  -0.5683
  O  O551  1  0.336800  0.639000  0.446300  1.0  -0.5755
  O  O552  1  0.165600  0.558300  0.486100  1.0  -0.6041
  O  O553  1  0.310800  0.508200  0.944500  1.0  -0.553
  O  O554  1  0.276900  0.360100  0.919300  1.0  -0.5662
  O  O555  1  0.163200  0.361000  0.946300  1.0  -0.5747
  O  O556  1  0.334400  0.441700  0.986100  1.0  -0.6024
  O  O557  1  0.005500  0.250000  0.353100  1.0  -0.6004
  O  O558  1  0.928100  0.250000  0.469800  1.0  -0.5582
  O  O559  1  0.655500  0.250000  0.127600  1.0  -0.6084
  O  O560  1  0.735200  0.250000  0.010300  1.0  -0.5556
  O  O561  1  0.494500  0.750000  0.853100  1.0  -0.5996
  O  O562  1  0.571900  0.750000  0.969800  1.0  -0.5582
  O  O563  1  0.844500  0.750000  0.627600  1.0  -0.6078
  O  O564  1  0.764800  0.750000  0.510300  1.0  -0.5544
  O  O565  1  0.994500  0.750000  0.646900  1.0  -0.6008
  O  O566  1  0.071900  0.750000  0.530200  1.0  -0.5584
  O  O567  1  0.344500  0.750000  0.872400  1.0  -0.6078
  O  O568  1  0.264800  0.750000  0.989700  1.0  -0.557
  O  O569  1  0.505500  0.250000  0.146900  1.0  -0.5999
  O  O570  1  0.428100  0.250000  0.030200  1.0  -0.5578
  O  O571  1  0.155500  0.250000  0.372400  1.0  -0.6082
  O  O572  1  0.235200  0.250000  0.489700  1.0  -0.5571
