# generated using pymatgen
data_NiH32C46(NO)6
_symmetry_space_group_name_H-M   'P 1'
_cell_length_a   15.77420000
_cell_length_b   19.97510000
_cell_length_c   16.20650000
_cell_angle_alpha   90.00000000
_cell_angle_beta   106.39800000
_cell_angle_gamma   90.00000000
_symmetry_Int_Tables_number   1
_chemical_formula_structural   NiH32C46(NO)6
_chemical_formula_sum   'Ni4 H128 C184 N24 O24'
_cell_volume   4898.81197830
_cell_formula_units_Z   4
loop_
 _symmetry_equiv_pos_site_id
 _symmetry_equiv_pos_as_xyz
  1  'x, y, z'
loop_
 _atom_site_type_symbol
 _atom_site_label
 _atom_site_symmetry_multiplicity
 _atom_site_fract_x
 _atom_site_fract_y
 _atom_site_fract_z
 _atom_site_occupancy
 _atom_site_charge
  Ni  Ni1  1  0.500000  0.951530  0.750000  1.0  0.6737
  Ni  Ni2  1  0.500000  0.048470  0.250000  1.0  0.6726
  Ni  Ni3  1  0.000000  0.451530  0.750000  1.0  0.6737
  Ni  Ni4  1  0.000000  0.548470  0.250000  1.0  0.6726
  H  H5  1  0.420400  0.068300  0.633600  1.0  0.0978
  H  H6  1  0.416100  0.183800  0.629400  1.0  0.1514
  H  H7  1  0.369900  0.285000  0.686000  1.0  0.1361
  H  H8  1  0.369400  0.401000  0.688200  1.0  0.1339
  H  H9  1  0.402400  0.500900  0.637900  1.0  0.1299
  H  H10  1  0.402600  0.617200  0.638100  1.0  0.1398
  H  H11  1  0.475000  0.832800  0.623600  1.0  0.11
  H  H12  1  0.473300  0.717600  0.620700  1.0  0.1406
  H  H13  1  0.323100  0.982800  0.782700  1.0  0.104
  H  H14  1  0.176800  0.002200  0.711900  1.0  0.1451
  H  H15  1  0.224600  0.942200  0.492400  1.0  0.1458
  H  H16  1  0.370900  0.926800  0.568600  1.0  0.1019
  H  H17  1  0.182500  0.100700  0.563000  1.0  0.1221
  H  H18  1  0.134700  0.207600  0.522500  1.0  0.1343
  H  H19  1  0.985600  0.227800  0.447400  1.0  0.1383
  H  H20  1  0.113300  0.858800  0.585800  1.0  0.1324
  H  H21  1  0.579600  0.068300  0.866400  1.0  0.0979
  H  H22  1  0.583900  0.183800  0.870600  1.0  0.1512
  H  H23  1  0.630100  0.285000  0.814000  1.0  0.1359
  H  H24  1  0.630600  0.401000  0.811800  1.0  0.1337
  H  H25  1  0.597600  0.500900  0.862100  1.0  0.1298
  H  H26  1  0.597400  0.617200  0.861900  1.0  0.1402
  H  H27  1  0.525000  0.832800  0.876400  1.0  0.1104
  H  H28  1  0.526700  0.717600  0.879300  1.0  0.1404
  H  H29  1  0.676900  0.982800  0.717300  1.0  0.1063
  H  H30  1  0.823200  0.002200  0.788100  1.0  0.1455
  H  H31  1  0.775400  0.942200  0.007600  1.0  0.1458
  H  H32  1  0.629100  0.926800  0.931400  1.0  0.1023
  H  H33  1  0.817500  0.100700  0.937000  1.0  0.1216
  H  H34  1  0.865300  0.207600  0.977500  1.0  0.1352
  H  H35  1  0.014400  0.227800  0.052600  1.0  0.1376
  H  H36  1  0.886700  0.858800  0.914200  1.0  0.1317
  H  H37  1  0.579600  0.931700  0.366400  1.0  0.098
  H  H38  1  0.583900  0.816200  0.370600  1.0  0.1513
  H  H39  1  0.630100  0.715000  0.314000  1.0  0.1359
  H  H40  1  0.630600  0.599000  0.311800  1.0  0.1338
  H  H41  1  0.597600  0.499100  0.362100  1.0  0.1296
  H  H42  1  0.597400  0.382800  0.361900  1.0  0.1401
  H  H43  1  0.525000  0.167200  0.376400  1.0  0.11
  H  H44  1  0.526700  0.282400  0.379300  1.0  0.1407
  H  H45  1  0.676900  0.017200  0.217300  1.0  0.1047
  H  H46  1  0.823200  0.997800  0.288100  1.0  0.1456
  H  H47  1  0.775400  0.057800  0.507600  1.0  0.1456
  H  H48  1  0.629100  0.073200  0.431400  1.0  0.1019
  H  H49  1  0.817500  0.899300  0.437000  1.0  0.1216
  H  H50  1  0.865300  0.792400  0.477500  1.0  0.1351
  H  H51  1  0.014400  0.772200  0.552600  1.0  0.1379
  H  H52  1  0.886700  0.141200  0.414200  1.0  0.1317
  H  H53  1  0.420400  0.931700  0.133600  1.0  0.0974
  H  H54  1  0.416100  0.816200  0.129400  1.0  0.1512
  H  H55  1  0.369900  0.715000  0.186000  1.0  0.1361
  H  H56  1  0.369400  0.599000  0.188200  1.0  0.1342
  H  H57  1  0.402400  0.499100  0.137900  1.0  0.1297
  H  H58  1  0.402600  0.382800  0.138100  1.0  0.1398
  H  H59  1  0.475000  0.167200  0.123600  1.0  0.1102
  H  H60  1  0.473300  0.282400  0.120700  1.0  0.1405
  H  H61  1  0.323100  0.017200  0.282700  1.0  0.1058
  H  H62  1  0.176800  0.997800  0.211900  1.0  0.1452
  H  H63  1  0.224600  0.057800  0.992400  1.0  0.146
  H  H64  1  0.370900  0.073200  0.068600  1.0  0.1015
  H  H65  1  0.182500  0.899300  0.063000  1.0  0.122
  H  H66  1  0.134700  0.792400  0.022500  1.0  0.1353
  H  H67  1  0.985600  0.772200  0.947400  1.0  0.1379
  H  H68  1  0.113300  0.141200  0.085800  1.0  0.1326
  H  H69  1  0.920400  0.568300  0.633600  1.0  0.0978
  H  H70  1  0.916100  0.683800  0.629400  1.0  0.1514
  H  H71  1  0.869900  0.785000  0.686000  1.0  0.1361
  H  H72  1  0.869400  0.901000  0.688200  1.0  0.1339
  H  H73  1  0.902400  0.000900  0.637900  1.0  0.1303
  H  H74  1  0.902600  0.117200  0.638100  1.0  0.1397
  H  H75  1  0.975000  0.332800  0.623600  1.0  0.11
  H  H76  1  0.973300  0.217600  0.620700  1.0  0.1406
  H  H77  1  0.823100  0.482800  0.782700  1.0  0.104
  H  H78  1  0.676800  0.502200  0.711900  1.0  0.1451
  H  H79  1  0.724600  0.442200  0.492400  1.0  0.1458
  H  H80  1  0.870900  0.426800  0.568600  1.0  0.1019
  H  H81  1  0.682500  0.600700  0.563000  1.0  0.1221
  H  H82  1  0.634700  0.707600  0.522500  1.0  0.1341
  H  H83  1  0.485600  0.727800  0.447400  1.0  0.1383
  H  H84  1  0.613300  0.358800  0.585800  1.0  0.1324
  H  H85  1  0.079600  0.568300  0.866400  1.0  0.0979
  H  H86  1  0.083900  0.683800  0.870600  1.0  0.1512
  H  H87  1  0.130100  0.785000  0.814000  1.0  0.1359
  H  H88  1  0.130600  0.901000  0.811800  1.0  0.1337
  H  H89  1  0.097600  0.000900  0.862100  1.0  0.1302
  H  H90  1  0.097400  0.117200  0.861900  1.0  0.1402
  H  H91  1  0.025000  0.332800  0.876400  1.0  0.1104
  H  H92  1  0.026700  0.217600  0.879300  1.0  0.1404
  H  H93  1  0.176900  0.482800  0.717300  1.0  0.1063
  H  H94  1  0.323200  0.502200  0.788100  1.0  0.1455
  H  H95  1  0.275400  0.442200  0.007600  1.0  0.1458
  H  H96  1  0.129100  0.426800  0.931400  1.0  0.1023
  H  H97  1  0.317500  0.600700  0.937000  1.0  0.1216
  H  H98  1  0.365300  0.707600  0.977500  1.0  0.1351
  H  H99  1  0.514400  0.727800  0.052600  1.0  0.1376
  H  H100  1  0.386700  0.358800  0.914200  1.0  0.1317
  H  H101  1  0.079600  0.431700  0.366400  1.0  0.098
  H  H102  1  0.083900  0.316200  0.370600  1.0  0.1513
  H  H103  1  0.130100  0.215000  0.314000  1.0  0.1359
  H  H104  1  0.130600  0.099000  0.311800  1.0  0.1338
  H  H105  1  0.097600  0.999100  0.362100  1.0  0.13
  H  H106  1  0.097400  0.882800  0.361900  1.0  0.14
  H  H107  1  0.025000  0.667200  0.376400  1.0  0.11
  H  H108  1  0.026700  0.782400  0.379300  1.0  0.1407
  H  H109  1  0.176900  0.517200  0.217300  1.0  0.1047
  H  H110  1  0.323200  0.497800  0.288100  1.0  0.1456
  H  H111  1  0.275400  0.557800  0.507600  1.0  0.1456
  H  H112  1  0.129100  0.573200  0.431400  1.0  0.1019
  H  H113  1  0.317500  0.399300  0.437000  1.0  0.1216
  H  H114  1  0.365300  0.292400  0.477500  1.0  0.135
  H  H115  1  0.514400  0.272200  0.552600  1.0  0.1379
  H  H116  1  0.386700  0.641200  0.414200  1.0  0.1317
  H  H117  1  0.920400  0.431700  0.133600  1.0  0.0974
  H  H118  1  0.916100  0.316200  0.129400  1.0  0.1512
  H  H119  1  0.869900  0.215000  0.186000  1.0  0.1361
  H  H120  1  0.869400  0.099000  0.188200  1.0  0.1342
  H  H121  1  0.902400  0.999100  0.137900  1.0  0.1301
  H  H122  1  0.902600  0.882800  0.138100  1.0  0.1398
  H  H123  1  0.975000  0.667200  0.123600  1.0  0.1102
  H  H124  1  0.973300  0.782400  0.120700  1.0  0.1405
  H  H125  1  0.823100  0.517200  0.282700  1.0  0.1058
  H  H126  1  0.676800  0.497800  0.211900  1.0  0.1452
  H  H127  1  0.724600  0.557800  0.992400  1.0  0.146
  H  H128  1  0.870900  0.573200  0.068600  1.0  0.1015
  H  H129  1  0.682500  0.399300  0.063000  1.0  0.122
  H  H130  1  0.634700  0.292400  0.022500  1.0  0.1352
  H  H131  1  0.485600  0.272200  0.947400  1.0  0.1379
  H  H132  1  0.613300  0.641200  0.085800  1.0  0.1326
  C  C133  1  0.453700  0.092500  0.682500  1.0  0.1975
  C  C134  1  0.450900  0.161600  0.679200  1.0  -0.1993
  C  C135  1  0.423100  0.308300  0.712500  1.0  -0.101
  C  C136  1  0.423000  0.377700  0.713200  1.0  -0.0962
  C  C137  1  0.442400  0.524200  0.683800  1.0  -0.0792
  C  C138  1  0.442400  0.593600  0.683900  1.0  -0.1105
  C  C139  1  0.485300  0.809300  0.676500  1.0  0.2028
  C  C140  1  0.484500  0.740200  0.674200  1.0  -0.1838
  C  C141  1  0.303300  0.975000  0.722500  1.0  0.1916
  C  C142  1  0.215600  0.986300  0.680800  1.0  -0.1876
  C  C143  1  0.184000  0.974300  0.593300  1.0  0.1389
  C  C144  1  0.243400  0.951600  0.552300  1.0  -0.183
  C  C145  1  0.330900  0.942200  0.598500  1.0  0.1754
  C  C146  1  0.028600  0.934300  0.526800  1.0  0.0145
  C  C147  1  0.062300  0.054000  0.519500  1.0  0.0384
  C  C148  1  0.121800  0.108400  0.534700  1.0  -0.0606
  C  C149  1  0.094000  0.171500  0.509700  1.0  -0.091
  C  C150  1  0.004600  0.183500  0.464700  1.0  -0.0702
  C  C151  1  0.053900  0.867600  0.553900  1.0  -0.066
  C  C152  1  0.088700  0.987700  0.545500  1.0  -0.0972
  C  C153  1  0.546300  0.092500  0.817500  1.0  0.2002
  C  C154  1  0.549100  0.161600  0.820800  1.0  -0.2
  C  C155  1  0.576900  0.308300  0.787500  1.0  -0.1015
  C  C156  1  0.577000  0.377700  0.786800  1.0  -0.0964
  C  C157  1  0.557600  0.524200  0.816200  1.0  -0.0808
  C  C158  1  0.557600  0.593600  0.816100  1.0  -0.111
  C  C159  1  0.514700  0.809300  0.823500  1.0  0.2026
  C  C160  1  0.515500  0.740200  0.825800  1.0  -0.1829
  C  C161  1  0.696700  0.975000  0.777500  1.0  0.1905
  C  C162  1  0.784400  0.986300  0.819200  1.0  -0.1879
  C  C163  1  0.816000  0.974300  0.906700  1.0  0.1395
  C  C164  1  0.756600  0.951600  0.947700  1.0  -0.1823
  C  C165  1  0.669100  0.942200  0.901500  1.0  0.177
  C  C166  1  0.971400  0.934300  0.973200  1.0  0.0142
  C  C167  1  0.937700  0.054000  0.980500  1.0  0.0386
  C  C168  1  0.878200  0.108400  0.965300  1.0  -0.0589
  C  C169  1  0.906000  0.171500  0.990300  1.0  -0.0923
  C  C170  1  0.995400  0.183500  0.035300  1.0  -0.0705
  C  C171  1  0.946100  0.867600  0.946100  1.0  -0.0657
  C  C172  1  0.911300  0.987700  0.954500  1.0  -0.0982
  C  C173  1  0.546300  0.907500  0.317500  1.0  0.1965
  C  C174  1  0.549100  0.838400  0.320800  1.0  -0.1994
  C  C175  1  0.576900  0.691700  0.287500  1.0  -0.1024
  C  C176  1  0.577000  0.622300  0.286800  1.0  -0.0966
  C  C177  1  0.557600  0.475800  0.316200  1.0  -0.0813
  C  C178  1  0.557600  0.406400  0.316100  1.0  -0.1111
  C  C179  1  0.514700  0.190700  0.323500  1.0  0.2021
  C  C180  1  0.515500  0.259800  0.325800  1.0  -0.1825
  C  C181  1  0.696700  0.025000  0.277500  1.0  0.1907
  C  C182  1  0.784400  0.013700  0.319200  1.0  -0.1881
  C  C183  1  0.816000  0.025700  0.406700  1.0  0.1397
  C  C184  1  0.756600  0.048400  0.447700  1.0  -0.1823
  C  C185  1  0.669100  0.057800  0.401500  1.0  0.1768
  C  C186  1  0.971400  0.065700  0.473200  1.0  0.0142
  C  C187  1  0.937700  0.946000  0.480500  1.0  0.0388
  C  C188  1  0.878200  0.891600  0.465300  1.0  -0.0559
  C  C189  1  0.906000  0.828500  0.490300  1.0  -0.0922
  C  C190  1  0.995400  0.816500  0.535300  1.0  -0.0722
  C  C191  1  0.946100  0.132400  0.446100  1.0  -0.065
  C  C192  1  0.911300  0.012300  0.454500  1.0  -0.0983
  C  C193  1  0.453700  0.907500  0.182500  1.0  0.2013
  C  C194  1  0.450900  0.838400  0.179200  1.0  -0.2
  C  C195  1  0.423100  0.691700  0.212500  1.0  -0.1023
  C  C196  1  0.423000  0.622300  0.213200  1.0  -0.0966
  C  C197  1  0.442400  0.475800  0.183800  1.0  -0.0795
  C  C198  1  0.442400  0.406400  0.183900  1.0  -0.1108
  C  C199  1  0.485300  0.190700  0.176500  1.0  0.2019
  C  C200  1  0.484500  0.259800  0.174200  1.0  -0.1833
  C  C201  1  0.303300  0.025000  0.222500  1.0  0.1916
  C  C202  1  0.215600  0.013700  0.180800  1.0  -0.1875
  C  C203  1  0.184000  0.025700  0.093300  1.0  0.1389
  C  C204  1  0.243400  0.048400  0.052300  1.0  -0.1827
  C  C205  1  0.330900  0.057800  0.098500  1.0  0.1764
  C  C206  1  0.028600  0.065700  0.026800  1.0  0.0145
  C  C207  1  0.062300  0.946000  0.019500  1.0  0.0386
  C  C208  1  0.121800  0.891600  0.034700  1.0  -0.0584
  C  C209  1  0.094000  0.828500  0.009700  1.0  -0.0906
  C  C210  1  0.004600  0.816500  0.964700  1.0  -0.0709
  C  C211  1  0.053900  0.132400  0.053900  1.0  -0.067
  C  C212  1  0.088700  0.012300  0.045500  1.0  -0.0972
  C  C213  1  0.500000  0.198500  0.750000  1.0  0.1248
  C  C214  1  0.500000  0.272100  0.750000  1.0  0.1022
  C  C215  1  0.500000  0.413700  0.750000  1.0  0.0614
  C  C216  1  0.500000  0.487900  0.750000  1.0  0.0704
  C  C217  1  0.500000  0.629200  0.750000  1.0  0.0669
  C  C218  1  0.500000  0.703600  0.750000  1.0  0.125
  C  C219  1  0.500000  0.801500  0.250000  1.0  0.1244
  C  C220  1  0.500000  0.727900  0.250000  1.0  0.1012
  C  C221  1  0.500000  0.586300  0.250000  1.0  0.0607
  C  C222  1  0.500000  0.512100  0.250000  1.0  0.0707
  C  C223  1  0.500000  0.370800  0.250000  1.0  0.0664
  C  C224  1  0.500000  0.296400  0.250000  1.0  0.1248
  C  C225  1  0.953700  0.592500  0.682500  1.0  0.1975
  C  C226  1  0.950900  0.661600  0.679200  1.0  -0.1993
  C  C227  1  0.923100  0.808300  0.712500  1.0  -0.101
  C  C228  1  0.923000  0.877700  0.713200  1.0  -0.0962
  C  C229  1  0.942400  0.024200  0.683800  1.0  -0.0792
  C  C230  1  0.942400  0.093600  0.683900  1.0  -0.1105
  C  C231  1  0.985300  0.309300  0.676500  1.0  0.2028
  C  C232  1  0.984500  0.240200  0.674200  1.0  -0.1838
  C  C233  1  0.803300  0.475000  0.722500  1.0  0.1916
  C  C234  1  0.715600  0.486300  0.680800  1.0  -0.1876
  C  C235  1  0.684000  0.474300  0.593300  1.0  0.1389
  C  C236  1  0.743400  0.451600  0.552300  1.0  -0.183
  C  C237  1  0.830900  0.442200  0.598500  1.0  0.1754
  C  C238  1  0.528600  0.434300  0.526800  1.0  0.0145
  C  C239  1  0.562300  0.554000  0.519500  1.0  0.0384
  C  C240  1  0.621800  0.608400  0.534700  1.0  -0.0606
  C  C241  1  0.594000  0.671500  0.509700  1.0  -0.091
  C  C242  1  0.504600  0.683500  0.464700  1.0  -0.0702
  C  C243  1  0.553900  0.367600  0.553900  1.0  -0.066
  C  C244  1  0.588700  0.487700  0.545500  1.0  -0.0972
  C  C245  1  0.046300  0.592500  0.817500  1.0  0.2002
  C  C246  1  0.049100  0.661600  0.820800  1.0  -0.2
  C  C247  1  0.076900  0.808300  0.787500  1.0  -0.1015
  C  C248  1  0.077000  0.877700  0.786800  1.0  -0.0964
  C  C249  1  0.057600  0.024200  0.816200  1.0  -0.0808
  C  C250  1  0.057600  0.093600  0.816100  1.0  -0.111
  C  C251  1  0.014700  0.309300  0.823500  1.0  0.2026
  C  C252  1  0.015500  0.240200  0.825800  1.0  -0.1829
  C  C253  1  0.196700  0.475000  0.777500  1.0  0.1905
  C  C254  1  0.284400  0.486300  0.819200  1.0  -0.1879
  C  C255  1  0.316000  0.474300  0.906700  1.0  0.1395
  C  C256  1  0.256600  0.451600  0.947700  1.0  -0.1823
  C  C257  1  0.169100  0.442200  0.901500  1.0  0.177
  C  C258  1  0.471400  0.434300  0.973200  1.0  0.0142
  C  C259  1  0.437700  0.554000  0.980500  1.0  0.0386
  C  C260  1  0.378200  0.608400  0.965300  1.0  -0.0589
  C  C261  1  0.406000  0.671500  0.990300  1.0  -0.0923
  C  C262  1  0.495400  0.683500  0.035300  1.0  -0.0705
  C  C263  1  0.446100  0.367600  0.946100  1.0  -0.0657
  C  C264  1  0.411300  0.487700  0.954500  1.0  -0.0982
  C  C265  1  0.046300  0.407500  0.317500  1.0  0.1965
  C  C266  1  0.049100  0.338400  0.320800  1.0  -0.1994
  C  C267  1  0.076900  0.191700  0.287500  1.0  -0.1024
  C  C268  1  0.077000  0.122300  0.286800  1.0  -0.0966
  C  C269  1  0.057600  0.975800  0.316200  1.0  -0.0813
  C  C270  1  0.057600  0.906400  0.316100  1.0  -0.1111
  C  C271  1  0.014700  0.690700  0.323500  1.0  0.2021
  C  C272  1  0.015500  0.759800  0.325800  1.0  -0.1825
  C  C273  1  0.196700  0.525000  0.277500  1.0  0.1907
  C  C274  1  0.284400  0.513700  0.319200  1.0  -0.1881
  C  C275  1  0.316000  0.525700  0.406700  1.0  0.1397
  C  C276  1  0.256600  0.548400  0.447700  1.0  -0.1823
  C  C277  1  0.169100  0.557800  0.401500  1.0  0.1768
  C  C278  1  0.471400  0.565700  0.473200  1.0  0.0142
  C  C279  1  0.437700  0.446000  0.480500  1.0  0.0388
  C  C280  1  0.378200  0.391600  0.465300  1.0  -0.0559
  C  C281  1  0.406000  0.328500  0.490300  1.0  -0.0922
  C  C282  1  0.495400  0.316500  0.535300  1.0  -0.0722
  C  C283  1  0.446100  0.632400  0.446100  1.0  -0.065
  C  C284  1  0.411300  0.512300  0.454500  1.0  -0.0983
  C  C285  1  0.953700  0.407500  0.182500  1.0  0.2013
  C  C286  1  0.950900  0.338400  0.179200  1.0  -0.2
  C  C287  1  0.923100  0.191700  0.212500  1.0  -0.1023
  C  C288  1  0.923000  0.122300  0.213200  1.0  -0.0966
  C  C289  1  0.942400  0.975800  0.183800  1.0  -0.0795
  C  C290  1  0.942400  0.906400  0.183900  1.0  -0.1108
  C  C291  1  0.985300  0.690700  0.176500  1.0  0.2019
  C  C292  1  0.984500  0.759800  0.174200  1.0  -0.1833
  C  C293  1  0.803300  0.525000  0.222500  1.0  0.1916
  C  C294  1  0.715600  0.513700  0.180800  1.0  -0.1875
  C  C295  1  0.684000  0.525700  0.093300  1.0  0.1389
  C  C296  1  0.743400  0.548400  0.052300  1.0  -0.1827
  C  C297  1  0.830900  0.557800  0.098500  1.0  0.1764
  C  C298  1  0.528600  0.565700  0.026800  1.0  0.0145
  C  C299  1  0.562300  0.446000  0.019500  1.0  0.0386
  C  C300  1  0.621800  0.391600  0.034700  1.0  -0.0584
  C  C301  1  0.594000  0.328500  0.009700  1.0  -0.0906
  C  C302  1  0.504600  0.316500  0.964700  1.0  -0.0709
  C  C303  1  0.553900  0.632400  0.053900  1.0  -0.067
  C  C304  1  0.588700  0.512300  0.045500  1.0  -0.0972
  C  C305  1  0.000000  0.698500  0.750000  1.0  0.1248
  C  C306  1  0.000000  0.772100  0.750000  1.0  0.1022
  C  C307  1  0.000000  0.913700  0.750000  1.0  0.0614
  C  C308  1  0.000000  0.987900  0.750000  1.0  0.0704
  C  C309  1  0.000000  0.129200  0.750000  1.0  0.0669
  C  C310  1  0.000000  0.203600  0.750000  1.0  0.125
  C  C311  1  0.000000  0.301500  0.250000  1.0  0.1244
  C  C312  1  0.000000  0.227900  0.250000  1.0  0.1012
  C  C313  1  0.000000  0.086300  0.250000  1.0  0.0607
  C  C314  1  0.000000  0.012100  0.250000  1.0  0.0707
  C  C315  1  0.000000  0.870800  0.250000  1.0  0.0664
  C  C316  1  0.000000  0.796400  0.250000  1.0  0.1248
  N  N317  1  0.533300  0.976500  0.566300  1.0  0.1638
  N  N318  1  0.362200  0.953740  0.682900  1.0  -0.2996
  N  N319  1  0.466700  0.976500  0.933700  1.0  0.1641
  N  N320  1  0.637800  0.953740  0.817100  1.0  -0.299
  N  N321  1  0.466700  0.023500  0.433700  1.0  0.1654
  N  N322  1  0.637800  0.046260  0.317100  1.0  -0.2986
  N  N323  1  0.533300  0.023500  0.066300  1.0  0.1661
  N  N324  1  0.362200  0.046260  0.182900  1.0  -0.3002
  N  N325  1  0.500000  0.057900  0.750000  1.0  -0.2902
  N  N326  1  0.500000  0.845500  0.750000  1.0  -0.3079
  N  N327  1  0.500000  0.942100  0.250000  1.0  -0.2894
  N  N328  1  0.500000  0.154500  0.250000  1.0  -0.3081
  N  N329  1  0.033300  0.476500  0.566300  1.0  0.1638
  N  N330  1  0.862200  0.453740  0.682900  1.0  -0.2996
  N  N331  1  0.966700  0.476500  0.933700  1.0  0.1641
  N  N332  1  0.137800  0.453740  0.817100  1.0  -0.299
  N  N333  1  0.966700  0.523500  0.433700  1.0  0.1654
  N  N334  1  0.137800  0.546260  0.317100  1.0  -0.2986
  N  N335  1  0.033300  0.523500  0.066300  1.0  0.1661
  N  N336  1  0.862200  0.546260  0.182900  1.0  -0.3002
  N  N337  1  0.000000  0.557900  0.750000  1.0  -0.2902
  N  N338  1  0.000000  0.345500  0.750000  1.0  -0.3079
  N  N339  1  0.000000  0.442100  0.250000  1.0  -0.2894
  N  N340  1  0.000000  0.654500  0.250000  1.0  -0.3081
  O  O341  1  0.572000  0.030200  0.573200  1.0  -0.5218
  O  O342  1  0.501800  0.953500  0.493500  1.0  -0.5473
  O  O343  1  0.531150  0.946530  0.632710  1.0  -0.6065
  O  O344  1  0.428000  0.030200  0.926800  1.0  -0.5211
  O  O345  1  0.498200  0.953500  0.006500  1.0  -0.5476
  O  O346  1  0.468850  0.946530  0.867290  1.0  -0.6056
  O  O347  1  0.428000  0.969800  0.426800  1.0  -0.5248
  O  O348  1  0.498200  0.046500  0.506500  1.0  -0.5465
  O  O349  1  0.468850  0.053470  0.367290  1.0  -0.6061
  O  O350  1  0.572000  0.969800  0.073200  1.0  -0.524
  O  O351  1  0.501800  0.046500  0.993500  1.0  -0.5475
  O  O352  1  0.531150  0.053470  0.132710  1.0  -0.607
  O  O353  1  0.072000  0.530200  0.573200  1.0  -0.5218
  O  O354  1  0.001800  0.453500  0.493500  1.0  -0.5473
  O  O355  1  0.031150  0.446530  0.632710  1.0  -0.6065
  O  O356  1  0.928000  0.530200  0.926800  1.0  -0.5211
  O  O357  1  0.998200  0.453500  0.006500  1.0  -0.5476
  O  O358  1  0.968850  0.446530  0.867290  1.0  -0.6056
  O  O359  1  0.928000  0.469800  0.426800  1.0  -0.5248
  O  O360  1  0.998200  0.546500  0.506500  1.0  -0.5465
  O  O361  1  0.968850  0.553470  0.367290  1.0  -0.6061
  O  O362  1  0.072000  0.469800  0.073200  1.0  -0.524
  O  O363  1  0.001800  0.546500  0.993500  1.0  -0.5475
  O  O364  1  0.031150  0.553470  0.132710  1.0  -0.607
