# generated using pymatgen
data_CdH11C17N3O4
_symmetry_space_group_name_H-M   'P 1'
_cell_length_a   13.75060000
_cell_length_b   17.86750000
_cell_length_c   17.86750000
_cell_angle_alpha   66.34120000
_cell_angle_beta   75.13580000
_cell_angle_gamma   104.86400000
_symmetry_Int_Tables_number   1
_chemical_formula_structural   CdH11C17N3O4
_chemical_formula_sum   'Cd6 H66 C102 N18 O24'
_cell_volume   3551.54459824
_cell_formula_units_Z   6
loop_
 _symmetry_equiv_pos_site_id
 _symmetry_equiv_pos_as_xyz
  1  'x, y, z'
loop_
 _atom_site_type_symbol
 _atom_site_label
 _atom_site_symmetry_multiplicity
 _atom_site_fract_x
 _atom_site_fract_y
 _atom_site_fract_z
 _atom_site_occupancy
 _atom_site_charge
  Cd  Cd1  1  0.920420  0.366540  0.227710  1.0  0.9212
  Cd  Cd2  1  0.148130  0.227710  0.405750  1.0  0.9204
  Cd  Cd3  1  0.553880  0.405750  0.366540  1.0  0.9214
  Cd  Cd4  1  0.079580  0.633460  0.772290  1.0  0.9217
  Cd  Cd5  1  0.851870  0.772290  0.594250  1.0  0.9207
  Cd  Cd6  1  0.446120  0.594250  0.633460  1.0  0.9216
  H  H7  1  0.794700  0.036700  0.468200  1.0  0.1193
  H  H8  1  0.572100  0.063600  0.365800  1.0  0.1252
  H  H9  1  0.677100  0.215400  0.283600  1.0  0.0788
  H  H10  1  0.555200  0.915500  0.388700  1.0  0.1228
  H  H11  1  0.639300  0.915200  0.587300  1.0  0.1209
  H  H12  1  0.559400  0.760000  0.663100  1.0  0.0868
  H  H13  1  0.059000  0.261400  0.180800  1.0  0.0679
  H  H14  1  0.120800  0.218000  0.078900  1.0  0.1187
  H  H15  1  0.101000  0.275900  0.946300  1.0  0.0982
  H  H16  1  0.013500  0.369100  0.920400  1.0  0.1175
  H  H17  1  0.939300  0.402200  0.032400  1.0  0.0857
  H  H18  1  0.262900  0.468200  0.495100  1.0  0.1178
  H  H19  1  0.937900  0.365800  0.570600  1.0  0.1286
  H  H20  1  0.960700  0.283600  0.501000  1.0  0.0763
  H  H21  1  0.943900  0.388700  0.695800  1.0  0.1211
  H  H22  1  0.226600  0.587300  0.497500  1.0  0.1206
  H  H23  1  0.222500  0.663100  0.576900  1.0  0.0864
  H  H24  1  0.239800  0.180800  0.557800  1.0  0.0668
  H  H25  1  0.199700  0.078900  0.703100  1.0  0.1189
  H  H26  1  0.047300  0.946300  0.777800  1.0  0.0988
  H  H27  1  0.933900  0.920400  0.710500  1.0  0.1184
  H  H28  1  0.971700  0.032400  0.565400  1.0  0.0852
  H  H29  1  0.758000  0.495100  0.036700  1.0  0.118
  H  H30  1  0.508500  0.570600  0.063600  1.0  0.1258
  H  H31  1  0.461700  0.501000  0.215400  1.0  0.0765
  H  H32  1  0.639700  0.695800  0.915500  1.0  0.1217
  H  H33  1  0.724100  0.497500  0.915200  1.0  0.1218
  H  H34  1  0.799400  0.576900  0.760000  1.0  0.0874
  H  H35  1  0.797600  0.557800  0.261400  1.0  0.0658
  H  H36  1  0.902800  0.703100  0.218000  1.0  0.1201
  H  H37  1  0.825100  0.777800  0.275900  1.0  0.0963
  H  H38  1  0.644400  0.710500  0.369100  1.0  0.1182
  H  H39  1  0.537100  0.565400  0.402200  1.0  0.0866
  H  H40  1  0.205300  0.963300  0.531800  1.0  0.1191
  H  H41  1  0.427900  0.936400  0.634200  1.0  0.1255
  H  H42  1  0.322900  0.784600  0.716400  1.0  0.0796
  H  H43  1  0.444800  0.084500  0.611300  1.0  0.1223
  H  H44  1  0.360700  0.084800  0.412700  1.0  0.1206
  H  H45  1  0.440600  0.240000  0.336900  1.0  0.0873
  H  H46  1  0.941000  0.738600  0.819200  1.0  0.0685
  H  H47  1  0.879200  0.782000  0.921100  1.0  0.1191
  H  H48  1  0.899000  0.724100  0.053700  1.0  0.1015
  H  H49  1  0.986500  0.630900  0.079600  1.0  0.1163
  H  H50  1  0.060700  0.597800  0.967600  1.0  0.0869
  H  H51  1  0.737100  0.531800  0.504900  1.0  0.1176
  H  H52  1  0.062100  0.634200  0.429400  1.0  0.1284
  H  H53  1  0.039300  0.716400  0.499000  1.0  0.0766
  H  H54  1  0.056100  0.611300  0.304200  1.0  0.1215
  H  H55  1  0.773400  0.412700  0.502500  1.0  0.1213
  H  H56  1  0.777500  0.336900  0.423100  1.0  0.0867
  H  H57  1  0.760200  0.819200  0.442200  1.0  0.0673
  H  H58  1  0.800300  0.921100  0.296900  1.0  0.1191
  H  H59  1  0.952700  0.053700  0.222200  1.0  0.0995
  H  H60  1  0.066100  0.079600  0.289500  1.0  0.1172
  H  H61  1  0.028300  0.967600  0.434600  1.0  0.0862
  H  H62  1  0.242000  0.504900  0.963300  1.0  0.1177
  H  H63  1  0.491500  0.429400  0.936400  1.0  0.1263
  H  H64  1  0.538300  0.499000  0.784600  1.0  0.0771
  H  H65  1  0.360300  0.304200  0.084500  1.0  0.1223
  H  H66  1  0.275900  0.502500  0.084800  1.0  0.1218
  H  H67  1  0.200600  0.423100  0.240000  1.0  0.0866
  H  H68  1  0.202400  0.442200  0.738600  1.0  0.066
  H  H69  1  0.097200  0.296900  0.782000  1.0  0.12
  H  H70  1  0.174900  0.222200  0.724100  1.0  0.0989
  H  H71  1  0.355600  0.289500  0.630900  1.0  0.1175
  H  H72  1  0.462900  0.434600  0.597800  1.0  0.0871
  C  C73  1  0.829200  0.161400  0.377500  1.0  0.1143
  C  C74  1  0.770100  0.071700  0.429400  1.0  -0.1303
  C  C75  1  0.671400  0.031900  0.424700  1.0  0.1004
  C  C76  1  0.637800  0.086900  0.370200  1.0  -0.1952
  C  C77  1  0.701700  0.178500  0.320500  1.0  0.178
  C  C78  1  0.939800  0.205100  0.376500  1.0  0.5869
  C  C79  1  0.511500  0.794000  0.490100  1.0  0.1119
  C  C80  1  0.558400  0.885100  0.443500  1.0  -0.1386
  C  C81  1  0.610600  0.933300  0.477300  1.0  0.0648
  C  C82  1  0.608200  0.885200  0.561500  1.0  -0.1728
  C  C83  1  0.559100  0.791600  0.607400  1.0  0.1698
  C  C84  1  0.458900  0.738000  0.457800  1.0  0.5978
  C  C85  1  0.047100  0.282700  0.128600  1.0  0.1594
  C  C86  1  0.086300  0.257300  0.066900  1.0  -0.1844
  C  C87  1  0.073500  0.290800  0.989100  1.0  0.0068
  C  C88  1  0.021700  0.345100  0.974100  1.0  -0.1605
  C  C89  1  0.978400  0.366200  0.041700  1.0  0.1721
  C  C90  1  0.206700  0.377500  0.461100  1.0  0.1156
  C  C91  1  0.199500  0.429400  0.498900  1.0  -0.1315
  C  C92  1  0.096100  0.424700  0.543400  1.0  0.1002
  C  C93  1  0.008000  0.370200  0.542900  1.0  -0.1992
  C  C94  1  0.022200  0.320500  0.501000  1.0  0.1792
  C  C95  1  0.316300  0.376500  0.418400  1.0  0.5892
  C  C96  1  0.001600  0.490100  0.715900  1.0  0.1128
  C  C97  1  0.001900  0.443500  0.671400  1.0  -0.139
  C  C98  1  0.087900  0.477300  0.589400  1.0  0.0649
  C  C99  1  0.169700  0.561500  0.553300  1.0  -0.1728
  C  C100  1  0.166500  0.607400  0.601000  1.0  0.1717
  C  C101  1  0.916700  0.457800  0.804200  1.0  0.5942
  C  C102  1  0.175700  0.128600  0.588700  1.0  0.1596
  C  C103  1  0.153200  0.066900  0.675800  1.0  -0.1792
  C  C104  1  0.062600  0.989100  0.720100  1.0  0.0073
  C  C105  1  0.995800  0.974100  0.680800  1.0  -0.1554
  C  C106  1  0.020100  0.041700  0.592100  1.0  0.1759
  C  C107  1  0.667800  0.461100  0.161400  1.0  0.1149
  C  C108  1  0.698400  0.498900  0.071700  1.0  -0.1335
  C  C109  1  0.639500  0.543400  0.031900  1.0  0.0992
  C  C110  1  0.550900  0.542900  0.086900  1.0  -0.1953
  C  C111  1  0.523200  0.501000  0.178500  1.0  0.1799
  C  C112  1  0.734700  0.418400  0.205100  1.0  0.591
  C  C113  1  0.717500  0.715900  0.794000  1.0  0.1142
  C  C114  1  0.673300  0.671400  0.885100  1.0  -0.1415
  C  C115  1  0.677300  0.589400  0.933300  1.0  0.0641
  C  C116  1  0.723000  0.553300  0.885200  1.0  -0.1732
  C  C117  1  0.767500  0.601000  0.791600  1.0  0.1716
  C  C118  1  0.720900  0.804200  0.738000  1.0  0.6002
  C  C119  1  0.764400  0.588700  0.282700  1.0  0.1583
  C  C120  1  0.829000  0.675800  0.257300  1.0  -0.178
  C  C121  1  0.782700  0.720100  0.290800  1.0  0.0066
  C  C122  1  0.676600  0.680800  0.345100  1.0  -0.1561
  C  C123  1  0.612200  0.592100  0.366200  1.0  0.1731
  C  C124  1  0.170800  0.838600  0.622500  1.0  0.1148
  C  C125  1  0.229900  0.928300  0.570600  1.0  -0.1315
  C  C126  1  0.328600  0.968100  0.575300  1.0  0.1013
  C  C127  1  0.362200  0.913100  0.629800  1.0  -0.1952
  C  C128  1  0.298300  0.821500  0.679500  1.0  0.1777
  C  C129  1  0.060200  0.794900  0.623500  1.0  0.5878
  C  C130  1  0.488500  0.206000  0.509900  1.0  0.1129
  C  C131  1  0.441600  0.114900  0.556500  1.0  -0.1389
  C  C132  1  0.389400  0.066700  0.522700  1.0  0.0664
  C  C133  1  0.391800  0.114800  0.438500  1.0  -0.1723
  C  C134  1  0.440900  0.208400  0.392600  1.0  0.1692
  C  C135  1  0.541100  0.262000  0.542200  1.0  0.6043
  C  C136  1  0.952900  0.717300  0.871400  1.0  0.1591
  C  C137  1  0.913700  0.742700  0.933100  1.0  -0.1851
  C  C138  1  0.926500  0.709200  0.010900  1.0  0.0065
  C  C139  1  0.978300  0.654900  0.025900  1.0  -0.1579
  C  C140  1  0.021600  0.633800  0.958300  1.0  0.1719
  C  C141  1  0.793300  0.622500  0.538900  1.0  0.1142
  C  C142  1  0.800500  0.570600  0.501100  1.0  -0.1306
  C  C143  1  0.903900  0.575300  0.456600  1.0  0.1003
  C  C144  1  0.992000  0.629800  0.457100  1.0  -0.1998
  C  C145  1  0.977800  0.679500  0.499000  1.0  0.1797
  C  C146  1  0.683700  0.623500  0.581600  1.0  0.5895
  C  C147  1  0.998400  0.509900  0.284100  1.0  0.1128
  C  C148  1  0.998100  0.556500  0.328600  1.0  -0.142
  C  C149  1  0.912100  0.522700  0.410600  1.0  0.0656
  C  C150  1  0.830300  0.438500  0.446700  1.0  -0.1706
  C  C151  1  0.833500  0.392600  0.399000  1.0  0.1706
  C  C152  1  0.083300  0.542200  0.195800  1.0  0.5946
  C  C153  1  0.824300  0.871400  0.411300  1.0  0.1593
  C  C154  1  0.846800  0.933100  0.324200  1.0  -0.1788
  C  C155  1  0.937400  0.010900  0.279900  1.0  0.0073
  C  C156  1  0.004200  0.025900  0.319200  1.0  -0.154
  C  C157  1  0.979900  0.958300  0.407900  1.0  0.1764
  C  C158  1  0.332200  0.538900  0.838600  1.0  0.1159
  C  C159  1  0.301600  0.501100  0.928300  1.0  -0.133
  C  C160  1  0.360500  0.456600  0.968100  1.0  0.0994
  C  C161  1  0.449100  0.457100  0.913100  1.0  -0.1954
  C  C162  1  0.476800  0.499000  0.821500  1.0  0.1795
  C  C163  1  0.265300  0.581600  0.794900  1.0  0.5882
  C  C164  1  0.282500  0.284100  0.206000  1.0  0.1152
  C  C165  1  0.326700  0.328600  0.114900  1.0  -0.1387
  C  C166  1  0.322700  0.410600  0.066700  1.0  0.0653
  C  C167  1  0.277000  0.446700  0.114800  1.0  -0.1741
  C  C168  1  0.232500  0.399000  0.208400  1.0  0.1712
  C  C169  1  0.279100  0.195800  0.262000  1.0  0.596
  C  C170  1  0.235600  0.411300  0.717300  1.0  0.1595
  C  C171  1  0.171000  0.324200  0.742700  1.0  -0.1814
  C  C172  1  0.217300  0.279900  0.709200  1.0  0.0057
  C  C173  1  0.323400  0.319200  0.654900  1.0  -0.1564
  C  C174  1  0.387800  0.407900  0.633800  1.0  0.1736
  N  N175  1  0.795100  0.214800  0.323500  1.0  -0.3335
  N  N176  1  0.511600  0.746700  0.572400  1.0  -0.3321
  N  N177  1  0.993400  0.335500  0.116900  1.0  -0.3326
  N  N178  1  0.118600  0.323500  0.461700  1.0  -0.3322
  N  N179  1  0.084000  0.572400  0.680900  1.0  -0.3334
  N  N180  1  0.110300  0.116900  0.547600  1.0  -0.3379
  N  N181  1  0.580300  0.461700  0.214800  1.0  -0.3322
  N  N182  1  0.764900  0.680900  0.746700  1.0  -0.3328
  N  N183  1  0.657900  0.547600  0.335500  1.0  -0.3377
  N  N184  1  0.204900  0.785200  0.676500  1.0  -0.3335
  N  N185  1  0.488400  0.253300  0.427600  1.0  -0.333
  N  N186  1  0.006600  0.664500  0.883100  1.0  -0.3328
  N  N187  1  0.881400  0.676500  0.538300  1.0  -0.3329
  N  N188  1  0.916000  0.427600  0.319100  1.0  -0.3323
  N  N189  1  0.889700  0.883100  0.452400  1.0  -0.3362
  N  N190  1  0.419700  0.538300  0.785200  1.0  -0.3343
  N  N191  1  0.235100  0.319100  0.253300  1.0  -0.3326
  N  N192  1  0.342100  0.452400  0.664500  1.0  -0.3375
  O  O193  1  0.996100  0.286800  0.320500  1.0  -0.5942
  O  O194  1  0.969900  0.156700  0.431300  1.0  -0.5754
  O  O195  1  0.432300  0.655400  0.498500  1.0  -0.6056
  O  O196  1  0.449200  0.778800  0.387000  1.0  -0.6029
  O  O197  1  0.316600  0.320500  0.392700  1.0  -0.5927
  O  O198  1  0.401200  0.431300  0.412000  1.0  -0.5736
  O  O199  1  0.930800  0.498500  0.846100  1.0  -0.6029
  O  O200  1  0.836200  0.387000  0.834200  1.0  -0.5699
  O  O201  1  0.709300  0.392700  0.286800  1.0  -0.5924
  O  O202  1  0.813200  0.412000  0.156700  1.0  -0.5723
  O  O203  1  0.776900  0.846100  0.655400  1.0  -0.6075
  O  O204  1  0.670400  0.834200  0.778800  1.0  -0.566
  O  O205  1  0.003900  0.713200  0.679500  1.0  -0.5947
  O  O206  1  0.030100  0.843300  0.568700  1.0  -0.5747
  O  O207  1  0.567700  0.344600  0.501500  1.0  -0.6072
  O  O208  1  0.550800  0.221200  0.613000  1.0  -0.6035
  O  O209  1  0.683400  0.679500  0.607300  1.0  -0.5925
  O  O210  1  0.598800  0.568700  0.588000  1.0  -0.5736
  O  O211  1  0.069200  0.501500  0.153900  1.0  -0.6042
  O  O212  1  0.163800  0.613000  0.165800  1.0  -0.5692
  O  O213  1  0.290700  0.607300  0.713200  1.0  -0.5906
  O  O214  1  0.186800  0.588000  0.843300  1.0  -0.5724
  O  O215  1  0.223100  0.153900  0.344600  1.0  -0.6066
  O  O216  1  0.329600  0.165800  0.221200  1.0  -0.5675
