# generated using pymatgen
data_EuH15C24NO8
_symmetry_space_group_name_H-M   'P 1'
_cell_length_a   15.84900000
_cell_length_b   10.27100000
_cell_length_c   21.17800000
_cell_angle_alpha   90.00000000
_cell_angle_beta   108.93600000
_cell_angle_gamma   90.00000000
_symmetry_Int_Tables_number   1
_chemical_formula_structural   EuH15C24NO8
_chemical_formula_sum   'Eu4 H60 C96 N4 O32'
_cell_volume   3260.89142190
_cell_formula_units_Z   4
loop_
 _symmetry_equiv_pos_site_id
 _symmetry_equiv_pos_as_xyz
  1  'x, y, z'
loop_
 _atom_site_type_symbol
 _atom_site_label
 _atom_site_symmetry_multiplicity
 _atom_site_fract_x
 _atom_site_fract_y
 _atom_site_fract_z
 _atom_site_occupancy
 _atom_site_charge
  Eu  Eu1  1  0.392560  0.540970  0.533380  1.0  2.116
  Eu  Eu2  1  0.607440  0.540970  0.966620  1.0  2.1135
  Eu  Eu3  1  0.607440  0.459030  0.466620  1.0  2.1155
  Eu  Eu4  1  0.392560  0.459030  0.033380  1.0  2.1167
  H  H5  1  0.419300  0.542700  0.268500  1.0  0.122
  H  H6  1  0.212700  0.733000  0.143100  1.0  0.1193
  H  H7  1  0.274400  0.782900  0.343200  1.0  0.1113
  H  H8  1  0.148700  0.912200  0.136800  1.0  0.119
  H  H9  1  0.097000  0.008900  0.168000  1.0  0.1282
  H  H10  1  0.041100  0.694000  0.192200  1.0  0.1067
  H  H11  1  0.910300  0.588600  0.133900  1.0  0.1131
  H  H12  1  0.842500  0.884500  0.003100  1.0  0.1111
  H  H13  1  0.978100  0.983200  0.056700  1.0  0.1199
  H  H14  1  0.146500  0.878500  0.320900  1.0  0.1013
  H  H15  1  0.091300  0.984600  0.271700  1.0  0.1222
  H  H16  1  0.171800  0.092500  0.391500  1.0  0.1092
  H  H17  1  0.276200  0.246300  0.441700  1.0  0.1171
  H  H18  1  0.401200  0.172800  0.307000  1.0  0.1277
  H  H19  1  0.290800  0.027600  0.256200  1.0  0.1049
  H  H20  1  0.580700  0.542700  0.231500  1.0  0.1218
  H  H21  1  0.787300  0.733000  0.356900  1.0  0.1208
  H  H22  1  0.725600  0.782900  0.156800  1.0  0.1109
  H  H23  1  0.851300  0.912200  0.363200  1.0  0.1197
  H  H24  1  0.903000  0.008900  0.332000  1.0  0.1288
  H  H25  1  0.958900  0.694000  0.307800  1.0  0.1069
  H  H26  1  0.089700  0.588600  0.366100  1.0  0.1131
  H  H27  1  0.157500  0.884500  0.496900  1.0  0.1113
  H  H28  1  0.021900  0.983200  0.443300  1.0  0.1198
  H  H29  1  0.853500  0.878500  0.179100  1.0  0.1011
  H  H30  1  0.908700  0.984600  0.228300  1.0  0.1227
  H  H31  1  0.828200  0.092500  0.108500  1.0  0.1091
  H  H32  1  0.723800  0.246300  0.058300  1.0  0.1168
  H  H33  1  0.598800  0.172800  0.193000  1.0  0.1283
  H  H34  1  0.709200  0.027600  0.243800  1.0  0.1047
  H  H35  1  0.580700  0.457300  0.731500  1.0  0.1221
  H  H36  1  0.787300  0.267000  0.856900  1.0  0.1204
  H  H37  1  0.725600  0.217100  0.656800  1.0  0.1113
  H  H38  1  0.851300  0.087800  0.863200  1.0  0.1203
  H  H39  1  0.903000  0.991100  0.832000  1.0  0.1273
  H  H40  1  0.958900  0.306000  0.807800  1.0  0.1078
  H  H41  1  0.089700  0.411400  0.866100  1.0  0.1149
  H  H42  1  0.157500  0.115500  0.996900  1.0  0.1117
  H  H43  1  0.021900  0.016800  0.943300  1.0  0.1197
  H  H44  1  0.853500  0.121500  0.679100  1.0  0.101
  H  H45  1  0.908700  0.015400  0.728300  1.0  0.123
  H  H46  1  0.828200  0.907500  0.608500  1.0  0.1096
  H  H47  1  0.723800  0.753700  0.558300  1.0  0.1169
  H  H48  1  0.598800  0.827200  0.693000  1.0  0.1283
  H  H49  1  0.709200  0.972400  0.743800  1.0  0.1049
  H  H50  1  0.419300  0.457300  0.768500  1.0  0.1221
  H  H51  1  0.212700  0.267000  0.643100  1.0  0.1192
  H  H52  1  0.274400  0.217100  0.843200  1.0  0.1109
  H  H53  1  0.148700  0.087800  0.636800  1.0  0.119
  H  H54  1  0.097000  0.991100  0.668000  1.0  0.1263
  H  H55  1  0.041100  0.306000  0.692200  1.0  0.1066
  H  H56  1  0.910300  0.411400  0.633900  1.0  0.1141
  H  H57  1  0.842500  0.115500  0.503100  1.0  0.111
  H  H58  1  0.978100  0.016800  0.556700  1.0  0.1198
  H  H59  1  0.146500  0.121500  0.820900  1.0  0.1009
  H  H60  1  0.091300  0.015400  0.771700  1.0  0.1227
  H  H61  1  0.171800  0.907500  0.891500  1.0  0.1097
  H  H62  1  0.276200  0.753700  0.941700  1.0  0.1172
  H  H63  1  0.401200  0.827200  0.807000  1.0  0.1277
  H  H64  1  0.290800  0.972400  0.756200  1.0  0.1054
  C  C65  1  0.415600  0.631800  0.386300  1.0  0.7668
  C  C66  1  0.354400  0.660400  0.315000  1.0  -0.0942
  C  C67  1  0.371800  0.600000  0.261400  1.0  -0.0137
  C  C68  1  0.316700  0.627700  0.197900  1.0  -0.062
  C  C69  1  0.248200  0.715600  0.186800  1.0  -0.1139
  C  C70  1  0.229800  0.781400  0.240900  1.0  0.1438
  C  C71  1  0.285100  0.746900  0.306300  1.0  -0.1565
  C  C72  1  0.336200  0.565100  0.139000  1.0  0.7134
  C  C73  1  0.110800  0.917600  0.164700  1.0  -0.1172
  C  C74  1  0.026900  0.848200  0.130700  1.0  0.0837
  C  C75  1  0.003300  0.731100  0.153200  1.0  -0.0922
  C  C76  1  0.923700  0.668000  0.118300  1.0  -0.047
  C  C77  1  0.863600  0.721400  0.060300  1.0  -0.1406
  C  C78  1  0.883500  0.843600  0.039400  1.0  -0.0437
  C  C79  1  0.964500  0.904300  0.072700  1.0  -0.1111
  C  C80  1  0.780500  0.655800  0.023800  1.0  0.6964
  C  C81  1  0.148700  0.941100  0.287200  1.0  -0.0913
  C  C82  1  0.220500  0.042200  0.319600  1.0  0.0592
  C  C83  1  0.218100  0.108700  0.374600  1.0  -0.1174
  C  C84  1  0.282100  0.199100  0.405900  1.0  -0.098
  C  C85  1  0.355700  0.221300  0.384800  1.0  -0.0638
  C  C86  1  0.356100  0.156300  0.325100  1.0  -0.1065
  C  C87  1  0.289600  0.069600  0.294800  1.0  -0.1002
  C  C88  1  0.434100  0.304800  0.421300  1.0  0.7485
  C  C89  1  0.584400  0.631800  0.113700  1.0  0.7673
  C  C90  1  0.645600  0.660400  0.185000  1.0  -0.0954
  C  C91  1  0.628200  0.600000  0.238600  1.0  -0.0131
  C  C92  1  0.683300  0.627700  0.302100  1.0  -0.0616
  C  C93  1  0.751800  0.715600  0.313200  1.0  -0.1131
  C  C94  1  0.770200  0.781400  0.259100  1.0  0.1422
  C  C95  1  0.714900  0.746900  0.193700  1.0  -0.1558
  C  C96  1  0.663800  0.565100  0.361000  1.0  0.7141
  C  C97  1  0.889200  0.917600  0.335300  1.0  -0.1174
  C  C98  1  0.973100  0.848200  0.369300  1.0  0.0856
  C  C99  1  0.996700  0.731100  0.346800  1.0  -0.0889
  C  C100  1  0.076300  0.668000  0.381700  1.0  -0.0462
  C  C101  1  0.136400  0.721400  0.439700  1.0  -0.1395
  C  C102  1  0.116500  0.843600  0.460600  1.0  -0.0465
  C  C103  1  0.035500  0.904300  0.427300  1.0  -0.1134
  C  C104  1  0.219500  0.655800  0.476200  1.0  0.6966
  C  C105  1  0.851300  0.941100  0.212800  1.0  -0.0905
  C  C106  1  0.779500  0.042200  0.180400  1.0  0.06
  C  C107  1  0.781900  0.108700  0.125400  1.0  -0.1174
  C  C108  1  0.717900  0.199100  0.094100  1.0  -0.0982
  C  C109  1  0.644300  0.221300  0.115200  1.0  -0.0629
  C  C110  1  0.643900  0.156300  0.174900  1.0  -0.1074
  C  C111  1  0.710400  0.069600  0.205200  1.0  -0.0987
  C  C112  1  0.565900  0.304800  0.078700  1.0  0.749
  C  C113  1  0.584400  0.368200  0.613700  1.0  0.7671
  C  C114  1  0.645600  0.339600  0.685000  1.0  -0.095
  C  C115  1  0.628200  0.400000  0.738600  1.0  -0.0134
  C  C116  1  0.683300  0.372300  0.802100  1.0  -0.0615
  C  C117  1  0.751800  0.284400  0.813200  1.0  -0.1131
  C  C118  1  0.770200  0.218600  0.759100  1.0  0.1427
  C  C119  1  0.714900  0.253100  0.693700  1.0  -0.156
  C  C120  1  0.663800  0.434900  0.861000  1.0  0.713
  C  C121  1  0.889200  0.082400  0.835300  1.0  -0.1177
  C  C122  1  0.973100  0.151800  0.869300  1.0  0.0855
  C  C123  1  0.996700  0.268900  0.846800  1.0  -0.09
  C  C124  1  0.076300  0.332000  0.881700  1.0  -0.0447
  C  C125  1  0.136400  0.278600  0.939700  1.0  -0.1389
  C  C126  1  0.116500  0.156400  0.960600  1.0  -0.0468
  C  C127  1  0.035500  0.095700  0.927300  1.0  -0.1129
  C  C128  1  0.219500  0.344200  0.976200  1.0  0.6962
  C  C129  1  0.851300  0.058900  0.712800  1.0  -0.0923
  C  C130  1  0.779500  0.957800  0.680400  1.0  0.0606
  C  C131  1  0.781900  0.891300  0.625400  1.0  -0.118
  C  C132  1  0.717900  0.800900  0.594100  1.0  -0.0986
  C  C133  1  0.644300  0.778700  0.615200  1.0  -0.0632
  C  C134  1  0.643900  0.843700  0.674900  1.0  -0.1074
  C  C135  1  0.710400  0.930400  0.705200  1.0  -0.099
  C  C136  1  0.565900  0.695200  0.578700  1.0  0.7485
  C  C137  1  0.415600  0.368200  0.886300  1.0  0.7673
  C  C138  1  0.354400  0.339600  0.815000  1.0  -0.0942
  C  C139  1  0.371800  0.400000  0.761400  1.0  -0.0141
  C  C140  1  0.316700  0.372300  0.697900  1.0  -0.0611
  C  C141  1  0.248200  0.284400  0.686800  1.0  -0.1134
  C  C142  1  0.229800  0.218600  0.740900  1.0  0.1432
  C  C143  1  0.285100  0.253100  0.806300  1.0  -0.157
  C  C144  1  0.336200  0.434900  0.639000  1.0  0.7126
  C  C145  1  0.110800  0.082400  0.664700  1.0  -0.1168
  C  C146  1  0.026900  0.151800  0.630700  1.0  0.0838
  C  C147  1  0.003300  0.268900  0.653200  1.0  -0.0897
  C  C148  1  0.923700  0.332000  0.618300  1.0  -0.0459
  C  C149  1  0.863600  0.278600  0.560300  1.0  -0.1364
  C  C150  1  0.883500  0.156400  0.539400  1.0  -0.0437
  C  C151  1  0.964500  0.095700  0.572700  1.0  -0.112
  C  C152  1  0.780500  0.344200  0.523800  1.0  0.6959
  C  C153  1  0.148700  0.058900  0.787200  1.0  -0.0914
  C  C154  1  0.220500  0.957800  0.819600  1.0  0.0594
  C  C155  1  0.218100  0.891300  0.874600  1.0  -0.1175
  C  C156  1  0.282100  0.800900  0.905900  1.0  -0.0979
  C  C157  1  0.355700  0.778700  0.884800  1.0  -0.0637
  C  C158  1  0.356100  0.843700  0.825100  1.0  -0.1064
  C  C159  1  0.289600  0.930400  0.794800  1.0  -0.0997
  C  C160  1  0.434100  0.695200  0.921300  1.0  0.7484
  N  N161  1  0.161900  0.871100  0.231500  1.0  -0.1297
  N  N162  1  0.838100  0.871100  0.268500  1.0  -0.131
  N  N163  1  0.838100  0.128900  0.768500  1.0  -0.1311
  N  N164  1  0.161900  0.128900  0.731500  1.0  -0.1295
  O  O165  1  0.389800  0.660900  0.435300  1.0  -0.7096
  O  O166  1  0.369000  0.456200  0.145000  1.0  -0.6008
  O  O167  1  0.316400  0.628800  0.083300  1.0  -0.6973
  O  O168  1  0.766300  0.538600  0.039800  1.0  -0.614
  O  O169  1  0.719600  0.714500  0.977100  1.0  -0.6228
  O  O170  1  0.423500  0.384200  0.464300  1.0  -0.7944
  O  O171  1  0.506900  0.290200  0.409900  1.0  -0.6136
  O  O172  1  0.491000  0.580300  0.391500  1.0  -0.7125
  O  O173  1  0.610200  0.660900  0.064700  1.0  -0.7109
  O  O174  1  0.631000  0.456200  0.355000  1.0  -0.6008
  O  O175  1  0.683600  0.628800  0.416700  1.0  -0.6967
  O  O176  1  0.233700  0.538600  0.460200  1.0  -0.6132
  O  O177  1  0.280400  0.714500  0.522900  1.0  -0.6229
  O  O178  1  0.576500  0.384200  0.035700  1.0  -0.7939
  O  O179  1  0.493100  0.290200  0.090100  1.0  -0.6127
  O  O180  1  0.509000  0.580300  0.108500  1.0  -0.7131
  O  O181  1  0.610200  0.339100  0.564700  1.0  -0.7113
  O  O182  1  0.631000  0.543800  0.855000  1.0  -0.6025
  O  O183  1  0.683600  0.371200  0.916700  1.0  -0.6946
  O  O184  1  0.233700  0.461400  0.960200  1.0  -0.6149
  O  O185  1  0.280400  0.285500  0.022900  1.0  -0.6241
  O  O186  1  0.576500  0.615800  0.535700  1.0  -0.7947
  O  O187  1  0.493100  0.709800  0.590100  1.0  -0.6145
  O  O188  1  0.509000  0.419700  0.608500  1.0  -0.7126
  O  O189  1  0.389800  0.339100  0.935300  1.0  -0.709
  O  O190  1  0.369000  0.543800  0.645000  1.0  -0.604
  O  O191  1  0.316400  0.371200  0.583300  1.0  -0.6964
  O  O192  1  0.766300  0.461400  0.539800  1.0  -0.6143
  O  O193  1  0.719600  0.285500  0.477100  1.0  -0.6218
  O  O194  1  0.423500  0.615800  0.964300  1.0  -0.7951
  O  O195  1  0.506900  0.709800  0.909900  1.0  -0.6155
  O  O196  1  0.491000  0.419700  0.891500  1.0  -0.7125
