# generated using pymatgen
data_TbH15C24NO8
_symmetry_space_group_name_H-M   'P 1'
_cell_length_a   15.17500000
_cell_length_b   10.92700000
_cell_length_c   20.71800000
_cell_angle_alpha   90.00000000
_cell_angle_beta   108.44100000
_cell_angle_gamma   90.00000000
_symmetry_Int_Tables_number   1
_chemical_formula_structural   TbH15C24NO8
_chemical_formula_sum   'Tb4 H60 C96 N4 O32'
_cell_volume   3258.99305177
_cell_formula_units_Z   4
loop_
 _symmetry_equiv_pos_site_id
 _symmetry_equiv_pos_as_xyz
  1  'x, y, z'
loop_
 _atom_site_type_symbol
 _atom_site_label
 _atom_site_symmetry_multiplicity
 _atom_site_fract_x
 _atom_site_fract_y
 _atom_site_fract_z
 _atom_site_occupancy
 _atom_site_charge
  Tb  Tb1  1  0.613690  0.035610  0.967090  1.0  2.2447
  Tb  Tb2  1  0.386310  0.035610  0.532910  1.0  2.2513
  Tb  Tb3  1  0.386310  0.964390  0.032910  1.0  2.2513
  Tb  Tb4  1  0.613690  0.964390  0.467090  1.0  2.2506
  H  H5  1  0.917100  0.102700  0.141100  1.0  0.1124
  H  H6  1  0.850400  0.361800  0.997000  1.0  0.1107
  H  H7  1  0.982200  0.470800  0.055200  1.0  0.1048
  H  H8  1  0.047400  0.211500  0.199400  1.0  0.0979
  H  H9  1  0.156100  0.427700  0.141900  1.0  0.1109
  H  H10  1  0.096100  0.508100  0.174500  1.0  0.1215
  H  H11  1  0.212700  0.251600  0.144800  1.0  0.1136
  H  H12  1  0.280600  0.285700  0.349000  1.0  0.1047
  H  H13  1  0.419100  0.048900  0.268600  1.0  0.1132
  H  H14  1  0.156000  0.383000  0.329700  1.0  0.0985
  H  H15  1  0.095000  0.482000  0.281100  1.0  0.1146
  H  H16  1  0.165300  0.605000  0.391000  1.0  0.1047
  H  H17  1  0.316900  0.506800  0.275500  1.0  0.0976
  H  H18  1  0.268400  0.756700  0.438800  1.0  0.1117
  H  H19  1  0.424200  0.653100  0.325000  1.0  0.1135
  H  H20  1  0.082900  0.102700  0.358900  1.0  0.1121
  H  H21  1  0.149600  0.361800  0.503000  1.0  0.1108
  H  H22  1  0.017800  0.470800  0.444800  1.0  0.105
  H  H23  1  0.952600  0.211500  0.300600  1.0  0.098
  H  H24  1  0.843900  0.427700  0.358100  1.0  0.1116
  H  H25  1  0.903900  0.508100  0.325500  1.0  0.121
  H  H26  1  0.787300  0.251600  0.355200  1.0  0.1134
  H  H27  1  0.719400  0.285700  0.151000  1.0  0.1052
  H  H28  1  0.580900  0.048900  0.231400  1.0  0.1135
  H  H29  1  0.844000  0.383000  0.170300  1.0  0.0988
  H  H30  1  0.905000  0.482000  0.218900  1.0  0.1145
  H  H31  1  0.834700  0.605000  0.109000  1.0  0.1043
  H  H32  1  0.683100  0.506800  0.224500  1.0  0.0968
  H  H33  1  0.731600  0.756700  0.061200  1.0  0.1111
  H  H34  1  0.575800  0.653100  0.175000  1.0  0.1134
  H  H35  1  0.082900  0.897300  0.858900  1.0  0.1133
  H  H36  1  0.149600  0.638200  0.003000  1.0  0.111
  H  H37  1  0.017800  0.529200  0.944800  1.0  0.1053
  H  H38  1  0.952600  0.788500  0.800600  1.0  0.0989
  H  H39  1  0.843900  0.572300  0.858100  1.0  0.1122
  H  H40  1  0.903900  0.491900  0.825500  1.0  0.1185
  H  H41  1  0.787300  0.748400  0.855200  1.0  0.1135
  H  H42  1  0.719400  0.714300  0.651000  1.0  0.1056
  H  H43  1  0.580900  0.951100  0.731400  1.0  0.1136
  H  H44  1  0.844000  0.617000  0.670300  1.0  0.0994
  H  H45  1  0.905000  0.518000  0.718900  1.0  0.1153
  H  H46  1  0.834700  0.395000  0.609000  1.0  0.1046
  H  H47  1  0.683100  0.493200  0.724500  1.0  0.0967
  H  H48  1  0.731600  0.243300  0.561200  1.0  0.111
  H  H49  1  0.575800  0.346900  0.675000  1.0  0.1134
  H  H50  1  0.917100  0.897300  0.641100  1.0  0.113
  H  H51  1  0.850400  0.638200  0.497000  1.0  0.1106
  H  H52  1  0.982200  0.529200  0.555200  1.0  0.1049
  H  H53  1  0.047400  0.788500  0.699400  1.0  0.0983
  H  H54  1  0.156100  0.572300  0.641900  1.0  0.1112
  H  H55  1  0.096100  0.491900  0.674500  1.0  0.1191
  H  H56  1  0.212700  0.748400  0.644800  1.0  0.1139
  H  H57  1  0.280600  0.714300  0.849000  1.0  0.1047
  H  H58  1  0.419100  0.951100  0.768600  1.0  0.1132
  H  H59  1  0.156000  0.617000  0.829700  1.0  0.0988
  H  H60  1  0.095000  0.518000  0.781100  1.0  0.1151
  H  H61  1  0.165300  0.395000  0.891000  1.0  0.105
  H  H62  1  0.316900  0.493200  0.775500  1.0  0.0975
  H  H63  1  0.268400  0.243300  0.938800  1.0  0.1119
  H  H64  1  0.424200  0.346900  0.825000  1.0  0.1135
  C  C65  1  0.785900  0.149200  0.024100  1.0  0.6829
  C  C66  1  0.870900  0.219500  0.062500  1.0  -0.1468
  C  C67  1  0.930100  0.176300  0.123400  1.0  -0.043
  C  C68  1  0.890600  0.330900  0.037500  1.0  -0.0207
  C  C69  1  0.969700  0.396300  0.072300  1.0  -0.1294
  C  C70  1  0.030700  0.350600  0.133100  1.0  0.1073
  C  C71  1  0.008600  0.241500  0.158200  1.0  -0.0879
  C  C72  1  0.115600  0.424900  0.169900  1.0  -0.0906
  C  C73  1  0.234100  0.289000  0.244900  1.0  0.143
  C  C74  1  0.248500  0.229500  0.188600  1.0  -0.2051
  C  C75  1  0.290100  0.251100  0.310700  1.0  -0.137
  C  C76  1  0.358300  0.163800  0.318600  1.0  -0.1268
  C  C77  1  0.417700  0.127300  0.389000  1.0  0.7605
  C  C78  1  0.372400  0.106900  0.262700  1.0  -0.0074
  C  C79  1  0.315000  0.138600  0.197500  1.0  -0.113
  C  C80  1  0.328000  0.074700  0.136500  1.0  0.7297
  C  C81  1  0.155600  0.443300  0.295200  1.0  -0.0862
  C  C82  1  0.228700  0.539900  0.326800  1.0  0.1033
  C  C83  1  0.217300  0.615400  0.377000  1.0  -0.1137
  C  C84  1  0.307100  0.556500  0.309000  1.0  -0.1214
  C  C85  1  0.279900  0.705000  0.406700  1.0  -0.0848
  C  C86  1  0.372000  0.644300  0.338900  1.0  -0.0711
  C  C87  1  0.361000  0.719700  0.389300  1.0  -0.0687
  C  C88  1  0.432700  0.813200  0.423000  1.0  0.7255
  C  C89  1  0.214100  0.149200  0.475900  1.0  0.6837
  C  C90  1  0.129100  0.219500  0.437500  1.0  -0.1404
  C  C91  1  0.069900  0.176300  0.376600  1.0  -0.0413
  C  C92  1  0.109400  0.330900  0.462500  1.0  -0.0236
  C  C93  1  0.030300  0.396300  0.427700  1.0  -0.1294
  C  C94  1  0.969300  0.350600  0.366900  1.0  0.1078
  C  C95  1  0.991400  0.241500  0.341800  1.0  -0.0844
  C  C96  1  0.884400  0.424900  0.330100  1.0  -0.0919
  C  C97  1  0.765900  0.289000  0.255100  1.0  0.1423
  C  C98  1  0.751500  0.229500  0.311400  1.0  -0.2049
  C  C99  1  0.709900  0.251100  0.189300  1.0  -0.1374
  C  C100  1  0.641700  0.163800  0.181400  1.0  -0.1274
  C  C101  1  0.582300  0.127300  0.111000  1.0  0.7611
  C  C102  1  0.627600  0.106900  0.237300  1.0  -0.0083
  C  C103  1  0.685000  0.138600  0.302500  1.0  -0.1125
  C  C104  1  0.672000  0.074700  0.363500  1.0  0.7301
  C  C105  1  0.844400  0.443300  0.204800  1.0  -0.0848
  C  C106  1  0.771300  0.539900  0.173200  1.0  0.1042
  C  C107  1  0.782700  0.615400  0.123000  1.0  -0.1148
  C  C108  1  0.692900  0.556500  0.191000  1.0  -0.1199
  C  C109  1  0.720100  0.705000  0.093300  1.0  -0.086
  C  C110  1  0.628000  0.644300  0.161100  1.0  -0.0708
  C  C111  1  0.639000  0.719700  0.110700  1.0  -0.0692
  C  C112  1  0.567300  0.813200  0.077000  1.0  0.7262
  C  C113  1  0.214100  0.850800  0.975900  1.0  0.6836
  C  C114  1  0.129100  0.780500  0.937500  1.0  -0.1419
  C  C115  1  0.069900  0.823700  0.876600  1.0  -0.0354
  C  C116  1  0.109400  0.669100  0.962500  1.0  -0.0236
  C  C117  1  0.030300  0.603700  0.927700  1.0  -0.1297
  C  C118  1  0.969300  0.649400  0.866900  1.0  0.1077
  C  C119  1  0.991400  0.758500  0.841800  1.0  -0.0861
  C  C120  1  0.884400  0.575100  0.830100  1.0  -0.0899
  C  C121  1  0.765900  0.711000  0.755100  1.0  0.1429
  C  C122  1  0.751500  0.770500  0.811400  1.0  -0.2042
  C  C123  1  0.709900  0.748900  0.689300  1.0  -0.1374
  C  C124  1  0.641700  0.836200  0.681400  1.0  -0.1269
  C  C125  1  0.582300  0.872700  0.611000  1.0  0.7616
  C  C126  1  0.627600  0.893100  0.737300  1.0  -0.0083
  C  C127  1  0.685000  0.861400  0.802500  1.0  -0.1126
  C  C128  1  0.672000  0.925300  0.863500  1.0  0.7302
  C  C129  1  0.844400  0.556700  0.704800  1.0  -0.0853
  C  C130  1  0.771300  0.460100  0.673200  1.0  0.1042
  C  C131  1  0.782700  0.384600  0.623000  1.0  -0.1149
  C  C132  1  0.692900  0.443500  0.691000  1.0  -0.1189
  C  C133  1  0.720100  0.295000  0.593300  1.0  -0.0859
  C  C134  1  0.628000  0.355700  0.661100  1.0  -0.0706
  C  C135  1  0.639000  0.280300  0.610700  1.0  -0.0701
  C  C136  1  0.567300  0.186800  0.577000  1.0  0.7257
  C  C137  1  0.785900  0.850800  0.524100  1.0  0.6823
  C  C138  1  0.870900  0.780500  0.562500  1.0  -0.1432
  C  C139  1  0.930100  0.823700  0.623400  1.0  -0.0377
  C  C140  1  0.890600  0.669100  0.537500  1.0  -0.0206
  C  C141  1  0.969700  0.603700  0.572300  1.0  -0.1293
  C  C142  1  0.030700  0.649400  0.633100  1.0  0.108
  C  C143  1  0.008600  0.758500  0.658200  1.0  -0.0866
  C  C144  1  0.115600  0.575100  0.669900  1.0  -0.0891
  C  C145  1  0.234100  0.711000  0.744900  1.0  0.1425
  C  C146  1  0.248500  0.770500  0.688600  1.0  -0.2048
  C  C147  1  0.290100  0.748900  0.810700  1.0  -0.1369
  C  C148  1  0.358300  0.836200  0.818600  1.0  -0.1267
  C  C149  1  0.417700  0.872700  0.889000  1.0  0.7613
  C  C150  1  0.372400  0.893100  0.762700  1.0  -0.0075
  C  C151  1  0.315000  0.861400  0.697500  1.0  -0.1122
  C  C152  1  0.328000  0.925300  0.636500  1.0  0.73
  C  C153  1  0.155600  0.556700  0.795200  1.0  -0.0856
  C  C154  1  0.228700  0.460100  0.826800  1.0  0.1038
  C  C155  1  0.217300  0.384600  0.877000  1.0  -0.1138
  C  C156  1  0.307100  0.443500  0.809000  1.0  -0.1212
  C  C157  1  0.279900  0.295000  0.906700  1.0  -0.0845
  C  C158  1  0.372000  0.355700  0.838900  1.0  -0.071
  C  C159  1  0.361000  0.280300  0.889300  1.0  -0.0693
  C  C160  1  0.432700  0.186800  0.923000  1.0  0.7255
  N  N161  1  0.168900  0.380600  0.236800  1.0  -0.1268
  N  N162  1  0.831100  0.380600  0.263200  1.0  -0.1277
  N  N163  1  0.831100  0.619400  0.763200  1.0  -0.1277
  N  N164  1  0.168900  0.619400  0.736800  1.0  -0.1262
  O  O165  1  0.725800  0.197900  0.974200  1.0  -0.6221
  O  O166  1  0.774800  0.042400  0.042900  1.0  -0.6859
  O  O167  1  0.307500  0.127500  0.080000  1.0  -0.6255
  O  O168  1  0.361100  0.968500  0.143600  1.0  -0.6406
  O  O169  1  0.493100  0.075900  0.392900  1.0  -0.69
  O  O170  1  0.389200  0.152700  0.437600  1.0  -0.6905
  O  O171  1  0.508300  0.810700  0.411900  1.0  -0.6486
  O  O172  1  0.413000  0.889100  0.462300  1.0  -0.7563
  O  O173  1  0.274200  0.197900  0.525800  1.0  -0.6215
  O  O174  1  0.225200  0.042400  0.457100  1.0  -0.6851
  O  O175  1  0.692500  0.127500  0.420000  1.0  -0.6259
  O  O176  1  0.638900  0.968500  0.356400  1.0  -0.6412
  O  O177  1  0.506900  0.075900  0.107100  1.0  -0.69
  O  O178  1  0.610800  0.152700  0.062400  1.0  -0.6914
  O  O179  1  0.491700  0.810700  0.088100  1.0  -0.6488
  O  O180  1  0.587000  0.889100  0.037700  1.0  -0.7557
  O  O181  1  0.274200  0.802100  0.025800  1.0  -0.6227
  O  O182  1  0.225200  0.957600  0.957100  1.0  -0.6877
  O  O183  1  0.692500  0.872500  0.920000  1.0  -0.6251
  O  O184  1  0.638900  0.031500  0.856400  1.0  -0.6408
  O  O185  1  0.506900  0.924100  0.607100  1.0  -0.6899
  O  O186  1  0.610800  0.847300  0.562400  1.0  -0.692
  O  O187  1  0.491700  0.189300  0.588100  1.0  -0.6506
  O  O188  1  0.587000  0.110900  0.537700  1.0  -0.7549
  O  O189  1  0.725800  0.802100  0.474200  1.0  -0.622
  O  O190  1  0.774800  0.957600  0.542900  1.0  -0.6867
  O  O191  1  0.307500  0.872500  0.580000  1.0  -0.6257
  O  O192  1  0.361100  0.031500  0.643600  1.0  -0.6424
  O  O193  1  0.493100  0.924100  0.892900  1.0  -0.6902
  O  O194  1  0.389200  0.847300  0.937600  1.0  -0.6903
  O  O195  1  0.508300  0.189300  0.911900  1.0  -0.6497
  O  O196  1  0.413000  0.110900  0.962300  1.0  -0.7566
