# generated using pymatgen
data_Zn7H36(C36O13)2
_symmetry_space_group_name_H-M   'P 1'
_cell_length_a   12.98360000
_cell_length_b   12.98360000
_cell_length_c   23.94100000
_cell_angle_alpha   90.00000000
_cell_angle_beta   90.00000000
_cell_angle_gamma   94.68350000
_symmetry_Int_Tables_number   1
_chemical_formula_structural   Zn7H36(C36O13)2
_chemical_formula_sum   'Zn14 H72 C144 O52'
_cell_volume   4022.35113670
_cell_formula_units_Z   2
loop_
 _symmetry_equiv_pos_site_id
 _symmetry_equiv_pos_as_xyz
  1  'x, y, z'
loop_
 _atom_site_type_symbol
 _atom_site_label
 _atom_site_symmetry_multiplicity
 _atom_site_fract_x
 _atom_site_fract_y
 _atom_site_fract_z
 _atom_site_occupancy
 _atom_site_charge
  Zn  Zn1  1  0.161450  0.997290  0.398210  1.0  1.0578
  Zn  Zn2  1  0.338550  0.502710  0.898210  1.0  1.0575
  Zn  Zn3  1  0.497290  0.661450  0.101790  1.0  1.0584
  Zn  Zn4  1  0.002710  0.838550  0.601790  1.0  1.0584
  Zn  Zn5  1  0.838550  0.002710  0.601790  1.0  1.0577
  Zn  Zn6  1  0.661450  0.497290  0.101790  1.0  1.0579
  Zn  Zn7  1  0.502710  0.338550  0.898210  1.0  1.0576
  Zn  Zn8  1  0.997290  0.161450  0.398210  1.0  1.0575
  Zn  Zn9  1  0.180960  0.180960  0.480180  1.0  1.0428
  Zn  Zn10  1  0.319040  0.319040  0.980180  1.0  1.0437
  Zn  Zn11  1  0.680960  0.680960  0.019820  1.0  1.0427
  Zn  Zn12  1  0.819040  0.819040  0.519820  1.0  1.0436
  Zn  Zn13  1  0.000000  0.000000  0.500000  1.0  0.9593
  Zn  Zn14  1  0.500000  0.500000  0.000000  1.0  0.9593
  H  H15  1  0.927700  0.653100  0.436100  1.0  0.1058
  H  H16  1  0.930100  0.475900  0.427400  1.0  0.1229
  H  H17  1  0.260900  0.422500  0.395000  1.0  0.1314
  H  H18  1  0.411100  0.526100  0.382000  1.0  0.1116
  H  H19  1  0.410500  0.703500  0.391000  1.0  0.1287
  H  H20  1  0.254300  0.774700  0.401300  1.0  0.1169
  H  H21  1  0.572300  0.846900  0.936100  1.0  0.1061
  H  H22  1  0.569900  0.024100  0.927400  1.0  0.1229
  H  H23  1  0.239100  0.077500  0.895000  1.0  0.131
  H  H24  1  0.088900  0.973900  0.882000  1.0  0.1118
  H  H25  1  0.089500  0.796500  0.891000  1.0  0.1286
  H  H26  1  0.245700  0.725300  0.901300  1.0  0.1178
  H  H27  1  0.153100  0.427700  0.063900  1.0  0.1063
  H  H28  1  0.975900  0.430100  0.072600  1.0  0.1229
  H  H29  1  0.922500  0.760900  0.105000  1.0  0.1299
  H  H30  1  0.026100  0.911100  0.118000  1.0  0.1126
  H  H31  1  0.203500  0.910500  0.109000  1.0  0.1289
  H  H32  1  0.274700  0.754300  0.098700  1.0  0.1161
  H  H33  1  0.346900  0.072300  0.563900  1.0  0.1061
  H  H34  1  0.524100  0.069900  0.572600  1.0  0.1228
  H  H35  1  0.577500  0.739100  0.605000  1.0  0.1301
  H  H36  1  0.473900  0.588900  0.618000  1.0  0.1119
  H  H37  1  0.296500  0.589500  0.609000  1.0  0.1284
  H  H38  1  0.225300  0.745700  0.598700  1.0  0.1168
  H  H39  1  0.072300  0.346900  0.563900  1.0  0.1064
  H  H40  1  0.069900  0.524100  0.572600  1.0  0.1227
  H  H41  1  0.739100  0.577500  0.605000  1.0  0.1307
  H  H42  1  0.588900  0.473900  0.618000  1.0  0.1115
  H  H43  1  0.589500  0.296500  0.609000  1.0  0.1288
  H  H44  1  0.745700  0.225300  0.598700  1.0  0.1175
  H  H45  1  0.427700  0.153100  0.063900  1.0  0.1064
  H  H46  1  0.430100  0.975900  0.072600  1.0  0.1233
  H  H47  1  0.760900  0.922500  0.105000  1.0  0.131
  H  H48  1  0.911100  0.026100  0.118000  1.0  0.1114
  H  H49  1  0.910500  0.203500  0.109000  1.0  0.129
  H  H50  1  0.754300  0.274700  0.098700  1.0  0.117
  H  H51  1  0.846900  0.572300  0.936100  1.0  0.1059
  H  H52  1  0.024100  0.569900  0.927400  1.0  0.1231
  H  H53  1  0.077500  0.239100  0.895000  1.0  0.1304
  H  H54  1  0.973900  0.088900  0.882000  1.0  0.1121
  H  H55  1  0.796500  0.089500  0.891000  1.0  0.128
  H  H56  1  0.725300  0.245700  0.901300  1.0  0.1165
  H  H57  1  0.653100  0.927700  0.436100  1.0  0.106
  H  H58  1  0.475900  0.930100  0.427400  1.0  0.1227
  H  H59  1  0.422500  0.260900  0.395000  1.0  0.1302
  H  H60  1  0.526100  0.411100  0.382000  1.0  0.1126
  H  H61  1  0.703500  0.410500  0.391000  1.0  0.1287
  H  H62  1  0.774700  0.254300  0.401300  1.0  0.1156
  H  H63  1  0.047500  0.047500  0.203100  1.0  0.1185
  H  H64  1  0.093700  0.093700  0.111800  1.0  0.1214
  H  H65  1  0.353600  0.353600  0.132600  1.0  0.1152
  H  H66  1  0.433300  0.433300  0.207500  1.0  0.1314
  H  H67  1  0.383700  0.383700  0.297700  1.0  0.1096
  H  H68  1  0.256500  0.256500  0.312900  1.0  0.1348
  H  H69  1  0.452500  0.452500  0.703100  1.0  0.1177
  H  H70  1  0.406300  0.406300  0.611800  1.0  0.1214
  H  H71  1  0.146400  0.146400  0.632600  1.0  0.1143
  H  H72  1  0.066700  0.066700  0.707500  1.0  0.1316
  H  H73  1  0.116300  0.116300  0.797700  1.0  0.1093
  H  H74  1  0.243500  0.243500  0.812900  1.0  0.1346
  H  H75  1  0.547500  0.547500  0.296900  1.0  0.1185
  H  H76  1  0.593700  0.593700  0.388200  1.0  0.1226
  H  H77  1  0.853600  0.853600  0.367400  1.0  0.1153
  H  H78  1  0.933300  0.933300  0.292500  1.0  0.1314
  H  H79  1  0.883700  0.883700  0.202300  1.0  0.1097
  H  H80  1  0.756500  0.756500  0.187100  1.0  0.1349
  H  H81  1  0.952500  0.952500  0.796900  1.0  0.1175
  H  H82  1  0.906300  0.906300  0.888200  1.0  0.1223
  H  H83  1  0.646400  0.646400  0.867400  1.0  0.1149
  H  H84  1  0.566700  0.566700  0.792500  1.0  0.1317
  H  H85  1  0.616300  0.616300  0.702300  1.0  0.1094
  H  H86  1  0.743500  0.743500  0.687100  1.0  0.1345
  C  C87  1  0.078500  0.688500  0.430600  1.0  -0.021
  C  C88  1  0.990900  0.624700  0.432200  1.0  -0.0526
  C  C89  1  0.992100  0.517300  0.428300  1.0  -0.0727
  C  C90  1  0.084600  0.472600  0.425700  1.0  -0.08
  C  C91  1  0.179600  0.536600  0.426400  1.0  0.0157
  C  C92  1  0.264000  0.492800  0.403000  1.0  -0.1764
  C  C93  1  0.350600  0.555000  0.392200  1.0  -0.1022
  C  C94  1  0.349800  0.661400  0.396100  1.0  -0.0932
  C  C95  1  0.258900  0.704500  0.407600  1.0  -0.1819
  C  C96  1  0.176400  0.646600  0.428000  1.0  0.0478
  C  C97  1  0.071000  0.802600  0.431000  1.0  0.7098
  C  C98  1  0.079200  0.356400  0.424700  1.0  0.7129
  C  C99  1  0.421500  0.811500  0.930600  1.0  -0.0222
  C  C100  1  0.509100  0.875300  0.932200  1.0  -0.0518
  C  C101  1  0.507900  0.982700  0.928300  1.0  -0.0719
  C  C102  1  0.415400  0.027400  0.925700  1.0  -0.0794
  C  C103  1  0.320400  0.963400  0.926400  1.0  0.0153
  C  C104  1  0.236000  0.007200  0.903000  1.0  -0.1762
  C  C105  1  0.149400  0.945000  0.892200  1.0  -0.1033
  C  C106  1  0.150200  0.838600  0.896100  1.0  -0.0936
  C  C107  1  0.241100  0.795500  0.907600  1.0  -0.1805
  C  C108  1  0.323600  0.853400  0.928000  1.0  0.049
  C  C109  1  0.429000  0.697400  0.931000  1.0  0.7081
  C  C110  1  0.420800  0.143600  0.924700  1.0  0.713
  C  C111  1  0.188500  0.578500  0.069400  1.0  -0.0225
  C  C112  1  0.124700  0.490900  0.067800  1.0  -0.0521
  C  C113  1  0.017300  0.492100  0.071700  1.0  -0.0736
  C  C114  1  0.972600  0.584600  0.074300  1.0  -0.0787
  C  C115  1  0.036600  0.679600  0.073600  1.0  0.015
  C  C116  1  0.992800  0.764000  0.097000  1.0  -0.1774
  C  C117  1  0.055000  0.850600  0.107800  1.0  -0.1041
  C  C118  1  0.161400  0.849800  0.103900  1.0  -0.0941
  C  C119  1  0.204500  0.758900  0.092400  1.0  -0.1809
  C  C120  1  0.146600  0.676400  0.072000  1.0  0.0481
  C  C121  1  0.302600  0.571000  0.069000  1.0  0.7081
  C  C122  1  0.856400  0.579200  0.075300  1.0  0.7122
  C  C123  1  0.311500  0.921500  0.569400  1.0  -0.023
  C  C124  1  0.375300  0.009100  0.567800  1.0  -0.0534
  C  C125  1  0.482700  0.007900  0.571700  1.0  -0.0738
  C  C126  1  0.527400  0.915400  0.574300  1.0  -0.0792
  C  C127  1  0.463400  0.820400  0.573600  1.0  0.0141
  C  C128  1  0.507200  0.736000  0.597000  1.0  -0.1774
  C  C129  1  0.445000  0.649400  0.607800  1.0  -0.1039
  C  C130  1  0.338600  0.650200  0.603900  1.0  -0.0927
  C  C131  1  0.295500  0.741100  0.592400  1.0  -0.1814
  C  C132  1  0.353400  0.823600  0.572000  1.0  0.0483
  C  C133  1  0.197400  0.929000  0.569000  1.0  0.7071
  C  C134  1  0.643600  0.920800  0.575300  1.0  0.7117
  C  C135  1  0.921500  0.311500  0.569400  1.0  -0.0228
  C  C136  1  0.009100  0.375300  0.567800  1.0  -0.0528
  C  C137  1  0.007900  0.482700  0.571700  1.0  -0.0708
  C  C138  1  0.915400  0.527400  0.574300  1.0  -0.0792
  C  C139  1  0.820400  0.463400  0.573600  1.0  0.0142
  C  C140  1  0.736000  0.507200  0.597000  1.0  -0.1767
  C  C141  1  0.649400  0.445000  0.607800  1.0  -0.1035
  C  C142  1  0.650200  0.338600  0.603900  1.0  -0.093
  C  C143  1  0.741100  0.295500  0.592400  1.0  -0.1818
  C  C144  1  0.823600  0.353400  0.572000  1.0  0.0485
  C  C145  1  0.929000  0.197400  0.569000  1.0  0.7082
  C  C146  1  0.920800  0.643600  0.575300  1.0  0.7114
  C  C147  1  0.578500  0.188500  0.069400  1.0  -0.021
  C  C148  1  0.490900  0.124700  0.067800  1.0  -0.0535
  C  C149  1  0.492100  0.017300  0.071700  1.0  -0.0736
  C  C150  1  0.584600  0.972600  0.074300  1.0  -0.0792
  C  C151  1  0.679600  0.036600  0.073600  1.0  0.015
  C  C152  1  0.764000  0.992800  0.097000  1.0  -0.1767
  C  C153  1  0.850600  0.055000  0.107800  1.0  -0.1023
  C  C154  1  0.849800  0.161400  0.103900  1.0  -0.0928
  C  C155  1  0.758900  0.204500  0.092400  1.0  -0.1824
  C  C156  1  0.676400  0.146600  0.072000  1.0  0.0477
  C  C157  1  0.571000  0.302600  0.069000  1.0  0.71
  C  C158  1  0.579200  0.856400  0.075300  1.0  0.7113
  C  C159  1  0.811500  0.421500  0.930600  1.0  -0.0226
  C  C160  1  0.875300  0.509100  0.932200  1.0  -0.0529
  C  C161  1  0.982700  0.507900  0.928300  1.0  -0.0749
  C  C162  1  0.027400  0.415400  0.925700  1.0  -0.0803
  C  C163  1  0.963400  0.320400  0.926400  1.0  0.0151
  C  C164  1  0.007200  0.236000  0.903000  1.0  -0.177
  C  C165  1  0.945000  0.149400  0.892200  1.0  -0.1039
  C  C166  1  0.838600  0.150200  0.896100  1.0  -0.0932
  C  C167  1  0.795500  0.241100  0.907600  1.0  -0.1799
  C  C168  1  0.853400  0.323600  0.928000  1.0  0.0483
  C  C169  1  0.697400  0.429000  0.931000  1.0  0.7072
  C  C170  1  0.143600  0.420800  0.924700  1.0  0.7129
  C  C171  1  0.688500  0.078500  0.430600  1.0  -0.0224
  C  C172  1  0.624700  0.990900  0.432200  1.0  -0.0512
  C  C173  1  0.517300  0.992100  0.428300  1.0  -0.0731
  C  C174  1  0.472600  0.084600  0.425700  1.0  -0.0789
  C  C175  1  0.536600  0.179600  0.426400  1.0  0.0161
  C  C176  1  0.492800  0.264000  0.403000  1.0  -0.177
  C  C177  1  0.555000  0.350600  0.392200  1.0  -0.104
  C  C178  1  0.661400  0.349800  0.396100  1.0  -0.0946
  C  C179  1  0.704500  0.258900  0.407600  1.0  -0.1788
  C  C180  1  0.646600  0.176400  0.428000  1.0  0.0482
  C  C181  1  0.802600  0.071000  0.431000  1.0  0.7077
  C  C182  1  0.356400  0.079200  0.424700  1.0  0.7136
  C  C183  1  0.146500  0.146500  0.239200  1.0  -0.0052
  C  C184  1  0.099600  0.099600  0.196800  1.0  -0.1496
  C  C185  1  0.127800  0.127800  0.141400  1.0  -0.0653
  C  C186  1  0.203100  0.203100  0.130800  1.0  -0.1015
  C  C187  1  0.253600  0.253600  0.174600  1.0  -0.0057
  C  C188  1  0.333100  0.333100  0.168400  1.0  -0.0967
  C  C189  1  0.381000  0.381000  0.212900  1.0  -0.1256
  C  C190  1  0.350700  0.350700  0.267300  1.0  -0.0906
  C  C191  1  0.275200  0.275200  0.276600  1.0  -0.155
  C  C192  1  0.224500  0.224500  0.230800  1.0  0.0349
  C  C193  1  0.114700  0.114700  0.298300  1.0  0.7143
  C  C194  1  0.222900  0.222900  0.068800  1.0  0.694
  C  C195  1  0.353500  0.353500  0.739200  1.0  -0.0052
  C  C196  1  0.400400  0.400400  0.696800  1.0  -0.1493
  C  C197  1  0.372200  0.372200  0.641400  1.0  -0.0651
  C  C198  1  0.296900  0.296900  0.630800  1.0  -0.1024
  C  C199  1  0.246400  0.246400  0.674600  1.0  -0.0057
  C  C200  1  0.166900  0.166900  0.668400  1.0  -0.0959
  C  C201  1  0.119000  0.119000  0.712900  1.0  -0.1264
  C  C202  1  0.149300  0.149300  0.767300  1.0  -0.0908
  C  C203  1  0.224800  0.224800  0.776600  1.0  -0.1535
  C  C204  1  0.275500  0.275500  0.730800  1.0  0.0348
  C  C205  1  0.385300  0.385300  0.798300  1.0  0.7138
  C  C206  1  0.277100  0.277100  0.568800  1.0  0.6933
  C  C207  1  0.646500  0.646500  0.260800  1.0  -0.0049
  C  C208  1  0.599600  0.599600  0.303200  1.0  -0.1491
  C  C209  1  0.627800  0.627800  0.358600  1.0  -0.0653
  C  C210  1  0.703100  0.703100  0.369200  1.0  -0.1009
  C  C211  1  0.753600  0.753600  0.325400  1.0  -0.0055
  C  C212  1  0.833100  0.833100  0.331600  1.0  -0.0976
  C  C213  1  0.881000  0.881000  0.287100  1.0  -0.1265
  C  C214  1  0.850700  0.850700  0.232700  1.0  -0.0903
  C  C215  1  0.775200  0.775200  0.223400  1.0  -0.1548
  C  C216  1  0.724500  0.724500  0.269200  1.0  0.0348
  C  C217  1  0.614700  0.614700  0.201700  1.0  0.7145
  C  C218  1  0.722900  0.722900  0.431200  1.0  0.6957
  C  C219  1  0.853500  0.853500  0.760800  1.0  -0.0051
  C  C220  1  0.900400  0.900400  0.803200  1.0  -0.1485
  C  C221  1  0.872200  0.872200  0.858600  1.0  -0.0652
  C  C222  1  0.796900  0.796900  0.869200  1.0  -0.1017
  C  C223  1  0.746400  0.746400  0.825400  1.0  -0.0055
  C  C224  1  0.666900  0.666900  0.831600  1.0  -0.0964
  C  C225  1  0.619000  0.619000  0.787100  1.0  -0.1274
  C  C226  1  0.649300  0.649300  0.732700  1.0  -0.0908
  C  C227  1  0.724800  0.724800  0.723400  1.0  -0.1532
  C  C228  1  0.775500  0.775500  0.769200  1.0  0.0347
  C  C229  1  0.885300  0.885300  0.701700  1.0  0.7135
  C  C230  1  0.777100  0.777100  0.931200  1.0  0.6946
  O  O231  1  0.019270  0.841410  0.466590  1.0  -0.5796
  O  O232  1  0.119120  0.852440  0.391940  1.0  -0.5905
  O  O233  1  0.154250  0.311790  0.440510  1.0  -0.568
  O  O234  1  0.995700  0.310500  0.407400  1.0  -0.5778
  O  O235  1  0.159200  0.044000  0.319400  1.0  -0.5743
  O  O236  1  0.480730  0.658590  0.966590  1.0  -0.5807
  O  O237  1  0.380880  0.647560  0.891940  1.0  -0.591
  O  O238  1  0.345750  0.188210  0.940510  1.0  -0.5672
  O  O239  1  0.504300  0.189500  0.907400  1.0  -0.5787
  O  O240  1  0.340800  0.456000  0.819400  1.0  -0.573
  O  O241  1  0.341410  0.519270  0.033410  1.0  -0.5803
  O  O242  1  0.352440  0.619120  0.108060  1.0  -0.5886
  O  O243  1  0.811790  0.654250  0.059490  1.0  -0.5681
  O  O244  1  0.810500  0.495700  0.092600  1.0  -0.5811
  O  O245  1  0.544000  0.659200  0.180600  1.0  -0.5735
  O  O246  1  0.158590  0.980730  0.533410  1.0  -0.58
  O  O247  1  0.147560  0.880880  0.608060  1.0  -0.5888
  O  O248  1  0.688210  0.845750  0.559490  1.0  -0.5685
  O  O249  1  0.689500  0.004300  0.592600  1.0  -0.5805
  O  O250  1  0.956000  0.840800  0.680600  1.0  -0.5751
  O  O251  1  0.980730  0.158590  0.533410  1.0  -0.5815
  O  O252  1  0.880880  0.147560  0.608060  1.0  -0.5903
  O  O253  1  0.845750  0.688210  0.559490  1.0  -0.5679
  O  O254  1  0.004300  0.689500  0.592600  1.0  -0.5785
  O  O255  1  0.840800  0.956000  0.680600  1.0  -0.5735
  O  O256  1  0.519270  0.341410  0.033410  1.0  -0.58
  O  O257  1  0.619120  0.352440  0.108060  1.0  -0.5888
  O  O258  1  0.654250  0.811790  0.059490  1.0  -0.5683
  O  O259  1  0.495700  0.810500  0.092600  1.0  -0.5783
  O  O260  1  0.659200  0.544000  0.180600  1.0  -0.5743
  O  O261  1  0.658590  0.480730  0.966590  1.0  -0.5792
  O  O262  1  0.647560  0.380880  0.891940  1.0  -0.5901
  O  O263  1  0.188210  0.345750  0.940510  1.0  -0.5682
  O  O264  1  0.189500  0.504300  0.907400  1.0  -0.5795
  O  O265  1  0.456000  0.340800  0.819400  1.0  -0.5753
  O  O266  1  0.841410  0.019270  0.466590  1.0  -0.5796
  O  O267  1  0.852440  0.119120  0.391940  1.0  -0.5899
  O  O268  1  0.311790  0.154250  0.440510  1.0  -0.5677
  O  O269  1  0.310500  0.995700  0.407400  1.0  -0.5813
  O  O270  1  0.044000  0.159200  0.319400  1.0  -0.5732
  O  O271  1  0.171600  0.171600  0.035300  1.0  -0.4718
  O  O272  1  0.291000  0.291000  0.056390  1.0  -0.547
  O  O273  1  0.081660  0.081660  0.443880  1.0  -1.0553
  O  O274  1  0.328400  0.328400  0.535300  1.0  -0.4709
  O  O275  1  0.209000  0.209000  0.556390  1.0  -0.5468
  O  O276  1  0.418340  0.418340  0.943880  1.0  -1.0555
  O  O277  1  0.671600  0.671600  0.464700  1.0  -0.4716
  O  O278  1  0.791000  0.791000  0.443610  1.0  -0.5466
  O  O279  1  0.581660  0.581660  0.056120  1.0  -1.0558
  O  O280  1  0.828400  0.828400  0.964700  1.0  -0.471
  O  O281  1  0.709000  0.709000  0.943610  1.0  -0.5462
  O  O282  1  0.918340  0.918340  0.556120  1.0  -1.056
