# generated using pymatgen
data_Ti3GaP5HO21
_symmetry_space_group_name_H-M   'P 1'
_cell_length_a   5.10280000
_cell_length_b   21.16260000
_cell_length_c   8.85810000
_cell_angle_alpha   90.00000000
_cell_angle_beta   89.99650000
_cell_angle_gamma   90.00000000
_symmetry_Int_Tables_number   1
_chemical_formula_structural   Ti3GaP5HO21
_chemical_formula_sum   'Ti6 Ga2 P10 H2 O42'
_cell_volume   956.57306542
_cell_formula_units_Z   2
loop_
 _symmetry_equiv_pos_site_id
 _symmetry_equiv_pos_as_xyz
  1  'x, y, z'
loop_
 _atom_site_type_symbol
 _atom_site_label
 _atom_site_symmetry_multiplicity
 _atom_site_fract_x
 _atom_site_fract_y
 _atom_site_fract_z
 _atom_site_occupancy
 _atom_site_charge
  Ti  Ti1  1  0.279100  0.841650  0.528140  1.0  2.006
  Ti  Ti2  1  0.016800  0.935460  0.010000  1.0  1.9555
  Ti  Ti3  1  0.724900  0.041660  0.487750  1.0  2.022
  Ti  Ti4  1  0.720900  0.341650  0.471860  1.0  2.0079
  Ti  Ti5  1  0.983200  0.435460  0.990000  1.0  1.9527
  Ti  Ti6  1  0.275100  0.541660  0.512250  1.0  2.0225
  Ga  Ga7  1  0.693800  0.690170  0.748020  1.0  1.7151
  Ga  Ga8  1  0.306200  0.190170  0.251980  1.0  1.7159
  P  P9  1  0.793700  0.825840  0.774900  1.0  1.8634
  P  P10  1  0.206100  0.052940  0.242300  1.0  1.8482
  P  P11  1  0.236900  0.987960  0.670400  1.0  1.8188
  P  P12  1  0.762300  0.896100  0.346200  1.0  1.8702
  P  P13  1  0.205200  0.691330  0.558480  1.0  1.8181
  P  P14  1  0.206300  0.325840  0.225100  1.0  1.8623
  P  P15  1  0.793900  0.552940  0.757700  1.0  1.8507
  P  P16  1  0.763100  0.487960  0.329600  1.0  1.8181
  P  P17  1  0.237700  0.396100  0.653800  1.0  1.8704
  P  P18  1  0.794800  0.191330  0.441520  1.0  1.8198
  H  H19  1  0.413000  0.884000  0.000000  1.0  0.4465
  H  H20  1  0.587000  0.384000  0.000000  1.0  0.4467
  O  O21  1  0.061200  0.823100  0.701500  1.0  -0.8738
  O  O22  1  0.283500  0.751800  0.473400  1.0  -0.7475
  O  O23  1  0.248200  0.929500  0.572000  1.0  -0.8637
  O  O24  1  0.747200  0.762100  0.859100  1.0  -0.7889
  O  O25  1  0.581200  0.833400  0.655800  1.0  -0.9053
  O  O26  1  0.782300  0.878300  0.891500  1.0  -0.814
  O  O27  1  0.177300  0.970200  0.835100  1.0  -0.8781
  O  O28  1  0.506800  0.022800  0.669600  1.0  -0.7459
  O  O29  1  0.023600  0.033300  0.617200  1.0  -0.8533
  O  O30  1  0.268400  0.874400  0.041200  1.0  -0.6799
  O  O31  1  0.931100  0.057900  0.311900  1.0  -0.9066
  O  O32  1  0.290800  0.632700  0.467700  1.0  -0.7316
  O  O33  1  0.752800  0.953300  0.449400  1.0  -0.8901
  O  O34  1  0.264900  0.115100  0.154300  1.0  -0.777
  O  O35  1  0.408200  0.044300  0.365800  1.0  -0.8846
  O  O36  1  0.220400  0.998100  0.128000  1.0  -0.866
  O  O37  1  0.800300  0.915600  0.181300  1.0  -0.8433
  O  O38  1  0.506900  0.859400  0.356500  1.0  -0.7973
  O  O39  1  0.986100  0.851300  0.392400  1.0  -0.8487
  O  O40  1  0.904500  0.690900  0.582300  1.0  -0.8542
  O  O41  1  0.341600  0.690100  0.713600  1.0  -0.8169
  O  O42  1  0.938800  0.323100  0.298500  1.0  -0.8742
  O  O43  1  0.716500  0.251800  0.526600  1.0  -0.7474
  O  O44  1  0.751800  0.429500  0.428000  1.0  -0.8634
  O  O45  1  0.252800  0.262100  0.140900  1.0  -0.7883
  O  O46  1  0.418800  0.333400  0.344200  1.0  -0.9051
  O  O47  1  0.217700  0.378300  0.108500  1.0  -0.8132
  O  O48  1  0.822700  0.470200  0.164900  1.0  -0.8769
  O  O49  1  0.493200  0.522800  0.330400  1.0  -0.7477
  O  O50  1  0.976400  0.533300  0.382800  1.0  -0.8538
  O  O51  1  0.731600  0.374400  0.958800  1.0  -0.6778
  O  O52  1  0.068900  0.557900  0.688100  1.0  -0.9064
  O  O53  1  0.709200  0.132700  0.532300  1.0  -0.7314
  O  O54  1  0.247200  0.453300  0.550600  1.0  -0.8901
  O  O55  1  0.735100  0.615100  0.845700  1.0  -0.7779
  O  O56  1  0.591800  0.544300  0.634200  1.0  -0.8849
  O  O57  1  0.779600  0.498100  0.872000  1.0  -0.8657
  O  O58  1  0.199700  0.415600  0.818700  1.0  -0.844
  O  O59  1  0.493100  0.359400  0.643500  1.0  -0.7971
  O  O60  1  0.013900  0.351300  0.607600  1.0  -0.849
  O  O61  1  0.095500  0.190900  0.417700  1.0  -0.8545
  O  O62  1  0.658400  0.190100  0.286400  1.0  -0.8155
