# generated using pymatgen
data_CeH4C5O8
_symmetry_space_group_name_H-M   'P 1'
_cell_length_a   6.09970000
_cell_length_b   7.65280000
_cell_length_c   22.53300000
_cell_angle_alpha   90.00000000
_cell_angle_beta   91.60600000
_cell_angle_gamma   90.00000000
_symmetry_Int_Tables_number   1
_chemical_formula_structural   CeH4C5O8
_chemical_formula_sum   'Ce4 H16 C20 O32'
_cell_volume   1051.42240033
_cell_formula_units_Z   4
loop_
 _symmetry_equiv_pos_site_id
 _symmetry_equiv_pos_as_xyz
  1  'x, y, z'
loop_
 _atom_site_type_symbol
 _atom_site_label
 _atom_site_symmetry_multiplicity
 _atom_site_fract_x
 _atom_site_fract_y
 _atom_site_fract_z
 _atom_site_occupancy
 _atom_site_charge
  Ce  Ce1  1  0.545120  0.501710  0.853910  1.0  2.1971
  Ce  Ce2  1  0.454880  0.001710  0.646090  1.0  2.1969
  Ce  Ce3  1  0.454880  0.498290  0.146090  1.0  2.1968
  Ce  Ce4  1  0.545120  0.998290  0.353910  1.0  2.1979
  H  H5  1  0.440000  0.125000  0.883700  1.0  0.4291
  H  H6  1  0.302000  0.228000  0.741900  1.0  0.3745
  H  H7  1  0.125900  0.064400  0.874700  1.0  0.1159
  H  H8  1  0.041000  0.978000  0.780100  1.0  0.1126
  H  H9  1  0.560000  0.625000  0.616300  1.0  0.4114
  H  H10  1  0.698000  0.728000  0.758100  1.0  0.3748
  H  H11  1  0.874100  0.564400  0.625300  1.0  0.1156
  H  H12  1  0.959000  0.478000  0.719900  1.0  0.1121
  H  H13  1  0.560000  0.875000  0.116300  1.0  0.4164
  H  H14  1  0.698000  0.772000  0.258100  1.0  0.3762
  H  H15  1  0.874100  0.935600  0.125300  1.0  0.1158
  H  H16  1  0.959000  0.022000  0.219900  1.0  0.1125
  H  H17  1  0.440000  0.375000  0.383700  1.0  0.4301
  H  H18  1  0.302000  0.272000  0.241900  1.0  0.3748
  H  H19  1  0.125900  0.435600  0.374700  1.0  0.1154
  H  H20  1  0.041000  0.522000  0.280100  1.0  0.1128
  C  C21  1  0.046800  0.305700  0.840110  1.0  0.7019
  C  C22  1  0.182300  0.139300  0.843300  1.0  0.0441
  C  C23  1  0.183700  0.035500  0.785520  1.0  0.0724
  C  C24  1  0.361100  0.894100  0.788710  1.0  0.666
  C  C25  1  0.582100  0.424200  0.001330  1.0  0.5745
  C  C26  1  0.953200  0.805700  0.659890  1.0  0.7009
  C  C27  1  0.817700  0.639300  0.656700  1.0  0.0443
  C  C28  1  0.816300  0.535500  0.714480  1.0  0.0734
  C  C29  1  0.638900  0.394100  0.711290  1.0  0.6658
  C  C30  1  0.417900  0.924200  0.498670  1.0  0.5744
  C  C31  1  0.953200  0.694300  0.159890  1.0  0.7004
  C  C32  1  0.817700  0.860700  0.156700  1.0  0.0434
  C  C33  1  0.816300  0.964500  0.214480  1.0  0.073
  C  C34  1  0.638900  0.105900  0.211290  1.0  0.6647
  C  C35  1  0.417900  0.575800  0.998670  1.0  0.5738
  C  C36  1  0.046800  0.194300  0.340110  1.0  0.7034
  C  C37  1  0.182300  0.360700  0.343300  1.0  0.045
  C  C38  1  0.183700  0.464500  0.285520  1.0  0.0723
  C  C39  1  0.361100  0.605900  0.288710  1.0  0.6646
  C  C40  1  0.582100  0.075800  0.501330  1.0  0.5744
  O  O41  1  0.846200  0.289300  0.833360  1.0  -0.6755
  O  O42  1  0.145600  0.447300  0.845320  1.0  -0.6696
  O  O43  1  0.399900  0.186000  0.858290  1.0  -0.6389
  O  O44  1  0.220300  0.140300  0.734700  1.0  -0.629
  O  O45  1  0.350400  0.786800  0.829740  1.0  -0.6589
  O  O46  1  0.511100  0.898000  0.749220  1.0  -0.6982
  O  O47  1  0.661500  0.369400  0.953680  1.0  -0.6643
  O  O48  1  0.623300  0.368100  0.051760  1.0  -0.6451
  O  O49  1  0.153800  0.789300  0.666667  1.0  -0.6742
  O  O50  1  0.854400  0.947300  0.654680  1.0  -0.6703
  O  O51  1  0.600100  0.686000  0.641710  1.0  -0.6389
  O  O52  1  0.779700  0.640300  0.765300  1.0  -0.6292
  O  O53  1  0.649600  0.286800  0.670260  1.0  -0.6599
  O  O54  1  0.488900  0.398000  0.750780  1.0  -0.6971
  O  O55  1  0.338500  0.869400  0.546320  1.0  -0.6631
  O  O56  1  0.376700  0.868100  0.448240  1.0  -0.6467
  O  O57  1  0.153800  0.710700  0.166640  1.0  -0.6741
  O  O58  1  0.854400  0.552700  0.154680  1.0  -0.6703
  O  O59  1  0.600100  0.814000  0.141710  1.0  -0.6403
  O  O60  1  0.779700  0.859700  0.265300  1.0  -0.6313
  O  O61  1  0.649600  0.213200  0.170260  1.0  -0.6595
  O  O62  1  0.488900  0.102000  0.250780  1.0  -0.6969
  O  O63  1  0.338500  0.630600  0.046320  1.0  -0.6626
  O  O64  1  0.376700  0.631900  0.948240  1.0  -0.6466
  O  O65  1  0.846200  0.210700  0.333333  1.0  -0.6752
  O  O66  1  0.145600  0.052700  0.345320  1.0  -0.6685
  O  O67  1  0.399900  0.314000  0.358290  1.0  -0.6391
  O  O68  1  0.220300  0.359700  0.234700  1.0  -0.6312
  O  O69  1  0.350400  0.713200  0.329740  1.0  -0.6603
  O  O70  1  0.511100  0.602000  0.249220  1.0  -0.6986
  O  O71  1  0.661500  0.130600  0.453680  1.0  -0.6644
  O  O72  1  0.623300  0.131900  0.551760  1.0  -0.644
