# generated using pymatgen
data_CuH16C24(N4O)2
_symmetry_space_group_name_H-M   'P 1'
_cell_length_a   17.54000000
_cell_length_b   17.54000000
_cell_length_c   21.38300000
_cell_angle_alpha   90.00000000
_cell_angle_beta   90.00000000
_cell_angle_gamma   90.00000000
_symmetry_Int_Tables_number   1
_chemical_formula_structural   CuH16C24(N4O)2
_chemical_formula_sum   'Cu8 H128 C192 N64 O16'
_cell_volume   6578.51416280
_cell_formula_units_Z   8
loop_
 _symmetry_equiv_pos_site_id
 _symmetry_equiv_pos_as_xyz
  1  'x, y, z'
loop_
 _atom_site_type_symbol
 _atom_site_label
 _atom_site_symmetry_multiplicity
 _atom_site_fract_x
 _atom_site_fract_y
 _atom_site_fract_z
 _atom_site_occupancy
 _atom_site_charge
  Cu  Cu1  1  0.279120  0.250000  0.125000  1.0  0.5384
  Cu  Cu2  1  0.720880  0.750000  0.125000  1.0  0.5385
  Cu  Cu3  1  0.220880  0.250000  0.625000  1.0  0.5385
  Cu  Cu4  1  0.250000  0.720880  0.875000  1.0  0.5389
  Cu  Cu5  1  0.750000  0.220880  0.375000  1.0  0.5389
  Cu  Cu6  1  0.750000  0.279120  0.875000  1.0  0.5385
  Cu  Cu7  1  0.250000  0.779120  0.375000  1.0  0.5385
  Cu  Cu8  1  0.779120  0.750000  0.625000  1.0  0.5384
  H  H9  1  0.382400  0.371600  0.073600  1.0  0.0743
  H  H10  1  0.476000  0.385800  0.000400  1.0  0.085
  H  H11  1  0.517500  0.285600  0.942200  1.0  0.1018
  H  H12  1  0.460300  0.163000  0.959200  1.0  0.109
  H  H13  1  0.225400  0.897000  0.055600  1.0  0.1234
  H  H14  1  0.384300  0.958200  0.929300  1.0  0.1129
  H  H15  1  0.214900  0.785600  0.002500  1.0  0.0532
  H  H16  1  0.365800  0.845900  0.880900  1.0  0.0739
  H  H17  1  0.882400  0.871600  0.573600  1.0  0.0743
  H  H18  1  0.976000  0.885800  0.500400  1.0  0.085
  H  H19  1  0.017500  0.785600  0.442200  1.0  0.1018
  H  H20  1  0.960300  0.663000  0.459200  1.0  0.109
  H  H21  1  0.725400  0.397000  0.555600  1.0  0.1234
  H  H22  1  0.884300  0.458200  0.429300  1.0  0.1129
  H  H23  1  0.714900  0.285600  0.502500  1.0  0.0532
  H  H24  1  0.865800  0.345900  0.380900  1.0  0.0739
  H  H25  1  0.617600  0.628400  0.073600  1.0  0.0746
  H  H26  1  0.524000  0.614200  0.000400  1.0  0.085
  H  H27  1  0.482500  0.714400  0.942200  1.0  0.1023
  H  H28  1  0.539700  0.837000  0.959200  1.0  0.1095
  H  H29  1  0.774600  0.103000  0.055600  1.0  0.1226
  H  H30  1  0.615700  0.041800  0.929300  1.0  0.1127
  H  H31  1  0.785100  0.214400  0.002500  1.0  0.0528
  H  H32  1  0.634200  0.154100  0.880900  1.0  0.0738
  H  H33  1  0.117600  0.128400  0.573600  1.0  0.0746
  H  H34  1  0.024000  0.114200  0.500400  1.0  0.085
  H  H35  1  0.982500  0.214400  0.442200  1.0  0.1023
  H  H36  1  0.039700  0.337000  0.459200  1.0  0.1095
  H  H37  1  0.274600  0.603000  0.555600  1.0  0.1226
  H  H38  1  0.115700  0.541800  0.429300  1.0  0.1127
  H  H39  1  0.285100  0.714400  0.502500  1.0  0.0528
  H  H40  1  0.134200  0.654100  0.380900  1.0  0.0738
  H  H41  1  0.371600  0.617600  0.926400  1.0  0.0743
  H  H42  1  0.385800  0.524000  0.999600  1.0  0.0855
  H  H43  1  0.285600  0.482500  0.057800  1.0  0.1028
  H  H44  1  0.163000  0.539700  0.040800  1.0  0.1081
  H  H45  1  0.897000  0.774600  0.944400  1.0  0.1228
  H  H46  1  0.958200  0.615700  0.070700  1.0  0.1127
  H  H47  1  0.785600  0.785100  0.997500  1.0  0.0539
  H  H48  1  0.845900  0.634200  0.119100  1.0  0.0744
  H  H49  1  0.871600  0.117600  0.426400  1.0  0.0743
  H  H50  1  0.885800  0.024000  0.499600  1.0  0.0855
  H  H51  1  0.785600  0.982500  0.557800  1.0  0.1028
  H  H52  1  0.663000  0.039700  0.540800  1.0  0.1081
  H  H53  1  0.397000  0.274600  0.444400  1.0  0.1228
  H  H54  1  0.458200  0.115700  0.570700  1.0  0.1127
  H  H55  1  0.285600  0.285100  0.497500  1.0  0.0539
  H  H56  1  0.345900  0.134200  0.619100  1.0  0.0744
  H  H57  1  0.628400  0.382400  0.926400  1.0  0.0742
  H  H58  1  0.614200  0.476000  0.999600  1.0  0.0848
  H  H59  1  0.714400  0.517500  0.057800  1.0  0.1025
  H  H60  1  0.837000  0.460300  0.040800  1.0  0.1083
  H  H61  1  0.103000  0.225400  0.944400  1.0  0.123
  H  H62  1  0.041800  0.384300  0.070700  1.0  0.1129
  H  H63  1  0.214400  0.214900  0.997500  1.0  0.0535
  H  H64  1  0.154100  0.365800  0.119100  1.0  0.074
  H  H65  1  0.128400  0.882400  0.426400  1.0  0.0742
  H  H66  1  0.114200  0.976000  0.499600  1.0  0.0848
  H  H67  1  0.214400  0.017500  0.557800  1.0  0.1025
  H  H68  1  0.337000  0.960300  0.540800  1.0  0.1083
  H  H69  1  0.603000  0.725400  0.444400  1.0  0.123
  H  H70  1  0.541800  0.884300  0.570700  1.0  0.1129
  H  H71  1  0.714400  0.714900  0.497500  1.0  0.0535
  H  H72  1  0.654100  0.865800  0.619100  1.0  0.074
  H  H73  1  0.117600  0.371600  0.676400  1.0  0.0746
  H  H74  1  0.024000  0.385800  0.749600  1.0  0.0848
  H  H75  1  0.982500  0.285600  0.807800  1.0  0.1023
  H  H76  1  0.039700  0.163000  0.790800  1.0  0.1094
  H  H77  1  0.274600  0.897000  0.694400  1.0  0.123
  H  H78  1  0.115700  0.958200  0.820700  1.0  0.1129
  H  H79  1  0.285100  0.785600  0.747500  1.0  0.0541
  H  H80  1  0.134200  0.845900  0.869100  1.0  0.0738
  H  H81  1  0.617600  0.871600  0.176400  1.0  0.0746
  H  H82  1  0.524000  0.885800  0.249600  1.0  0.0848
  H  H83  1  0.482500  0.785600  0.307800  1.0  0.1023
  H  H84  1  0.539700  0.663000  0.290800  1.0  0.1094
  H  H85  1  0.774600  0.397000  0.194400  1.0  0.123
  H  H86  1  0.615700  0.458200  0.320700  1.0  0.1129
  H  H87  1  0.785100  0.285600  0.247500  1.0  0.0541
  H  H88  1  0.634200  0.345900  0.369100  1.0  0.0738
  H  H89  1  0.882400  0.628400  0.676400  1.0  0.0743
  H  H90  1  0.976000  0.614200  0.749600  1.0  0.0846
  H  H91  1  0.017500  0.714400  0.807800  1.0  0.102
  H  H92  1  0.960300  0.837000  0.790800  1.0  0.1091
  H  H93  1  0.725400  0.103000  0.694400  1.0  0.1228
  H  H94  1  0.884300  0.041800  0.820700  1.0  0.113
  H  H95  1  0.714900  0.214400  0.747500  1.0  0.0538
  H  H96  1  0.865800  0.154100  0.869100  1.0  0.0736
  H  H97  1  0.382400  0.128400  0.176400  1.0  0.0743
  H  H98  1  0.476000  0.114200  0.249600  1.0  0.0846
  H  H99  1  0.517500  0.214400  0.307800  1.0  0.102
  H  H100  1  0.460300  0.337000  0.290800  1.0  0.1091
  H  H101  1  0.225400  0.603000  0.194400  1.0  0.1228
  H  H102  1  0.384300  0.541800  0.320700  1.0  0.113
  H  H103  1  0.214900  0.714400  0.247500  1.0  0.0538
  H  H104  1  0.365800  0.654100  0.369100  1.0  0.0736
  H  H105  1  0.128400  0.617600  0.823600  1.0  0.0742
  H  H106  1  0.114200  0.524000  0.750400  1.0  0.086
  H  H107  1  0.214400  0.482500  0.692200  1.0  0.1029
  H  H108  1  0.337000  0.539700  0.709200  1.0  0.1082
  H  H109  1  0.603000  0.774600  0.805600  1.0  0.1231
  H  H110  1  0.541800  0.615700  0.679300  1.0  0.1126
  H  H111  1  0.714400  0.785100  0.752500  1.0  0.0531
  H  H112  1  0.654100  0.634200  0.630900  1.0  0.0746
  H  H113  1  0.628400  0.117600  0.323600  1.0  0.0742
  H  H114  1  0.614200  0.024000  0.250400  1.0  0.086
  H  H115  1  0.714400  0.982500  0.192200  1.0  0.1029
  H  H116  1  0.837000  0.039700  0.209200  1.0  0.1082
  H  H117  1  0.103000  0.274600  0.305600  1.0  0.1231
  H  H118  1  0.041800  0.115700  0.179300  1.0  0.1126
  H  H119  1  0.214400  0.285100  0.252500  1.0  0.0531
  H  H120  1  0.154100  0.134200  0.130900  1.0  0.0746
  H  H121  1  0.871600  0.382400  0.823600  1.0  0.074
  H  H122  1  0.885800  0.476000  0.750400  1.0  0.0848
  H  H123  1  0.785600  0.517500  0.692200  1.0  0.1025
  H  H124  1  0.663000  0.460300  0.709200  1.0  0.1083
  H  H125  1  0.397000  0.225400  0.805600  1.0  0.1225
  H  H126  1  0.458200  0.384300  0.679300  1.0  0.1128
  H  H127  1  0.285600  0.214900  0.752500  1.0  0.0526
  H  H128  1  0.345900  0.365800  0.630900  1.0  0.0753
  H  H129  1  0.371600  0.882400  0.323600  1.0  0.074
  H  H130  1  0.385800  0.976000  0.250400  1.0  0.0848
  H  H131  1  0.285600  0.017500  0.192200  1.0  0.1025
  H  H132  1  0.163000  0.960300  0.209200  1.0  0.1083
  H  H133  1  0.897000  0.725400  0.305600  1.0  0.1225
  H  H134  1  0.958200  0.884300  0.179300  1.0  0.1128
  H  H135  1  0.785600  0.714900  0.252500  1.0  0.0526
  H  H136  1  0.845900  0.865800  0.130900  1.0  0.0753
  C  C137  1  0.397200  0.329800  0.049800  1.0  0.1245
  C  C138  1  0.454100  0.338100  0.006200  1.0  -0.123
  C  C139  1  0.479100  0.279100  0.971700  1.0  -0.1469
  C  C140  1  0.444800  0.205800  0.981500  1.0  -0.1262
  C  C141  1  0.388200  0.202300  0.025200  1.0  0.1385
  C  C142  1  0.346900  0.130200  0.037700  1.0  0.4647
  C  C143  1  0.308400  0.018000  0.026700  1.0  0.3277
  C  C144  1  0.303700  0.943200  0.997300  1.0  -0.0391
  C  C145  1  0.253800  0.888800  0.019500  1.0  -0.1803
  C  C146  1  0.347600  0.924500  0.944200  1.0  -0.1526
  C  C147  1  0.247500  0.822500  0.986400  1.0  0.1695
  C  C148  1  0.336000  0.857700  0.915600  1.0  0.1482
  C  C149  1  0.897200  0.829800  0.549800  1.0  0.1245
  C  C150  1  0.954100  0.838100  0.506200  1.0  -0.123
  C  C151  1  0.979100  0.779100  0.471700  1.0  -0.1469
  C  C152  1  0.944800  0.705800  0.481500  1.0  -0.1262
  C  C153  1  0.888200  0.702300  0.525200  1.0  0.1385
  C  C154  1  0.846900  0.630200  0.537700  1.0  0.4647
  C  C155  1  0.808400  0.518000  0.526700  1.0  0.3277
  C  C156  1  0.803700  0.443200  0.497300  1.0  -0.0391
  C  C157  1  0.753800  0.388800  0.519500  1.0  -0.1803
  C  C158  1  0.847600  0.424500  0.444200  1.0  -0.1526
  C  C159  1  0.747500  0.322500  0.486400  1.0  0.1695
  C  C160  1  0.836000  0.357700  0.415600  1.0  0.1482
  C  C161  1  0.602800  0.670200  0.049800  1.0  0.1257
  C  C162  1  0.545900  0.661900  0.006200  1.0  -0.1231
  C  C163  1  0.520900  0.720900  0.971700  1.0  -0.1479
  C  C164  1  0.555200  0.794200  0.981500  1.0  -0.1251
  C  C165  1  0.611800  0.797700  0.025200  1.0  0.1383
  C  C166  1  0.653100  0.869800  0.037700  1.0  0.4637
  C  C167  1  0.691600  0.982000  0.026700  1.0  0.3282
  C  C168  1  0.696300  0.056800  0.997300  1.0  -0.038
  C  C169  1  0.746200  0.111200  0.019500  1.0  -0.1811
  C  C170  1  0.652400  0.075500  0.944200  1.0  -0.1519
  C  C171  1  0.752500  0.177500  0.986400  1.0  0.1703
  C  C172  1  0.664000  0.142300  0.915600  1.0  0.149
  C  C173  1  0.102800  0.170200  0.549800  1.0  0.1257
  C  C174  1  0.045900  0.161900  0.506200  1.0  -0.1231
  C  C175  1  0.020900  0.220900  0.471700  1.0  -0.1479
  C  C176  1  0.055200  0.294200  0.481500  1.0  -0.1251
  C  C177  1  0.111800  0.297700  0.525200  1.0  0.1383
  C  C178  1  0.153100  0.369800  0.537700  1.0  0.4637
  C  C179  1  0.191600  0.482000  0.526700  1.0  0.3282
  C  C180  1  0.196300  0.556800  0.497300  1.0  -0.038
  C  C181  1  0.246200  0.611200  0.519500  1.0  -0.1811
  C  C182  1  0.152400  0.575500  0.444200  1.0  -0.1519
  C  C183  1  0.252500  0.677500  0.486400  1.0  0.1703
  C  C184  1  0.164000  0.642300  0.415600  1.0  0.149
  C  C185  1  0.329800  0.602800  0.950200  1.0  0.123
  C  C186  1  0.338100  0.545900  0.993800  1.0  -0.1225
  C  C187  1  0.279100  0.520900  0.028300  1.0  -0.1458
  C  C188  1  0.205800  0.555200  0.018500  1.0  -0.1249
  C  C189  1  0.202300  0.611800  0.974800  1.0  0.136
  C  C190  1  0.130200  0.653100  0.962300  1.0  0.4629
  C  C191  1  0.018000  0.691600  0.973300  1.0  0.323
  C  C192  1  0.943200  0.696300  0.002700  1.0  -0.0414
  C  C193  1  0.888800  0.746200  0.980500  1.0  -0.1802
  C  C194  1  0.924500  0.652400  0.055800  1.0  -0.1535
  C  C195  1  0.822500  0.752500  0.013600  1.0  0.169
  C  C196  1  0.857700  0.664000  0.084400  1.0  0.1482
  C  C197  1  0.829800  0.102800  0.450200  1.0  0.123
  C  C198  1  0.838100  0.045900  0.493800  1.0  -0.1225
  C  C199  1  0.779100  0.020900  0.528300  1.0  -0.1458
  C  C200  1  0.705800  0.055200  0.518500  1.0  -0.1249
  C  C201  1  0.702300  0.111800  0.474800  1.0  0.136
  C  C202  1  0.630200  0.153100  0.462300  1.0  0.4629
  C  C203  1  0.518000  0.191600  0.473300  1.0  0.323
  C  C204  1  0.443200  0.196300  0.502700  1.0  -0.0414
  C  C205  1  0.388800  0.246200  0.480500  1.0  -0.1802
  C  C206  1  0.424500  0.152400  0.555800  1.0  -0.1535
  C  C207  1  0.322500  0.252500  0.513600  1.0  0.169
  C  C208  1  0.357700  0.164000  0.584400  1.0  0.1482
  C  C209  1  0.670200  0.397200  0.950200  1.0  0.1235
  C  C210  1  0.661900  0.454100  0.993800  1.0  -0.1254
  C  C211  1  0.720900  0.479100  0.028300  1.0  -0.148
  C  C212  1  0.794200  0.444800  0.018500  1.0  -0.1252
  C  C213  1  0.797700  0.388200  0.974800  1.0  0.1369
  C  C214  1  0.869800  0.346900  0.962300  1.0  0.4621
  C  C215  1  0.982000  0.308400  0.973300  1.0  0.3248
  C  C216  1  0.056800  0.303700  0.002700  1.0  -0.0424
  C  C217  1  0.111200  0.253800  0.980500  1.0  -0.179
  C  C218  1  0.075500  0.347600  0.055800  1.0  -0.1545
  C  C219  1  0.177500  0.247500  0.013600  1.0  0.1691
  C  C220  1  0.142300  0.336000  0.084400  1.0  0.1483
  C  C221  1  0.170200  0.897200  0.450200  1.0  0.1235
  C  C222  1  0.161900  0.954100  0.493800  1.0  -0.1254
  C  C223  1  0.220900  0.979100  0.528300  1.0  -0.148
  C  C224  1  0.294200  0.944800  0.518500  1.0  -0.1252
  C  C225  1  0.297700  0.888200  0.474800  1.0  0.1369
  C  C226  1  0.369800  0.846900  0.462300  1.0  0.4621
  C  C227  1  0.482000  0.808400  0.473300  1.0  0.3248
  C  C228  1  0.556800  0.803700  0.502700  1.0  -0.0424
  C  C229  1  0.611200  0.753800  0.480500  1.0  -0.179
  C  C230  1  0.575500  0.847600  0.555800  1.0  -0.1545
  C  C231  1  0.677500  0.747500  0.513600  1.0  0.1691
  C  C232  1  0.642300  0.836000  0.584400  1.0  0.1483
  C  C233  1  0.102800  0.329800  0.700200  1.0  0.1236
  C  C234  1  0.045900  0.338100  0.743800  1.0  -0.1243
  C  C235  1  0.020900  0.279100  0.778300  1.0  -0.1474
  C  C236  1  0.055200  0.205800  0.768500  1.0  -0.1253
  C  C237  1  0.111800  0.202300  0.724800  1.0  0.137
  C  C238  1  0.153100  0.130200  0.712300  1.0  0.464
  C  C239  1  0.191600  0.018000  0.723300  1.0  0.3268
  C  C240  1  0.196300  0.943200  0.752700  1.0  -0.0383
  C  C241  1  0.246200  0.888800  0.730500  1.0  -0.18
  C  C242  1  0.152400  0.924500  0.805800  1.0  -0.1548
  C  C243  1  0.252500  0.822500  0.763600  1.0  0.1692
  C  C244  1  0.164000  0.857700  0.834400  1.0  0.1494
  C  C245  1  0.602800  0.829800  0.200200  1.0  0.1236
  C  C246  1  0.545900  0.838100  0.243800  1.0  -0.1243
  C  C247  1  0.520900  0.779100  0.278300  1.0  -0.1474
  C  C248  1  0.555200  0.705800  0.268500  1.0  -0.1253
  C  C249  1  0.611800  0.702300  0.224800  1.0  0.137
  C  C250  1  0.653100  0.630200  0.212300  1.0  0.464
  C  C251  1  0.691600  0.518000  0.223300  1.0  0.3268
  C  C252  1  0.696300  0.443200  0.252700  1.0  -0.0383
  C  C253  1  0.746200  0.388800  0.230500  1.0  -0.18
  C  C254  1  0.652400  0.424500  0.305800  1.0  -0.1548
  C  C255  1  0.752500  0.322500  0.263600  1.0  0.1692
  C  C256  1  0.664000  0.357700  0.334400  1.0  0.1494
  C  C257  1  0.897200  0.670200  0.700200  1.0  0.1237
  C  C258  1  0.954100  0.661900  0.743800  1.0  -0.1231
  C  C259  1  0.979100  0.720900  0.778300  1.0  -0.146
  C  C260  1  0.944800  0.794200  0.768500  1.0  -0.125
  C  C261  1  0.888200  0.797700  0.724800  1.0  0.1384
  C  C262  1  0.846900  0.869800  0.712300  1.0  0.4635
  C  C263  1  0.808400  0.982000  0.723300  1.0  0.327
  C  C264  1  0.803700  0.056800  0.752700  1.0  -0.0384
  C  C265  1  0.753800  0.111200  0.730500  1.0  -0.1793
  C  C266  1  0.847600  0.075500  0.805800  1.0  -0.1529
  C  C267  1  0.747500  0.177500  0.763600  1.0  0.1699
  C  C268  1  0.836000  0.142300  0.834400  1.0  0.149
  C  C269  1  0.397200  0.170200  0.200200  1.0  0.1237
  C  C270  1  0.454100  0.161900  0.243800  1.0  -0.1231
  C  C271  1  0.479100  0.220900  0.278300  1.0  -0.146
  C  C272  1  0.444800  0.294200  0.268500  1.0  -0.125
  C  C273  1  0.388200  0.297700  0.224800  1.0  0.1384
  C  C274  1  0.346900  0.369800  0.212300  1.0  0.4635
  C  C275  1  0.308400  0.482000  0.223300  1.0  0.327
  C  C276  1  0.303700  0.556800  0.252700  1.0  -0.0384
  C  C277  1  0.253800  0.611200  0.230500  1.0  -0.1793
  C  C278  1  0.347600  0.575500  0.305800  1.0  -0.1529
  C  C279  1  0.247500  0.677500  0.263600  1.0  0.1699
  C  C280  1  0.336000  0.642300  0.334400  1.0  0.149
  C  C281  1  0.170200  0.602800  0.799800  1.0  0.1252
  C  C282  1  0.161900  0.545900  0.756200  1.0  -0.1245
  C  C283  1  0.220900  0.520900  0.721700  1.0  -0.1477
  C  C284  1  0.294200  0.555200  0.731500  1.0  -0.1254
  C  C285  1  0.297700  0.611800  0.775200  1.0  0.1371
  C  C286  1  0.369800  0.653100  0.787700  1.0  0.4623
  C  C287  1  0.482000  0.691600  0.776700  1.0  0.3262
  C  C288  1  0.556800  0.696300  0.747300  1.0  -0.0428
  C  C289  1  0.611200  0.746200  0.769500  1.0  -0.1807
  C  C290  1  0.575500  0.652400  0.694200  1.0  -0.1516
  C  C291  1  0.677500  0.752500  0.736400  1.0  0.1695
  C  C292  1  0.642300  0.664000  0.665600  1.0  0.1479
  C  C293  1  0.670200  0.102800  0.299800  1.0  0.1252
  C  C294  1  0.661900  0.045900  0.256200  1.0  -0.1245
  C  C295  1  0.720900  0.020900  0.221700  1.0  -0.1477
  C  C296  1  0.794200  0.055200  0.231500  1.0  -0.1254
  C  C297  1  0.797700  0.111800  0.275200  1.0  0.1371
  C  C298  1  0.869800  0.153100  0.287700  1.0  0.4623
  C  C299  1  0.982000  0.191600  0.276700  1.0  0.3262
  C  C300  1  0.056800  0.196300  0.247300  1.0  -0.0428
  C  C301  1  0.111200  0.246200  0.269500  1.0  -0.1807
  C  C302  1  0.075500  0.152400  0.194200  1.0  -0.1516
  C  C303  1  0.177500  0.252500  0.236400  1.0  0.1695
  C  C304  1  0.142300  0.164000  0.165600  1.0  0.1479
  C  C305  1  0.829800  0.397200  0.799800  1.0  0.1239
  C  C306  1  0.838100  0.454100  0.756200  1.0  -0.1225
  C  C307  1  0.779100  0.479100  0.721700  1.0  -0.1471
  C  C308  1  0.705800  0.444800  0.731500  1.0  -0.1253
  C  C309  1  0.702300  0.388200  0.775200  1.0  0.1371
  C  C310  1  0.630200  0.346900  0.787700  1.0  0.4633
  C  C311  1  0.518000  0.308400  0.776700  1.0  0.3236
  C  C312  1  0.443200  0.303700  0.747300  1.0  -0.0419
  C  C313  1  0.388800  0.253800  0.769500  1.0  -0.1811
  C  C314  1  0.424500  0.347600  0.694200  1.0  -0.1533
  C  C315  1  0.322500  0.247500  0.736400  1.0  0.1692
  C  C316  1  0.357700  0.336000  0.665600  1.0  0.148
  C  C317  1  0.329800  0.897200  0.299800  1.0  0.1239
  C  C318  1  0.338100  0.954100  0.256200  1.0  -0.1225
  C  C319  1  0.279100  0.979100  0.221700  1.0  -0.1471
  C  C320  1  0.205800  0.944800  0.231500  1.0  -0.1253
  C  C321  1  0.202300  0.888200  0.275200  1.0  0.1371
  C  C322  1  0.130200  0.846900  0.287700  1.0  0.4633
  C  C323  1  0.018000  0.808400  0.276700  1.0  0.3236
  C  C324  1  0.943200  0.803700  0.247300  1.0  -0.0419
  C  C325  1  0.888800  0.753800  0.269500  1.0  -0.1811
  C  C326  1  0.924500  0.847600  0.194200  1.0  -0.1533
  C  C327  1  0.822500  0.747500  0.236400  1.0  0.1692
  C  C328  1  0.857700  0.836000  0.165600  1.0  0.148
  N  N329  1  0.362600  0.262600  0.058800  1.0  -0.3335
  N  N330  1  0.294100  0.122300  0.078200  1.0  -0.3131
  N  N331  1  0.268900  0.045900  0.071200  1.0  -0.2953
  N  N332  1  0.282700  0.806000  0.934600  1.0  -0.3317
  N  N333  1  0.862600  0.762600  0.558800  1.0  -0.3335
  N  N334  1  0.794100  0.622300  0.578200  1.0  -0.3131
  N  N335  1  0.768900  0.545900  0.571200  1.0  -0.2953
  N  N336  1  0.782700  0.306000  0.434600  1.0  -0.3317
  N  N337  1  0.637400  0.737400  0.058800  1.0  -0.3322
  N  N338  1  0.705900  0.877700  0.078200  1.0  -0.3128
  N  N339  1  0.731100  0.954100  0.071200  1.0  -0.2962
  N  N340  1  0.717300  0.194000  0.934600  1.0  -0.332
  N  N341  1  0.137400  0.237400  0.558800  1.0  -0.3322
  N  N342  1  0.205900  0.377700  0.578200  1.0  -0.3128
  N  N343  1  0.231100  0.454100  0.571200  1.0  -0.2962
  N  N344  1  0.217300  0.694000  0.434600  1.0  -0.332
  N  N345  1  0.262600  0.637400  0.941200  1.0  -0.3347
  N  N346  1  0.122300  0.705900  0.921800  1.0  -0.312
  N  N347  1  0.045900  0.731100  0.928800  1.0  -0.2917
  N  N348  1  0.806000  0.717300  0.065400  1.0  -0.3325
  N  N349  1  0.762600  0.137400  0.441200  1.0  -0.3347
  N  N350  1  0.622300  0.205900  0.421800  1.0  -0.312
  N  N351  1  0.545900  0.231100  0.428800  1.0  -0.2917
  N  N352  1  0.306000  0.217300  0.565400  1.0  -0.3325
  N  N353  1  0.737400  0.362600  0.941200  1.0  -0.3351
  N  N354  1  0.877700  0.294100  0.921800  1.0  -0.3132
  N  N355  1  0.954100  0.268900  0.928800  1.0  -0.2922
  N  N356  1  0.194000  0.282700  0.065400  1.0  -0.3319
  N  N357  1  0.237400  0.862600  0.441200  1.0  -0.3351
  N  N358  1  0.377700  0.794100  0.421800  1.0  -0.3132
  N  N359  1  0.454100  0.768900  0.428800  1.0  -0.2922
  N  N360  1  0.694000  0.782700  0.565400  1.0  -0.3319
  N  N361  1  0.137400  0.262600  0.691200  1.0  -0.3328
  N  N362  1  0.205900  0.122300  0.671800  1.0  -0.3143
  N  N363  1  0.231100  0.045900  0.678800  1.0  -0.2952
  N  N364  1  0.217300  0.806000  0.815400  1.0  -0.332
  N  N365  1  0.637400  0.762600  0.191200  1.0  -0.3328
  N  N366  1  0.705900  0.622300  0.171800  1.0  -0.3143
  N  N367  1  0.731100  0.545900  0.178800  1.0  -0.2952
  N  N368  1  0.717300  0.306000  0.315400  1.0  -0.332
  N  N369  1  0.862600  0.737400  0.691200  1.0  -0.3344
  N  N370  1  0.794100  0.877700  0.671800  1.0  -0.3135
  N  N371  1  0.768900  0.954100  0.678800  1.0  -0.2933
  N  N372  1  0.782700  0.194000  0.815400  1.0  -0.3316
  N  N373  1  0.362600  0.237400  0.191200  1.0  -0.3344
  N  N374  1  0.294100  0.377700  0.171800  1.0  -0.3135
  N  N375  1  0.268900  0.454100  0.178800  1.0  -0.2933
  N  N376  1  0.282700  0.694000  0.315400  1.0  -0.3316
  N  N377  1  0.237400  0.637400  0.808800  1.0  -0.3342
  N  N378  1  0.377700  0.705900  0.828200  1.0  -0.3125
  N  N379  1  0.454100  0.731100  0.821200  1.0  -0.2915
  N  N380  1  0.694000  0.717300  0.684600  1.0  -0.3318
  N  N381  1  0.737400  0.137400  0.308800  1.0  -0.3342
  N  N382  1  0.877700  0.205900  0.328200  1.0  -0.3125
  N  N383  1  0.954100  0.231100  0.321200  1.0  -0.2915
  N  N384  1  0.194000  0.217300  0.184600  1.0  -0.3318
  N  N385  1  0.762600  0.362600  0.808800  1.0  -0.3349
  N  N386  1  0.622300  0.294100  0.828200  1.0  -0.3117
  N  N387  1  0.545900  0.268900  0.821200  1.0  -0.2914
  N  N388  1  0.306000  0.282700  0.684600  1.0  -0.3323
  N  N389  1  0.262600  0.862600  0.308800  1.0  -0.3349
  N  N390  1  0.122300  0.794100  0.328200  1.0  -0.3117
  N  N391  1  0.045900  0.768900  0.321200  1.0  -0.2914
  N  N392  1  0.806000  0.782700  0.184600  1.0  -0.3323
  O  O393  1  0.361600  0.069000  0.003700  1.0  -0.3325
  O  O394  1  0.861600  0.569000  0.503700  1.0  -0.3325
  O  O395  1  0.638400  0.931000  0.003700  1.0  -0.3289
  O  O396  1  0.138400  0.431000  0.503700  1.0  -0.3289
  O  O397  1  0.069000  0.638400  0.996300  1.0  -0.3277
  O  O398  1  0.569000  0.138400  0.496300  1.0  -0.3277
  O  O399  1  0.931000  0.361600  0.996300  1.0  -0.3297
  O  O400  1  0.431000  0.861600  0.496300  1.0  -0.3297
  O  O401  1  0.138400  0.069000  0.746300  1.0  -0.3303
  O  O402  1  0.638400  0.569000  0.246300  1.0  -0.3303
  O  O403  1  0.861600  0.931000  0.746300  1.0  -0.3323
  O  O404  1  0.361600  0.431000  0.246300  1.0  -0.3323
  O  O405  1  0.431000  0.638400  0.753700  1.0  -0.3298
  O  O406  1  0.931000  0.138400  0.253700  1.0  -0.3298
  O  O407  1  0.569000  0.361600  0.753700  1.0  -0.3286
  O  O408  1  0.069000  0.861600  0.253700  1.0  -0.3286
