# generated using pymatgen
data_TbH15(C9O2)3
_symmetry_space_group_name_H-M   'P 1'
_cell_length_a   12.21480000
_cell_length_b   16.97000000
_cell_length_c   16.97000000
_cell_angle_alpha   65.56560000
_cell_angle_beta   76.11770000
_cell_angle_gamma   103.88200000
_symmetry_Int_Tables_number   1
_chemical_formula_structural   TbH15(C9O2)3
_chemical_formula_sum   'Tb3 H45 C81 O18'
_cell_volume   2870.99972974
_cell_formula_units_Z   3
loop_
 _symmetry_equiv_pos_site_id
 _symmetry_equiv_pos_as_xyz
  1  'x, y, z'
loop_
 _atom_site_type_symbol
 _atom_site_label
 _atom_site_symmetry_multiplicity
 _atom_site_fract_x
 _atom_site_fract_y
 _atom_site_fract_z
 _atom_site_occupancy
 _atom_site_charge
  Tb  Tb1  1  0.000000  0.322490  0.322490  1.0  2.2735
  Tb  Tb2  1  0.322490  0.322490  0.355020  1.0  2.2735
  Tb  Tb3  1  0.677510  0.355020  0.322490  1.0  2.2751
  H  H4  1  0.860900  0.017300  0.574500  1.0  0.1225
  H  H5  1  0.791900  0.856100  0.660800  1.0  0.0996
  H  H6  1  0.804000  0.715900  0.763000  1.0  0.1022
  H  H7  1  0.802000  0.622400  0.912200  1.0  0.1131
  H  H8  1  0.712600  0.535800  0.071600  1.0  0.1148
  H  H9  1  0.479600  0.339100  0.053700  1.0  0.1096
  H  H10  1  0.569500  0.424400  0.894500  1.0  0.1159
  H  H11  1  0.435400  0.574500  0.408200  1.0  0.1215
  H  H12  1  0.452700  0.660800  0.483100  1.0  0.0998
  H  H13  1  0.567000  0.763000  0.521100  1.0  0.103
  H  H14  1  0.714200  0.912200  0.465400  1.0  0.1127
  H  H15  1  0.784200  0.071600  0.392600  1.0  0.1145
  H  H16  1  0.533300  0.053700  0.607200  1.0  0.1078
  H  H17  1  0.464000  0.894500  0.681100  1.0  0.1148
  H  H18  1  0.843600  0.408200  0.017300  1.0  0.1206
  H  H19  1  0.935800  0.483100  0.856100  1.0  0.1005
  H  H20  1  0.088100  0.521100  0.715900  1.0  0.1024
  H  H21  1  0.179600  0.465400  0.622400  1.0  0.1124
  H  H22  1  0.176800  0.392600  0.535800  1.0  0.1144
  H  H23  1  0.140500  0.607200  0.339100  1.0  0.1073
  H  H24  1  0.145100  0.681100  0.424400  1.0  0.1158
  H  H25  1  0.564600  0.408200  0.574500  1.0  0.1211
  H  H26  1  0.547300  0.483100  0.660800  1.0  0.0997
  H  H27  1  0.433000  0.521100  0.763000  1.0  0.1027
  H  H28  1  0.285800  0.465400  0.912200  1.0  0.1136
  H  H29  1  0.215800  0.392600  0.071600  1.0  0.114
  H  H30  1  0.466700  0.607200  0.053700  1.0  0.1079
  H  H31  1  0.536000  0.681100  0.894500  1.0  0.1159
  H  H32  1  0.156400  0.017300  0.408200  1.0  0.1219
  H  H33  1  0.064200  0.856100  0.483100  1.0  0.0998
  H  H34  1  0.911900  0.715900  0.521100  1.0  0.1021
  H  H35  1  0.820400  0.622400  0.465400  1.0  0.11
  H  H36  1  0.823200  0.535800  0.392600  1.0  0.115
  H  H37  1  0.859500  0.339100  0.607200  1.0  0.1073
  H  H38  1  0.854900  0.424400  0.681100  1.0  0.1157
  H  H39  1  0.139100  0.574500  0.017300  1.0  0.1218
  H  H40  1  0.208100  0.660800  0.856100  1.0  0.0998
  H  H41  1  0.196000  0.763000  0.715900  1.0  0.1034
  H  H42  1  0.198000  0.912200  0.622400  1.0  0.1133
  H  H43  1  0.287400  0.071600  0.535800  1.0  0.1148
  H  H44  1  0.520400  0.053700  0.339100  1.0  0.1109
  H  H45  1  0.430500  0.894500  0.424400  1.0  0.1156
  H  H46  1  0.736550  0.473100  0.763450  1.0  0.1046
  H  H47  1  0.500000  0.763450  0.763450  1.0  0.107
  H  H48  1  0.263450  0.763450  0.473100  1.0  0.1074
  C  C49  1  0.905680  0.985550  0.557810  1.0  -0.1338
  C  C50  1  0.862900  0.888980  0.606980  1.0  -0.1275
  C  C51  1  0.809650  0.683490  0.730440  1.0  -0.0833
  C  C52  1  0.761020  0.586570  0.780310  1.0  -0.0164
  C  C53  1  0.699870  0.534320  0.883910  1.0  0.0765
  C  C54  1  0.737610  0.564940  0.940210  1.0  -0.1174
  C  C55  1  0.683610  0.513560  0.035830  1.0  -0.11
  C  C56  1  0.584810  0.427620  0.080090  1.0  -0.1413
  C  C57  1  0.544800  0.396110  0.025210  1.0  -0.0593
  C  C58  1  0.598780  0.446920  0.929980  1.0  -0.1506
  C  C59  1  0.517880  0.376810  0.182670  1.0  0.6673
  C  C60  1  0.463490  0.557810  0.456640  1.0  -0.134
  C  C61  1  0.469880  0.606980  0.504040  1.0  -0.1289
  C  C62  1  0.540090  0.730440  0.586070  1.0  -0.0822
  C  C63  1  0.541330  0.780310  0.633120  1.0  -0.0168
  C  C64  1  0.583780  0.883910  0.581770  1.0  0.0768
  C  C65  1  0.677820  0.940210  0.494850  1.0  -0.1147
  C  C66  1  0.719440  0.035830  0.450610  1.0  -0.1059
  C  C67  1  0.664900  0.080090  0.492290  1.0  -0.1411
  C  C68  1  0.570010  0.025210  0.578680  1.0  -0.0568
  C  C69  1  0.528760  0.929980  0.623100  1.0  -0.1529
  C  C70  1  0.700550  0.182670  0.440520  1.0  0.6662
  C  C71  1  0.920130  0.456640  0.985550  1.0  -0.1311
  C  C72  1  0.973920  0.504040  0.888980  1.0  -0.1281
  C  C73  1  0.126160  0.586070  0.683490  1.0  -0.0812
  C  C74  1  0.174450  0.633120  0.586570  1.0  -0.018
  C  C75  1  0.165550  0.581770  0.534320  1.0  0.0748
  C  C76  1  0.172670  0.494850  0.564940  1.0  -0.1195
  C  C77  1  0.170050  0.450610  0.513560  1.0  -0.1088
  C  C78  1  0.157190  0.492290  0.427620  1.0  -0.1411
  C  C79  1  0.148690  0.578680  0.396110  1.0  -0.0517
  C  C80  1  0.151860  0.623100  0.446920  1.0  -0.1536
  C  C81  1  0.141070  0.440520  0.376810  1.0  0.6659
  C  C82  1  0.536510  0.456640  0.557810  1.0  -0.1293
  C  C83  1  0.530120  0.504040  0.606980  1.0  -0.1286
  C  C84  1  0.459910  0.586070  0.730440  1.0  -0.0821
  C  C85  1  0.458670  0.633120  0.780310  1.0  -0.019
  C  C86  1  0.416220  0.581770  0.883910  1.0  0.0745
  C  C87  1  0.322180  0.494850  0.940210  1.0  -0.1179
  C  C88  1  0.280560  0.450610  0.035830  1.0  -0.1066
  C  C89  1  0.335100  0.492290  0.080090  1.0  -0.1419
  C  C90  1  0.429990  0.578680  0.025210  1.0  -0.0533
  C  C91  1  0.471240  0.623100  0.929980  1.0  -0.1547
  C  C92  1  0.299450  0.440520  0.182670  1.0  0.6661
  C  C93  1  0.079870  0.985550  0.456640  1.0  -0.1306
  C  C94  1  0.026080  0.888980  0.504040  1.0  -0.1275
  C  C95  1  0.873840  0.683490  0.586070  1.0  -0.0821
  C  C96  1  0.825550  0.586570  0.633120  1.0  -0.0168
  C  C97  1  0.834450  0.534320  0.581770  1.0  0.0758
  C  C98  1  0.827330  0.564940  0.494850  1.0  -0.1185
  C  C99  1  0.829950  0.513560  0.450610  1.0  -0.1076
  C  C100  1  0.842810  0.427620  0.492290  1.0  -0.1415
  C  C101  1  0.851310  0.396110  0.578680  1.0  -0.0602
  C  C102  1  0.848140  0.446920  0.623100  1.0  -0.15
  C  C103  1  0.858930  0.376810  0.440520  1.0  0.6663
  C  C104  1  0.094320  0.557810  0.985550  1.0  -0.1338
  C  C105  1  0.137100  0.606980  0.888980  1.0  -0.1303
  C  C106  1  0.190350  0.730440  0.683490  1.0  -0.0819
  C  C107  1  0.238980  0.780310  0.586570  1.0  -0.0171
  C  C108  1  0.300130  0.883910  0.534320  1.0  0.0768
  C  C109  1  0.262390  0.940210  0.564940  1.0  -0.114
  C  C110  1  0.316390  0.035830  0.513560  1.0  -0.1061
  C  C111  1  0.415190  0.080090  0.427620  1.0  -0.14
  C  C112  1  0.455200  0.025210  0.396110  1.0  -0.0538
  C  C113  1  0.401220  0.929980  0.446920  1.0  -0.1502
  C  C114  1  0.482120  0.182670  0.376810  1.0  0.6659
  C  C115  1  0.070140  0.140280  0.429860  1.0  0.7422
  C  C116  1  0.016710  0.033420  0.483290  1.0  -0.08
  C  C117  1  0.920380  0.840760  0.579620  1.0  0.0631
  C  C118  1  0.867030  0.734060  0.632970  1.0  0.0256
  C  C119  1  0.769130  0.538260  0.730870  1.0  -0.091
  C  C120  1  0.500000  0.429860  0.429860  1.0  0.744
  C  C121  1  0.500000  0.483290  0.483290  1.0  -0.0852
  C  C122  1  0.500000  0.579620  0.579620  1.0  0.0618
  C  C123  1  0.500000  0.632970  0.632970  1.0  0.0255
  C  C124  1  0.500000  0.730870  0.730870  1.0  -0.0928
  C  C125  1  0.929860  0.429860  0.140280  1.0  0.7442
  C  C126  1  0.983290  0.483290  0.033420  1.0  -0.0845
  C  C127  1  0.079620  0.579620  0.840760  1.0  0.0626
  C  C128  1  0.132970  0.632970  0.734060  1.0  0.0253
  C  C129  1  0.230870  0.730870  0.538260  1.0  -0.0922
  O  O130  1  0.997260  0.180700  0.430700  1.0  -0.6941
  O  O131  1  0.560310  0.404830  0.233160  1.0  -0.7768
  O  O132  1  0.415890  0.311290  0.219420  1.0  -0.6293
  O  O133  1  0.427960  0.430700  0.388600  1.0  -0.6925
  O  O134  1  0.793470  0.233160  0.362010  1.0  -0.7747
  O  O135  1  0.635310  0.219420  0.469290  1.0  -0.6378
  O  O136  1  0.816560  0.388600  0.180700  1.0  -0.693
  O  O137  1  0.155480  0.362010  0.404830  1.0  -0.7719
  O  O138  1  0.104600  0.469290  0.311290  1.0  -0.6355
  O  O139  1  0.572040  0.388600  0.430700  1.0  -0.6933
  O  O140  1  0.206530  0.362010  0.233160  1.0  -0.7725
  O  O141  1  0.364690  0.469290  0.219420  1.0  -0.6354
  O  O142  1  0.183440  0.180700  0.388600  1.0  -0.6951
  O  O143  1  0.844520  0.404830  0.362010  1.0  -0.7772
  O  O144  1  0.895400  0.311290  0.469290  1.0  -0.628
  O  O145  1  0.002740  0.430700  0.180700  1.0  -0.6938
  O  O146  1  0.439690  0.233160  0.404830  1.0  -0.7744
  O  O147  1  0.584110  0.219420  0.311290  1.0  -0.6372
