# generated using pymatgen
data_Cu3H12C8(N2O)8
_symmetry_space_group_name_H-M   'P 1'
_cell_length_a   6.68500000
_cell_length_b   9.90500000
_cell_length_c   20.66600000
_cell_angle_alpha   90.00000000
_cell_angle_beta   91.91000000
_cell_angle_gamma   90.00000000
_symmetry_Int_Tables_number   1
_chemical_formula_structural   Cu3H12C8(N2O)8
_chemical_formula_sum   'Cu6 H24 C16 N32 O16'
_cell_volume   1367.63737755
_cell_formula_units_Z   2
loop_
 _symmetry_equiv_pos_site_id
 _symmetry_equiv_pos_as_xyz
  1  'x, y, z'
loop_
 _atom_site_type_symbol
 _atom_site_label
 _atom_site_symmetry_multiplicity
 _atom_site_fract_x
 _atom_site_fract_y
 _atom_site_fract_z
 _atom_site_occupancy
 _atom_site_charge
  Cu  Cu1  1  0.326650  0.295810  0.721170  1.0  0.5756
  Cu  Cu2  1  0.673350  0.795810  0.778830  1.0  0.5732
  Cu  Cu3  1  0.673350  0.704190  0.278830  1.0  0.5732
  Cu  Cu4  1  0.326650  0.204190  0.221170  1.0  0.5757
  Cu  Cu5  1  0.000000  0.000000  0.000000  1.0  0.4108
  Cu  Cu6  1  0.000000  0.500000  0.500000  1.0  0.4108
  H  H7  1  0.895700  0.054900  0.736500  1.0  0.3091
  H  H8  1  0.988000  0.228300  0.946200  1.0  0.3293
  H  H9  1  0.185500  0.170900  0.934500  1.0  0.326
  H  H10  1  0.425600  0.756800  0.657500  1.0  0.3063
  H  H11  1  0.095200  0.166700  0.644700  1.0  0.3206
  H  H12  1  0.272800  0.201300  0.608600  1.0  0.33
  H  H13  1  0.104300  0.554900  0.763500  1.0  0.3085
  H  H14  1  0.012000  0.728300  0.553800  1.0  0.3288
  H  H15  1  0.814500  0.670900  0.565500  1.0  0.3265
  H  H16  1  0.574400  0.256800  0.842500  1.0  0.3069
  H  H17  1  0.904800  0.666667  0.855300  1.0  0.3189
  H  H18  1  0.727200  0.701300  0.891400  1.0  0.3285
  H  H19  1  0.104300  0.945100  0.263500  1.0  0.3086
  H  H20  1  0.012000  0.771700  0.053800  1.0  0.3287
  H  H21  1  0.814500  0.829100  0.065500  1.0  0.3263
  H  H22  1  0.574400  0.243200  0.342500  1.0  0.306
  H  H23  1  0.904800  0.833300  0.355300  1.0  0.3185
  H  H24  1  0.727200  0.798700  0.391400  1.0  0.3288
  H  H25  1  0.895700  0.445100  0.236500  1.0  0.3094
  H  H26  1  0.988000  0.271700  0.446200  1.0  0.3286
  H  H27  1  0.185500  0.329100  0.434500  1.0  0.3259
  H  H28  1  0.425600  0.743200  0.157500  1.0  0.305
  H  H29  1  0.095200  0.333333  0.144700  1.0  0.3204
  H  H30  1  0.272800  0.298700  0.108600  1.0  0.3307
  C  C31  1  0.886000  0.977400  0.875600  1.0  0.5503
  C  C32  1  0.998000  0.149000  0.813800  1.0  0.5128
  C  C33  1  0.431400  0.031200  0.717600  1.0  0.5432
  C  C34  1  0.301400  0.924100  0.628000  1.0  0.5069
  C  C35  1  0.114000  0.477400  0.624400  1.0  0.5509
  C  C36  1  0.002000  0.649000  0.686200  1.0  0.5063
  C  C37  1  0.568600  0.531200  0.782400  1.0  0.5427
  C  C38  1  0.698600  0.424100  0.872000  1.0  0.5079
  C  C39  1  0.114000  0.022600  0.124400  1.0  0.5517
  C  C40  1  0.002000  0.851000  0.186200  1.0  0.5052
  C  C41  1  0.568600  0.968800  0.282400  1.0  0.5427
  C  C42  1  0.698600  0.075900  0.372000  1.0  0.5104
  C  C43  1  0.886000  0.522600  0.375600  1.0  0.5512
  C  C44  1  0.998000  0.351000  0.313800  1.0  0.5124
  C  C45  1  0.431400  0.468800  0.217600  1.0  0.5431
  C  C46  1  0.301400  0.575900  0.128000  1.0  0.5097
  N  N47  1  0.907000  0.052200  0.778100  1.0  -0.2374
  N  N48  1  0.832400  0.946400  0.815200  1.0  -0.4132
  N  N49  1  0.980600  0.100000  0.876100  1.0  -0.096
  N  N50  1  0.053900  0.152600  0.935700  1.0  -0.4509
  N  N51  1  0.409900  0.841000  0.665900  1.0  -0.2525
  N  N52  1  0.496100  0.904200  0.721100  1.0  -0.4263
  N  N53  1  0.313200  0.044300  0.661900  1.0  -0.1197
  N  N54  1  0.229700  0.171200  0.646800  1.0  -0.4913
  N  N55  1  0.093000  0.552200  0.721900  1.0  -0.2374
  N  N56  1  0.167600  0.446400  0.684800  1.0  -0.4115
  N  N57  1  0.019400  0.600000  0.623900  1.0  -0.1028
  N  N58  1  0.946100  0.652600  0.564300  1.0  -0.4537
  N  N59  1  0.590100  0.341000  0.834100  1.0  -0.2521
  N  N60  1  0.503900  0.404200  0.778900  1.0  -0.4216
  N  N61  1  0.686800  0.544300  0.838100  1.0  -0.1156
  N  N62  1  0.770300  0.671200  0.853200  1.0  -0.4914
  N  N63  1  0.093000  0.947800  0.221900  1.0  -0.2372
  N  N64  1  0.167600  0.053600  0.184800  1.0  -0.4119
  N  N65  1  0.019400  0.900000  0.123900  1.0  -0.1029
  N  N66  1  0.946100  0.847400  0.064300  1.0  -0.4572
  N  N67  1  0.590100  0.159000  0.334100  1.0  -0.2532
  N  N68  1  0.503900  0.095800  0.278900  1.0  -0.4207
  N  N69  1  0.686800  0.955700  0.338100  1.0  -0.116
  N  N70  1  0.770300  0.828800  0.353200  1.0  -0.4916
  N  N71  1  0.907000  0.447800  0.278100  1.0  -0.237
  N  N72  1  0.832400  0.553600  0.315200  1.0  -0.4134
  N  N73  1  0.980600  0.400000  0.376100  1.0  -0.0961
  N  N74  1  0.053900  0.347400  0.435700  1.0  -0.453
  N  N75  1  0.409900  0.659000  0.165900  1.0  -0.2532
  N  N76  1  0.496100  0.595800  0.221100  1.0  -0.4258
  N  N77  1  0.313200  0.455700  0.161900  1.0  -0.1199
  N  N78  1  0.229700  0.328800  0.146800  1.0  -0.4909
  O  O79  1  0.859000  0.910400  0.926760  1.0  -0.5831
  O  O80  1  0.077600  0.255800  0.797330  1.0  -0.5815
  O  O81  1  0.464400  0.130700  0.753950  1.0  -0.5605
  O  O82  1  0.212100  0.903200  0.576110  1.0  -0.6
  O  O83  1  0.141000  0.410400  0.573240  1.0  -0.584
  O  O84  1  0.922400  0.755800  0.702670  1.0  -0.5818
  O  O85  1  0.535600  0.630700  0.746050  1.0  -0.5595
  O  O86  1  0.787900  0.403200  0.923890  1.0  -0.5942
  O  O87  1  0.141000  0.089600  0.073240  1.0  -0.5837
  O  O88  1  0.922400  0.744200  0.202670  1.0  -0.5823
  O  O89  1  0.535600  0.869300  0.246050  1.0  -0.5599
  O  O90  1  0.787900  0.096800  0.423890  1.0  -0.5934
  O  O91  1  0.859000  0.589600  0.426760  1.0  -0.5833
  O  O92  1  0.077600  0.244200  0.297330  1.0  -0.5821
  O  O93  1  0.464400  0.369300  0.253950  1.0  -0.5602
  O  O94  1  0.212100  0.596800  0.076110  1.0  -0.6002
