# generated using pymatgen
data_Al4(PO4)5
_symmetry_space_group_name_H-M   'P 1'
_cell_length_a   5.09190000
_cell_length_b   9.25280000
_cell_length_c   12.74000000
_cell_angle_alpha   73.82000000
_cell_angle_beta   84.58000000
_cell_angle_gamma   74.13000000
_symmetry_Int_Tables_number   1
_chemical_formula_structural   Al4(PO4)5
_chemical_formula_sum   'Al4 P5 O20'
_cell_volume   554.38148583
_cell_formula_units_Z   1
loop_
 _symmetry_equiv_pos_site_id
 _symmetry_equiv_pos_as_xyz
  1  'x, y, z'
loop_
 _atom_site_type_symbol
 _atom_site_label
 _atom_site_symmetry_multiplicity
 _atom_site_fract_x
 _atom_site_fract_y
 _atom_site_fract_z
 _atom_site_occupancy
 _atom_site_charge
  Al  Al1  1  0.962100  0.710200  0.154080  1.0  1.8778
  Al  Al2  1  0.284800  0.032900  0.402220  1.0  1.9948
  Al  Al3  1  0.782700  0.277700  0.120200  1.0  1.9418
  Al  Al4  1  0.461800  0.958400  0.867650  1.0  1.9828
  P  P5  1  0.872300  0.049100  0.971860  1.0  1.9828
  P  P6  1  0.361100  0.100900  0.618100  1.0  1.5966
  P  P7  1  0.210100  0.350700  0.235630  1.0  1.912
  P  P8  1  0.530900  0.637800  0.035840  1.0  1.8854
  P  P9  1  0.878700  0.940900  0.298060  1.0  1.9506
  O  O10  1  0.338100  0.006200  0.539900  1.0  -0.9293
  O  O11  1  0.413600  0.984600  0.731100  1.0  -0.947
  O  O12  1  0.049200  0.929000  0.395700  1.0  -0.8276
  O  O13  1  0.700700  0.058500  0.876200  1.0  -0.8491
  O  O14  1  0.655200  0.662400  0.130700  1.0  -0.8932
  O  O15  1  0.167700  0.045600  0.931600  1.0  -1.0181
  O  O16  1  0.569600  0.760500  0.927700  1.0  -0.91
  O  O17  1  0.085000  0.327300  0.139200  1.0  -0.8753
  O  O18  1  0.583100  0.956900  0.338500  1.0  -1.0187
  O  O19  1  0.163800  0.232700  0.342500  1.0  -0.9166
  O  O20  1  0.516000  0.328600  0.215800  1.0  -0.9312
  O  O21  1  0.225800  0.656300  0.058600  1.0  -0.9312
  O  O22  1  0.852000  0.909200  0.062000  1.0  -0.866
  O  O23  1  0.909700  0.079400  0.206100  1.0  -0.9485
  O  O24  1  0.568300  0.192100  0.584900  1.0  -0.5695
  O  O25  1  0.978800  0.787900  0.265500  1.0  -0.8928
  O  O26  1  0.080900  0.511700  0.254200  1.0  -0.7483
  O  O27  1  0.664300  0.478300  0.015200  1.0  -0.7458
  O  O28  1  0.762300  0.203400  0.004200  1.0  -0.8459
  O  O29  1  0.070800  0.220400  0.621600  1.0  -0.4608
