# generated using pymatgen
data_ZnH12C18NO4
_symmetry_space_group_name_H-M   'P 1'
_cell_length_a   13.01330000
_cell_length_b   13.01330000
_cell_length_c   13.92200000
_cell_angle_alpha   106.37300000
_cell_angle_beta   106.37300000
_cell_angle_gamma   91.27340000
_symmetry_Int_Tables_number   1
_chemical_formula_structural   ZnH12C18NO4
_chemical_formula_sum   'Zn4 H48 C72 N4 O16'
_cell_volume   2157.01172414
_cell_formula_units_Z   4
loop_
 _symmetry_equiv_pos_site_id
 _symmetry_equiv_pos_as_xyz
  1  'x, y, z'
loop_
 _atom_site_type_symbol
 _atom_site_label
 _atom_site_symmetry_multiplicity
 _atom_site_fract_x
 _atom_site_fract_y
 _atom_site_fract_z
 _atom_site_occupancy
 _atom_site_charge
  Zn  Zn1  1  0.187500  0.866780  0.866620  1.0  0.9335
  Zn  Zn2  1  0.133220  0.812500  0.633380  1.0  0.9327
  Zn  Zn3  1  0.812500  0.133220  0.133380  1.0  0.9341
  Zn  Zn4  1  0.866780  0.187500  0.366620  1.0  0.932
  H  H5  1  0.537100  0.899300  0.938700  1.0  0.1016
  H  H6  1  0.715400  0.899200  0.951200  1.0  0.1042
  H  H7  1  0.455700  0.807700  0.622500  1.0  0.1073
  H  H8  1  0.858900  0.860900  0.861500  1.0  0.104
  H  H9  1  0.047000  0.924000  0.996700  1.0  0.0824
  H  H10  1  0.019600  0.910600  0.148400  1.0  0.1235
  H  H11  1  0.309300  0.798700  0.220800  1.0  0.1278
  H  H12  1  0.406700  0.872700  0.050500  1.0  0.1435
  H  H13  1  0.416700  0.779500  0.106000  1.0  0.1403
  H  H14  1  0.349900  0.753300  0.984600  1.0  0.1541
  H  H15  1  0.780000  0.785800  0.546400  1.0  0.1037
  H  H16  1  0.598300  0.786500  0.535500  1.0  0.1154
  H  H17  1  0.100700  0.462900  0.561300  1.0  0.1016
  H  H18  1  0.100800  0.284600  0.548800  1.0  0.1044
  H  H19  1  0.192300  0.544300  0.877500  1.0  0.1056
  H  H20  1  0.139100  0.141100  0.638500  1.0  0.104
  H  H21  1  0.076000  0.953000  0.503300  1.0  0.0836
  H  H22  1  0.089400  0.980400  0.351600  1.0  0.1231
  H  H23  1  0.201300  0.690700  0.279200  1.0  0.1292
  H  H24  1  0.127300  0.593300  0.449500  1.0  0.1438
  H  H25  1  0.220500  0.583300  0.394000  1.0  0.1388
  H  H26  1  0.246700  0.650100  0.515400  1.0  0.1538
  H  H27  1  0.214200  0.220000  0.953600  1.0  0.1045
  H  H28  1  0.213500  0.401700  0.964500  1.0  0.1157
  H  H29  1  0.462900  0.100700  0.061300  1.0  0.1014
  H  H30  1  0.284600  0.100800  0.048800  1.0  0.1023
  H  H31  1  0.544300  0.192300  0.377500  1.0  0.1079
  H  H32  1  0.141100  0.139100  0.138500  1.0  0.1043
  H  H33  1  0.953000  0.076000  0.003300  1.0  0.0829
  H  H34  1  0.980400  0.089400  0.851600  1.0  0.1248
  H  H35  1  0.690700  0.201300  0.779200  1.0  0.1288
  H  H36  1  0.593300  0.127300  0.949500  1.0  0.1441
  H  H37  1  0.583300  0.220500  0.894000  1.0  0.1405
  H  H38  1  0.650100  0.246700  0.015400  1.0  0.1548
  H  H39  1  0.220000  0.214200  0.453600  1.0  0.1036
  H  H40  1  0.401700  0.213500  0.464500  1.0  0.115
  H  H41  1  0.899300  0.537100  0.438700  1.0  0.1014
  H  H42  1  0.899200  0.715400  0.451200  1.0  0.1046
  H  H43  1  0.807700  0.455700  0.122500  1.0  0.1052
  H  H44  1  0.860900  0.858900  0.361500  1.0  0.1036
  H  H45  1  0.924000  0.047000  0.496700  1.0  0.0825
  H  H46  1  0.910600  0.019600  0.648400  1.0  0.1231
  H  H47  1  0.798700  0.309300  0.720800  1.0  0.1277
  H  H48  1  0.872700  0.406700  0.550500  1.0  0.1445
  H  H49  1  0.779500  0.416700  0.606000  1.0  0.141
  H  H50  1  0.753300  0.349900  0.484600  1.0  0.1538
  H  H51  1  0.785800  0.780000  0.046400  1.0  0.1043
  H  H52  1  0.786500  0.598300  0.035500  1.0  0.1159
  C  C53  1  0.361200  0.849800  0.770700  1.0  0.6835
  C  C54  1  0.477900  0.851700  0.777800  1.0  -0.1242
  C  C55  1  0.558100  0.879900  0.876400  1.0  -0.0432
  C  C56  1  0.663200  0.879600  0.883900  1.0  -0.129
  C  C57  1  0.509100  0.825300  0.689000  1.0  -0.0976
  C  C58  1  0.697100  0.850500  0.792500  1.0  0.0394
  C  C59  1  0.805400  0.848000  0.795500  1.0  -0.0942
  C  C60  1  0.101200  0.898200  0.043000  1.0  0.185
  C  C61  1  0.084200  0.890600  0.132800  1.0  -0.2035
  C  C62  1  0.162600  0.853000  0.201400  1.0  0.1054
  C  C63  1  0.254900  0.825300  0.175500  1.0  -0.2422
  C  C64  1  0.268900  0.836100  0.083300  1.0  0.3598
  C  C65  1  0.369300  0.807900  0.053500  1.0  -0.4396
  C  C66  1  0.836900  0.827500  0.706700  1.0  -0.1258
  C  C67  1  0.954500  0.830700  0.714200  1.0  0.6668
  C  C68  1  0.758900  0.802500  0.608600  1.0  -0.058
  C  C69  1  0.650800  0.802000  0.602300  1.0  -0.1441
  C  C70  1  0.617300  0.823900  0.693300  1.0  0.0434
  C  C71  1  0.150200  0.638800  0.729300  1.0  0.6847
  C  C72  1  0.148300  0.522100  0.722200  1.0  -0.124
  C  C73  1  0.120100  0.441900  0.623600  1.0  -0.0414
  C  C74  1  0.120400  0.336800  0.616100  1.0  -0.1274
  C  C75  1  0.174700  0.490900  0.811000  1.0  -0.0995
  C  C76  1  0.149500  0.302900  0.707500  1.0  0.0406
  C  C77  1  0.152000  0.194600  0.704500  1.0  -0.0935
  C  C78  1  0.101800  0.898800  0.457000  1.0  0.1846
  C  C79  1  0.109400  0.915800  0.367200  1.0  -0.203
  C  C80  1  0.147000  0.837400  0.298600  1.0  0.1069
  C  C81  1  0.174700  0.745100  0.324500  1.0  -0.243
  C  C82  1  0.163900  0.731100  0.416700  1.0  0.3595
  C  C83  1  0.192100  0.630700  0.446500  1.0  -0.44
  C  C84  1  0.172500  0.163100  0.793300  1.0  -0.1262
  C  C85  1  0.169300  0.045500  0.785800  1.0  0.6704
  C  C86  1  0.197500  0.241100  0.891400  1.0  -0.0615
  C  C87  1  0.198000  0.349200  0.897700  1.0  -0.1451
  C  C88  1  0.176100  0.382700  0.806700  1.0  0.0446
  C  C89  1  0.638800  0.150200  0.229300  1.0  0.6833
  C  C90  1  0.522100  0.148300  0.222200  1.0  -0.1237
  C  C91  1  0.441900  0.120100  0.123600  1.0  -0.0429
  C  C92  1  0.336800  0.120400  0.116100  1.0  -0.1277
  C  C93  1  0.490900  0.174700  0.311000  1.0  -0.0997
  C  C94  1  0.302900  0.149500  0.207500  1.0  0.0404
  C  C95  1  0.194600  0.152000  0.204500  1.0  -0.0931
  C  C96  1  0.898800  0.101800  0.957000  1.0  0.1844
  C  C97  1  0.915800  0.109400  0.867200  1.0  -0.2039
  C  C98  1  0.837400  0.147000  0.798600  1.0  0.1026
  C  C99  1  0.745100  0.174700  0.824500  1.0  -0.243
  C  C100  1  0.731100  0.163900  0.916700  1.0  0.3566
  C  C101  1  0.630700  0.192100  0.946500  1.0  -0.4372
  C  C102  1  0.163100  0.172500  0.293300  1.0  -0.1249
  C  C103  1  0.045500  0.169300  0.285800  1.0  0.6668
  C  C104  1  0.241100  0.197500  0.391400  1.0  -0.0583
  C  C105  1  0.349200  0.198000  0.397700  1.0  -0.1446
  C  C106  1  0.382700  0.176100  0.306700  1.0  0.0439
  C  C107  1  0.849800  0.361200  0.270700  1.0  0.6835
  C  C108  1  0.851700  0.477900  0.277800  1.0  -0.1241
  C  C109  1  0.879900  0.558100  0.376400  1.0  -0.0419
  C  C110  1  0.879600  0.663200  0.383900  1.0  -0.1275
  C  C111  1  0.825300  0.509100  0.189000  1.0  -0.0962
  C  C112  1  0.850500  0.697100  0.292500  1.0  0.0412
  C  C113  1  0.848000  0.805400  0.295500  1.0  -0.0924
  C  C114  1  0.898200  0.101200  0.543000  1.0  0.1843
  C  C115  1  0.890600  0.084200  0.632800  1.0  -0.204
  C  C116  1  0.853000  0.162600  0.701400  1.0  0.1067
  C  C117  1  0.825300  0.254900  0.675500  1.0  -0.2443
  C  C118  1  0.836100  0.268900  0.583300  1.0  0.3604
  C  C119  1  0.807900  0.369300  0.553500  1.0  -0.4399
  C  C120  1  0.827500  0.836900  0.206700  1.0  -0.1271
  C  C121  1  0.830700  0.954500  0.214200  1.0  0.6703
  C  C122  1  0.802500  0.758900  0.108600  1.0  -0.0606
  C  C123  1  0.802000  0.650800  0.102300  1.0  -0.1445
  C  C124  1  0.823900  0.617300  0.193300  1.0  0.0441
  N  N125  1  0.191100  0.870900  0.015900  1.0  -0.3686
  N  N126  1  0.129100  0.808900  0.484100  1.0  -0.3661
  N  N127  1  0.808900  0.129100  0.984100  1.0  -0.3668
  N  N128  1  0.870900  0.191100  0.515900  1.0  -0.3672
  O  O129  1  0.336510  0.888890  0.854600  1.0  -0.589
  O  O130  1  0.294800  0.808000  0.681100  1.0  -0.5972
  O  O131  1  0.977680  0.830320  0.631900  1.0  -0.5753
  O  O132  1  0.021200  0.835600  0.801200  1.0  -0.5992
  O  O133  1  0.111110  0.663490  0.645400  1.0  -0.5869
  O  O134  1  0.192000  0.705200  0.818900  1.0  -0.5971
  O  O135  1  0.169680  0.022320  0.868100  1.0  -0.5739
  O  O136  1  0.164400  0.978800  0.698800  1.0  -0.5985
  O  O137  1  0.663490  0.111110  0.145400  1.0  -0.5889
  O  O138  1  0.705200  0.192000  0.318900  1.0  -0.5966
  O  O139  1  0.022320  0.169680  0.368100  1.0  -0.5746
  O  O140  1  0.978800  0.164400  0.198800  1.0  -0.5996
  O  O141  1  0.888890  0.336510  0.354600  1.0  -0.5864
  O  O142  1  0.808000  0.294800  0.181100  1.0  -0.5969
  O  O143  1  0.830320  0.977680  0.131900  1.0  -0.5749
  O  O144  1  0.835600  0.021200  0.301200  1.0  -0.598
