# generated using pymatgen
data_La2NiH14C26(N3O8)2
_symmetry_space_group_name_H-M   'P 1'
_cell_length_a   7.29180000
_cell_length_b   9.34000000
_cell_length_c   14.12900000
_cell_angle_alpha   83.81600000
_cell_angle_beta   85.46100000
_cell_angle_gamma   72.64600000
_symmetry_Int_Tables_number   1
_chemical_formula_structural   La2NiH14C26(N3O8)2
_chemical_formula_sum   'La2 Ni1 H14 C26 N6 O16'
_cell_volume   911.99385010
_cell_formula_units_Z   1
loop_
 _symmetry_equiv_pos_site_id
 _symmetry_equiv_pos_as_xyz
  1  'x, y, z'
loop_
 _atom_site_type_symbol
 _atom_site_label
 _atom_site_symmetry_multiplicity
 _atom_site_fract_x
 _atom_site_fract_y
 _atom_site_fract_z
 _atom_site_occupancy
 _atom_site_charge
  La  La1  1  0.506170  0.285550  0.595960  1.0  2.1698
  La  La2  1  0.493830  0.714450  0.404040  1.0  2.1703
  Ni  Ni3  1  0.500000  0.500000  0.000000  1.0  0.696
  H  H4  1  0.837300  0.538000  0.003900  1.0  0.2968
  H  H5  1  0.700200  0.685900  0.006600  1.0  0.33
  H  H6  1  0.193600  0.829200  0.902100  1.0  0.1119
  H  H7  1  0.216500  0.877800  0.734700  1.0  0.3355
  H  H8  1  0.989500  0.441000  0.858900  1.0  0.1192
  H  H9  1  0.918500  0.736900  0.626000  1.0  0.116
  H  H10  1  0.624300  0.856500  0.871900  1.0  0.1229
  H  H11  1  0.162700  0.462000  0.996100  1.0  0.2959
  H  H12  1  0.299800  0.314100  0.993400  1.0  0.3377
  H  H13  1  0.806400  0.170800  0.097900  1.0  0.1112
  H  H14  1  0.783500  0.122200  0.265300  1.0  0.3364
  H  H15  1  0.010500  0.559000  0.141100  1.0  0.1195
  H  H16  1  0.081500  0.263100  0.374000  1.0  0.1161
  H  H17  1  0.375700  0.143500  0.128100  1.0  0.1228
  C  C18  1  0.264400  0.762000  0.859300  1.0  0.224
  C  C19  1  0.392700  0.670100  0.724600  1.0  -0.0289
  C  C20  1  0.450700  0.562500  0.799500  1.0  -0.0214
  C  C21  1  0.584600  0.405100  0.810700  1.0  0.6809
  C  C22  1  0.444100  0.681200  0.621100  1.0  0.6992
  C  C23  1  0.127400  0.457500  0.679800  1.0  0.6483
  C  C24  1  0.795900  0.642000  0.881000  1.0  0.1978
  C  C25  1  0.930200  0.535800  0.829400  1.0  -0.145
  C  C26  1  0.976200  0.570900  0.733800  1.0  -0.1378
  C  C27  1  0.888600  0.713100  0.689900  1.0  -0.043
  C  C28  1  0.711400  0.784300  0.837100  1.0  -0.1613
  C  C29  1  0.755700  0.819800  0.742000  1.0  -0.0983
  C  C30  1  0.659300  0.972700  0.693400  1.0  0.6701
  C  C31  1  0.735600  0.238000  0.140700  1.0  0.2233
  C  C32  1  0.607300  0.329900  0.275400  1.0  -0.0277
  C  C33  1  0.549300  0.437500  0.200500  1.0  -0.0202
  C  C34  1  0.415400  0.594900  0.189300  1.0  0.6812
  C  C35  1  0.555900  0.318800  0.378900  1.0  0.7005
  C  C36  1  0.872600  0.542500  0.320200  1.0  0.6534
  C  C37  1  0.204100  0.358000  0.119000  1.0  0.1986
  C  C38  1  0.069800  0.464200  0.170600  1.0  -0.1403
  C  C39  1  0.023800  0.429100  0.266200  1.0  -0.1348
  C  C40  1  0.111400  0.286900  0.310100  1.0  -0.0454
  C  C41  1  0.288600  0.215700  0.162900  1.0  -0.1612
  C  C42  1  0.244300  0.180200  0.258000  1.0  -0.0976
  C  C43  1  0.340700  0.027300  0.306600  1.0  0.6702
  N  N44  1  0.734300  0.602000  0.975600  1.0  -0.6005
  N  N45  1  0.368100  0.623000  0.883600  1.0  -0.3674
  N  N46  1  0.274600  0.793600  0.765000  1.0  -0.2201
  N  N47  1  0.265700  0.398000  0.024400  1.0  -0.603
  N  N48  1  0.631900  0.377000  0.116400  1.0  -0.3668
  N  N49  1  0.725400  0.206400  0.235000  1.0  -0.2193
  O  O50  1  0.626400  0.356500  0.896100  1.0  -0.5655
  O  O51  1  0.648500  0.334300  0.739900  1.0  -0.6665
  O  O52  1  0.404600  0.809600  0.578200  1.0  -0.6018
  O  O53  1  0.522500  0.563000  0.579200  1.0  -0.7722
  O  O54  1  0.161700  0.482500  0.592400  1.0  -0.6698
  O  O55  1  0.224600  0.340300  0.726000  1.0  -0.6503
  O  O56  1  0.721200  0.010400  0.611600  1.0  -0.691
  O  O57  1  0.519900  0.060900  0.734900  1.0  -0.6395
  O  O58  1  0.373600  0.643500  0.103900  1.0  -0.5652
  O  O59  1  0.351500  0.665700  0.260100  1.0  -0.6676
  O  O60  1  0.595400  0.190400  0.421800  1.0  -0.6004
  O  O61  1  0.477500  0.437000  0.420800  1.0  -0.7708
  O  O62  1  0.838300  0.517500  0.407600  1.0  -0.6712
  O  O63  1  0.775400  0.659700  0.274000  1.0  -0.6499
  O  O64  1  0.278800  0.989600  0.388400  1.0  -0.6926
  O  O65  1  0.480100  0.939100  0.265100  1.0  -0.6412
