# generated using pymatgen
data_Nd2NiH14C26(N3O8)2
_symmetry_space_group_name_H-M   'P 1'
_cell_length_a   7.29040000
_cell_length_b   9.24140000
_cell_length_c   14.01400000
_cell_angle_alpha   83.88600000
_cell_angle_beta   85.39800000
_cell_angle_gamma   72.64700000
_symmetry_Int_Tables_number   1
_chemical_formula_structural   Nd2NiH14C26(N3O8)2
_chemical_formula_sum   'Nd2 Ni1 H14 C26 N6 O16'
_cell_volume   894.90324459
_cell_formula_units_Z   1
loop_
 _symmetry_equiv_pos_site_id
 _symmetry_equiv_pos_as_xyz
  1  'x, y, z'
loop_
 _atom_site_type_symbol
 _atom_site_label
 _atom_site_symmetry_multiplicity
 _atom_site_fract_x
 _atom_site_fract_y
 _atom_site_fract_z
 _atom_site_occupancy
 _atom_site_charge
  Nd  Nd1  1  0.495270  0.713100  0.904510  1.0  2.273
  Nd  Nd2  1  0.504730  0.286900  0.095490  1.0  2.2731
  Ni  Ni3  1  0.500000  0.500000  0.500000  1.0  0.6904
  H  H4  1  0.271700  0.325200  0.486500  1.0  0.3425
  H  H5  1  0.163600  0.472600  0.502200  1.0  0.2569
  H  H6  1  0.782800  0.116300  0.762400  1.0  0.3367
  H  H7  1  0.007900  0.558400  0.643200  1.0  0.1205
  H  H8  1  0.377900  0.142700  0.628700  1.0  0.1215
  H  H9  1  0.080700  0.260900  0.876900  1.0  0.1167
  H  H10  1  0.809300  0.169300  0.598500  1.0  0.1156
  H  H11  1  0.728300  0.674800  0.513500  1.0  0.3401
  H  H12  1  0.836400  0.527400  0.497800  1.0  0.2574
  H  H13  1  0.217200  0.883700  0.237600  1.0  0.336
  H  H14  1  0.992100  0.441600  0.356800  1.0  0.1177
  H  H15  1  0.622100  0.857300  0.371300  1.0  0.1205
  H  H16  1  0.919300  0.739100  0.123100  1.0  0.1168
  H  H17  1  0.190700  0.830700  0.401500  1.0  0.1156
  C  C18  1  0.868300  0.540800  0.822200  1.0  0.6519
  C  C19  1  0.022300  0.427800  0.768800  1.0  -0.0887
  C  C20  1  0.068500  0.463000  0.672900  1.0  -0.1514
  C  C21  1  0.203900  0.357600  0.620900  1.0  0.1982
  C  C22  1  0.290100  0.214800  0.664100  1.0  -0.1577
  C  C23  1  0.246300  0.178000  0.760300  1.0  -0.0982
  C  C24  1  0.111100  0.285200  0.812700  1.0  -0.0334
  C  C25  1  0.343700  0.023500  0.807800  1.0  0.6753
  C  C26  1  0.555600  0.319600  0.881500  1.0  0.7062
  C  C27  1  0.606800  0.330700  0.776800  1.0  -0.0307
  C  C28  1  0.549000  0.438100  0.700900  1.0  -0.0121
  C  C29  1  0.736600  0.236600  0.641700  1.0  0.221
  C  C30  1  0.416200  0.596300  0.690400  1.0  0.693
  C  C31  1  0.131700  0.459200  0.177800  1.0  0.6533
  C  C32  1  0.977700  0.572200  0.231200  1.0  -0.0881
  C  C33  1  0.931500  0.537000  0.327100  1.0  -0.15
  C  C34  1  0.796100  0.642400  0.379100  1.0  0.1971
  C  C35  1  0.709900  0.785200  0.335900  1.0  -0.1589
  C  C36  1  0.753700  0.822000  0.239700  1.0  -0.098
  C  C37  1  0.888900  0.714800  0.187300  1.0  -0.0312
  C  C38  1  0.656300  0.976500  0.192200  1.0  0.6763
  C  C39  1  0.444400  0.680400  0.118500  1.0  0.7007
  C  C40  1  0.393200  0.669300  0.223200  1.0  -0.033
  C  C41  1  0.451000  0.561900  0.299100  1.0  -0.0128
  C  C42  1  0.263400  0.763400  0.358300  1.0  0.223
  C  C43  1  0.583800  0.403700  0.309600  1.0  0.6935
  N  N44  1  0.264300  0.398700  0.524100  1.0  -0.5949
  N  N45  1  0.725400  0.204100  0.736800  1.0  -0.2402
  N  N46  1  0.631600  0.375700  0.617300  1.0  -0.3559
  N  N47  1  0.735700  0.601300  0.475900  1.0  -0.5928
  N  N48  1  0.274600  0.795900  0.263200  1.0  -0.2379
  N  N49  1  0.368400  0.624300  0.382700  1.0  -0.356
  O  O50  1  0.768200  0.658300  0.775600  1.0  -0.6743
  O  O51  1  0.833800  0.516000  0.910000  1.0  -0.6714
  O  O52  1  0.484800  0.936900  0.766300  1.0  -0.6516
  O  O53  1  0.280900  0.983300  0.889900  1.0  -0.7187
  O  O54  1  0.475400  0.438700  0.922400  1.0  -0.7772
  O  O55  1  0.595100  0.190500  0.924900  1.0  -0.6445
  O  O56  1  0.352500  0.668700  0.762200  1.0  -0.6977
  O  O57  1  0.374100  0.645900  0.605000  1.0  -0.572
  O  O58  1  0.231800  0.341700  0.224400  1.0  -0.6753
  O  O59  1  0.166200  0.484000  0.090000  1.0  -0.6696
  O  O60  1  0.515200  0.063100  0.233700  1.0  -0.6503
  O  O61  1  0.719100  0.016700  0.110100  1.0  -0.7191
  O  O62  1  0.524600  0.561300  0.077600  1.0  -0.7781
  O  O63  1  0.404900  0.809500  0.075100  1.0  -0.6469
  O  O64  1  0.647500  0.331300  0.237800  1.0  -0.6964
  O  O65  1  0.625900  0.354100  0.395000  1.0  -0.5754
