# generated using pymatgen
data_MgZn(C3O2)3
_symmetry_space_group_name_H-M   'P 1'
_cell_length_a   14.32860000
_cell_length_b   14.32860000
_cell_length_c   14.32860000
_cell_angle_alpha   90.00000000
_cell_angle_beta   90.00000000
_cell_angle_gamma   90.00000000
_symmetry_Int_Tables_number   1
_chemical_formula_structural   MgZn(C3O2)3
_chemical_formula_sum   'Mg4 Zn4 C36 O24'
_cell_volume   2941.78735588
_cell_formula_units_Z   4
loop_
 _symmetry_equiv_pos_site_id
 _symmetry_equiv_pos_as_xyz
  1  'x, y, z'
loop_
 _atom_site_type_symbol
 _atom_site_label
 _atom_site_symmetry_multiplicity
 _atom_site_fract_x
 _atom_site_fract_y
 _atom_site_fract_z
 _atom_site_occupancy
 _atom_site_charge
  Mg  Mg1  1  0.924700  0.575300  0.424700  1.0  1.2368
  Mg  Mg2  1  0.575300  0.424700  0.924700  1.0  1.2353
  Mg  Mg3  1  0.075300  0.075300  0.075300  1.0  1.239
  Mg  Mg4  1  0.424700  0.924700  0.575300  1.0  1.2401
  Zn  Zn5  1  0.777610  0.722390  0.277610  1.0  0.6875
  Zn  Zn6  1  0.722390  0.277610  0.777610  1.0  0.6917
  Zn  Zn7  1  0.222390  0.222390  0.222390  1.0  0.6942
  Zn  Zn8  1  0.277610  0.777610  0.722390  1.0  0.6906
  C  C9  1  0.897700  0.486800  0.148700  1.0  0.0347
  C  C10  1  0.969500  0.433000  0.165600  1.0  -0.0643
  C  C11  1  0.882800  0.567000  0.220100  1.0  0.5935
  C  C12  1  0.602300  0.513200  0.648700  1.0  0.0344
  C  C13  1  0.530500  0.567000  0.665600  1.0  -0.0625
  C  C14  1  0.617200  0.433000  0.720100  1.0  0.5929
  C  C15  1  0.102300  0.986800  0.351300  1.0  0.0344
  C  C16  1  0.030500  0.933000  0.334400  1.0  -0.0638
  C  C17  1  0.117200  0.067000  0.279900  1.0  0.5923
  C  C18  1  0.397700  0.013200  0.851300  1.0  0.0345
  C  C19  1  0.469500  0.067000  0.834400  1.0  -0.0663
  C  C20  1  0.382800  0.933000  0.779900  1.0  0.5931
  C  C21  1  0.148700  0.897700  0.486800  1.0  0.0333
  C  C22  1  0.165600  0.969500  0.433000  1.0  -0.0628
  C  C23  1  0.220100  0.882800  0.567000  1.0  0.5917
  C  C24  1  0.648700  0.602300  0.513200  1.0  0.0332
  C  C25  1  0.665600  0.530500  0.567000  1.0  -0.0629
  C  C26  1  0.720100  0.617200  0.433000  1.0  0.593
  C  C27  1  0.351300  0.102300  0.986800  1.0  0.0332
  C  C28  1  0.334400  0.030500  0.933000  1.0  -0.0632
  C  C29  1  0.279900  0.117200  0.067000  1.0  0.5925
  C  C30  1  0.851300  0.397700  0.013200  1.0  0.0332
  C  C31  1  0.834400  0.469500  0.067000  1.0  -0.0616
  C  C32  1  0.779900  0.382800  0.933000  1.0  0.5927
  C  C33  1  0.486800  0.148700  0.897700  1.0  0.0346
  C  C34  1  0.433000  0.165600  0.969500  1.0  -0.0644
  C  C35  1  0.567000  0.220100  0.882800  1.0  0.5899
  C  C36  1  0.513200  0.648700  0.602300  1.0  0.0343
  C  C37  1  0.567000  0.665600  0.530500  1.0  -0.0663
  C  C38  1  0.433000  0.720100  0.617200  1.0  0.5889
  C  C39  1  0.986800  0.351300  0.102300  1.0  0.0343
  C  C40  1  0.933000  0.334400  0.030500  1.0  -0.0663
  C  C41  1  0.067000  0.279900  0.117200  1.0  0.5913
  C  C42  1  0.013200  0.851300  0.397700  1.0  0.0347
  C  C43  1  0.067000  0.834400  0.469500  1.0  -0.0654
  C  C44  1  0.933000  0.779900  0.382800  1.0  0.5894
  O  O45  1  0.929700  0.576200  0.284400  1.0  -0.6042
  O  O46  1  0.809400  0.618700  0.196000  1.0  -0.6002
  O  O47  1  0.570300  0.423800  0.784400  1.0  -0.6037
  O  O48  1  0.690600  0.381300  0.696000  1.0  -0.5993
  O  O49  1  0.070300  0.076200  0.215600  1.0  -0.602
  O  O50  1  0.190600  0.118700  0.304000  1.0  -0.5968
  O  O51  1  0.429700  0.923800  0.715600  1.0  -0.6035
  O  O52  1  0.309400  0.881300  0.804000  1.0  -0.5998
  O  O53  1  0.284400  0.929700  0.576200  1.0  -0.6064
  O  O54  1  0.196000  0.809400  0.618700  1.0  -0.603
  O  O55  1  0.784400  0.570300  0.423800  1.0  -0.605
  O  O56  1  0.696000  0.690600  0.381300  1.0  -0.6034
  O  O57  1  0.215600  0.070300  0.076200  1.0  -0.6054
  O  O58  1  0.304000  0.190600  0.118700  1.0  -0.6008
  O  O59  1  0.715600  0.429700  0.923800  1.0  -0.6061
  O  O60  1  0.804000  0.309400  0.881300  1.0  -0.6031
  O  O61  1  0.576200  0.284400  0.929700  1.0  -0.6016
  O  O62  1  0.618700  0.196000  0.809400  1.0  -0.6032
  O  O63  1  0.423800  0.784400  0.570300  1.0  -0.6017
  O  O64  1  0.381300  0.696000  0.690600  1.0  -0.6021
  O  O65  1  0.076200  0.215600  0.070300  1.0  -0.601
  O  O66  1  0.118700  0.304000  0.190600  1.0  -0.5991
  O  O67  1  0.923800  0.715600  0.429700  1.0  -0.6013
  O  O68  1  0.881300  0.804000  0.309400  1.0  -0.6021
