# generated using pymatgen
data_V8NiH16C20N4O13
_symmetry_space_group_name_H-M   'P 1'
_cell_length_a   17.07400000
_cell_length_b   17.07400000
_cell_length_c   14.60600000
_cell_angle_alpha   90.00000000
_cell_angle_beta   90.00000000
_cell_angle_gamma   90.00000000
_symmetry_Int_Tables_number   1
_chemical_formula_structural   V8NiH16C20N4O13
_chemical_formula_sum   'V32 Ni4 H64 C80 N16 O52'
_cell_volume   4257.96267846
_cell_formula_units_Z   4
loop_
 _symmetry_equiv_pos_site_id
 _symmetry_equiv_pos_as_xyz
  1  'x, y, z'
loop_
 _atom_site_type_symbol
 _atom_site_label
 _atom_site_symmetry_multiplicity
 _atom_site_fract_x
 _atom_site_fract_y
 _atom_site_fract_z
 _atom_site_occupancy
 _atom_site_charge
  V  V1  1  0.887760  0.122030  0.127820  1.0  1.891
  V  V2  1  0.048420  0.184580  0.089160  1.0  1.3538
  V  V3  1  0.811630  0.967830  0.086690  1.0  1.3163
  V  V4  1  0.071440  0.065360  0.230170  1.0  1.2979
  V  V5  1  0.112240  0.877970  0.127820  1.0  1.893
  V  V6  1  0.951580  0.815420  0.089160  1.0  1.3358
  V  V7  1  0.188370  0.032170  0.086690  1.0  1.3141
  V  V8  1  0.928560  0.934640  0.230170  1.0  1.2981
  V  V9  1  0.122030  0.112240  0.872180  1.0  1.893
  V  V10  1  0.184580  0.951580  0.910840  1.0  1.3602
  V  V11  1  0.967830  0.188370  0.913310  1.0  1.3065
  V  V12  1  0.065360  0.928560  0.769830  1.0  1.3026
  V  V13  1  0.877970  0.887760  0.872180  1.0  1.8905
  V  V14  1  0.815420  0.048420  0.910840  1.0  1.3586
  V  V15  1  0.032170  0.811630  0.913310  1.0  1.2973
  V  V16  1  0.934640  0.071440  0.769830  1.0  1.3027
  V  V17  1  0.387760  0.377970  0.627820  1.0  1.8904
  V  V18  1  0.548420  0.315420  0.589160  1.0  1.3364
  V  V19  1  0.311630  0.532170  0.586690  1.0  1.3151
  V  V20  1  0.571440  0.434640  0.730170  1.0  1.2981
  V  V21  1  0.612240  0.622030  0.627820  1.0  1.8932
  V  V22  1  0.451580  0.684580  0.589160  1.0  1.3529
  V  V23  1  0.688370  0.467830  0.586690  1.0  1.3153
  V  V24  1  0.428560  0.565360  0.730170  1.0  1.2977
  V  V25  1  0.622030  0.387760  0.372180  1.0  1.8927
  V  V26  1  0.684580  0.548420  0.410840  1.0  1.3599
  V  V27  1  0.467830  0.311630  0.413310  1.0  1.2965
  V  V28  1  0.565360  0.571440  0.269830  1.0  1.3023
  V  V29  1  0.377970  0.612240  0.372180  1.0  1.8911
  V  V30  1  0.315420  0.451580  0.410840  1.0  1.3588
  V  V31  1  0.532170  0.688370  0.413310  1.0  1.3076
  V  V32  1  0.434640  0.428560  0.269830  1.0  1.3029
  Ni  Ni33  1  0.754670  0.254670  0.250000  1.0  0.6541
  Ni  Ni34  1  0.245330  0.745330  0.250000  1.0  0.6548
  Ni  Ni35  1  0.254670  0.245330  0.750000  1.0  0.6539
  Ni  Ni36  1  0.745330  0.754670  0.750000  1.0  0.6549
  H  H37  1  0.284900  0.184900  0.944800  1.0  0.0646
  H  H38  1  0.384000  0.180800  0.053000  1.0  0.1138
  H  H39  1  0.535300  0.235900  0.855500  1.0  0.115
  H  H40  1  0.433400  0.238700  0.752800  1.0  0.0817
  H  H41  1  0.577100  0.252700  0.243100  1.0  0.0557
  H  H42  1  0.474300  0.240700  0.147400  1.0  0.1091
  H  H43  1  0.622200  0.167600  0.953900  1.0  0.1074
  H  H44  1  0.721300  0.179600  0.056200  1.0  0.0758
  H  H45  1  0.715100  0.815100  0.944800  1.0  0.0656
  H  H46  1  0.616000  0.819200  0.053000  1.0  0.1143
  H  H47  1  0.464700  0.764100  0.855500  1.0  0.1153
  H  H48  1  0.566600  0.761300  0.752800  1.0  0.0826
  H  H49  1  0.422900  0.747300  0.243100  1.0  0.055
  H  H50  1  0.525700  0.759300  0.147400  1.0  0.1096
  H  H51  1  0.377800  0.832400  0.953900  1.0  0.1076
  H  H52  1  0.278700  0.820400  0.056200  1.0  0.0757
  H  H53  1  0.184900  0.715100  0.055200  1.0  0.0672
  H  H54  1  0.180800  0.616000  0.947000  1.0  0.114
  H  H55  1  0.235900  0.464700  0.144500  1.0  0.1148
  H  H56  1  0.238700  0.566600  0.247200  1.0  0.0817
  H  H57  1  0.252700  0.422900  0.756900  1.0  0.0547
  H  H58  1  0.240700  0.525700  0.852600  1.0  0.1092
  H  H59  1  0.167600  0.377800  0.046100  1.0  0.1082
  H  H60  1  0.179600  0.278700  0.943800  1.0  0.0772
  H  H61  1  0.815100  0.284900  0.055200  1.0  0.068
  H  H62  1  0.819200  0.384000  0.947000  1.0  0.1138
  H  H63  1  0.764100  0.535300  0.144500  1.0  0.1147
  H  H64  1  0.761300  0.433400  0.247200  1.0  0.0808
  H  H65  1  0.747300  0.577100  0.756900  1.0  0.0549
  H  H66  1  0.759300  0.474300  0.852600  1.0  0.109
  H  H67  1  0.832400  0.622200  0.046100  1.0  0.108
  H  H68  1  0.820400  0.721300  0.943800  1.0  0.0758
  H  H69  1  0.784900  0.315100  0.444800  1.0  0.0646
  H  H70  1  0.884000  0.319200  0.553000  1.0  0.114
  H  H71  1  0.035300  0.264100  0.355500  1.0  0.1152
  H  H72  1  0.933400  0.261300  0.252800  1.0  0.0816
  H  H73  1  0.077100  0.247300  0.743100  1.0  0.0556
  H  H74  1  0.974300  0.259300  0.647400  1.0  0.1091
  H  H75  1  0.122200  0.332400  0.453900  1.0  0.1076
  H  H76  1  0.221300  0.320400  0.556200  1.0  0.0757
  H  H77  1  0.215100  0.684900  0.444800  1.0  0.0657
  H  H78  1  0.116000  0.680800  0.553000  1.0  0.114
  H  H79  1  0.964700  0.735900  0.355500  1.0  0.1151
  H  H80  1  0.066600  0.738700  0.252800  1.0  0.0826
  H  H81  1  0.922900  0.752700  0.743100  1.0  0.0554
  H  H82  1  0.025700  0.740700  0.647400  1.0  0.1096
  H  H83  1  0.877800  0.667600  0.453900  1.0  0.1075
  H  H84  1  0.778700  0.679600  0.556200  1.0  0.0757
  H  H85  1  0.684900  0.784900  0.555200  1.0  0.0679
  H  H86  1  0.680800  0.884000  0.447000  1.0  0.1138
  H  H87  1  0.735900  0.035300  0.644500  1.0  0.1147
  H  H88  1  0.738700  0.933400  0.747200  1.0  0.0812
  H  H89  1  0.752700  0.077100  0.256900  1.0  0.0548
  H  H90  1  0.740700  0.974300  0.352600  1.0  0.1092
  H  H91  1  0.667600  0.122200  0.546100  1.0  0.1082
  H  H92  1  0.679600  0.221300  0.443800  1.0  0.0764
  H  H93  1  0.315100  0.215100  0.555200  1.0  0.067
  H  H94  1  0.319200  0.116000  0.447000  1.0  0.1141
  H  H95  1  0.264100  0.964700  0.644500  1.0  0.1146
  H  H96  1  0.261300  0.066600  0.747200  1.0  0.0813
  H  H97  1  0.247300  0.922900  0.256900  1.0  0.055
  H  H98  1  0.259300  0.025700  0.352600  1.0  0.109
  H  H99  1  0.332400  0.877800  0.546100  1.0  0.1079
  H  H100  1  0.320400  0.778700  0.443800  1.0  0.0767
  C  C101  1  0.335900  0.195800  0.926600  1.0  0.1502
  C  C102  1  0.395800  0.192300  0.992300  1.0  -0.1995
  C  C103  1  0.470600  0.205600  0.966900  1.0  0.0851
  C  C104  1  0.484700  0.224900  0.875100  1.0  -0.1838
  C  C105  1  0.423200  0.227500  0.813900  1.0  0.1482
  C  C106  1  0.587000  0.237000  0.183300  1.0  0.1685
  C  C107  1  0.524600  0.230900  0.125800  1.0  -0.2109
  C  C108  1  0.536000  0.209900  0.034300  1.0  0.0824
  C  C109  1  0.611700  0.187500  0.011800  1.0  -0.2161
  C  C110  1  0.671200  0.194600  0.074000  1.0  0.1539
  C  C111  1  0.664100  0.804200  0.926600  1.0  0.1496
  C  C112  1  0.604200  0.807700  0.992300  1.0  -0.1968
  C  C113  1  0.529400  0.794400  0.966900  1.0  0.0852
  C  C114  1  0.515300  0.775100  0.875100  1.0  -0.1843
  C  C115  1  0.576800  0.772500  0.813900  1.0  0.1478
  C  C116  1  0.413000  0.763000  0.183300  1.0  0.1685
  C  C117  1  0.475400  0.769100  0.125800  1.0  -0.2099
  C  C118  1  0.464000  0.790100  0.034300  1.0  0.0823
  C  C119  1  0.388300  0.812500  0.011800  1.0  -0.2156
  C  C120  1  0.328800  0.805400  0.074000  1.0  0.1545
  C  C121  1  0.195800  0.664100  0.073400  1.0  0.1499
  C  C122  1  0.192300  0.604200  0.007700  1.0  -0.2
  C  C123  1  0.205600  0.529400  0.033100  1.0  0.086
  C  C124  1  0.224900  0.515300  0.124900  1.0  -0.1827
  C  C125  1  0.227500  0.576800  0.186100  1.0  0.1459
  C  C126  1  0.237000  0.413000  0.816700  1.0  0.167
  C  C127  1  0.230900  0.475400  0.874200  1.0  -0.2133
  C  C128  1  0.209900  0.464000  0.965700  1.0  0.0818
  C  C129  1  0.187500  0.388300  0.988200  1.0  -0.2166
  C  C130  1  0.194600  0.328800  0.926000  1.0  0.1548
  C  C131  1  0.804200  0.335900  0.073400  1.0  0.1503
  C  C132  1  0.807700  0.395800  0.007700  1.0  -0.1998
  C  C133  1  0.794400  0.470600  0.033100  1.0  0.0863
  C  C134  1  0.775100  0.484700  0.124900  1.0  -0.1846
  C  C135  1  0.772500  0.423200  0.186100  1.0  0.1452
  C  C136  1  0.763000  0.587000  0.816700  1.0  0.1657
  C  C137  1  0.769100  0.524600  0.874200  1.0  -0.2109
  C  C138  1  0.790100  0.536000  0.965700  1.0  0.0822
  C  C139  1  0.812500  0.611700  0.988200  1.0  -0.2158
  C  C140  1  0.805400  0.671200  0.926000  1.0  0.1549
  C  C141  1  0.835900  0.304200  0.426600  1.0  0.1497
  C  C142  1  0.895800  0.307700  0.492300  1.0  -0.1987
  C  C143  1  0.970600  0.294400  0.466900  1.0  0.085
  C  C144  1  0.984700  0.275100  0.375100  1.0  -0.183
  C  C145  1  0.923200  0.272500  0.313900  1.0  0.1483
  C  C146  1  0.087000  0.263000  0.683300  1.0  0.1686
  C  C147  1  0.024600  0.269100  0.625800  1.0  -0.2108
  C  C148  1  0.036000  0.290100  0.534300  1.0  0.0826
  C  C149  1  0.111700  0.312500  0.511800  1.0  -0.2159
  C  C150  1  0.171200  0.305400  0.574000  1.0  0.154
  C  C151  1  0.164100  0.695800  0.426600  1.0  0.1496
  C  C152  1  0.104200  0.692300  0.492300  1.0  -0.1977
  C  C153  1  0.029400  0.705600  0.466900  1.0  0.0849
  C  C154  1  0.015300  0.724900  0.375100  1.0  -0.1852
  C  C155  1  0.076800  0.727500  0.313900  1.0  0.1479
  C  C156  1  0.913000  0.737000  0.683300  1.0  0.1683
  C  C157  1  0.975400  0.730900  0.625800  1.0  -0.2098
  C  C158  1  0.964000  0.709900  0.534300  1.0  0.0824
  C  C159  1  0.888300  0.687500  0.511800  1.0  -0.2162
  C  C160  1  0.828800  0.694600  0.574000  1.0  0.1548
  C  C161  1  0.695800  0.835900  0.573400  1.0  0.15
  C  C162  1  0.692300  0.895800  0.507700  1.0  -0.1994
  C  C163  1  0.705600  0.970600  0.533100  1.0  0.0864
  C  C164  1  0.724900  0.984700  0.624900  1.0  -0.1837
  C  C165  1  0.727500  0.923200  0.686100  1.0  0.1457
  C  C166  1  0.737000  0.087000  0.316700  1.0  0.1665
  C  C167  1  0.730900  0.024600  0.374200  1.0  -0.2104
  C  C168  1  0.709900  0.036000  0.465700  1.0  0.0819
  C  C169  1  0.687500  0.111700  0.488200  1.0  -0.2165
  C  C170  1  0.694600  0.171200  0.426000  1.0  0.1546
  C  C171  1  0.304200  0.164100  0.573400  1.0  0.1505
  C  C172  1  0.307700  0.104200  0.507700  1.0  -0.2005
  C  C173  1  0.294400  0.029400  0.533100  1.0  0.086
  C  C174  1  0.275100  0.015300  0.624900  1.0  -0.1841
  C  C175  1  0.272500  0.076800  0.686100  1.0  0.1448
  C  C176  1  0.263000  0.913000  0.316700  1.0  0.1665
  C  C177  1  0.269100  0.975400  0.374200  1.0  -0.2135
  C  C178  1  0.290100  0.964000  0.465700  1.0  0.0819
  C  C179  1  0.312500  0.888300  0.488200  1.0  -0.2158
  C  C180  1  0.305400  0.828800  0.426000  1.0  0.1546
  N  N181  1  0.661100  0.222300  0.160600  1.0  -0.3409
  N  N182  1  0.348900  0.214100  0.840200  1.0  -0.3207
  N  N183  1  0.338900  0.777700  0.160600  1.0  -0.343
  N  N184  1  0.651100  0.785900  0.840200  1.0  -0.3195
  N  N185  1  0.222300  0.338900  0.839400  1.0  -0.3453
  N  N186  1  0.214100  0.651100  0.159800  1.0  -0.3232
  N  N187  1  0.777700  0.661100  0.839400  1.0  -0.3454
  N  N188  1  0.785900  0.348900  0.159800  1.0  -0.323
  N  N189  1  0.161100  0.277700  0.660600  1.0  -0.341
  N  N190  1  0.848900  0.285900  0.340200  1.0  -0.3208
  N  N191  1  0.838900  0.722300  0.660600  1.0  -0.3431
  N  N192  1  0.151100  0.714100  0.340200  1.0  -0.3191
  N  N193  1  0.722300  0.161100  0.339400  1.0  -0.3447
  N  N194  1  0.714100  0.848900  0.659800  1.0  -0.3229
  N  N195  1  0.277700  0.838900  0.339400  1.0  -0.3455
  N  N196  1  0.285900  0.151100  0.659800  1.0  -0.3232
  O  O197  1  0.829500  0.182300  0.181700  1.0  -0.8064
  O  O198  1  0.991000  0.129800  0.181900  1.0  -0.9805
  O  O199  1  0.941100  0.185700  0.038500  1.0  -1.0291
  O  O200  1  0.871100  0.019900  0.181600  1.0  -1.0422
  O  O201  1  0.820300  0.073100  0.036700  1.0  -1.0423
  O  O202  1  0.132900  0.120200  0.122700  1.0  -0.9711
  O  O203  1  0.170500  0.817700  0.181700  1.0  -0.8061
  O  O204  1  0.009000  0.870200  0.181900  1.0  -0.9818
  O  O205  1  0.058900  0.814300  0.038500  1.0  -1.0274
  O  O206  1  0.128900  0.980100  0.181600  1.0  -1.0418
  O  O207  1  0.179700  0.926900  0.036700  1.0  -1.0433
  O  O208  1  0.867100  0.879800  0.122700  1.0  -0.9726
  O  O209  1  0.182300  0.170500  0.818300  1.0  -0.8058
  O  O210  1  0.129800  0.009000  0.818100  1.0  -0.9784
  O  O211  1  0.185700  0.058900  0.961500  1.0  -1.0265
  O  O212  1  0.019900  0.128900  0.818400  1.0  -1.0438
  O  O213  1  0.073100  0.179700  0.963300  1.0  -1.0439
  O  O214  1  0.120200  0.867100  0.877300  1.0  -0.9712
  O  O215  1  0.817700  0.829500  0.818300  1.0  -0.8059
  O  O216  1  0.870200  0.991000  0.818100  1.0  -0.979
  O  O217  1  0.814300  0.941100  0.961500  1.0  -1.0274
  O  O218  1  0.980100  0.871100  0.818400  1.0  -1.0421
  O  O219  1  0.926900  0.820300  0.963300  1.0  -1.0428
  O  O220  1  0.879800  0.132900  0.877300  1.0  -0.9731
  O  O221  1  0.329500  0.317700  0.681700  1.0  -0.8067
  O  O222  1  0.491000  0.370200  0.681900  1.0  -0.9806
  O  O223  1  0.441100  0.314300  0.538500  1.0  -1.028
  O  O224  1  0.371100  0.480100  0.681600  1.0  -1.0417
  O  O225  1  0.320300  0.426900  0.536700  1.0  -1.0428
  O  O226  1  0.632900  0.379800  0.622700  1.0  -0.9706
  O  O227  1  0.670500  0.682300  0.681700  1.0  -0.8059
  O  O228  1  0.509000  0.629800  0.681900  1.0  -0.9816
  O  O229  1  0.558900  0.685700  0.538500  1.0  -1.0288
  O  O230  1  0.628900  0.519900  0.681600  1.0  -1.0422
  O  O231  1  0.679700  0.573100  0.536700  1.0  -1.0427
  O  O232  1  0.367100  0.620200  0.622700  1.0  -0.9732
  O  O233  1  0.682300  0.329500  0.318300  1.0  -0.8057
  O  O234  1  0.629800  0.491000  0.318100  1.0  -0.9787
  O  O235  1  0.685700  0.441100  0.461500  1.0  -1.0271
  O  O236  1  0.519900  0.371100  0.318400  1.0  -1.0439
  O  O237  1  0.573100  0.320300  0.463300  1.0  -1.0433
  O  O238  1  0.620200  0.632900  0.377300  1.0  -0.9714
  O  O239  1  0.317700  0.670500  0.318300  1.0  -0.8062
  O  O240  1  0.370200  0.509000  0.318100  1.0  -0.9787
  O  O241  1  0.314300  0.558900  0.461500  1.0  -1.0273
  O  O242  1  0.480100  0.628900  0.318400  1.0  -1.042
  O  O243  1  0.426900  0.679700  0.463300  1.0  -1.0432
  O  O244  1  0.379800  0.367100  0.377300  1.0  -0.9733
  O  O245  1  0.000000  0.000000  0.283200  1.0  -0.6909
  O  O246  1  0.000000  0.000000  0.716800  1.0  -0.6889
  O  O247  1  0.500000  0.500000  0.783200  1.0  -0.6909
  O  O248  1  0.500000  0.500000  0.216800  1.0  -0.6889
