# generated using pymatgen
data_Gd2H15C24(NO4)3
_symmetry_space_group_name_H-M   'P 1'
_cell_length_a   10.52400000
_cell_length_b   11.30700000
_cell_length_c   14.31600000
_cell_angle_alpha   111.18600000
_cell_angle_beta   107.83100000
_cell_angle_gamma   91.58300000
_symmetry_Int_Tables_number   1
_chemical_formula_structural   Gd2H15C24(NO4)3
_chemical_formula_sum   'Gd4 H30 C48 N6 O24'
_cell_volume   1493.62839143
_cell_formula_units_Z   2
loop_
 _symmetry_equiv_pos_site_id
 _symmetry_equiv_pos_as_xyz
  1  'x, y, z'
loop_
 _atom_site_type_symbol
 _atom_site_label
 _atom_site_symmetry_multiplicity
 _atom_site_fract_x
 _atom_site_fract_y
 _atom_site_fract_z
 _atom_site_occupancy
 _atom_site_charge
  Gd  Gd1  1  0.306830  0.517260  0.918870  1.0  2.1115
  Gd  Gd2  1  0.215570  0.367640  0.605250  1.0  2.1882
  Gd  Gd3  1  0.693170  0.482740  0.081130  1.0  2.1163
  Gd  Gd4  1  0.784430  0.632360  0.394750  1.0  2.19
  H  H5  1  0.886300  0.619200  0.023900  1.0  0.3404
  H  H6  1  0.738000  0.607600  0.003500  1.0  0.3085
  H  H7  1  0.133600  0.892800  0.509400  1.0  0.2925
  H  H8  1  0.158100  0.035700  0.559500  1.0  0.3317
  H  H9  1  0.578400  0.062200  0.410200  1.0  0.3076
  H  H10  1  0.507500  0.142200  0.480100  1.0  0.3119
  H  H11  1  0.549400  0.353600  0.643900  1.0  0.0827
  H  H12  1  0.732900  0.315100  0.589300  1.0  0.1123
  H  H13  1  0.976800  0.529100  0.885900  1.0  0.0742
  H  H14  1  0.367000  0.118300  0.917200  1.0  0.0881
  H  H15  1  0.377000  0.914500  0.918300  1.0  0.1056
  H  H16  1  0.174600  0.764700  0.604800  1.0  0.1013
  H  H17  1  0.055200  0.970800  0.288900  1.0  0.0773
  H  H18  1  0.060200  0.807000  0.137900  1.0  0.1155
  H  H19  1  0.466700  0.884800  0.254700  1.0  0.0948
  H  H20  1  0.113700  0.380800  0.976100  1.0  0.3409
  H  H21  1  0.262000  0.392400  0.996500  1.0  0.3078
  H  H22  1  0.866400  0.107200  0.490600  1.0  0.2964
  H  H23  1  0.841900  0.964300  0.440500  1.0  0.3342
  H  H24  1  0.421600  0.937800  0.589800  1.0  0.3054
  H  H25  1  0.492500  0.857800  0.519900  1.0  0.3132
  H  H26  1  0.450600  0.646400  0.356100  1.0  0.0827
  H  H27  1  0.267100  0.684900  0.410700  1.0  0.1115
  H  H28  1  0.023200  0.470900  0.114100  1.0  0.0752
  H  H29  1  0.633000  0.881700  0.082800  1.0  0.0879
  H  H30  1  0.623000  0.085500  0.081700  1.0  0.1058
  H  H31  1  0.825400  0.235300  0.395200  1.0  0.0993
  H  H32  1  0.944800  0.029200  0.711100  1.0  0.0777
  H  H33  1  0.939800  0.193000  0.862100  1.0  0.1147
  H  H34  1  0.533300  0.115200  0.745300  1.0  0.0944
  C  C35  1  0.527500  0.480500  0.829700  1.0  0.6674
  C  C36  1  0.649600  0.464700  0.797500  1.0  -0.1743
  C  C37  1  0.635700  0.389600  0.692900  1.0  -0.0086
  C  C38  1  0.744600  0.366700  0.659600  1.0  -0.0976
  C  C39  1  0.873200  0.422100  0.732900  1.0  -0.178
  C  C40  1  0.996400  0.403900  0.700600  1.0  0.6649
  C  C41  1  0.889900  0.495200  0.837300  1.0  -0.1255
  C  C42  1  0.780300  0.519800  0.872200  1.0  0.2055
  C  C43  1  0.258800  0.200300  0.765800  1.0  0.6997
  C  C44  1  0.264200  0.066500  0.761400  1.0  -0.176
  C  C45  1  0.326900  0.047200  0.854000  1.0  -0.0309
  C  C46  1  0.331800  0.925000  0.855600  1.0  -0.0776
  C  C47  1  0.267800  0.819200  0.761900  1.0  -0.156
  C  C48  1  0.261300  0.684600  0.760700  1.0  0.7006
  C  C49  1  0.212100  0.836500  0.667900  1.0  -0.128
  C  C50  1  0.210100  0.958000  0.664300  1.0  0.2425
  C  C51  1  0.242400  0.140700  0.451500  1.0  0.645
  C  C52  1  0.254600  0.029900  0.361700  1.0  -0.1518
  C  C53  1  0.138300  0.954200  0.281200  1.0  -0.0063
  C  C54  1  0.139800  0.856100  0.190700  1.0  -0.1008
  C  C55  1  0.266200  0.832800  0.181000  1.0  -0.1622
  C  C56  1  0.276400  0.729900  0.082300  1.0  0.672
  C  C57  1  0.383700  0.904100  0.261200  1.0  -0.1629
  C  C58  1  0.380000  0.003400  0.350700  1.0  0.215
  C  C59  1  0.472500  0.519500  0.170300  1.0  0.6686
  C  C60  1  0.350400  0.535300  0.202500  1.0  -0.176
  C  C61  1  0.364300  0.610400  0.307100  1.0  -0.0078
  C  C62  1  0.255400  0.633300  0.340400  1.0  -0.0989
  C  C63  1  0.126800  0.577900  0.267100  1.0  -0.178
  C  C64  1  0.003600  0.596100  0.299400  1.0  0.6659
  C  C65  1  0.110100  0.504800  0.162700  1.0  -0.1263
  C  C66  1  0.219700  0.480200  0.127800  1.0  0.207
  C  C67  1  0.741200  0.799700  0.234200  1.0  0.6998
  C  C68  1  0.735800  0.933500  0.238600  1.0  -0.1773
  C  C69  1  0.673100  0.952800  0.146000  1.0  -0.0311
  C  C70  1  0.668200  0.075000  0.144400  1.0  -0.077
  C  C71  1  0.732200  0.180800  0.238100  1.0  -0.1568
  C  C72  1  0.738700  0.315400  0.239300  1.0  0.7003
  C  C73  1  0.787900  0.163500  0.332100  1.0  -0.1257
  C  C74  1  0.789900  0.042000  0.335700  1.0  0.2425
  C  C75  1  0.757600  0.859300  0.548500  1.0  0.6441
  C  C76  1  0.745400  0.970100  0.638300  1.0  -0.152
  C  C77  1  0.861700  0.045800  0.718800  1.0  -0.0068
  C  C78  1  0.860200  0.143900  0.809300  1.0  -0.1
  C  C79  1  0.733800  0.167200  0.819000  1.0  -0.1617
  C  C80  1  0.723600  0.270100  0.917700  1.0  0.6736
  C  C81  1  0.616300  0.095900  0.738800  1.0  -0.164
  C  C82  1  0.620000  0.996600  0.649300  1.0  0.2138
  N  N83  1  0.804700  0.591400  0.980500  1.0  -0.6117
  N  N84  1  0.161200  0.962800  0.565500  1.0  -0.6322
  N  N85  1  0.504900  0.079100  0.423100  1.0  -0.6334
  N  N86  1  0.195300  0.408600  0.019500  1.0  -0.6095
  N  N87  1  0.838800  0.037200  0.434500  1.0  -0.6347
  N  N88  1  0.495100  0.920900  0.576900  1.0  -0.6329
  O  O89  1  0.541800  0.532200  0.928300  1.0  -0.6965
  O  O90  1  0.411100  0.443900  0.761100  1.0  -0.7936
  O  O91  1  0.111200  0.443100  0.770900  1.0  -0.7487
  O  O92  1  0.982900  0.354400  0.603500  1.0  -0.6617
  O  O93  1  0.294700  0.290700  0.856500  1.0  -0.6419
  O  O94  1  0.218100  0.215000  0.679100  1.0  -0.6109
  O  O95  1  0.308300  0.674900  0.847900  1.0  -0.7008
  O  O96  1  0.206000  0.592000  0.671700  1.0  -0.7266
  O  O97  1  0.126800  0.166600  0.452300  1.0  -0.6406
  O  O98  1  0.346400  0.210100  0.525600  1.0  -0.6221
  O  O99  1  0.390400  0.707700  0.078000  1.0  -0.6074
  O  O100  1  0.169400  0.663400  0.006700  1.0  -0.693
  O  O101  1  0.458200  0.467800  0.071700  1.0  -0.6939
  O  O102  1  0.588900  0.556100  0.238900  1.0  -0.7943
  O  O103  1  0.888800  0.556900  0.229100  1.0  -0.748
  O  O104  1  0.017100  0.645600  0.396500  1.0  -0.6662
  O  O105  1  0.705300  0.709300  0.143500  1.0  -0.6422
  O  O106  1  0.781900  0.785000  0.320900  1.0  -0.6109
  O  O107  1  0.691700  0.325100  0.152100  1.0  -0.7021
  O  O108  1  0.794000  0.408000  0.328300  1.0  -0.7286
  O  O109  1  0.873200  0.833400  0.547700  1.0  -0.6424
  O  O110  1  0.653600  0.789900  0.474400  1.0  -0.6221
  O  O111  1  0.609600  0.292300  0.922000  1.0  -0.608
  O  O112  1  0.830600  0.336600  0.993300  1.0  -0.6929
