# generated using pymatgen
data_Eu2H13C24(NO4)3
_symmetry_space_group_name_H-M   'P 1'
_cell_length_a   10.52550000
_cell_length_b   11.32710000
_cell_length_c   14.38810000
_cell_angle_alpha   111.36600000
_cell_angle_beta   107.85700000
_cell_angle_gamma   91.37400000
_symmetry_Int_Tables_number   1
_chemical_formula_structural   Eu2H13C24(NO4)3
_chemical_formula_sum   'Eu4 H26 C48 N6 O24'
_cell_volume   1502.61989994
_cell_formula_units_Z   2
loop_
 _symmetry_equiv_pos_site_id
 _symmetry_equiv_pos_as_xyz
  1  'x, y, z'
loop_
 _atom_site_type_symbol
 _atom_site_label
 _atom_site_symmetry_multiplicity
 _atom_site_fract_x
 _atom_site_fract_y
 _atom_site_fract_z
 _atom_site_occupancy
 _atom_site_charge
  Eu  Eu1  1  0.784090  0.132550  0.894160  1.0  2.1461
  Eu  Eu2  1  0.693610  0.982290  0.581200  1.0  2.1084
  Eu  Eu3  1  0.215910  0.867450  0.105840  1.0  2.1438
  Eu  Eu4  1  0.306390  0.017710  0.418800  1.0  2.1051
  H  H5  1  0.869200  0.606900  0.989500  1.0  0.3113
  H  H6  1  0.842600  0.464100  0.939800  1.0  0.34
  H  H7  1  0.254000  0.851000  0.513000  1.0  0.2498
  H  H8  1  0.104200  0.883000  0.499000  1.0  0.2711
  H  H9  1  0.421300  0.438300  0.088900  1.0  0.31
  H  H10  1  0.493200  0.359600  0.019200  1.0  0.3292
  H  H11  1  0.631200  0.381900  0.583300  1.0  0.0978
  H  H12  1  0.826600  0.734200  0.894200  1.0  0.1081
  H  H13  1  0.451100  0.146300  0.854400  1.0  0.0908
  H  H14  1  0.267000  0.182900  0.910900  1.0  0.1179
  H  H15  1  0.023300  0.968500  0.614600  1.0  0.1057
  H  H16  1  0.944900  0.530500  0.208200  1.0  0.1001
  H  H17  1  0.534400  0.616200  0.245700  1.0  0.0931
  H  H18  1  0.130800  0.393100  0.010500  1.0  0.3072
  H  H19  1  0.157400  0.535900  0.060200  1.0  0.3378
  H  H20  1  0.746000  0.149000  0.487000  1.0  0.2495
  H  H21  1  0.895800  0.117000  0.501000  1.0  0.2733
  H  H22  1  0.578700  0.561700  0.911100  1.0  0.3121
  H  H23  1  0.506800  0.640400  0.980800  1.0  0.3271
  H  H24  1  0.368800  0.618100  0.416700  1.0  0.0976
  H  H25  1  0.173400  0.265800  0.105800  1.0  0.1083
  H  H26  1  0.548900  0.853700  0.145600  1.0  0.0906
  H  H27  1  0.733000  0.817100  0.089100  1.0  0.1182
  H  H28  1  0.976700  0.031500  0.385400  1.0  0.1059
  H  H29  1  0.055100  0.469500  0.791800  1.0  0.0997
  H  H30  1  0.465600  0.383800  0.754300  1.0  0.0937
  C  C31  1  0.741100  0.300100  0.733400  1.0  0.714
  C  C32  1  0.734500  0.433200  0.738400  1.0  -0.2242
  C  C33  1  0.672400  0.452900  0.646100  1.0  -0.0125
  C  C34  1  0.669200  0.574200  0.643900  1.0  0.0112
  C  C35  1  0.731400  0.681200  0.739100  1.0  -0.15
  C  C36  1  0.787600  0.662800  0.831300  1.0  -0.0987
  C  C37  1  0.788700  0.541400  0.834600  1.0  0.2467
  C  C38  1  0.738200  0.814200  0.739200  1.0  0.6525
  C  C39  1  0.471700  0.018500  0.669000  1.0  0.6946
  C  C40  1  0.350800  0.035000  0.702100  1.0  -0.1801
  C  C41  1  0.364900  0.109800  0.806000  1.0  0.005
  C  C42  1  0.255200  0.132400  0.840500  1.0  -0.0833
  C  C43  1  0.127100  0.077200  0.767000  1.0  -0.1597
  C  C44  1  0.110100  0.003000  0.662900  1.0  -0.1547
  C  C45  1  0.219900  0.978700  0.628600  1.0  0.1999
  C  C46  1  0.004700  0.095900  0.800100  1.0  0.6732
  C  C47  1  0.725800  0.770800  0.417200  1.0  0.6724
  C  C48  1  0.734200  0.668400  0.318400  1.0  -0.1191
  C  C49  1  0.860400  0.646100  0.308700  1.0  0.0441
  C  C50  1  0.862200  0.547000  0.216800  1.0  0.0219
  C  C51  1  0.744500  0.472100  0.137500  1.0  -0.1681
  C  C52  1  0.618600  0.497800  0.148400  1.0  0.196
  C  C53  1  0.617100  0.596900  0.238500  1.0  -0.1319
  C  C54  1  0.756500  0.360500  0.047000  1.0  0.6526
  C  C55  1  0.258900  0.699900  0.266600  1.0  0.7138
  C  C56  1  0.265500  0.566800  0.261600  1.0  -0.2238
  C  C57  1  0.327600  0.547100  0.353900  1.0  -0.0136
  C  C58  1  0.330800  0.425800  0.356100  1.0  0.013
  C  C59  1  0.268600  0.318800  0.260900  1.0  -0.1519
  C  C60  1  0.212400  0.337200  0.168700  1.0  -0.1036
  C  C61  1  0.211300  0.458600  0.165400  1.0  0.2463
  C  C62  1  0.261800  0.185800  0.260800  1.0  0.6527
  C  C63  1  0.528300  0.981500  0.331000  1.0  0.6952
  C  C64  1  0.649200  0.965000  0.297900  1.0  -0.1797
  C  C65  1  0.635100  0.890200  0.194000  1.0  0.0045
  C  C66  1  0.744800  0.867600  0.159500  1.0  -0.0841
  C  C67  1  0.872900  0.922800  0.233000  1.0  -0.1579
  C  C68  1  0.889900  0.997000  0.337100  1.0  -0.1535
  C  C69  1  0.780100  0.021300  0.371400  1.0  0.1995
  C  C70  1  0.995300  0.904100  0.199900  1.0  0.6741
  C  C71  1  0.274200  0.229200  0.582800  1.0  0.672
  C  C72  1  0.265800  0.331600  0.681600  1.0  -0.1177
  C  C73  1  0.139600  0.353900  0.691300  1.0  0.0448
  C  C74  1  0.137800  0.453000  0.783200  1.0  0.0213
  C  C75  1  0.255500  0.527900  0.862500  1.0  -0.1693
  C  C76  1  0.381400  0.502200  0.851600  1.0  0.1958
  C  C77  1  0.382900  0.403100  0.761500  1.0  -0.1319
  C  C78  1  0.243500  0.639500  0.953000  1.0  0.6535
  N  N79  1  0.840000  0.536900  0.933800  1.0  -0.6044
  N  N80  1  0.194600  0.908600  0.518500  1.0  -0.6128
  N  N81  1  0.495000  0.422100  0.076200  1.0  -0.6362
  N  N82  1  0.160000  0.463100  0.066200  1.0  -0.6023
  N  N83  1  0.805400  0.091400  0.481500  1.0  -0.6081
  N  N84  1  0.505000  0.577900  0.923800  1.0  -0.6357
  O  O85  1  0.782200  0.284900  0.819400  1.0  -0.6065
  O  O86  1  0.706800  0.210100  0.643900  1.0  -0.64
  O  O87  1  0.692000  0.824900  0.651800  1.0  -0.7142
  O  O88  1  0.793500  0.906900  0.828400  1.0  -0.7193
  O  O89  1  0.588200  0.055900  0.737000  1.0  -0.7971
  O  O90  1  0.458100  0.967300  0.570900  1.0  -0.698
  O  O91  1  0.888800  0.056400  0.729800  1.0  -0.7853
  O  O92  1  0.018400  0.146000  0.897400  1.0  -0.6526
  O  O93  1  0.609700  0.791300  0.421700  1.0  -0.6215
  O  O94  1  0.830400  0.837500  0.492100  1.0  -0.7154
  O  O95  1  0.872400  0.334700  0.046300  1.0  -0.663
  O  O96  1  0.652600  0.292500  0.973500  1.0  -0.6099
  O  O97  1  0.217800  0.715100  0.180600  1.0  -0.6074
  O  O98  1  0.293200  0.789900  0.356100  1.0  -0.6396
  O  O99  1  0.308000  0.175100  0.348200  1.0  -0.7132
  O  O100  1  0.206500  0.093100  0.171600  1.0  -0.7185
  O  O101  1  0.411800  0.944100  0.263000  1.0  -0.797
  O  O102  1  0.541900  0.032700  0.429100  1.0  -0.6992
  O  O103  1  0.111200  0.943600  0.270200  1.0  -0.7852
  O  O104  1  0.981600  0.854000  0.102600  1.0  -0.6597
  O  O105  1  0.390300  0.208700  0.578300  1.0  -0.6208
  O  O106  1  0.169600  0.162500  0.507900  1.0  -0.716
  O  O107  1  0.127600  0.665300  0.953700  1.0  -0.6616
  O  O108  1  0.347400  0.707500  0.026500  1.0  -0.6103
