# generated using pymatgen
data_YbH9C12(NO2)3
_symmetry_space_group_name_H-M   'P 1'
_cell_length_a   10.48520000
_cell_length_b   11.15250000
_cell_length_c   14.25020000
_cell_angle_alpha   111.51600000
_cell_angle_beta   107.29100000
_cell_angle_gamma   91.52300000
_symmetry_Int_Tables_number   1
_chemical_formula_structural   YbH9C12(NO2)3
_chemical_formula_sum   'Yb4 H36 C48 N12 O24'
_cell_volume   1462.83870089
_cell_formula_units_Z   4
loop_
 _symmetry_equiv_pos_site_id
 _symmetry_equiv_pos_as_xyz
  1  'x, y, z'
loop_
 _atom_site_type_symbol
 _atom_site_label
 _atom_site_symmetry_multiplicity
 _atom_site_fract_x
 _atom_site_fract_y
 _atom_site_fract_z
 _atom_site_occupancy
 _atom_site_charge
  Yb  Yb1  1  0.687360  0.477610  0.077770  1.0  1.2942
  Yb  Yb2  1  0.776270  0.627570  0.388250  1.0  1.5076
  Yb  Yb3  1  0.312640  0.522390  0.922230  1.0  1.2867
  Yb  Yb4  1  0.223730  0.372430  0.611750  1.0  1.5069
  H  H5  1  0.874400  0.107300  0.486700  1.0  0.2306
  H  H6  1  0.850000  0.962100  0.437400  1.0  0.3129
  H  H7  1  0.837700  0.345800  0.426600  1.0  0.2816
  H  H8  1  0.880300  0.255400  0.481400  1.0  0.1597
  H  H9  1  0.416800  0.934700  0.584300  1.0  0.225
  H  H10  1  0.488700  0.854500  0.513300  1.0  0.2509
  H  H11  1  0.052300  0.161800  0.874600  1.0  0.3604
  H  H12  1  0.986200  0.253900  0.944300  1.0  0.2494
  H  H13  1  0.266600  0.402000  0.991800  1.0  0.2646
  H  H14  1  0.118200  0.379300  0.970500  1.0  0.2813
  H  H15  1  0.345700  0.729000  0.489300  1.0  0.2513
  H  H16  1  0.196900  0.712700  0.467300  1.0  0.3166
  H  H17  1  0.612300  0.079500  0.078400  1.0  0.1329
  H  H18  1  0.622600  0.874300  0.079400  1.0  0.1085
  H  H19  1  0.530700  0.113900  0.744300  1.0  0.1209
  H  H20  1  0.942300  0.025800  0.704900  1.0  0.1099
  H  H21  1  0.019600  0.468700  0.106300  1.0  0.1193
  H  H22  1  0.443300  0.639500  0.357000  1.0  0.1142
  H  H23  1  0.125600  0.892700  0.513300  1.0  0.2285
  H  H24  1  0.150000  0.037900  0.562600  1.0  0.3099
  H  H25  1  0.162300  0.654200  0.573400  1.0  0.2774
  H  H26  1  0.119700  0.744600  0.518600  1.0  0.1655
  H  H27  1  0.583200  0.065300  0.415700  1.0  0.2272
  H  H28  1  0.511300  0.145500  0.486700  1.0  0.2525
  H  H29  1  0.947700  0.838200  0.125400  1.0  0.3598
  H  H30  1  0.013800  0.746100  0.055700  1.0  0.2495
  H  H31  1  0.733400  0.598000  0.008200  1.0  0.2676
  H  H32  1  0.881800  0.620700  0.029500  1.0  0.283
  H  H33  1  0.654300  0.271000  0.510700  1.0  0.2477
  H  H34  1  0.803100  0.287300  0.532700  1.0  0.3209
  H  H35  1  0.387700  0.920500  0.921600  1.0  0.1341
  H  H36  1  0.377400  0.125700  0.920600  1.0  0.1084
  H  H37  1  0.469300  0.886100  0.255700  1.0  0.1212
  H  H38  1  0.057700  0.974200  0.295100  1.0  0.1114
  H  H39  1  0.980400  0.531300  0.893700  1.0  0.1193
  H  H40  1  0.556700  0.360500  0.643000  1.0  0.1171
  C  C41  1  0.729500  0.313200  0.233000  1.0  0.7098
  C  C42  1  0.725700  0.178300  0.233900  1.0  -0.1122
  C  C43  1  0.659500  0.069500  0.140900  1.0  -0.0507
  C  C44  1  0.664600  0.946600  0.142400  1.0  0.0108
  C  C45  1  0.730800  0.927400  0.235100  1.0  -0.1602
  C  C46  1  0.791400  0.038900  0.331000  1.0  0.1761
  C  C47  1  0.787800  0.162600  0.327800  1.0  0.2391
  C  C48  1  0.735300  0.792700  0.231500  1.0  0.716
  C  C49  1  0.719100  0.268900  0.915800  1.0  0.6729
  C  C50  1  0.731800  0.165400  0.817900  1.0  -0.1666
  C  C51  1  0.613500  0.093800  0.736700  1.0  -0.133
  C  C52  1  0.615700  0.993500  0.644900  1.0  0.2257
  C  C53  1  0.741200  0.965200  0.633700  1.0  -0.1619
  C  C54  1  0.859100  0.041900  0.713800  1.0  -0.0719
  C  C55  1  0.855900  0.140100  0.805000  1.0  0.2858
  C  C56  1  0.753000  0.851800  0.542000  1.0  0.6676
  C  C57  1  0.471900  0.518300  0.170900  1.0  0.6763
  C  C58  1  0.347500  0.532800  0.201400  1.0  -0.146
  C  C59  1  0.219700  0.478300  0.124800  1.0  0.2271
  C  C60  1  0.105300  0.501700  0.156900  1.0  -0.1339
  C  C61  1  0.117800  0.572300  0.261400  1.0  -0.1691
  C  C62  1  0.244900  0.625200  0.338300  1.0  0.2093
  C  C63  1  0.358000  0.604300  0.306300  1.0  -0.1287
  C  C64  1  0.991700  0.588700  0.291100  1.0  0.6643
  C  C65  1  0.270500  0.686800  0.767000  1.0  0.7106
  C  C66  1  0.274300  0.821700  0.766100  1.0  -0.1114
  C  C67  1  0.340500  0.930500  0.859100  1.0  -0.0511
  C  C68  1  0.335400  0.053400  0.857600  1.0  0.0119
  C  C69  1  0.269200  0.072600  0.764900  1.0  -0.1625
  C  C70  1  0.208600  0.961100  0.669000  1.0  0.1745
  C  C71  1  0.212200  0.837400  0.672200  1.0  0.2417
  C  C72  1  0.264700  0.207300  0.768500  1.0  0.7156
  C  C73  1  0.280900  0.731100  0.084200  1.0  0.6752
  C  C74  1  0.268200  0.834600  0.182100  1.0  -0.1691
  C  C75  1  0.386500  0.906200  0.263300  1.0  -0.1325
  C  C76  1  0.384300  0.006500  0.355100  1.0  0.2253
  C  C77  1  0.258800  0.034800  0.366300  1.0  -0.1598
  C  C78  1  0.140900  0.958100  0.286200  1.0  -0.069
  C  C79  1  0.144100  0.859900  0.195000  1.0  0.2876
  C  C80  1  0.247000  0.148200  0.458000  1.0  0.6624
  C  C81  1  0.528100  0.481700  0.829100  1.0  0.6742
  C  C82  1  0.652500  0.467200  0.798600  1.0  -0.1469
  C  C83  1  0.780300  0.521700  0.875200  1.0  0.2253
  C  C84  1  0.894700  0.498300  0.843100  1.0  -0.1289
  C  C85  1  0.882200  0.427700  0.738600  1.0  -0.1691
  C  C86  1  0.755100  0.374800  0.661700  1.0  0.2104
  C  C87  1  0.642000  0.395700  0.693700  1.0  -0.1351
  C  C88  1  0.008300  0.411300  0.708900  1.0  0.6658
  N  N89  1  0.845400  0.035700  0.430900  1.0  -0.6132
  N  N90  1  0.842000  0.267800  0.424000  1.0  -0.3733
  N  N91  1  0.490700  0.917600  0.571200  1.0  -0.5846
  N  N92  1  0.980700  0.192000  0.884800  1.0  -0.5856
  N  N93  1  0.198700  0.411100  0.014600  1.0  -0.5571
  N  N94  1  0.265000  0.698000  0.445100  1.0  -0.4693
  N  N95  1  0.154600  0.964300  0.569100  1.0  -0.6129
  N  N96  1  0.158000  0.732200  0.576000  1.0  -0.3749
  N  N97  1  0.509300  0.082400  0.428800  1.0  -0.5834
  N  N98  1  0.019300  0.808000  0.115200  1.0  -0.5869
  N  N99  1  0.801300  0.588900  0.985400  1.0  -0.5572
  N  N100  1  0.735000  0.302000  0.554900  1.0  -0.4626
  O  O101  1  0.682900  0.321300  0.144400  1.0  -0.6165
  O  O102  1  0.782500  0.408900  0.321400  1.0  -0.6088
  O  O103  1  0.780100  0.779500  0.319400  1.0  -0.5711
  O  O104  1  0.696000  0.699600  0.141600  1.0  -0.6252
  O  O105  1  0.605700  0.292200  0.921700  1.0  -0.603
  O  O106  1  0.824700  0.335200  0.992500  1.0  -0.6171
  O  O107  1  0.867200  0.820800  0.541400  1.0  -0.6116
  O  O108  1  0.648500  0.785100  0.466100  1.0  -0.596
  O  O109  1  0.462300  0.469200  0.072700  1.0  -0.6595
  O  O110  1  0.586700  0.554400  0.241500  1.0  -0.7329
  O  O111  1  0.998800  0.638000  0.387700  1.0  -0.6443
  O  O112  1  0.878300  0.549400  0.217300  1.0  -0.6735
  O  O113  1  0.317100  0.678700  0.855600  1.0  -0.6136
  O  O114  1  0.217500  0.591100  0.678600  1.0  -0.6061
  O  O115  1  0.219900  0.220500  0.680600  1.0  -0.5714
  O  O116  1  0.304000  0.300400  0.858400  1.0  -0.6254
  O  O117  1  0.394300  0.707800  0.078300  1.0  -0.6031
  O  O118  1  0.175300  0.664800  0.007500  1.0  -0.6166
  O  O119  1  0.132800  0.179200  0.458600  1.0  -0.6102
  O  O120  1  0.351500  0.214900  0.533900  1.0  -0.5972
  O  O121  1  0.537700  0.530800  0.927300  1.0  -0.6641
  O  O122  1  0.413300  0.445600  0.758500  1.0  -0.7309
  O  O123  1  0.001200  0.362000  0.612300  1.0  -0.6467
  O  O124  1  0.121700  0.450600  0.782700  1.0  -0.6724
