# generated using pymatgen
data_Fe5P8(O8F)4
_symmetry_space_group_name_H-M   'P 1'
_cell_length_a   17.20230000
_cell_length_b   17.20230000
_cell_length_c   13.30860000
_cell_angle_alpha   90.00000000
_cell_angle_beta   90.00000000
_cell_angle_gamma   90.00000000
_symmetry_Int_Tables_number   1
_chemical_formula_structural   Fe5P8(O8F)4
_chemical_formula_sum   'Fe20 P32 O128 F16'
_cell_volume   3938.26927083
_cell_formula_units_Z   4
loop_
 _symmetry_equiv_pos_site_id
 _symmetry_equiv_pos_as_xyz
  1  'x, y, z'
loop_
 _atom_site_type_symbol
 _atom_site_label
 _atom_site_symmetry_multiplicity
 _atom_site_fract_x
 _atom_site_fract_y
 _atom_site_fract_z
 _atom_site_occupancy
 _atom_site_charge
  Fe  Fe1  1  0.693200  0.317900  0.749200  1.0  1.493
  Fe  Fe2  1  0.753100  0.254000  0.999300  1.0  1.5532
  Fe  Fe3  1  0.306800  0.682100  0.749200  1.0  1.4848
  Fe  Fe4  1  0.246900  0.746000  0.999300  1.0  1.5555
  Fe  Fe5  1  0.317900  0.306800  0.250800  1.0  1.4873
  Fe  Fe6  1  0.254000  0.246900  0.000700  1.0  1.5565
  Fe  Fe7  1  0.682100  0.693200  0.250800  1.0  1.4906
  Fe  Fe8  1  0.746000  0.753100  0.000700  1.0  1.5524
  Fe  Fe9  1  0.806800  0.817900  0.750800  1.0  1.4867
  Fe  Fe10  1  0.746900  0.754000  0.500700  1.0  1.5539
  Fe  Fe11  1  0.193200  0.182100  0.750800  1.0  1.4936
  Fe  Fe12  1  0.253100  0.246000  0.500700  1.0  1.5503
  Fe  Fe13  1  0.182100  0.806800  0.249200  1.0  1.4905
  Fe  Fe14  1  0.246000  0.746900  0.499300  1.0  1.5549
  Fe  Fe15  1  0.817900  0.193200  0.249200  1.0  1.4856
  Fe  Fe16  1  0.754000  0.253100  0.499300  1.0  1.5584
  Fe  Fe17  1  0.500000  0.500000  0.000000  1.0  1.1088
  Fe  Fe18  1  0.000000  0.000000  0.500000  1.0  1.1088
  Fe  Fe19  1  0.500000  0.500000  0.500000  1.0  1.0731
  Fe  Fe20  1  0.000000  0.000000  0.000000  1.0  1.0731
  P  P21  1  0.674200  0.419600  0.951200  1.0  1.7628
  P  P22  1  0.823200  0.408200  0.615100  1.0  1.8621
  P  P23  1  0.604400  0.183300  0.876200  1.0  1.8762
  P  P24  1  0.592000  0.334300  0.549400  1.0  1.7945
  P  P25  1  0.325800  0.580400  0.951200  1.0  1.7624
  P  P26  1  0.176800  0.591800  0.615100  1.0  1.8608
  P  P27  1  0.395600  0.816700  0.876200  1.0  1.8783
  P  P28  1  0.408000  0.665700  0.549400  1.0  1.796
  P  P29  1  0.419600  0.325800  0.048800  1.0  1.7618
  P  P30  1  0.408200  0.176800  0.384900  1.0  1.8624
  P  P31  1  0.183300  0.395600  0.123800  1.0  1.8765
  P  P32  1  0.334300  0.408000  0.450600  1.0  1.7967
  P  P33  1  0.580400  0.674200  0.048800  1.0  1.76
  P  P34  1  0.591800  0.823200  0.384900  1.0  1.8615
  P  P35  1  0.816700  0.604400  0.123800  1.0  1.8781
  P  P36  1  0.665700  0.592000  0.450600  1.0  1.7964
  P  P37  1  0.825800  0.919600  0.548800  1.0  1.7627
  P  P38  1  0.676800  0.908200  0.884900  1.0  1.8619
  P  P39  1  0.895600  0.683300  0.623800  1.0  1.878
  P  P40  1  0.908000  0.834300  0.950600  1.0  1.7959
  P  P41  1  0.174200  0.080400  0.548800  1.0  1.7631
  P  P42  1  0.323200  0.091800  0.884900  1.0  1.8617
  P  P43  1  0.104400  0.316700  0.623800  1.0  1.8765
  P  P44  1  0.092000  0.165700  0.950600  1.0  1.7942
  P  P45  1  0.080400  0.825800  0.451200  1.0  1.7601
  P  P46  1  0.091800  0.676800  0.115100  1.0  1.8609
  P  P47  1  0.316700  0.895600  0.376200  1.0  1.8781
  P  P48  1  0.165700  0.908000  0.049400  1.0  1.7971
  P  P49  1  0.919600  0.174200  0.451200  1.0  1.7613
  P  P50  1  0.908200  0.323200  0.115100  1.0  1.8621
  P  P51  1  0.683300  0.104400  0.376200  1.0  1.8766
  P  P52  1  0.834300  0.092000  0.049400  1.0  1.7964
  O  O53  1  0.698800  0.353300  0.019100  1.0  -0.6813
  O  O54  1  0.613200  0.467900  0.003800  1.0  -0.7552
  O  O55  1  0.541500  0.391400  0.493100  1.0  -0.7306
  O  O56  1  0.652300  0.199600  0.968800  1.0  -0.7163
  O  O57  1  0.622800  0.364200  0.649000  1.0  -0.6896
  O  O58  1  0.614100  0.241900  0.792200  1.0  -0.7296
  O  O59  1  0.538900  0.262800  0.578900  1.0  -0.4157
  O  O60  1  0.649900  0.393600  0.846300  1.0  -0.6625
  O  O61  1  0.780200  0.387000  0.709200  1.0  -0.7208
  O  O62  1  0.518500  0.179300  0.906800  1.0  -0.5177
  O  O63  1  0.655000  0.305200  0.478900  1.0  -0.6788
  O  O64  1  0.628200  0.102800  0.829900  1.0  -0.4545
  O  O65  1  0.747500  0.474000  0.930800  1.0  -0.4405
  O  O66  1  0.807200  0.354900  0.525600  1.0  -0.7138
  O  O67  1  0.910400  0.410200  0.639400  1.0  -0.5178
  O  O68  1  0.803100  0.491500  0.586600  1.0  -0.5305
  O  O69  1  0.301200  0.646700  0.019100  1.0  -0.6805
  O  O70  1  0.386800  0.532100  0.003800  1.0  -0.7541
  O  O71  1  0.458500  0.608600  0.493100  1.0  -0.7298
  O  O72  1  0.347700  0.800400  0.968800  1.0  -0.7163
  O  O73  1  0.377200  0.635800  0.649000  1.0  -0.6894
  O  O74  1  0.385900  0.758100  0.792200  1.0  -0.7287
  O  O75  1  0.461100  0.737200  0.578900  1.0  -0.4152
  O  O76  1  0.350100  0.606400  0.846300  1.0  -0.6618
  O  O77  1  0.219800  0.613000  0.709200  1.0  -0.7209
  O  O78  1  0.481500  0.820700  0.906800  1.0  -0.5192
  O  O79  1  0.345000  0.694800  0.478900  1.0  -0.6794
  O  O80  1  0.371800  0.897200  0.829900  1.0  -0.4544
  O  O81  1  0.252500  0.526000  0.930800  1.0  -0.4403
  O  O82  1  0.192800  0.645100  0.525600  1.0  -0.7144
  O  O83  1  0.089600  0.589800  0.639400  1.0  -0.5177
  O  O84  1  0.196900  0.508500  0.586600  1.0  -0.53
  O  O85  1  0.353300  0.301200  0.980900  1.0  -0.6824
  O  O86  1  0.467900  0.386800  0.996200  1.0  -0.752
  O  O87  1  0.391400  0.458500  0.506900  1.0  -0.7334
  O  O88  1  0.199600  0.347700  0.031200  1.0  -0.7134
  O  O89  1  0.364200  0.377200  0.351000  1.0  -0.6869
  O  O90  1  0.241900  0.385900  0.207800  1.0  -0.7316
  O  O91  1  0.262800  0.461100  0.421100  1.0  -0.4167
  O  O92  1  0.393600  0.350100  0.153700  1.0  -0.6616
  O  O93  1  0.387000  0.219800  0.290800  1.0  -0.7206
  O  O94  1  0.179300  0.481500  0.093200  1.0  -0.5216
  O  O95  1  0.305200  0.345000  0.521100  1.0  -0.6777
  O  O96  1  0.102800  0.371800  0.170100  1.0  -0.4524
  O  O97  1  0.474000  0.252500  0.069200  1.0  -0.4423
  O  O98  1  0.354900  0.192800  0.474400  1.0  -0.718
  O  O99  1  0.410200  0.089600  0.360600  1.0  -0.519
  O  O100  1  0.491500  0.196900  0.413400  1.0  -0.5294
  O  O101  1  0.646700  0.698800  0.980900  1.0  -0.6826
  O  O102  1  0.532100  0.613200  0.996200  1.0  -0.7535
  O  O103  1  0.608600  0.541500  0.506900  1.0  -0.733
  O  O104  1  0.800400  0.652300  0.031200  1.0  -0.712
  O  O105  1  0.635800  0.622800  0.351000  1.0  -0.6879
  O  O106  1  0.758100  0.614100  0.207800  1.0  -0.7307
  O  O107  1  0.737200  0.538900  0.421100  1.0  -0.4163
  O  O108  1  0.606400  0.649900  0.153700  1.0  -0.6619
  O  O109  1  0.613000  0.780200  0.290800  1.0  -0.7205
  O  O110  1  0.820700  0.518500  0.093200  1.0  -0.5222
  O  O111  1  0.694800  0.655000  0.521100  1.0  -0.6779
  O  O112  1  0.897200  0.628200  0.170100  1.0  -0.4512
  O  O113  1  0.526000  0.747500  0.069200  1.0  -0.4407
  O  O114  1  0.645100  0.807200  0.474400  1.0  -0.718
  O  O115  1  0.589800  0.910400  0.360600  1.0  -0.5189
  O  O116  1  0.508500  0.803100  0.413400  1.0  -0.5273
  O  O117  1  0.801200  0.853300  0.480900  1.0  -0.6815
  O  O118  1  0.886800  0.967900  0.496200  1.0  -0.753
  O  O119  1  0.958500  0.891400  0.006900  1.0  -0.7317
  O  O120  1  0.847700  0.699600  0.531200  1.0  -0.7132
  O  O121  1  0.877200  0.864200  0.851000  1.0  -0.6886
  O  O122  1  0.885900  0.741900  0.707800  1.0  -0.7286
  O  O123  1  0.961100  0.762800  0.921100  1.0  -0.4161
  O  O124  1  0.850100  0.893600  0.653700  1.0  -0.6619
  O  O125  1  0.719800  0.887000  0.790800  1.0  -0.721
  O  O126  1  0.981500  0.679300  0.593200  1.0  -0.5191
  O  O127  1  0.845000  0.805200  0.021100  1.0  -0.6777
  O  O128  1  0.871800  0.602800  0.670100  1.0  -0.454
  O  O129  1  0.752500  0.974000  0.569200  1.0  -0.4405
  O  O130  1  0.692800  0.854900  0.974400  1.0  -0.7172
  O  O131  1  0.589600  0.910200  0.860600  1.0  -0.5153
  O  O132  1  0.696900  0.991500  0.913400  1.0  -0.5306
  O  O133  1  0.198800  0.146700  0.480900  1.0  -0.682
  O  O134  1  0.113200  0.032100  0.496200  1.0  -0.7545
  O  O135  1  0.041500  0.108600  0.006900  1.0  -0.7321
  O  O136  1  0.152300  0.300400  0.531200  1.0  -0.7132
  O  O137  1  0.122800  0.135800  0.851000  1.0  -0.689
  O  O138  1  0.114100  0.258100  0.707800  1.0  -0.7296
  O  O139  1  0.038900  0.237200  0.921100  1.0  -0.4172
  O  O140  1  0.149900  0.106400  0.653700  1.0  -0.6613
  O  O141  1  0.280200  0.113000  0.790800  1.0  -0.7216
  O  O142  1  0.018500  0.320700  0.593200  1.0  -0.5173
  O  O143  1  0.155000  0.194800  0.021100  1.0  -0.6771
  O  O144  1  0.128200  0.397200  0.670100  1.0  -0.4528
  O  O145  1  0.247500  0.026000  0.569200  1.0  -0.4415
  O  O146  1  0.307200  0.145100  0.974400  1.0  -0.716
  O  O147  1  0.410400  0.089800  0.860600  1.0  -0.5198
  O  O148  1  0.303100  0.008500  0.913400  1.0  -0.5321
  O  O149  1  0.146700  0.801200  0.519100  1.0  -0.6812
  O  O150  1  0.032100  0.886800  0.503800  1.0  -0.7546
  O  O151  1  0.108600  0.958500  0.993100  1.0  -0.7312
  O  O152  1  0.300400  0.847700  0.468800  1.0  -0.7153
  O  O153  1  0.135800  0.877200  0.149000  1.0  -0.6886
  O  O154  1  0.258100  0.885900  0.292200  1.0  -0.7312
  O  O155  1  0.237200  0.961100  0.078900  1.0  -0.4149
  O  O156  1  0.106400  0.850100  0.346300  1.0  -0.6627
  O  O157  1  0.113000  0.719800  0.209200  1.0  -0.7209
  O  O158  1  0.320700  0.981500  0.406800  1.0  -0.5212
  O  O159  1  0.194800  0.845000  0.978900  1.0  -0.6771
  O  O160  1  0.397200  0.871800  0.329900  1.0  -0.4519
  O  O161  1  0.026000  0.752500  0.430800  1.0  -0.4403
  O  O162  1  0.145100  0.692800  0.025600  1.0  -0.716
  O  O163  1  0.089800  0.589600  0.139400  1.0  -0.5224
  O  O164  1  0.008500  0.696900  0.086600  1.0  -0.5263
  O  O165  1  0.853300  0.198800  0.519100  1.0  -0.6815
  O  O166  1  0.967900  0.113200  0.503800  1.0  -0.7532
  O  O167  1  0.891400  0.041500  0.993100  1.0  -0.7314
  O  O168  1  0.699600  0.152300  0.468800  1.0  -0.7158
  O  O169  1  0.864200  0.122800  0.149000  1.0  -0.6879
  O  O170  1  0.741900  0.114100  0.292200  1.0  -0.7311
  O  O171  1  0.762800  0.038900  0.078900  1.0  -0.4154
  O  O172  1  0.893600  0.149900  0.346300  1.0  -0.6622
  O  O173  1  0.887000  0.280200  0.209200  1.0  -0.72
  O  O174  1  0.679300  0.018500  0.406800  1.0  -0.5231
  O  O175  1  0.805200  0.155000  0.978900  1.0  -0.6765
  O  O176  1  0.602800  0.128200  0.329900  1.0  -0.4539
  O  O177  1  0.974000  0.247500  0.430800  1.0  -0.4413
  O  O178  1  0.854900  0.307200  0.025600  1.0  -0.7154
  O  O179  1  0.910200  0.410400  0.139400  1.0  -0.5209
  O  O180  1  0.991500  0.303100  0.086600  1.0  -0.5279
  F  F181  1  0.730600  0.242200  0.646200  1.0  -0.4473
  F  F182  1  0.764400  0.276200  0.853100  1.0  -0.4827
  F  F183  1  0.269400  0.757800  0.646200  1.0  -0.447
  F  F184  1  0.235600  0.723800  0.853100  1.0  -0.4833
  F  F185  1  0.242200  0.269400  0.353800  1.0  -0.4457
  F  F186  1  0.276200  0.235600  0.146900  1.0  -0.4843
  F  F187  1  0.757800  0.730600  0.353800  1.0  -0.4441
  F  F188  1  0.723800  0.764400  0.146900  1.0  -0.4867
  F  F189  1  0.769400  0.742200  0.853800  1.0  -0.4493
  F  F190  1  0.735600  0.776200  0.646900  1.0  -0.4828
  F  F191  1  0.230600  0.257800  0.853800  1.0  -0.4466
  F  F192  1  0.264400  0.223800  0.646900  1.0  -0.482
  F  F193  1  0.257800  0.769400  0.146200  1.0  -0.4437
  F  F194  1  0.223800  0.735600  0.353100  1.0  -0.4837
  F  F195  1  0.742200  0.230600  0.146200  1.0  -0.4449
  F  F196  1  0.776200  0.264400  0.353100  1.0  -0.4886
