# generated using pymatgen
data_MnHgH60C30Br4(NO)6
_symmetry_space_group_name_H-M   'P 1'
_cell_length_a   12.85600000
_cell_length_b   13.09700000
_cell_length_c   18.00200000
_cell_angle_alpha   93.60900000
_cell_angle_beta   99.88700000
_cell_angle_gamma   91.44100000
_symmetry_Int_Tables_number   1
_chemical_formula_structural   MnHgH60C30Br4(NO)6
_chemical_formula_sum   'Mn2 Hg2 H120 C60 Br8 N12 O12'
_cell_volume   2978.15524350
_cell_formula_units_Z   2
loop_
 _symmetry_equiv_pos_site_id
 _symmetry_equiv_pos_as_xyz
  1  'x, y, z'
loop_
 _atom_site_type_symbol
 _atom_site_label
 _atom_site_symmetry_multiplicity
 _atom_site_fract_x
 _atom_site_fract_y
 _atom_site_fract_z
 _atom_site_occupancy
 _atom_site_charge
  Mn  Mn1  1  0.741800  0.783800  0.748150  1.0  0.9612
  Mn  Mn2  1  0.258200  0.216200  0.251850  1.0  0.964
  Hg  Hg3  1  0.767670  0.712600  0.243040  1.0  0.5486
  Hg  Hg4  1  0.232330  0.287400  0.756960  1.0  0.5479
  H  H5  1  0.027200  0.517900  0.745300  1.0  0.1866
  H  H6  1  0.769000  0.748600  0.029200  1.0  0.1896
  H  H7  1  0.647500  0.729600  0.459300  1.0  0.1823
  H  H8  1  0.961200  0.107000  0.742700  1.0  0.1843
  H  H9  1  0.499100  0.471300  0.754900  1.0  0.1782
  H  H10  1  0.458200  0.043400  0.775100  1.0  0.1639
  H  H11  1  0.083800  0.676400  0.784500  1.0  0.1374
  H  H12  1  0.007300  0.766600  0.767300  1.0  0.1346
  H  H13  1  0.010300  0.710500  0.842000  1.0  0.1325
  H  H14  1  0.828600  0.480200  0.665600  1.0  0.083
  H  H15  1  0.920600  0.402900  0.671700  1.0  0.0867
  H  H16  1  0.800400  0.446100  0.787300  1.0  0.08
  H  H17  1  0.894700  0.371300  0.795600  1.0  0.0878
  H  H18  1  0.800300  0.263300  0.694300  1.0  0.0772
  H  H19  1  0.705200  0.336900  0.689500  1.0  0.0797
  H  H20  1  0.607500  0.818700  0.911300  1.0  0.1409
  H  H21  1  0.670600  0.872800  0.986300  1.0  0.1327
  H  H22  1  0.679900  0.915900  0.908300  1.0  0.1309
  H  H23  1  0.935400  0.688200  0.047900  1.0  0.0858
  H  H24  1  0.948700  0.716500  0.966400  1.0  0.0904
  H  H25  1  0.832900  0.548300  0.999800  1.0  0.0911
  H  H26  1  0.833200  0.578900  0.917100  1.0  0.0861
  H  H27  1  0.024100  0.555500  0.941700  1.0  0.0875
  H  H28  1  0.952900  0.455100  0.930100  1.0  0.0699
  H  H29  1  0.822100  0.750700  0.505800  1.0  0.1366
  H  H30  1  0.860600  0.782400  0.591800  1.0  0.1394
  H  H31  1  0.828600  0.667800  0.565400  1.0  0.1417
  H  H32  1  0.475900  0.701400  0.474700  1.0  0.0932
  H  H33  1  0.502200  0.760000  0.554800  1.0  0.0946
  H  H34  1  0.502100  0.860100  0.420900  1.0  0.0922
  H  H35  1  0.402300  0.855400  0.459900  1.0  0.0962
  H  H36  1  0.495800  0.949300  0.566700  1.0  0.0775
  H  H37  1  0.596000  0.953700  0.527800  1.0  0.0875
  H  H38  1  0.841200  0.079600  0.639500  1.0  0.1391
  H  H39  1  0.852000  0.968300  0.605000  1.0  0.1341
  H  H40  1  0.753200  0.995400  0.641800  1.0  0.1338
  H  H41  1  0.034800  0.950300  0.826800  1.0  0.0952
  H  H42  1  0.079200  0.063600  0.839700  1.0  0.0984
  H  H43  1  0.949100  0.109300  0.905400  1.0  0.081
  H  H44  1  0.891400  0.001400  0.885400  1.0  0.0837
  H  H45  1  0.093500  0.034000  0.978700  1.0  0.0858
  H  H46  1  0.040800  0.924700  0.956100  1.0  0.0899
  H  H47  1  0.579000  0.482100  0.656600  1.0  0.1283
  H  H48  1  0.527100  0.582700  0.628200  1.0  0.1427
  H  H49  1  0.650400  0.578000  0.647900  1.0  0.1285
  H  H50  1  0.433700  0.567800  0.854600  1.0  0.0987
  H  H51  1  0.546200  0.622200  0.874300  1.0  0.0843
  H  H52  1  0.496300  0.418800  0.891400  1.0  0.0853
  H  H53  1  0.613400  0.457500  0.895300  1.0  0.0911
  H  H54  1  0.575600  0.579500  0.000200  1.0  0.0792
  H  H55  1  0.603700  0.466700  0.019000  1.0  0.0815
  H  H56  1  0.399200  0.898900  0.717000  1.0  0.1379
  H  H57  1  0.476400  0.827900  0.681100  1.0  0.1434
  H  H58  1  0.458800  0.814600  0.764000  1.0  0.1458
  H  H59  1  0.572200  0.158100  0.843500  1.0  0.0963
  H  H60  1  0.664000  0.082200  0.840500  1.0  0.097
  H  H61  1  0.671300  0.123700  0.717200  1.0  0.0819
  H  H62  1  0.580400  0.200600  0.721000  1.0  0.0861
  H  H63  1  0.688700  0.301700  0.814600  1.0  0.082
  H  H64  1  0.778900  0.223400  0.815000  1.0  0.0794
  H  H65  1  0.972800  0.482100  0.254700  1.0  0.1902
  H  H66  1  0.231000  0.251400  0.970800  1.0  0.1891
  H  H67  1  0.352500  0.270400  0.540700  1.0  0.1838
  H  H68  1  0.038800  0.893000  0.257300  1.0  0.1867
  H  H69  1  0.500900  0.528700  0.245100  1.0  0.1789
  H  H70  1  0.541800  0.956600  0.224900  1.0  0.1631
  H  H71  1  0.916200  0.323600  0.215500  1.0  0.1376
  H  H72  1  0.992700  0.233400  0.232700  1.0  0.1352
  H  H73  1  0.989700  0.289500  0.158000  1.0  0.1348
  H  H74  1  0.171400  0.519800  0.334400  1.0  0.0837
  H  H75  1  0.079400  0.597100  0.328300  1.0  0.0862
  H  H76  1  0.199600  0.553900  0.212700  1.0  0.0804
  H  H77  1  0.105300  0.628700  0.204400  1.0  0.0892
  H  H78  1  0.199700  0.736700  0.305700  1.0  0.0799
  H  H79  1  0.294800  0.663100  0.310500  1.0  0.0802
  H  H80  1  0.392500  0.181300  0.088700  1.0  0.1427
  H  H81  1  0.329400  0.127200  0.013700  1.0  0.1338
  H  H82  1  0.320100  0.084100  0.091700  1.0  0.1297
  H  H83  1  0.064600  0.311800  0.952100  1.0  0.086
  H  H84  1  0.051300  0.283500  0.033600  1.0  0.0924
  H  H85  1  0.167100  0.451700  0.000200  1.0  0.0882
  H  H86  1  0.166800  0.421100  0.082900  1.0  0.0868
  H  H87  1  0.975900  0.444500  0.058300  1.0  0.0886
  H  H88  1  0.047100  0.544900  0.069900  1.0  0.0699
  H  H89  1  0.177900  0.249300  0.494200  1.0  0.1358
  H  H90  1  0.139400  0.217600  0.408200  1.0  0.1407
  H  H91  1  0.171400  0.332200  0.434600  1.0  0.142
  H  H92  1  0.524100  0.298600  0.525300  1.0  0.095
  H  H93  1  0.497800  0.240000  0.445200  1.0  0.0932
  H  H94  1  0.497900  0.139900  0.579100  1.0  0.0913
  H  H95  1  0.597700  0.144600  0.540100  1.0  0.0969
  H  H96  1  0.504200  0.050700  0.433300  1.0  0.0781
  H  H97  1  0.404000  0.046300  0.472200  1.0  0.0875
  H  H98  1  0.158800  0.920400  0.360500  1.0  0.1402
  H  H99  1  0.148000  0.031700  0.395000  1.0  0.1327
  H  H100  1  0.246800  0.004600  0.358200  1.0  0.1334
  H  H101  1  0.965200  0.049700  0.173200  1.0  0.0966
  H  H102  1  0.920800  0.936400  0.160300  1.0  0.097
  H  H103  1  0.050900  0.890700  0.094600  1.0  0.0828
  H  H104  1  0.108600  0.998600  0.114600  1.0  0.0848
  H  H105  1  0.906500  0.966000  0.021300  1.0  0.0838
  H  H106  1  0.959200  0.075300  0.043900  1.0  0.0883
  H  H107  1  0.421000  0.517900  0.343400  1.0  0.1294
  H  H108  1  0.472900  0.417300  0.371800  1.0  0.1437
  H  H109  1  0.349600  0.422000  0.352100  1.0  0.1276
  H  H110  1  0.566300  0.432200  0.145400  1.0  0.0987
  H  H111  1  0.453800  0.377800  0.125700  1.0  0.0871
  H  H112  1  0.503700  0.581200  0.108600  1.0  0.0859
  H  H113  1  0.386600  0.542500  0.104700  1.0  0.0942
  H  H114  1  0.424400  0.420500  0.999800  1.0  0.079
  H  H115  1  0.396300  0.533300  0.981000  1.0  0.0824
  H  H116  1  0.600800  0.101100  0.283000  1.0  0.1351
  H  H117  1  0.523600  0.172100  0.318900  1.0  0.1433
  H  H118  1  0.541200  0.185400  0.236000  1.0  0.1464
  H  H119  1  0.427800  0.841900  0.156500  1.0  0.0956
  H  H120  1  0.336000  0.917800  0.159500  1.0  0.0973
  H  H121  1  0.328700  0.876300  0.282800  1.0  0.0817
  H  H122  1  0.419600  0.799400  0.279000  1.0  0.0893
  H  H123  1  0.311300  0.698300  0.185400  1.0  0.0815
  H  H124  1  0.221100  0.776600  0.185000  1.0  0.0784
  C  C125  1  0.931200  0.627200  0.749700  1.0  0.5287
  C  C126  1  0.760400  0.790200  0.928000  1.0  0.4732
  C  C127  1  0.702100  0.757000  0.565400  1.0  0.4882
  C  C128  1  0.884000  0.980000  0.718300  1.0  0.4418
  C  C129  1  0.581700  0.592000  0.740000  1.0  0.4619
  C  C130  1  0.554100  0.938900  0.756300  1.0  0.5367
  C  C131  1  0.015700  0.701900  0.789400  1.0  -0.408
  C  C132  1  0.885000  0.452000  0.700300  1.0  0.0433
  C  C133  1  0.838200  0.397700  0.759900  1.0  -0.1429
  C  C134  1  0.763300  0.310100  0.723600  1.0  -0.1268
  C  C135  1  0.672200  0.854900  0.934000  1.0  -0.3901
  C  C136  1  0.900700  0.685800  0.995500  1.0  0.0254
  C  C137  1  0.875300  0.579900  0.967300  1.0  -0.1054
  C  C138  1  0.973800  0.515800  0.963700  1.0  -0.1301
  C  C139  1  0.813300  0.737800  0.556300  1.0  -0.4236
  C  C140  1  0.515800  0.759100  0.503400  1.0  0.0301
  C  C141  1  0.478900  0.856800  0.469200  1.0  -0.1182
  C  C142  1  0.519400  0.951700  0.518400  1.0  -0.128
  C  C143  1  0.827700  0.008300  0.644800  1.0  -0.3946
  C  C144  1  0.014800  0.021100  0.830600  1.0  0.0207
  C  C145  1  0.960000  0.036900  0.896200  1.0  -0.1264
  C  C146  1  0.026300  0.995900  0.967000  1.0  -0.1158
  C  C147  1  0.584900  0.555500  0.661300  1.0  -0.3849
  C  C148  1  0.508400  0.558400  0.855200  1.0  0.0258
  C  C149  1  0.544500  0.477800  0.904600  1.0  -0.1222
  C  C150  1  0.552500  0.508200  0.989700  1.0  -0.0847
  C  C151  1  0.463900  0.863200  0.727000  1.0  -0.4313
  C  C152  1  0.603700  0.111600  0.810300  1.0  0.0299
  C  C153  1  0.640700  0.170400  0.750700  1.0  -0.1244
  C  C154  1  0.720600  0.253200  0.783100  1.0  -0.1296
  C  C155  1  0.068800  0.372800  0.250300  1.0  0.5229
  C  C156  1  0.239600  0.209800  0.072000  1.0  0.4721
  C  C157  1  0.297900  0.243000  0.434600  1.0  0.4854
  C  C158  1  0.116000  0.020000  0.281700  1.0  0.4419
  C  C159  1  0.418300  0.408000  0.260000  1.0  0.4646
  C  C160  1  0.445900  0.061100  0.243700  1.0  0.5382
  C  C161  1  0.984300  0.298100  0.210600  1.0  -0.4099
  C  C162  1  0.115000  0.548000  0.299700  1.0  0.0436
  C  C163  1  0.161800  0.602300  0.240100  1.0  -0.144
  C  C164  1  0.236700  0.689900  0.276400  1.0  -0.1274
  C  C165  1  0.327800  0.145100  0.066000  1.0  -0.39
  C  C166  1  0.099300  0.314200  0.004500  1.0  0.0246
  C  C167  1  0.124700  0.420100  0.032700  1.0  -0.1052
  C  C168  1  0.026200  0.484200  0.036300  1.0  -0.1333
  C  C169  1  0.186700  0.262200  0.443700  1.0  -0.4235
  C  C170  1  0.484200  0.240900  0.496600  1.0  0.0302
  C  C171  1  0.521100  0.143200  0.530800  1.0  -0.1192
  C  C172  1  0.480600  0.048300  0.481600  1.0  -0.1287
  C  C173  1  0.172300  0.991700  0.355200  1.0  -0.3941
  C  C174  1  0.985200  0.978900  0.169400  1.0  0.0198
  C  C175  1  0.040000  0.963100  0.103800  1.0  -0.1258
  C  C176  1  0.973700  0.004100  0.033000  1.0  -0.117
  C  C177  1  0.415100  0.444500  0.338700  1.0  -0.3853
  C  C178  1  0.491600  0.441600  0.144800  1.0  0.026
  C  C179  1  0.455500  0.522200  0.095400  1.0  -0.1217
  C  C180  1  0.447500  0.491800  0.010300  1.0  -0.0863
  C  C181  1  0.536100  0.136800  0.273000  1.0  -0.4303
  C  C182  1  0.396300  0.888400  0.189700  1.0  0.0321
  C  C183  1  0.359300  0.829600  0.249300  1.0  -0.1244
  C  C184  1  0.279400  0.746800  0.216900  1.0  -0.13
  Br  Br185  1  0.613800  0.676210  0.319280  1.0  -0.367
  Br  Br186  1  0.935880  0.770830  0.339770  1.0  -0.4116
  Br  Br187  1  0.692900  0.848700  0.151350  1.0  -0.4247
  Br  Br188  1  0.800100  0.543600  0.170020  1.0  -0.4304
  Br  Br189  1  0.386200  0.323790  0.680720  1.0  -0.3686
  Br  Br190  1  0.064120  0.229170  0.660230  1.0  -0.4119
  Br  Br191  1  0.307100  0.151300  0.848650  1.0  -0.4247
  Br  Br192  1  0.199900  0.456400  0.829980  1.0  -0.4304
  N  N193  1  0.958500  0.532500  0.734100  1.0  -0.349
  N  N194  1  0.802300  0.744200  0.989100  1.0  -0.3909
  N  N195  1  0.627100  0.746200  0.503800  1.0  -0.3761
  N  N196  1  0.952400  0.044500  0.759500  1.0  -0.3373
  N  N197  1  0.526400  0.531400  0.778000  1.0  -0.3949
  N  N198  1  0.527300  0.030600  0.779100  1.0  -0.3592
  N  N199  1  0.041500  0.467500  0.265900  1.0  -0.349
  N  N200  1  0.197700  0.255800  0.010900  1.0  -0.3892
  N  N201  1  0.372900  0.253800  0.496200  1.0  -0.375
  N  N202  1  0.047600  0.955500  0.240500  1.0  -0.3343
  N  N203  1  0.473600  0.468600  0.222000  1.0  -0.3973
  N  N204  1  0.472700  0.969400  0.220900  1.0  -0.3599
  O  O205  1  0.838400  0.653300  0.728400  1.0  -0.5823
  O  O206  1  0.798800  0.782800  0.868800  1.0  -0.5979
  O  O207  1  0.678500  0.779400  0.627700  1.0  -0.5777
  O  O208  1  0.867500  0.892700  0.740300  1.0  -0.6273
  O  O209  1  0.621300  0.674600  0.769800  1.0  -0.5794
  O  O210  1  0.646600  0.916700  0.760100  1.0  -0.5991
  O  O211  1  0.161600  0.346700  0.271600  1.0  -0.5813
  O  O212  1  0.201200  0.217200  0.131200  1.0  -0.5995
  O  O213  1  0.321500  0.220600  0.372300  1.0  -0.579
  O  O214  1  0.132500  0.107300  0.259700  1.0  -0.6267
  O  O215  1  0.378700  0.325400  0.230200  1.0  -0.5785
  O  O216  1  0.353400  0.083300  0.239900  1.0  -0.5979
