# generated using pymatgen
data_NdH60C30(NO)6
_symmetry_space_group_name_H-M   'P 1'
_cell_length_a   13.99210000
_cell_length_b   13.99210000
_cell_length_c   25.70500000
_cell_angle_alpha   90.00000000
_cell_angle_beta   90.00000000
_cell_angle_gamma   120.00000000
_symmetry_Int_Tables_number   1
_chemical_formula_structural   NdH60C30(NO)6
_chemical_formula_sum   'Nd3 H180 C90 N18 O18'
_cell_volume   4358.26908448
_cell_formula_units_Z   3
loop_
 _symmetry_equiv_pos_site_id
 _symmetry_equiv_pos_as_xyz
  1  'x, y, z'
loop_
 _atom_site_type_symbol
 _atom_site_label
 _atom_site_symmetry_multiplicity
 _atom_site_fract_x
 _atom_site_fract_y
 _atom_site_fract_z
 _atom_site_occupancy
 _atom_site_charge
  Nd  Nd1  1  0.000000  0.000000  0.500000  1.0  2.5266
  Nd  Nd2  1  0.666667  0.333333  0.833330  1.0  2.5251
  Nd  Nd3  1  0.333333  0.666667  0.166670  1.0  2.5249
  H  H4  1  0.383500  0.330400  0.451600  1.0  0.1176
  H  H5  1  0.356800  0.245800  0.497000  1.0  0.1174
  H  H6  1  0.285400  0.302500  0.489600  1.0  0.1308
  H  H7  1  0.359500  0.210000  0.384500  1.0  0.1206
  H  H8  1  0.249800  0.105000  0.321400  1.0  0.0612
  H  H9  1  0.146400  0.061900  0.357800  1.0  0.0612
  H  H10  1  0.305900  0.995000  0.368300  1.0  0.0614
  H  H11  1  0.198100  0.948500  0.401800  1.0  0.0675
  H  H12  1  0.202000  0.914500  0.294200  1.0  0.0702
  H  H13  1  0.092700  0.872800  0.325800  1.0  0.0567
  H  H14  1  0.050170  0.663730  0.784930  1.0  0.1176
  H  H15  1  0.023470  0.579130  0.830330  1.0  0.1183
  H  H16  1  0.952070  0.635830  0.822930  1.0  0.1308
  H  H17  1  0.026170  0.543330  0.717830  1.0  0.1206
  H  H18  1  0.916470  0.438330  0.654730  1.0  0.0612
  H  H19  1  0.813070  0.395230  0.691130  1.0  0.0612
  H  H20  1  0.972570  0.328330  0.701630  1.0  0.0614
  H  H21  1  0.864770  0.281830  0.735130  1.0  0.0675
  H  H22  1  0.868670  0.247830  0.627530  1.0  0.0702
  H  H23  1  0.759370  0.206130  0.659130  1.0  0.0567
  H  H24  1  0.716830  0.997070  0.118270  1.0  0.1176
  H  H25  1  0.690130  0.912470  0.163670  1.0  0.1174
  H  H26  1  0.618730  0.969170  0.156270  1.0  0.1307
  H  H27  1  0.692830  0.876670  0.051170  1.0  0.1128
  H  H28  1  0.583130  0.771670  0.988070  1.0  0.0613
  H  H29  1  0.479730  0.728570  0.024470  1.0  0.0612
  H  H30  1  0.639230  0.661670  0.034970  1.0  0.0615
  H  H31  1  0.531430  0.615170  0.068470  1.0  0.0676
  H  H32  1  0.535330  0.581170  0.960870  1.0  0.0702
  H  H33  1  0.426030  0.539470  0.992470  1.0  0.0621
  H  H34  1  0.669600  0.053100  0.451600  1.0  0.1165
  H  H35  1  0.754200  0.111000  0.497000  1.0  0.1183
  H  H36  1  0.697500  0.982900  0.489600  1.0  0.1318
  H  H37  1  0.790000  0.149500  0.384500  1.0  0.114
  H  H38  1  0.895000  0.144800  0.321400  1.0  0.0608
  H  H39  1  0.938100  0.084500  0.357800  1.0  0.0705
  H  H40  1  0.005000  0.310900  0.368300  1.0  0.0621
  H  H41  1  0.051500  0.249600  0.401800  1.0  0.0682
  H  H42  1  0.085500  0.287500  0.294200  1.0  0.0691
  H  H43  1  0.127200  0.219900  0.325800  1.0  0.061
  H  H44  1  0.336270  0.386430  0.784930  1.0  0.1165
  H  H45  1  0.420870  0.444330  0.830330  1.0  0.1189
  H  H46  1  0.364170  0.316230  0.822930  1.0  0.1318
  H  H47  1  0.456670  0.482830  0.717830  1.0  0.114
  H  H48  1  0.561670  0.478130  0.654730  1.0  0.0608
  H  H49  1  0.604770  0.417830  0.691130  1.0  0.0705
  H  H50  1  0.671670  0.644230  0.701630  1.0  0.0621
  H  H51  1  0.718170  0.582930  0.735130  1.0  0.0682
  H  H52  1  0.752170  0.620830  0.627530  1.0  0.0691
  H  H53  1  0.793870  0.553230  0.659130  1.0  0.061
  H  H54  1  0.002930  0.719770  0.118270  1.0  0.1166
  H  H55  1  0.087530  0.777670  0.163670  1.0  0.1183
  H  H56  1  0.030830  0.649570  0.156270  1.0  0.1318
  H  H57  1  0.123330  0.816170  0.051170  1.0  0.1233
  H  H58  1  0.228330  0.811470  0.988070  1.0  0.0609
  H  H59  1  0.271430  0.751170  0.024470  1.0  0.0705
  H  H60  1  0.338330  0.977570  0.034970  1.0  0.0621
  H  H61  1  0.384830  0.916270  0.068470  1.0  0.0683
  H  H62  1  0.418830  0.954170  0.960870  1.0  0.0691
  H  H63  1  0.460530  0.886570  0.992470  1.0  0.0577
  H  H64  1  0.946900  0.616500  0.451600  1.0  0.1174
  H  H65  1  0.889000  0.643200  0.497000  1.0  0.1181
  H  H66  1  0.017100  0.714600  0.489600  1.0  0.1305
  H  H67  1  0.850500  0.640500  0.384500  1.0  0.1029
  H  H68  1  0.855200  0.750200  0.321400  1.0  0.0593
  H  H69  1  0.915500  0.853600  0.357800  1.0  0.0718
  H  H70  1  0.689100  0.694100  0.368300  1.0  0.0585
  H  H71  1  0.750400  0.801900  0.401800  1.0  0.0671
  H  H72  1  0.712500  0.798000  0.294200  1.0  0.0717
  H  H73  1  0.780100  0.907300  0.325800  1.0  0.0648
  H  H74  1  0.613570  0.949830  0.784930  1.0  0.1174
  H  H75  1  0.555670  0.976530  0.830330  1.0  0.121
  H  H76  1  0.683770  0.047930  0.822930  1.0  0.1305
  H  H77  1  0.517170  0.973830  0.717830  1.0  0.1029
  H  H78  1  0.521870  0.083530  0.654730  1.0  0.0593
  H  H79  1  0.582170  0.186930  0.691130  1.0  0.0718
  H  H80  1  0.355770  0.027430  0.701630  1.0  0.0585
  H  H81  1  0.417070  0.135230  0.735130  1.0  0.0671
  H  H82  1  0.379170  0.131330  0.627530  1.0  0.0717
  H  H83  1  0.446770  0.240630  0.659130  1.0  0.0648
  H  H84  1  0.280230  0.283170  0.118270  1.0  0.1174
  H  H85  1  0.222330  0.309870  0.163670  1.0  0.1181
  H  H86  1  0.350430  0.381270  0.156270  1.0  0.1304
  H  H87  1  0.183830  0.307170  0.051170  1.0  0.1029
  H  H88  1  0.188530  0.416870  0.988070  1.0  0.0593
  H  H89  1  0.248830  0.520270  0.024470  1.0  0.0718
  H  H90  1  0.022430  0.360770  0.034970  1.0  0.0585
  H  H91  1  0.083730  0.468570  0.068470  1.0  0.0671
  H  H92  1  0.045830  0.464670  0.960870  1.0  0.0716
  H  H93  1  0.113430  0.573970  0.992470  1.0  0.0584
  H  H94  1  0.616500  0.669600  0.548400  1.0  0.1171
  H  H95  1  0.643200  0.754200  0.503000  1.0  0.1174
  H  H96  1  0.714600  0.697500  0.510400  1.0  0.1318
  H  H97  1  0.640500  0.790000  0.615500  1.0  0.1187
  H  H98  1  0.750200  0.895000  0.678600  1.0  0.0617
  H  H99  1  0.853600  0.938100  0.642200  1.0  0.0648
  H  H100  1  0.694100  0.005000  0.631700  1.0  0.0621
  H  H101  1  0.801900  0.051500  0.598200  1.0  0.0681
  H  H102  1  0.798000  0.085500  0.705800  1.0  0.0697
  H  H103  1  0.907300  0.127200  0.674200  1.0  0.0559
  H  H104  1  0.283170  0.002930  0.881730  1.0  0.1171
  H  H105  1  0.309870  0.087530  0.836330  1.0  0.1174
  H  H106  1  0.381270  0.030830  0.843730  1.0  0.1318
  H  H107  1  0.307170  0.123330  0.948830  1.0  0.1116
  H  H108  1  0.416870  0.228330  0.011930  1.0  0.0619
  H  H109  1  0.520270  0.271430  0.975530  1.0  0.0648
  H  H110  1  0.360770  0.338330  0.965030  1.0  0.0622
  H  H111  1  0.468570  0.384830  0.931530  1.0  0.0681
  H  H112  1  0.464670  0.418830  0.039130  1.0  0.0696
  H  H113  1  0.573970  0.460530  0.007530  1.0  0.0614
  H  H114  1  0.949830  0.336270  0.215070  1.0  0.1171
  H  H115  1  0.976530  0.420870  0.169670  1.0  0.1183
  H  H116  1  0.047930  0.364170  0.177070  1.0  0.1318
  H  H117  1  0.973830  0.456670  0.282170  1.0  0.1187
  H  H118  1  0.083530  0.561670  0.345270  1.0  0.0617
  H  H119  1  0.186930  0.604770  0.308870  1.0  0.0648
  H  H120  1  0.027430  0.671670  0.298370  1.0  0.0621
  H  H121  1  0.135230  0.718170  0.264870  1.0  0.0681
  H  H122  1  0.131330  0.752170  0.372470  1.0  0.0697
  H  H123  1  0.240630  0.793870  0.340870  1.0  0.0559
  H  H124  1  0.330400  0.946900  0.548400  1.0  0.1171
  H  H125  1  0.245800  0.889000  0.503000  1.0  0.1187
  H  H126  1  0.302500  0.017100  0.510400  1.0  0.131
  H  H127  1  0.210000  0.850500  0.615500  1.0  0.1119
  H  H128  1  0.105000  0.855200  0.678600  1.0  0.0612
  H  H129  1  0.061900  0.915500  0.642200  1.0  0.0694
  H  H130  1  0.995000  0.689100  0.631700  1.0  0.0624
  H  H131  1  0.948500  0.750400  0.598200  1.0  0.0685
  H  H132  1  0.914500  0.712500  0.705800  1.0  0.0689
  H  H133  1  0.872800  0.780100  0.674200  1.0  0.0625
  H  H134  1  0.997070  0.280230  0.881730  1.0  0.1171
  H  H135  1  0.912470  0.222330  0.836330  1.0  0.1187
  H  H136  1  0.969170  0.350430  0.843730  1.0  0.131
  H  H137  1  0.876670  0.183830  0.948830  1.0  0.1214
  H  H138  1  0.771670  0.188530  0.011930  1.0  0.0613
  H  H139  1  0.728570  0.248830  0.975530  1.0  0.0694
  H  H140  1  0.661670  0.022430  0.965030  1.0  0.0624
  H  H141  1  0.615170  0.083730  0.931530  1.0  0.0685
  H  H142  1  0.581170  0.045830  0.039130  1.0  0.0689
  H  H143  1  0.539470  0.113430  0.007530  1.0  0.0591
  H  H144  1  0.663730  0.613570  0.215070  1.0  0.1171
  H  H145  1  0.579130  0.555670  0.169670  1.0  0.1191
  H  H146  1  0.635830  0.683770  0.177070  1.0  0.131
  H  H147  1  0.543330  0.517170  0.282170  1.0  0.1119
  H  H148  1  0.438330  0.521870  0.345270  1.0  0.0612
  H  H149  1  0.395230  0.582170  0.308870  1.0  0.0694
  H  H150  1  0.328330  0.355770  0.298370  1.0  0.0624
  H  H151  1  0.281830  0.417070  0.264870  1.0  0.0685
  H  H152  1  0.247830  0.379170  0.372470  1.0  0.0689
  H  H153  1  0.206130  0.446770  0.340870  1.0  0.0625
  H  H154  1  0.053100  0.383500  0.548400  1.0  0.1178
  H  H155  1  0.111000  0.356800  0.503000  1.0  0.1198
  H  H156  1  0.982900  0.285400  0.510400  1.0  0.1307
  H  H157  1  0.149500  0.359500  0.615500  1.0  0.1085
  H  H158  1  0.144800  0.249800  0.678600  1.0  0.0608
  H  H159  1  0.084500  0.146400  0.642200  1.0  0.0688
  H  H160  1  0.310900  0.305900  0.631700  1.0  0.0587
  H  H161  1  0.249600  0.198100  0.598200  1.0  0.0678
  H  H162  1  0.287500  0.202000  0.705800  1.0  0.0711
  H  H163  1  0.219900  0.092700  0.674200  1.0  0.0651
  H  H164  1  0.719770  0.716830  0.881730  1.0  0.1178
  H  H165  1  0.777670  0.690130  0.836330  1.0  0.1198
  H  H166  1  0.649570  0.618730  0.843730  1.0  0.1307
  H  H167  1  0.816170  0.692830  0.948830  1.0  0.1084
  H  H168  1  0.811470  0.583130  0.011930  1.0  0.0607
  H  H169  1  0.751170  0.479730  0.975530  1.0  0.0688
  H  H170  1  0.977570  0.639230  0.965030  1.0  0.0587
  H  H171  1  0.916270  0.531430  0.931530  1.0  0.0678
  H  H172  1  0.954170  0.535330  0.039130  1.0  0.071
  H  H173  1  0.886570  0.426030  0.007530  1.0  0.0587
  H  H174  1  0.386430  0.050170  0.215070  1.0  0.1178
  H  H175  1  0.444330  0.023470  0.169670  1.0  0.1218
  H  H176  1  0.316230  0.952070  0.177070  1.0  0.1307
  H  H177  1  0.482830  0.026170  0.282170  1.0  0.1085
  H  H178  1  0.478130  0.916470  0.345270  1.0  0.0608
  H  H179  1  0.417830  0.813070  0.308870  1.0  0.0688
  H  H180  1  0.644230  0.972570  0.298370  1.0  0.0587
  H  H181  1  0.582930  0.864770  0.264870  1.0  0.0678
  H  H182  1  0.620830  0.868670  0.372470  1.0  0.0711
  H  H183  1  0.553230  0.759370  0.340870  1.0  0.0651
  C  C184  1  0.249300  0.181600  0.437000  1.0  0.5468
  C  C185  1  0.325500  0.273300  0.471900  1.0  -0.4556
  C  C186  1  0.222800  0.079600  0.356300  1.0  -0.0202
  C  C187  1  0.229100  0.976300  0.367700  1.0  -0.1399
  C  C188  1  0.168000  0.887300  0.327900  1.0  -0.136
  C  C189  1  0.915970  0.514930  0.770330  1.0  0.5468
  C  C190  1  0.992170  0.606630  0.805230  1.0  -0.4556
  C  C191  1  0.889470  0.412930  0.689630  1.0  -0.0202
  C  C192  1  0.895770  0.309630  0.701030  1.0  -0.1399
  C  C193  1  0.834670  0.220630  0.661230  1.0  -0.136
  C  C194  1  0.582630  0.848270  0.103670  1.0  0.5468
  C  C195  1  0.658830  0.939970  0.138570  1.0  -0.4556
  C  C196  1  0.556130  0.746270  0.022970  1.0  -0.0202
  C  C197  1  0.562430  0.642970  0.034370  1.0  -0.1399
  C  C198  1  0.501330  0.553970  0.994570  1.0  -0.136
  C  C199  1  0.818400  0.067700  0.437000  1.0  0.55
  C  C200  1  0.726700  0.052200  0.471900  1.0  -0.4551
  C  C201  1  0.920400  0.143200  0.356300  1.0  -0.02
  C  C202  1  0.023700  0.252800  0.367700  1.0  -0.1401
  C  C203  1  0.112700  0.280700  0.327900  1.0  -0.1375
  C  C204  1  0.485070  0.401030  0.770330  1.0  0.55
  C  C205  1  0.393370  0.385530  0.805230  1.0  -0.4551
  C  C206  1  0.587070  0.476530  0.689630  1.0  -0.02
  C  C207  1  0.690370  0.586130  0.701030  1.0  -0.1401
  C  C208  1  0.779370  0.614030  0.661230  1.0  -0.1375
  C  C209  1  0.151730  0.734370  0.103670  1.0  0.55
  C  C210  1  0.060030  0.718870  0.138570  1.0  -0.4551
  C  C211  1  0.253730  0.809870  0.022970  1.0  -0.02
  C  C212  1  0.357030  0.919470  0.034370  1.0  -0.1401
  C  C213  1  0.446030  0.947370  0.994570  1.0  -0.1375
  C  C214  1  0.932300  0.750700  0.437000  1.0  0.5457
  C  C215  1  0.947800  0.674500  0.471900  1.0  -0.4558
  C  C216  1  0.856800  0.777200  0.356300  1.0  -0.0205
  C  C217  1  0.747200  0.770900  0.367700  1.0  -0.1383
  C  C218  1  0.719300  0.832000  0.327900  1.0  -0.1391
  C  C219  1  0.598970  0.084030  0.770330  1.0  0.5457
  C  C220  1  0.614470  0.007830  0.805230  1.0  -0.4558
  C  C221  1  0.523470  0.110530  0.689630  1.0  -0.0205
  C  C222  1  0.413870  0.104230  0.701030  1.0  -0.1383
  C  C223  1  0.385970  0.165330  0.661230  1.0  -0.1391
  C  C224  1  0.265630  0.417370  0.103670  1.0  0.5457
  C  C225  1  0.281130  0.341170  0.138570  1.0  -0.4558
  C  C226  1  0.190130  0.443870  0.022970  1.0  -0.0205
  C  C227  1  0.080530  0.437570  0.034370  1.0  -0.1383
  C  C228  1  0.052630  0.498670  0.994570  1.0  -0.1391
  C  C229  1  0.750700  0.818400  0.563000  1.0  0.5482
  C  C230  1  0.674500  0.726700  0.528100  1.0  -0.4568
  C  C231  1  0.777200  0.920400  0.643700  1.0  -0.0217
  C  C232  1  0.770900  0.023700  0.632300  1.0  -0.1384
  C  C233  1  0.832000  0.112700  0.672100  1.0  -0.1368
  C  C234  1  0.417370  0.151730  0.896330  1.0  0.5482
  C  C235  1  0.341170  0.060030  0.861430  1.0  -0.4568
  C  C236  1  0.443870  0.253730  0.977030  1.0  -0.0217
  C  C237  1  0.437570  0.357030  0.965630  1.0  -0.1384
  C  C238  1  0.498670  0.446030  0.005430  1.0  -0.1368
  C  C239  1  0.084030  0.485070  0.229670  1.0  0.5482
  C  C240  1  0.007830  0.393370  0.194770  1.0  -0.4568
  C  C241  1  0.110530  0.587070  0.310370  1.0  -0.0217
  C  C242  1  0.104230  0.690370  0.298970  1.0  -0.1384
  C  C243  1  0.165330  0.779370  0.338770  1.0  -0.1368
  C  C244  1  0.181600  0.932300  0.563000  1.0  0.5505
  C  C245  1  0.273300  0.947800  0.528100  1.0  -0.4568
  C  C246  1  0.079600  0.856800  0.643700  1.0  -0.0197
  C  C247  1  0.976300  0.747200  0.632300  1.0  -0.1401
  C  C248  1  0.887300  0.719300  0.672100  1.0  -0.1374
  C  C249  1  0.848270  0.265630  0.896330  1.0  0.5505
  C  C250  1  0.939970  0.281130  0.861430  1.0  -0.4568
  C  C251  1  0.746270  0.190130  0.977030  1.0  -0.0197
  C  C252  1  0.642970  0.080530  0.965630  1.0  -0.1401
  C  C253  1  0.553970  0.052630  0.005430  1.0  -0.1374
  C  C254  1  0.514930  0.598970  0.229670  1.0  0.5505
  C  C255  1  0.606630  0.614470  0.194770  1.0  -0.4568
  C  C256  1  0.412930  0.523470  0.310370  1.0  -0.0197
  C  C257  1  0.309630  0.413870  0.298970  1.0  -0.1401
  C  C258  1  0.220630  0.385970  0.338770  1.0  -0.1374
  C  C259  1  0.067700  0.249300  0.563000  1.0  0.547
  C  C260  1  0.052200  0.325500  0.528100  1.0  -0.4561
  C  C261  1  0.143200  0.222800  0.643700  1.0  -0.02
  C  C262  1  0.252800  0.229100  0.632300  1.0  -0.1385
  C  C263  1  0.280700  0.168000  0.672100  1.0  -0.1374
  C  C264  1  0.734370  0.582630  0.896330  1.0  0.547
  C  C265  1  0.718870  0.658830  0.861430  1.0  -0.4561
  C  C266  1  0.809870  0.556130  0.977030  1.0  -0.02
  C  C267  1  0.919470  0.562430  0.965630  1.0  -0.1385
  C  C268  1  0.947370  0.501330  0.005430  1.0  -0.1375
  C  C269  1  0.401030  0.915970  0.229670  1.0  0.547
  C  C270  1  0.385530  0.992170  0.194770  1.0  -0.4561
  C  C271  1  0.476530  0.889470  0.310370  1.0  -0.02
  C  C272  1  0.586130  0.895770  0.298970  1.0  -0.1385
  C  C273  1  0.614030  0.834670  0.338770  1.0  -0.1374
  N  N274  1  0.288000  0.168300  0.393400  1.0  -0.3774
  N  N275  1  0.954670  0.501630  0.726730  1.0  -0.3774
  N  N276  1  0.621330  0.834970  0.060070  1.0  -0.3774
  N  N277  1  0.831700  0.119700  0.393400  1.0  -0.3801
  N  N278  1  0.498370  0.453030  0.726730  1.0  -0.3801
  N  N279  1  0.165030  0.786370  0.060070  1.0  -0.3801
  N  N280  1  0.880300  0.712000  0.393400  1.0  -0.3784
  N  N281  1  0.546970  0.045330  0.726730  1.0  -0.3784
  N  N282  1  0.213630  0.378670  0.060070  1.0  -0.3783
  N  N283  1  0.712000  0.831700  0.606600  1.0  -0.3802
  N  N284  1  0.378670  0.165030  0.939930  1.0  -0.3802
  N  N285  1  0.045330  0.498370  0.273270  1.0  -0.3802
  N  N286  1  0.168300  0.880300  0.606600  1.0  -0.3793
  N  N287  1  0.834970  0.213630  0.939930  1.0  -0.3793
  N  N288  1  0.501630  0.546970  0.273270  1.0  -0.3793
  N  N289  1  0.119700  0.288000  0.606600  1.0  -0.378
  N  N290  1  0.786370  0.621330  0.939930  1.0  -0.378
  N  N291  1  0.453030  0.954670  0.273270  1.0  -0.378
  O  O292  1  0.150000  0.120100  0.449720  1.0  -0.7049
  O  O293  1  0.816670  0.453430  0.783050  1.0  -0.7049
  O  O294  1  0.483330  0.786770  0.116390  1.0  -0.7049
  O  O295  1  0.879900  0.029900  0.449720  1.0  -0.7048
  O  O296  1  0.546570  0.363230  0.783050  1.0  -0.7048
  O  O297  1  0.213230  0.696570  0.116390  1.0  -0.7048
  O  O298  1  0.970100  0.850000  0.449720  1.0  -0.7055
  O  O299  1  0.636770  0.183330  0.783050  1.0  -0.7055
  O  O300  1  0.303430  0.516670  0.116390  1.0  -0.7055
  O  O301  1  0.850000  0.879900  0.550280  1.0  -0.7052
  O  O302  1  0.516670  0.213230  0.883610  1.0  -0.7052
  O  O303  1  0.183330  0.546570  0.216950  1.0  -0.7052
  O  O304  1  0.120100  0.970100  0.550280  1.0  -0.705
  O  O305  1  0.786770  0.303430  0.883610  1.0  -0.705
  O  O306  1  0.453430  0.636770  0.216950  1.0  -0.705
  O  O307  1  0.029900  0.150000  0.550280  1.0  -0.7052
  O  O308  1  0.696570  0.483330  0.883610  1.0  -0.7052
  O  O309  1  0.363230  0.816670  0.216950  1.0  -0.7052
