# generated using pymatgen
data_CoH17C30(NO2)3
_symmetry_space_group_name_H-M   'P 1'
_cell_length_a   9.85800000
_cell_length_b   12.56500000
_cell_length_c   29.61800000
_cell_angle_alpha   90.00000000
_cell_angle_beta   90.00000000
_cell_angle_gamma   105.69500000
_symmetry_Int_Tables_number   1
_chemical_formula_structural   CoH17C30(NO2)3
_chemical_formula_sum   'Co4 H68 C120 N12 O24'
_cell_volume   3531.87183298
_cell_formula_units_Z   4
loop_
 _symmetry_equiv_pos_site_id
 _symmetry_equiv_pos_as_xyz
  1  'x, y, z'
loop_
 _atom_site_type_symbol
 _atom_site_label
 _atom_site_symmetry_multiplicity
 _atom_site_fract_x
 _atom_site_fract_y
 _atom_site_fract_z
 _atom_site_occupancy
 _atom_site_charge
  Co  Co1  1  0.961980  0.642910  0.942460  1.0  0.8748
  Co  Co2  1  0.538020  0.357090  0.442460  1.0  0.8713
  Co  Co3  1  0.038020  0.357090  0.057540  1.0  0.871
  Co  Co4  1  0.461980  0.642910  0.557540  1.0  0.8745
  H  H5  1  0.597200  0.127100  0.199900  1.0  0.4366
  H  H6  1  0.288100  0.718700  0.049100  1.0  0.0991
  H  H7  1  0.689600  0.700700  0.054400  1.0  0.1051
  H  H8  1  0.464200  0.619800  0.939300  1.0  0.1093
  H  H9  1  0.674400  0.706800  0.124200  1.0  0.1152
  H  H10  1  0.684600  0.758900  0.200000  1.0  0.1011
  H  H11  1  0.354200  0.885200  0.181600  1.0  0.1006
  H  H12  1  0.343900  0.833900  0.105900  1.0  0.1129
  H  H13  1  0.536900  0.689300  0.263700  1.0  0.1255
  H  H14  1  0.310400  0.984900  0.374800  1.0  0.1271
  H  H15  1  0.328800  0.142900  0.417500  1.0  0.0838
  H  H16  1  0.699400  0.287000  0.364700  1.0  0.0933
  H  H17  1  0.681500  0.139300  0.316700  1.0  0.1206
  H  H18  1  0.432500  0.714300  0.407500  1.0  0.1219
  H  H19  1  0.445100  0.564300  0.450900  1.0  0.0791
  H  H20  1  0.676100  0.471300  0.360200  1.0  0.0812
  H  H21  1  0.662100  0.612200  0.312300  1.0  0.1274
  H  H22  1  0.902800  0.872900  0.699900  1.0  0.4369
  H  H23  1  0.211900  0.281300  0.549100  1.0  0.0995
  H  H24  1  0.810400  0.299300  0.554400  1.0  0.1062
  H  H25  1  0.035800  0.380200  0.439300  1.0  0.1095
  H  H26  1  0.825600  0.293200  0.624200  1.0  0.1155
  H  H27  1  0.815400  0.241100  0.700000  1.0  0.1008
  H  H28  1  0.145800  0.114800  0.681600  1.0  0.0998
  H  H29  1  0.156100  0.166100  0.605900  1.0  0.1129
  H  H30  1  0.963100  0.310700  0.763700  1.0  0.1262
  H  H31  1  0.189600  0.015100  0.874800  1.0  0.1266
  H  H32  1  0.171200  0.857100  0.917500  1.0  0.0832
  H  H33  1  0.800600  0.713000  0.864700  1.0  0.0931
  H  H34  1  0.818500  0.860700  0.816700  1.0  0.1207
  H  H35  1  0.067500  0.285700  0.907500  1.0  0.1221
  H  H36  1  0.054900  0.435700  0.950900  1.0  0.0791
  H  H37  1  0.823900  0.528700  0.860200  1.0  0.0815
  H  H38  1  0.837900  0.387800  0.812300  1.0  0.1278
  H  H39  1  0.402800  0.872900  0.800100  1.0  0.4353
  H  H40  1  0.711900  0.281300  0.950900  1.0  0.1
  H  H41  1  0.310400  0.299300  0.945600  1.0  0.106
  H  H42  1  0.535800  0.380200  0.060700  1.0  0.1094
  H  H43  1  0.325600  0.293200  0.875800  1.0  0.1155
  H  H44  1  0.315400  0.241100  0.800000  1.0  0.101
  H  H45  1  0.645800  0.114800  0.818400  1.0  0.1002
  H  H46  1  0.656100  0.166100  0.894100  1.0  0.1135
  H  H47  1  0.463100  0.310700  0.736300  1.0  0.1266
  H  H48  1  0.689600  0.015100  0.625200  1.0  0.1269
  H  H49  1  0.671200  0.857100  0.582500  1.0  0.083
  H  H50  1  0.300600  0.713000  0.635300  1.0  0.0933
  H  H51  1  0.318500  0.860700  0.683300  1.0  0.1213
  H  H52  1  0.567500  0.285700  0.592500  1.0  0.1217
  H  H53  1  0.554900  0.435700  0.549100  1.0  0.0793
  H  H54  1  0.323900  0.528700  0.639800  1.0  0.0819
  H  H55  1  0.337900  0.387800  0.687700  1.0  0.128
  H  H56  1  0.097200  0.127100  0.300100  1.0  0.4352
  H  H57  1  0.788100  0.718700  0.450900  1.0  0.0996
  H  H58  1  0.189600  0.700700  0.445600  1.0  0.1051
  H  H59  1  0.964200  0.619800  0.560700  1.0  0.1094
  H  H60  1  0.174400  0.706800  0.375800  1.0  0.1152
  H  H61  1  0.184600  0.758900  0.300000  1.0  0.1009
  H  H62  1  0.854200  0.885200  0.318400  1.0  0.1008
  H  H63  1  0.843900  0.833900  0.394100  1.0  0.113
  H  H64  1  0.036900  0.689300  0.236300  1.0  0.126
  H  H65  1  0.810400  0.984900  0.125200  1.0  0.127
  H  H66  1  0.828800  0.142900  0.082500  1.0  0.0838
  H  H67  1  0.199400  0.287000  0.135300  1.0  0.0932
  H  H68  1  0.181500  0.139300  0.183300  1.0  0.1208
  H  H69  1  0.932500  0.714300  0.092500  1.0  0.1215
  H  H70  1  0.945100  0.564300  0.049100  1.0  0.0797
  H  H71  1  0.176100  0.471300  0.139800  1.0  0.082
  H  H72  1  0.162100  0.612200  0.187700  1.0  0.128
  C  C73  1  0.230100  0.664300  0.962600  1.0  0.6518
  C  C74  1  0.359800  0.668500  0.990100  1.0  -0.1297
  C  C75  1  0.368200  0.704300  0.035300  1.0  -0.0633
  C  C76  1  0.490700  0.718700  0.059800  1.0  0.0104
  C  C77  1  0.603900  0.692400  0.038400  1.0  -0.0737
  C  C78  1  0.593700  0.654300  0.994100  1.0  -0.1365
  C  C79  1  0.470700  0.643900  0.969800  1.0  -0.0026
  C  C80  1  0.719300  0.634600  0.971200  1.0  0.6538
  C  C81  1  0.503700  0.760200  0.107100  1.0  0.0477
  C  C82  1  0.607100  0.741400  0.135700  1.0  -0.1159
  C  C83  1  0.613200  0.772700  0.181200  1.0  -0.1257
  C  C84  1  0.516800  0.823400  0.199200  1.0  0.0056
  C  C85  1  0.418400  0.847200  0.170300  1.0  -0.124
  C  C86  1  0.412200  0.816300  0.125000  1.0  -0.1216
  C  C87  1  0.515600  0.842000  0.248800  1.0  0.1299
  C  C88  1  0.526200  0.755800  0.276600  1.0  -0.2032
  C  C89  1  0.521400  0.766400  0.322800  1.0  0.2542
  C  C90  1  0.499000  0.942500  0.316800  1.0  0.2604
  C  C91  1  0.503100  0.938400  0.269600  1.0  -0.2066
  C  C92  1  0.494200  0.036800  0.241900  1.0  0.6494
  C  C93  1  0.500000  0.043700  0.341700  1.0  0.0544
  C  C94  1  0.391000  0.046300  0.372100  1.0  -0.1782
  C  C95  1  0.404100  0.140800  0.397800  1.0  0.1706
  C  C96  1  0.618600  0.225400  0.366500  1.0  0.1676
  C  C97  1  0.609900  0.136200  0.338500  1.0  -0.18
  C  C98  1  0.535100  0.675900  0.353500  1.0  0.0548
  C  C99  1  0.478200  0.662500  0.395900  1.0  -0.1512
  C  C100  1  0.487600  0.573300  0.421900  1.0  0.1972
  C  C101  1  0.620500  0.519000  0.368900  1.0  0.1672
  C  C102  1  0.614000  0.603000  0.340500  1.0  -0.2149
  C  C103  1  0.269900  0.335700  0.462600  1.0  0.651
  C  C104  1  0.140200  0.331500  0.490100  1.0  -0.1288
  C  C105  1  0.131800  0.295700  0.535300  1.0  -0.0619
  C  C106  1  0.009300  0.281300  0.559800  1.0  0.0103
  C  C107  1  0.896100  0.307600  0.538400  1.0  -0.0737
  C  C108  1  0.906300  0.345700  0.494100  1.0  -0.1365
  C  C109  1  0.029300  0.356100  0.469800  1.0  -0.0016
  C  C110  1  0.780700  0.365400  0.471200  1.0  0.653
  C  C111  1  0.996300  0.239800  0.607100  1.0  0.0474
  C  C112  1  0.892900  0.258600  0.635700  1.0  -0.1158
  C  C113  1  0.886800  0.227300  0.681200  1.0  -0.1247
  C  C114  1  0.983200  0.176600  0.699200  1.0  0.0059
  C  C115  1  0.081600  0.152800  0.670300  1.0  -0.1248
  C  C116  1  0.087800  0.183700  0.625000  1.0  -0.1222
  C  C117  1  0.984400  0.158000  0.748800  1.0  0.1293
  C  C118  1  0.973800  0.244200  0.776600  1.0  -0.2007
  C  C119  1  0.978600  0.233600  0.822800  1.0  0.2539
  C  C120  1  0.001000  0.057500  0.816800  1.0  0.2617
  C  C121  1  0.996900  0.061600  0.769600  1.0  -0.2061
  C  C122  1  0.005800  0.963200  0.741900  1.0  0.651
  C  C123  1  0.000000  0.956300  0.841700  1.0  0.056
  C  C124  1  0.109000  0.953700  0.872100  1.0  -0.1783
  C  C125  1  0.095900  0.859200  0.897800  1.0  0.1701
  C  C126  1  0.881400  0.774600  0.866500  1.0  0.167
  C  C127  1  0.890100  0.863800  0.838500  1.0  -0.1803
  C  C128  1  0.964900  0.324100  0.853500  1.0  0.0551
  C  C129  1  0.021800  0.337500  0.895900  1.0  -0.1542
  C  C130  1  0.012400  0.426700  0.921900  1.0  0.1958
  C  C131  1  0.879500  0.481000  0.868900  1.0  0.168
  C  C132  1  0.886000  0.397000  0.840500  1.0  -0.2143
  C  C133  1  0.769900  0.335700  0.037400  1.0  0.6511
  C  C134  1  0.640200  0.331500  0.009900  1.0  -0.1291
  C  C135  1  0.631800  0.295700  0.964700  1.0  -0.0634
  C  C136  1  0.509300  0.281300  0.940200  1.0  0.0108
  C  C137  1  0.396100  0.307600  0.961600  1.0  -0.0742
  C  C138  1  0.406300  0.345700  0.005900  1.0  -0.1364
  C  C139  1  0.529300  0.356100  0.030200  1.0  -0.0031
  C  C140  1  0.280700  0.365400  0.028800  1.0  0.653
  C  C141  1  0.496300  0.239800  0.892900  1.0  0.0471
  C  C142  1  0.392900  0.258600  0.864300  1.0  -0.1163
  C  C143  1  0.386800  0.227300  0.818800  1.0  -0.1257
  C  C144  1  0.483200  0.176600  0.800800  1.0  0.0063
  C  C145  1  0.581600  0.152800  0.829700  1.0  -0.1243
  C  C146  1  0.587800  0.183700  0.875000  1.0  -0.1217
  C  C147  1  0.484400  0.158000  0.751200  1.0  0.1286
  C  C148  1  0.473800  0.244200  0.723400  1.0  -0.2023
  C  C149  1  0.478600  0.233600  0.677200  1.0  0.2551
  C  C150  1  0.501000  0.057500  0.683200  1.0  0.2611
  C  C151  1  0.496900  0.061600  0.730400  1.0  -0.2056
  C  C152  1  0.505800  0.963200  0.758100  1.0  0.651
  C  C153  1  0.500000  0.956300  0.658300  1.0  0.0554
  C  C154  1  0.609000  0.953700  0.627900  1.0  -0.1787
  C  C155  1  0.595900  0.859200  0.602200  1.0  0.1688
  C  C156  1  0.381400  0.774600  0.633500  1.0  0.1672
  C  C157  1  0.390100  0.863800  0.661500  1.0  -0.1801
  C  C158  1  0.464900  0.324100  0.646500  1.0  0.0554
  C  C159  1  0.521800  0.337500  0.604100  1.0  -0.1544
  C  C160  1  0.512400  0.426700  0.578100  1.0  0.1944
  C  C161  1  0.379500  0.481000  0.631100  1.0  0.1667
  C  C162  1  0.386000  0.397000  0.659500  1.0  -0.2135
  C  C163  1  0.730100  0.664300  0.537400  1.0  0.6516
  C  C164  1  0.859800  0.668500  0.509900  1.0  -0.1294
  C  C165  1  0.868200  0.704300  0.464700  1.0  -0.0642
  C  C166  1  0.990700  0.718700  0.440200  1.0  0.0109
  C  C167  1  0.103900  0.692400  0.461600  1.0  -0.0742
  C  C168  1  0.093700  0.654300  0.505900  1.0  -0.1364
  C  C169  1  0.970700  0.643900  0.530200  1.0  -0.0039
  C  C170  1  0.219300  0.634600  0.528800  1.0  0.6538
  C  C171  1  0.003700  0.760200  0.392900  1.0  0.0475
  C  C172  1  0.107100  0.741400  0.364300  1.0  -0.116
  C  C173  1  0.113200  0.772700  0.318800  1.0  -0.1268
  C  C174  1  0.016800  0.823400  0.300800  1.0  0.0061
  C  C175  1  0.918400  0.847200  0.329700  1.0  -0.1234
  C  C176  1  0.912200  0.816300  0.375000  1.0  -0.122
  C  C177  1  0.015600  0.842000  0.251200  1.0  0.1292
  C  C178  1  0.026200  0.755800  0.223400  1.0  -0.2038
  C  C179  1  0.021400  0.766400  0.177200  1.0  0.2546
  C  C180  1  0.999000  0.942500  0.183200  1.0  0.2603
  C  C181  1  0.003100  0.938400  0.230400  1.0  -0.206
  C  C182  1  0.994200  0.036800  0.258100  1.0  0.6476
  C  C183  1  0.000000  0.043700  0.158300  1.0  0.0535
  C  C184  1  0.891000  0.046300  0.127900  1.0  -0.1779
  C  C185  1  0.904100  0.140800  0.102200  1.0  0.1698
  C  C186  1  0.118600  0.225400  0.133500  1.0  0.1675
  C  C187  1  0.109900  0.136200  0.161500  1.0  -0.1798
  C  C188  1  0.035100  0.675900  0.146500  1.0  0.0552
  C  C189  1  0.978200  0.662500  0.104100  1.0  -0.1514
  C  C190  1  0.987600  0.573300  0.078100  1.0  0.1955
  C  C191  1  0.120500  0.519000  0.131100  1.0  0.1673
  C  C192  1  0.114000  0.603000  0.159500  1.0  -0.2142
  N  N193  1  0.505300  0.857700  0.342910  1.0  -0.4137
  N  N194  1  0.515400  0.228500  0.396750  1.0  -0.3571
  N  N195  1  0.552700  0.500500  0.408290  1.0  -0.329
  N  N196  1  0.994700  0.142300  0.842910  1.0  -0.4135
  N  N197  1  0.984600  0.771500  0.896750  1.0  -0.3572
  N  N198  1  0.947300  0.499500  0.908290  1.0  -0.3295
  N  N199  1  0.494700  0.142300  0.657090  1.0  -0.4145
  N  N200  1  0.484600  0.771500  0.603250  1.0  -0.357
  N  N201  1  0.447300  0.499500  0.591710  1.0  -0.3297
  N  N202  1  0.005300  0.857700  0.157090  1.0  -0.4145
  N  N203  1  0.015400  0.228500  0.103250  1.0  -0.3568
  N  N204  1  0.052700  0.500500  0.091710  1.0  -0.3294
  O  O205  1  0.121900  0.664000  0.983730  1.0  -0.5682
  O  O206  1  0.237600  0.659900  0.920460  1.0  -0.5998
  O  O207  1  0.830400  0.651800  0.992800  1.0  -0.5581
  O  O208  1  0.714300  0.606900  0.930750  1.0  -0.6075
  O  O209  1  0.382400  0.060500  0.239040  1.0  -0.5069
  O  O210  1  0.614700  0.089700  0.221600  1.0  -0.5191
  O  O211  1  0.378100  0.336000  0.483730  1.0  -0.5691
  O  O212  1  0.262400  0.340100  0.420460  1.0  -0.5982
  O  O213  1  0.669600  0.348200  0.492800  1.0  -0.5589
  O  O214  1  0.785700  0.393100  0.430750  1.0  -0.6086
  O  O215  1  0.117600  0.939500  0.739040  1.0  -0.5052
  O  O216  1  0.885300  0.910300  0.721600  1.0  -0.5193
  O  O217  1  0.878100  0.336000  0.016270  1.0  -0.5689
  O  O218  1  0.762400  0.340100  0.079540  1.0  -0.6016
  O  O219  1  0.169600  0.348200  0.007200  1.0  -0.5592
  O  O220  1  0.285700  0.393100  0.069250  1.0  -0.6077
  O  O221  1  0.617600  0.939500  0.760960  1.0  -0.5046
  O  O222  1  0.385300  0.910300  0.778400  1.0  -0.519
  O  O223  1  0.621900  0.664000  0.516270  1.0  -0.5677
  O  O224  1  0.737600  0.659900  0.579540  1.0  -0.6005
  O  O225  1  0.330400  0.651800  0.507200  1.0  -0.5583
  O  O226  1  0.214300  0.606900  0.569250  1.0  -0.607
  O  O227  1  0.882400  0.060500  0.260960  1.0  -0.5059
  O  O228  1  0.114700  0.089700  0.278400  1.0  -0.5195
