# generated using pymatgen
data_CoH16C30(NO2)3
_symmetry_space_group_name_H-M   'P 1'
_cell_length_a   10.09000000
_cell_length_b   16.36200000
_cell_length_c   24.45300000
_cell_angle_alpha   106.75000000
_cell_angle_beta   92.97000000
_cell_angle_gamma   103.16000000
_symmetry_Int_Tables_number   1
_chemical_formula_structural   CoH16C30(NO2)3
_chemical_formula_sum   'Co4 H64 C120 N12 O24'
_cell_volume   3734.23287200
_cell_formula_units_Z   4
loop_
 _symmetry_equiv_pos_site_id
 _symmetry_equiv_pos_as_xyz
  1  'x, y, z'
loop_
 _atom_site_type_symbol
 _atom_site_label
 _atom_site_symmetry_multiplicity
 _atom_site_fract_x
 _atom_site_fract_y
 _atom_site_fract_z
 _atom_site_occupancy
 _atom_site_charge
  Co  Co1  1  0.598720  0.155690  0.037820  1.0  0.9729
  Co  Co2  1  0.041040  0.651380  0.540540  1.0  0.982
  Co  Co3  1  0.401280  0.844310  0.962180  1.0  0.9716
  Co  Co4  1  0.958960  0.348620  0.459460  1.0  0.9817
  H  H5  1  0.245300  0.999900  0.098800  1.0  0.1115
  H  H6  1  0.848800  0.002200  0.098300  1.0  0.1062
  H  H7  1  0.102000  0.164700  0.031200  1.0  0.1155
  H  H8  1  0.907900  0.973000  0.192600  1.0  0.1149
  H  H9  1  0.863300  0.859000  0.233300  1.0  0.119
  H  H10  1  0.085200  0.731800  0.123200  1.0  0.1307
  H  H11  1  0.127800  0.844800  0.083700  1.0  0.0984
  H  H12  1  0.642700  0.480500  0.099800  1.0  0.127
  H  H13  1  0.553300  0.337300  0.049000  1.0  0.0863
  H  H14  1  0.794100  0.259700  0.140800  1.0  0.0917
  H  H15  1  0.893500  0.402100  0.196600  1.0  0.1311
  H  H16  1  0.032800  0.533200  0.329900  1.0  0.1197
  H  H17  1  0.064700  0.539900  0.423500  1.0  0.0809
  H  H18  1  0.938500  0.753500  0.470600  1.0  0.1012
  H  H19  1  0.918600  0.757600  0.377500  1.0  0.1247
  H  H20  1  0.256100  0.853300  0.323300  1.0  0.3797
  H  H21  1  0.538900  0.659900  0.534200  1.0  0.1117
  H  H22  1  0.291700  0.491300  0.598300  1.0  0.1055
  H  H23  1  0.691700  0.499800  0.602200  1.0  0.1114
  H  H24  1  0.582200  0.339900  0.579300  1.0  0.1041
  H  H25  1  0.552100  0.225400  0.619700  1.0  0.1243
  H  H26  1  0.335900  0.348200  0.734900  1.0  0.1125
  H  H27  1  0.356400  0.458000  0.692400  1.0  0.12
  H  H28  1  0.635000  0.254800  0.863000  1.0  0.1096
  H  H29  1  0.697400  0.255600  0.955000  1.0  0.085
  H  H30  1  0.433200  0.033000  0.931700  1.0  0.0792
  H  H31  1  0.370200  0.023700  0.838900  1.0  0.1159
  H  H32  1  0.367800  0.891900  0.693100  1.0  0.1352
  H  H33  1  0.259800  0.751300  0.636100  1.0  0.0841
  H  H34  1  0.983900  0.833500  0.567300  1.0  0.086
  H  H35  1  0.081800  0.976100  0.620100  1.0  0.1283
  H  H36  1  0.723800  0.385600  0.799600  1.0  0.4529
  H  H37  1  0.754700  0.000100  0.901200  1.0  0.1112
  H  H38  1  0.151200  0.997800  0.901700  1.0  0.1064
  H  H39  1  0.898000  0.835300  0.968800  1.0  0.115
  H  H40  1  0.092100  0.027000  0.807400  1.0  0.115
  H  H41  1  0.136700  0.141000  0.766700  1.0  0.1193
  H  H42  1  0.914800  0.268200  0.876800  1.0  0.131
  H  H43  1  0.872200  0.155200  0.916300  1.0  0.0981
  H  H44  1  0.357300  0.519500  0.900200  1.0  0.1269
  H  H45  1  0.446700  0.662700  0.951000  1.0  0.0869
  H  H46  1  0.205900  0.740300  0.859200  1.0  0.0918
  H  H47  1  0.106500  0.597900  0.803400  1.0  0.1304
  H  H48  1  0.967200  0.466800  0.670100  1.0  0.1195
  H  H49  1  0.935300  0.460100  0.576500  1.0  0.0811
  H  H50  1  0.061500  0.246500  0.529400  1.0  0.1005
  H  H51  1  0.081400  0.242400  0.622500  1.0  0.1243
  H  H52  1  0.743900  0.146700  0.676700  1.0  0.3766
  H  H53  1  0.461100  0.340100  0.465800  1.0  0.1113
  H  H54  1  0.708300  0.508700  0.401700  1.0  0.105
  H  H55  1  0.308300  0.500200  0.397800  1.0  0.1119
  H  H56  1  0.417800  0.660100  0.420700  1.0  0.1051
  H  H57  1  0.447900  0.774600  0.380300  1.0  0.1246
  H  H58  1  0.664100  0.651800  0.265100  1.0  0.1136
  H  H59  1  0.643600  0.542000  0.307600  1.0  0.12
  H  H60  1  0.365000  0.745200  0.137000  1.0  0.1103
  H  H61  1  0.302600  0.744400  0.045000  1.0  0.0832
  H  H62  1  0.566800  0.967000  0.068300  1.0  0.0793
  H  H63  1  0.629800  0.976300  0.161100  1.0  0.1153
  H  H64  1  0.632200  0.108100  0.306900  1.0  0.1349
  H  H65  1  0.740200  0.248700  0.363900  1.0  0.0844
  H  H66  1  0.016100  0.166500  0.432700  1.0  0.0863
  H  H67  1  0.918200  0.023900  0.379900  1.0  0.1276
  H  H68  1  0.276200  0.614400  0.200400  1.0  0.4533
  C  C69  1  0.337400  0.126100  0.050620  1.0  0.6754
  C  C70  1  0.196800  0.089200  0.063580  1.0  -0.1359
  C  C71  1  0.173000  0.022400  0.090040  1.0  -0.0356
  C  C72  1  0.043800  0.989300  0.103370  1.0  0.0245
  C  C73  1  0.936000  0.023500  0.089540  1.0  -0.0765
  C  C74  1  0.957700  0.089200  0.062910  1.0  -0.1378
  C  C75  1  0.087900  0.121500  0.049540  1.0  0.0217
  C  C76  1  0.841700  0.124400  0.047130  1.0  0.6621
  C  C77  1  0.019000  0.918500  0.131180  1.0  0.0601
  C  C78  1  0.967800  0.782100  0.181070  1.0  -0.0428
  C  C79  1  0.941600  0.923700  0.178100  1.0  -0.1353
  C  C80  1  0.915200  0.855600  0.202800  1.0  -0.081
  C  C81  1  0.047700  0.779600  0.137000  1.0  -0.1088
  C  C82  1  0.072600  0.847600  0.113200  1.0  -0.126
  C  C83  1  0.937100  0.706600  0.205190  1.0  -0.0155
  C  C84  1  0.869500  0.623500  0.169130  1.0  -0.0059
  C  C85  1  0.846900  0.550900  0.191460  1.0  0.2492
  C  C86  1  0.948300  0.642100  0.281930  1.0  0.1679
  C  C87  1  0.977700  0.716000  0.262510  1.0  -0.0114
  C  C88  1  0.781500  0.459900  0.154900  1.0  -0.0607
  C  C89  1  0.676100  0.437000  0.109100  1.0  -0.1355
  C  C90  1  0.623900  0.350900  0.078700  1.0  0.1843
  C  C91  1  0.764700  0.305300  0.132500  1.0  0.1733
  C  C92  1  0.824900  0.390700  0.166500  1.0  -0.1405
  C  C93  1  0.979200  0.646700  0.342350  1.0  0.0485
  C  C94  1  0.018100  0.581200  0.358070  1.0  -0.183
  C  C95  1  0.035800  0.585100  0.414550  1.0  0.1887
  C  C96  1  0.963900  0.710700  0.441900  1.0  0.1647
  C  C97  1  0.948900  0.712400  0.385900  1.0  -0.1954
  C  C98  1  0.076800  0.800700  0.298800  1.0  0.5988
  C  C99  1  0.777700  0.627100  0.556230  1.0  0.6839
  C  C100  1  0.638100  0.586700  0.566990  1.0  -0.1433
  C  C101  1  0.526100  0.615800  0.551770  1.0  0.0129
  C  C102  1  0.396300  0.579600  0.562580  1.0  -0.1438
  C  C103  1  0.378400  0.514200  0.589790  1.0  -0.0681
  C  C104  1  0.488400  0.482600  0.604470  1.0  0.0483
  C  C105  1  0.617300  0.519900  0.592690  1.0  -0.0406
  C  C106  1  0.278500  0.611600  0.545710  1.0  0.6541
  C  C107  1  0.470300  0.410400  0.630480  1.0  0.0823
  C  C108  1  0.530100  0.340900  0.609680  1.0  -0.1102
  C  C109  1  0.512600  0.272000  0.634180  1.0  -0.0816
  C  C110  1  0.435600  0.273300  0.680380  1.0  0.0101
  C  C111  1  0.382100  0.344900  0.702660  1.0  -0.1173
  C  C112  1  0.396300  0.411600  0.677730  1.0  -0.1163
  C  C113  1  0.413600  0.198100  0.704280  1.0  -0.0358
  C  C114  1  0.459200  0.209600  0.761070  1.0  0.0073
  C  C115  1  0.437500  0.136300  0.781030  1.0  0.1853
  C  C116  1  0.324200  0.044100  0.692890  1.0  0.2383
  C  C117  1  0.343100  0.114100  0.670070  1.0  0.0266
  C  C118  1  0.487000  0.141100  0.840420  1.0  -0.0217
  C  C119  1  0.590200  0.209100  0.876100  1.0  -0.209
  C  C120  1  0.627200  0.209300  0.931710  1.0  0.1776
  C  C121  1  0.474000  0.079200  0.918230  1.0  0.1881
  C  C122  1  0.434100  0.073800  0.862280  1.0  -0.1743
  C  C123  1  0.249900  0.952800  0.658480  1.0  -0.038
  C  C124  1  0.294100  0.882700  0.665700  1.0  -0.1328
  C  C125  1  0.226900  0.797900  0.631400  1.0  0.1873
  C  C126  1  0.065600  0.846200  0.591100  1.0  0.1945
  C  C127  1  0.123800  0.931900  0.622300  1.0  -0.1442
  C  C128  1  0.550000  0.299300  0.794300  1.0  0.2965
  C  C129  1  0.662600  0.873900  0.949380  1.0  0.6736
  C  C130  1  0.803200  0.910800  0.936420  1.0  -0.1372
  C  C131  1  0.827000  0.977600  0.909960  1.0  -0.0334
  C  C132  1  0.956200  0.010700  0.896630  1.0  0.0251
  C  C133  1  0.064000  0.976500  0.910460  1.0  -0.0769
  C  C134  1  0.042300  0.910800  0.937090  1.0  -0.1375
  C  C135  1  0.912100  0.878500  0.950460  1.0  0.021
  C  C136  1  0.158300  0.875600  0.952870  1.0  0.6635
  C  C137  1  0.981000  0.081500  0.868820  1.0  0.0593
  C  C138  1  0.032200  0.217900  0.818930  1.0  -0.0425
  C  C139  1  0.058400  0.076300  0.821900  1.0  -0.1342
  C  C140  1  0.084800  0.144400  0.797200  1.0  -0.0826
  C  C141  1  0.952300  0.220400  0.863000  1.0  -0.1083
  C  C142  1  0.927400  0.152400  0.886800  1.0  -0.1249
  C  C143  1  0.062900  0.293400  0.794810  1.0  -0.0155
  C  C144  1  0.130500  0.376500  0.830870  1.0  -0.0065
  C  C145  1  0.153100  0.449100  0.808540  1.0  0.2503
  C  C146  1  0.051700  0.357900  0.718070  1.0  0.1672
  C  C147  1  0.022300  0.284000  0.737490  1.0  -0.0124
  C  C148  1  0.218500  0.540100  0.845100  1.0  -0.0605
  C  C149  1  0.323900  0.563000  0.890900  1.0  -0.1334
  C  C150  1  0.376100  0.649100  0.921300  1.0  0.1836
  C  C151  1  0.235300  0.694700  0.867500  1.0  0.1744
  C  C152  1  0.175100  0.609300  0.833500  1.0  -0.1411
  C  C153  1  0.020800  0.353300  0.657650  1.0  0.0456
  C  C154  1  0.981900  0.418800  0.641930  1.0  -0.184
  C  C155  1  0.964200  0.414900  0.585450  1.0  0.1897
  C  C156  1  0.036100  0.289300  0.558100  1.0  0.1647
  C  C157  1  0.051100  0.287600  0.614100  1.0  -0.1962
  C  C158  1  0.923200  0.199300  0.701200  1.0  0.6011
  C  C159  1  0.222300  0.372900  0.443770  1.0  0.6828
  C  C160  1  0.361900  0.413300  0.433010  1.0  -0.1451
  C  C161  1  0.473900  0.384200  0.448230  1.0  0.0114
  C  C162  1  0.603700  0.420400  0.437420  1.0  -0.1454
  C  C163  1  0.621600  0.485800  0.410210  1.0  -0.07
  C  C164  1  0.511600  0.517400  0.395530  1.0  0.0471
  C  C165  1  0.382700  0.480100  0.407310  1.0  -0.0424
  C  C166  1  0.721500  0.388400  0.454290  1.0  0.6555
  C  C167  1  0.529700  0.589600  0.369520  1.0  0.0812
  C  C168  1  0.469900  0.659100  0.390320  1.0  -0.1107
  C  C169  1  0.487400  0.728000  0.365820  1.0  -0.08
  C  C170  1  0.564400  0.726700  0.319620  1.0  0.012
  C  C171  1  0.617900  0.655100  0.297340  1.0  -0.118
  C  C172  1  0.603700  0.588400  0.322270  1.0  -0.1137
  C  C173  1  0.586400  0.801900  0.295720  1.0  -0.0343
  C  C174  1  0.540800  0.790400  0.238930  1.0  0.0071
  C  C175  1  0.562500  0.863700  0.218970  1.0  0.1843
  C  C176  1  0.675800  0.955900  0.307110  1.0  0.2403
  C  C177  1  0.656900  0.885900  0.329930  1.0  0.0253
  C  C178  1  0.513000  0.858900  0.159580  1.0  -0.0233
  C  C179  1  0.409800  0.790900  0.123900  1.0  -0.2092
  C  C180  1  0.372800  0.790700  0.068290  1.0  0.1777
  C  C181  1  0.526000  0.920800  0.081770  1.0  0.1879
  C  C182  1  0.565900  0.926200  0.137720  1.0  -0.1761
  C  C183  1  0.750100  0.047200  0.341520  1.0  -0.0385
  C  C184  1  0.705900  0.117300  0.334300  1.0  -0.1325
  C  C185  1  0.773100  0.202100  0.368600  1.0  0.1876
  C  C186  1  0.934400  0.153800  0.408900  1.0  0.1942
  C  C187  1  0.876200  0.068100  0.377700  1.0  -0.1434
  C  C188  1  0.450000  0.700700  0.205700  1.0  0.2937
  N  N189  1  0.885400  0.560600  0.246330  1.0  -0.4174
  N  N190  1  0.666100  0.284600  0.088240  1.0  -0.3395
  N  N191  1  0.368900  0.055100  0.747750  1.0  -0.406
  N  N192  1  0.566300  0.145950  0.953360  1.0  -0.3181
  N  N193  1  0.119600  0.779200  0.592780  1.0  -0.3071
  N  N194  1  0.014600  0.648600  0.456580  1.0  -0.2867
  N  N195  1  0.114600  0.439400  0.753670  1.0  -0.4156
  N  N196  1  0.333900  0.715400  0.911760  1.0  -0.3385
  N  N197  1  0.631100  0.944900  0.252250  1.0  -0.4048
  N  N198  1  0.433700  0.854050  0.046640  1.0  -0.3188
  N  N199  1  0.880400  0.220800  0.407220  1.0  -0.308
  N  N200  1  0.985400  0.351400  0.543420  1.0  -0.2863
  O  O201  1  0.432100  0.089580  0.060410  1.0  -0.5983
  O  O202  1  0.360100  0.189890  0.032310  1.0  -0.6273
  O  O203  1  0.725100  0.093180  0.062090  1.0  -0.5803
  O  O204  1  0.857600  0.181310  0.022390  1.0  -0.5768
  O  O205  1  0.162300  0.582820  0.560540  1.0  -0.584
  O  O206  1  0.295300  0.666300  0.518820  1.0  -0.5711
  O  O207  1  0.800800  0.692990  0.539920  1.0  -0.6211
  O  O208  1  0.873500  0.590540  0.564970  1.0  -0.5968
  O  O209  1  0.213000  0.805300  0.301300  1.0  -0.5193
  O  O210  1  0.029200  0.863500  0.326800  1.0  -0.5563
  O  O211  1  0.698200  0.332000  0.784600  1.0  -0.6191
  O  O212  1  0.498000  0.350500  0.834100  1.0  -0.5337
  O  O213  1  0.567900  0.910420  0.939590  1.0  -0.5997
  O  O214  1  0.639900  0.810110  0.967690  1.0  -0.6252
  O  O215  1  0.274900  0.906820  0.937910  1.0  -0.5805
  O  O216  1  0.142400  0.818690  0.977610  1.0  -0.5784
  O  O217  1  0.837700  0.417180  0.439460  1.0  -0.5823
  O  O218  1  0.704700  0.333700  0.481180  1.0  -0.5741
  O  O219  1  0.199200  0.307010  0.460080  1.0  -0.6203
  O  O220  1  0.126500  0.409460  0.435030  1.0  -0.5988
  O  O221  1  0.787000  0.194700  0.698700  1.0  -0.5174
  O  O222  1  0.970800  0.136500  0.673200  1.0  -0.5586
  O  O223  1  0.301800  0.668000  0.215400  1.0  -0.6164
  O  O224  1  0.502000  0.649500  0.165900  1.0  -0.5355
