# generated using pymatgen
data_CuH6C8(N2O)2
_symmetry_space_group_name_H-M   'P 1'
_cell_length_a   15.76000000
_cell_length_b   15.76000000
_cell_length_c   15.76000000
_cell_angle_alpha   90.00000000
_cell_angle_beta   90.00000000
_cell_angle_gamma   90.00000000
_symmetry_Int_Tables_number   1
_chemical_formula_structural   CuH6C8(N2O)2
_chemical_formula_sum   'Cu12 H72 C96 N48 O24'
_cell_volume   3914.43097600
_cell_formula_units_Z   12
loop_
 _symmetry_equiv_pos_site_id
 _symmetry_equiv_pos_as_xyz
  1  'x, y, z'
loop_
 _atom_site_type_symbol
 _atom_site_label
 _atom_site_symmetry_multiplicity
 _atom_site_fract_x
 _atom_site_fract_y
 _atom_site_fract_z
 _atom_site_occupancy
 _atom_site_charge
  Cu  Cu1  1  0.500000  0.750000  0.250000  1.0  0.8182
  Cu  Cu2  1  0.000000  0.750000  0.250000  1.0  0.8182
  Cu  Cu3  1  0.250000  0.500000  0.750000  1.0  0.8182
  Cu  Cu4  1  0.250000  0.000000  0.750000  1.0  0.8182
  Cu  Cu5  1  0.750000  0.250000  0.500000  1.0  0.8182
  Cu  Cu6  1  0.750000  0.250000  0.000000  1.0  0.8182
  Cu  Cu7  1  0.500000  0.250000  0.750000  1.0  0.8182
  Cu  Cu8  1  0.000000  0.250000  0.750000  1.0  0.8182
  Cu  Cu9  1  0.750000  0.500000  0.250000  1.0  0.8182
  Cu  Cu10  1  0.750000  0.000000  0.250000  1.0  0.8182
  Cu  Cu11  1  0.250000  0.750000  0.500000  1.0  0.8182
  Cu  Cu12  1  0.250000  0.750000  0.000000  1.0  0.8182
  H  H13  1  0.420300  0.926100  0.257700  1.0  0.0856
  H  H14  1  0.079700  0.573900  0.257700  1.0  0.0861
  H  H15  1  0.079700  0.926100  0.242300  1.0  0.0859
  H  H16  1  0.420300  0.573900  0.242300  1.0  0.0862
  H  H17  1  0.257700  0.420300  0.926100  1.0  0.085
  H  H18  1  0.257700  0.079700  0.573900  1.0  0.0838
  H  H19  1  0.242300  0.079700  0.926100  1.0  0.0845
  H  H20  1  0.242300  0.420300  0.573900  1.0  0.0838
  H  H21  1  0.926100  0.257700  0.420300  1.0  0.084
  H  H22  1  0.573900  0.257700  0.079700  1.0  0.0853
  H  H23  1  0.926100  0.242300  0.079700  1.0  0.0848
  H  H24  1  0.573900  0.242300  0.420300  1.0  0.0846
  H  H25  1  0.426100  0.920300  0.742300  1.0  0.0858
  H  H26  1  0.073900  0.579700  0.742300  1.0  0.0857
  H  H27  1  0.426100  0.579700  0.757700  1.0  0.0854
  H  H28  1  0.073900  0.920300  0.757700  1.0  0.0859
  H  H29  1  0.920300  0.757700  0.073900  1.0  0.0851
  H  H30  1  0.579700  0.757700  0.426100  1.0  0.0858
  H  H31  1  0.579700  0.742300  0.073900  1.0  0.0851
  H  H32  1  0.920300  0.742300  0.426100  1.0  0.0858
  H  H33  1  0.757700  0.426100  0.579700  1.0  0.084
  H  H34  1  0.757700  0.073900  0.920300  1.0  0.0836
  H  H35  1  0.742300  0.426100  0.920300  1.0  0.0832
  H  H36  1  0.742300  0.073900  0.579700  1.0  0.0839
  H  H37  1  0.579700  0.073900  0.742300  1.0  0.0861
  H  H38  1  0.920300  0.426100  0.742300  1.0  0.0858
  H  H39  1  0.920300  0.073900  0.757700  1.0  0.0859
  H  H40  1  0.579700  0.426100  0.757700  1.0  0.0858
  H  H41  1  0.742300  0.579700  0.073900  1.0  0.0837
  H  H42  1  0.742300  0.920300  0.426100  1.0  0.0845
  H  H43  1  0.757700  0.920300  0.073900  1.0  0.0839
  H  H44  1  0.757700  0.579700  0.426100  1.0  0.0849
  H  H45  1  0.073900  0.742300  0.579700  1.0  0.0848
  H  H46  1  0.426100  0.742300  0.920300  1.0  0.0844
  H  H47  1  0.073900  0.757700  0.920300  1.0  0.0847
  H  H48  1  0.426100  0.757700  0.579700  1.0  0.085
  H  H49  1  0.573900  0.079700  0.257700  1.0  0.086
  H  H50  1  0.926100  0.420300  0.257700  1.0  0.0853
  H  H51  1  0.573900  0.420300  0.242300  1.0  0.0859
  H  H52  1  0.926100  0.079700  0.242300  1.0  0.0857
  H  H53  1  0.079700  0.242300  0.926100  1.0  0.0858
  H  H54  1  0.420300  0.242300  0.573900  1.0  0.0851
  H  H55  1  0.420300  0.257700  0.926100  1.0  0.0858
  H  H56  1  0.079700  0.257700  0.573900  1.0  0.0853
  H  H57  1  0.242300  0.573900  0.420300  1.0  0.0836
  H  H58  1  0.242300  0.926100  0.079700  1.0  0.0838
  H  H59  1  0.257700  0.573900  0.079700  1.0  0.084
  H  H60  1  0.257700  0.926100  0.420300  1.0  0.0833
  H  H61  1  0.314000  0.997000  0.186000  1.0  0.1478
  H  H62  1  0.186000  0.503000  0.186000  1.0  0.1475
  H  H63  1  0.186000  0.997000  0.314000  1.0  0.1476
  H  H64  1  0.314000  0.503000  0.314000  1.0  0.148
  H  H65  1  0.186000  0.314000  0.997000  1.0  0.1475
  H  H66  1  0.186000  0.186000  0.503000  1.0  0.1474
  H  H67  1  0.314000  0.186000  0.997000  1.0  0.1479
  H  H68  1  0.314000  0.314000  0.503000  1.0  0.1479
  H  H69  1  0.997000  0.186000  0.314000  1.0  0.1473
  H  H70  1  0.503000  0.186000  0.186000  1.0  0.1477
  H  H71  1  0.997000  0.314000  0.186000  1.0  0.1469
  H  H72  1  0.503000  0.314000  0.314000  1.0  0.1481
  H  H73  1  0.497000  0.814000  0.814000  1.0  0.1472
  H  H74  1  0.003000  0.686000  0.814000  1.0  0.1481
  H  H75  1  0.497000  0.686000  0.686000  1.0  0.1469
  H  H76  1  0.003000  0.814000  0.686000  1.0  0.1477
  H  H77  1  0.814000  0.686000  0.003000  1.0  0.1479
  H  H78  1  0.686000  0.686000  0.497000  1.0  0.1476
  H  H79  1  0.686000  0.814000  0.003000  1.0  0.1474
  H  H80  1  0.814000  0.814000  0.497000  1.0  0.1479
  H  H81  1  0.686000  0.497000  0.686000  1.0  0.1473
  H  H82  1  0.686000  0.003000  0.814000  1.0  0.1477
  H  H83  1  0.814000  0.497000  0.814000  1.0  0.148
  H  H84  1  0.814000  0.003000  0.686000  1.0  0.1479
  C  C85  1  0.391400  0.899200  0.213800  1.0  0.2708
  C  C86  1  0.108600  0.600800  0.213800  1.0  0.2726
  C  C87  1  0.108600  0.899200  0.286200  1.0  0.272
  C  C88  1  0.391400  0.600800  0.286200  1.0  0.2708
  C  C89  1  0.213800  0.391400  0.899200  1.0  0.2721
  C  C90  1  0.213800  0.108600  0.600800  1.0  0.2722
  C  C91  1  0.286200  0.108600  0.899200  1.0  0.2732
  C  C92  1  0.286200  0.391400  0.600800  1.0  0.2745
  C  C93  1  0.899200  0.213800  0.391400  1.0  0.2751
  C  C94  1  0.600800  0.213800  0.108600  1.0  0.278
  C  C95  1  0.899200  0.286200  0.108600  1.0  0.2748
  C  C96  1  0.600800  0.286200  0.391400  1.0  0.278
  C  C97  1  0.399200  0.891400  0.786200  1.0  0.2748
  C  C98  1  0.100800  0.608600  0.786200  1.0  0.2768
  C  C99  1  0.399200  0.608600  0.713800  1.0  0.274
  C  C100  1  0.100800  0.891400  0.713800  1.0  0.277
  C  C101  1  0.891400  0.713800  0.100800  1.0  0.2725
  C  C102  1  0.608600  0.713800  0.399200  1.0  0.2724
  C  C103  1  0.608600  0.786200  0.100800  1.0  0.2735
  C  C104  1  0.891400  0.786200  0.399200  1.0  0.2717
  C  C105  1  0.713800  0.399200  0.608600  1.0  0.2719
  C  C106  1  0.713800  0.100800  0.891400  1.0  0.272
  C  C107  1  0.786200  0.399200  0.891400  1.0  0.2727
  C  C108  1  0.786200  0.100800  0.608600  1.0  0.2732
  C  C109  1  0.608600  0.100800  0.786200  1.0  0.2701
  C  C110  1  0.891400  0.399200  0.786200  1.0  0.2689
  C  C111  1  0.891400  0.100800  0.713800  1.0  0.2695
  C  C112  1  0.608600  0.399200  0.713800  1.0  0.2695
  C  C113  1  0.786200  0.608600  0.100800  1.0  0.272
  C  C114  1  0.786200  0.891400  0.399200  1.0  0.2711
  C  C115  1  0.713800  0.891400  0.100800  1.0  0.2709
  C  C116  1  0.713800  0.608600  0.399200  1.0  0.2697
  C  C117  1  0.100800  0.786200  0.608600  1.0  0.2758
  C  C118  1  0.399200  0.786200  0.891400  1.0  0.2731
  C  C119  1  0.100800  0.713800  0.891400  1.0  0.2755
  C  C120  1  0.399200  0.713800  0.608600  1.0  0.2737
  C  C121  1  0.600800  0.108600  0.213800  1.0  0.2753
  C  C122  1  0.899200  0.391400  0.213800  1.0  0.2724
  C  C123  1  0.600800  0.391400  0.286200  1.0  0.2754
  C  C124  1  0.899200  0.108600  0.286200  1.0  0.2717
  C  C125  1  0.108600  0.286200  0.899200  1.0  0.2709
  C  C126  1  0.391400  0.286200  0.600800  1.0  0.27
  C  C127  1  0.391400  0.213800  0.899200  1.0  0.2696
  C  C128  1  0.108600  0.213800  0.600800  1.0  0.2719
  C  C129  1  0.286200  0.600800  0.391400  1.0  0.2717
  C  C130  1  0.286200  0.899200  0.108600  1.0  0.2714
  C  C131  1  0.213800  0.600800  0.108600  1.0  0.2696
  C  C132  1  0.213800  0.899200  0.391400  1.0  0.2694
  C  C133  1  0.372200  0.781200  0.127800  1.0  0.7131
  C  C134  1  0.328700  0.942700  0.171300  1.0  -0.3858
  C  C135  1  0.127800  0.718800  0.127800  1.0  0.7123
  C  C136  1  0.171300  0.557300  0.171300  1.0  -0.3846
  C  C137  1  0.127800  0.781200  0.372200  1.0  0.7125
  C  C138  1  0.171300  0.942700  0.328700  1.0  -0.384
  C  C139  1  0.372200  0.718800  0.372200  1.0  0.7129
  C  C140  1  0.328700  0.557300  0.328700  1.0  -0.3852
  C  C141  1  0.127800  0.372200  0.781200  1.0  0.7154
  C  C142  1  0.171300  0.328700  0.942700  1.0  -0.3827
  C  C143  1  0.127800  0.127800  0.718800  1.0  0.7139
  C  C144  1  0.171300  0.171300  0.557300  1.0  -0.3822
  C  C145  1  0.372200  0.127800  0.781200  1.0  0.7155
  C  C146  1  0.328700  0.171300  0.942700  1.0  -0.3839
  C  C147  1  0.372200  0.372200  0.718800  1.0  0.715
  C  C148  1  0.328700  0.328700  0.557300  1.0  -0.3828
  C  C149  1  0.781200  0.127800  0.372200  1.0  0.7129
  C  C150  1  0.942700  0.171300  0.328700  1.0  -0.3834
  C  C151  1  0.718800  0.127800  0.127800  1.0  0.7132
  C  C152  1  0.557300  0.171300  0.171300  1.0  -0.3858
  C  C153  1  0.781200  0.372200  0.127800  1.0  0.7132
  C  C154  1  0.942700  0.328700  0.171300  1.0  -0.3836
  C  C155  1  0.718800  0.372200  0.372200  1.0  0.7137
  C  C156  1  0.557300  0.328700  0.328700  1.0  -0.3854
  C  C157  1  0.281200  0.872200  0.872200  1.0  0.7133
  C  C158  1  0.442700  0.828700  0.828700  1.0  -0.3836
  C  C159  1  0.218800  0.627800  0.872200  1.0  0.7134
  C  C160  1  0.057300  0.671300  0.828700  1.0  -0.3856
  C  C161  1  0.281200  0.627800  0.627800  1.0  0.7128
  C  C162  1  0.442700  0.671300  0.671300  1.0  -0.3835
  C  C163  1  0.218800  0.872200  0.627800  1.0  0.7135
  C  C164  1  0.057300  0.828700  0.671300  1.0  -0.3856
  C  C165  1  0.872200  0.627800  0.218800  1.0  0.7149
  C  C166  1  0.828700  0.671300  0.057300  1.0  -0.3832
  C  C167  1  0.627800  0.627800  0.281200  1.0  0.7148
  C  C168  1  0.671300  0.671300  0.442700  1.0  -0.3826
  C  C169  1  0.627800  0.872200  0.218800  1.0  0.7141
  C  C170  1  0.671300  0.828700  0.057300  1.0  -0.3819
  C  C171  1  0.872200  0.872200  0.281200  1.0  0.7159
  C  C172  1  0.828700  0.828700  0.442700  1.0  -0.384
  C  C173  1  0.627800  0.281200  0.627800  1.0  0.7125
  C  C174  1  0.671300  0.442700  0.671300  1.0  -0.3842
  C  C175  1  0.627800  0.218800  0.872200  1.0  0.7126
  C  C176  1  0.671300  0.057300  0.828700  1.0  -0.3842
  C  C177  1  0.872200  0.281200  0.872200  1.0  0.713
  C  C178  1  0.828700  0.442700  0.828700  1.0  -0.3856
  C  C179  1  0.872200  0.218800  0.627800  1.0  0.7128
  C  C180  1  0.828700  0.057300  0.671300  1.0  -0.3857
  N  N181  1  0.411600  0.820500  0.194000  1.0  -0.49
  N  N182  1  0.088400  0.679500  0.194000  1.0  -0.4876
  N  N183  1  0.088400  0.820500  0.306000  1.0  -0.4883
  N  N184  1  0.411600  0.679500  0.306000  1.0  -0.4893
  N  N185  1  0.194000  0.411600  0.820500  1.0  -0.4891
  N  N186  1  0.194000  0.088400  0.679500  1.0  -0.4898
  N  N187  1  0.306000  0.088400  0.820500  1.0  -0.4899
  N  N188  1  0.306000  0.411600  0.679500  1.0  -0.4888
  N  N189  1  0.820500  0.194000  0.411600  1.0  -0.4892
  N  N190  1  0.679500  0.194000  0.088400  1.0  -0.4916
  N  N191  1  0.820500  0.306000  0.088400  1.0  -0.4891
  N  N192  1  0.679500  0.306000  0.411600  1.0  -0.4912
  N  N193  1  0.320500  0.911600  0.806000  1.0  -0.4876
  N  N194  1  0.179500  0.588400  0.806000  1.0  -0.4907
  N  N195  1  0.320500  0.588400  0.694000  1.0  -0.4887
  N  N196  1  0.179500  0.911600  0.694000  1.0  -0.4902
  N  N197  1  0.911600  0.694000  0.179500  1.0  -0.4908
  N  N198  1  0.588400  0.694000  0.320500  1.0  -0.4887
  N  N199  1  0.588400  0.806000  0.179500  1.0  -0.4889
  N  N200  1  0.911600  0.806000  0.320500  1.0  -0.4908
  N  N201  1  0.694000  0.320500  0.588400  1.0  -0.4898
  N  N202  1  0.694000  0.179500  0.911600  1.0  -0.4892
  N  N203  1  0.806000  0.320500  0.911600  1.0  -0.4894
  N  N204  1  0.806000  0.179500  0.588400  1.0  -0.489
  N  N205  1  0.588400  0.179500  0.806000  1.0  -0.4876
  N  N206  1  0.911600  0.320500  0.806000  1.0  -0.4899
  N  N207  1  0.911600  0.179500  0.694000  1.0  -0.4893
  N  N208  1  0.588400  0.320500  0.694000  1.0  -0.4881
  N  N209  1  0.806000  0.588400  0.179500  1.0  -0.4895
  N  N210  1  0.806000  0.911600  0.320500  1.0  -0.4886
  N  N211  1  0.694000  0.911600  0.179500  1.0  -0.4891
  N  N212  1  0.694000  0.588400  0.320500  1.0  -0.4898
  N  N213  1  0.179500  0.806000  0.588400  1.0  -0.4916
  N  N214  1  0.320500  0.806000  0.911600  1.0  -0.4889
  N  N215  1  0.179500  0.694000  0.911600  1.0  -0.4915
  N  N216  1  0.320500  0.694000  0.588400  1.0  -0.4888
  N  N217  1  0.679500  0.088400  0.194000  1.0  -0.4908
  N  N218  1  0.820500  0.411600  0.194000  1.0  -0.4876
  N  N219  1  0.679500  0.411600  0.306000  1.0  -0.4901
  N  N220  1  0.820500  0.088400  0.306000  1.0  -0.4887
  N  N221  1  0.088400  0.306000  0.820500  1.0  -0.4887
  N  N222  1  0.411600  0.306000  0.679500  1.0  -0.4905
  N  N223  1  0.411600  0.194000  0.820500  1.0  -0.4909
  N  N224  1  0.088400  0.194000  0.679500  1.0  -0.4889
  N  N225  1  0.306000  0.679500  0.411600  1.0  -0.4887
  N  N226  1  0.306000  0.820500  0.088400  1.0  -0.4894
  N  N227  1  0.194000  0.679500  0.088400  1.0  -0.4888
  N  N228  1  0.194000  0.820500  0.411600  1.0  -0.4896
  O  O229  1  0.395800  0.709200  0.104200  1.0  -0.6202
  O  O230  1  0.104200  0.790800  0.104200  1.0  -0.6212
  O  O231  1  0.104200  0.709200  0.395800  1.0  -0.6191
  O  O232  1  0.395800  0.790800  0.395800  1.0  -0.6203
  O  O233  1  0.104200  0.395800  0.709200  1.0  -0.6238
  O  O234  1  0.104200  0.104200  0.790800  1.0  -0.624
  O  O235  1  0.395800  0.104200  0.709200  1.0  -0.6237
  O  O236  1  0.395800  0.395800  0.790800  1.0  -0.6232
  O  O237  1  0.709200  0.104200  0.395800  1.0  -0.6228
  O  O238  1  0.790800  0.104200  0.104200  1.0  -0.6239
  O  O239  1  0.709200  0.395800  0.104200  1.0  -0.6232
  O  O240  1  0.790800  0.395800  0.395800  1.0  -0.6237
  O  O241  1  0.209200  0.895800  0.895800  1.0  -0.623
  O  O242  1  0.290800  0.604200  0.895800  1.0  -0.6236
  O  O243  1  0.209200  0.604200  0.604200  1.0  -0.6238
  O  O244  1  0.290800  0.895800  0.604200  1.0  -0.6236
  O  O245  1  0.895800  0.604200  0.290800  1.0  -0.6231
  O  O246  1  0.604200  0.604200  0.209200  1.0  -0.6241
  O  O247  1  0.604200  0.895800  0.290800  1.0  -0.6246
  O  O248  1  0.895800  0.895800  0.209200  1.0  -0.6233
  O  O249  1  0.604200  0.209200  0.604200  1.0  -0.6203
  O  O250  1  0.604200  0.290800  0.895800  1.0  -0.6212
  O  O251  1  0.895800  0.209200  0.895800  1.0  -0.6195
  O  O252  1  0.895800  0.290800  0.604200  1.0  -0.6208
