# generated using pymatgen
data_Zr3FeH24C48N4(ClO6)2
_symmetry_space_group_name_H-M   'P 1'
_cell_length_a   42.68000000
_cell_length_b   42.68000000
_cell_length_c   16.66000000
_cell_angle_alpha   90.00000000
_cell_angle_beta   90.00000000
_cell_angle_gamma   120.00000000
_symmetry_Int_Tables_number   1
_chemical_formula_structural   Zr3FeH24C48N4(ClO6)2
_chemical_formula_sum   'Zr18 Fe6 H144 C288 N24 Cl12 O72'
_cell_volume   26281.76031389
_cell_formula_units_Z   6
loop_
 _symmetry_equiv_pos_site_id
 _symmetry_equiv_pos_as_xyz
  1  'x, y, z'
loop_
 _atom_site_type_symbol
 _atom_site_label
 _atom_site_symmetry_multiplicity
 _atom_site_fract_x
 _atom_site_fract_y
 _atom_site_fract_z
 _atom_site_occupancy
 _atom_site_charge
  Zr  Zr1  1  0.000000  0.458780  0.605640  1.0  2.1365
  Zr  Zr2  1  0.541220  0.541220  0.605640  1.0  2.1353
  Zr  Zr3  1  0.458780  0.000000  0.605640  1.0  2.1361
  Zr  Zr4  1  0.000000  0.541220  0.605640  1.0  2.1368
  Zr  Zr5  1  0.458780  0.458780  0.605640  1.0  2.1335
  Zr  Zr6  1  0.541220  0.000000  0.605640  1.0  2.1355
  Zr  Zr7  1  0.458780  0.000000  0.394360  1.0  2.1342
  Zr  Zr8  1  0.541220  0.541220  0.394360  1.0  2.1349
  Zr  Zr9  1  0.000000  0.458780  0.394360  1.0  2.1352
  Zr  Zr10  1  0.541220  0.000000  0.394360  1.0  2.1345
  Zr  Zr11  1  0.458780  0.458780  0.394360  1.0  2.1351
  Zr  Zr12  1  0.000000  0.541220  0.394360  1.0  2.135
  Zr  Zr13  1  0.066480  0.533240  0.500000  1.0  2.1747
  Zr  Zr14  1  0.466760  0.533240  0.500000  1.0  2.1742
  Zr  Zr15  1  0.466760  0.933520  0.500000  1.0  2.179
  Zr  Zr16  1  0.933520  0.466760  0.500000  1.0  2.1755
  Zr  Zr17  1  0.533240  0.466760  0.500000  1.0  2.1758
  Zr  Zr18  1  0.533240  0.066480  0.500000  1.0  2.1746
  Fe  Fe19  1  0.247600  0.752400  0.000000  1.0  0.9105
  Fe  Fe20  1  0.247600  0.495200  0.000000  1.0  0.9114
  Fe  Fe21  1  0.504800  0.752400  0.000000  1.0  0.9113
  Fe  Fe22  1  0.752400  0.247600  0.000000  1.0  0.9111
  Fe  Fe23  1  0.752400  0.504800  0.000000  1.0  0.9118
  Fe  Fe24  1  0.495200  0.247600  0.000000  1.0  0.9102
  H  H25  1  0.131300  0.635300  0.927800  1.0  0.1262
  H  H26  1  0.212200  0.730400  0.702100  1.0  0.1302
  H  H27  1  0.155900  0.615700  0.654300  1.0  0.1152
  H  H28  1  0.198400  0.657900  0.738000  1.0  0.1428
  H  H29  1  0.081100  0.638100  0.729200  1.0  0.1353
  H  H30  1  0.124200  0.681500  0.820100  1.0  0.1379
  H  H31  1  0.364700  0.496000  0.927800  1.0  0.1259
  H  H32  1  0.269600  0.481800  0.702100  1.0  0.1307
  H  H33  1  0.384300  0.540200  0.654300  1.0  0.1148
  H  H34  1  0.342100  0.540500  0.738000  1.0  0.1407
  H  H35  1  0.361900  0.443000  0.729200  1.0  0.1346
  H  H36  1  0.318500  0.442700  0.820100  1.0  0.1368
  H  H37  1  0.504000  0.868700  0.927800  1.0  0.1257
  H  H38  1  0.518200  0.787800  0.702100  1.0  0.1294
  H  H39  1  0.459800  0.844100  0.654300  1.0  0.1145
  H  H40  1  0.459500  0.801600  0.738000  1.0  0.1415
  H  H41  1  0.557000  0.918900  0.729200  1.0  0.1349
  H  H42  1  0.557300  0.875800  0.820100  1.0  0.1377
  H  H43  1  0.868700  0.364700  0.927800  1.0  0.1262
  H  H44  1  0.787800  0.269600  0.702100  1.0  0.131
  H  H45  1  0.844100  0.384300  0.654300  1.0  0.1148
  H  H46  1  0.801600  0.342100  0.738000  1.0  0.1438
  H  H47  1  0.918900  0.361900  0.729200  1.0  0.1346
  H  H48  1  0.875800  0.318500  0.820100  1.0  0.1376
  H  H49  1  0.635300  0.504000  0.927800  1.0  0.1264
  H  H50  1  0.730400  0.518200  0.702100  1.0  0.1304
  H  H51  1  0.615700  0.459800  0.654300  1.0  0.1148
  H  H52  1  0.657900  0.459500  0.738000  1.0  0.1409
  H  H53  1  0.638100  0.557000  0.729200  1.0  0.1346
  H  H54  1  0.681500  0.557300  0.820100  1.0  0.1375
  H  H55  1  0.496000  0.131300  0.927800  1.0  0.1256
  H  H56  1  0.481800  0.212200  0.702100  1.0  0.13
  H  H57  1  0.540200  0.155900  0.654300  1.0  0.1146
  H  H58  1  0.540500  0.198400  0.738000  1.0  0.1413
  H  H59  1  0.443000  0.081100  0.729200  1.0  0.1351
  H  H60  1  0.442700  0.124200  0.820100  1.0  0.1377
  H  H61  1  0.635300  0.131300  0.072200  1.0  0.1261
  H  H62  1  0.730400  0.212200  0.297900  1.0  0.1285
  H  H63  1  0.615700  0.155900  0.345700  1.0  0.1144
  H  H64  1  0.657900  0.198400  0.262000  1.0  0.1419
  H  H65  1  0.638100  0.081100  0.270800  1.0  0.1348
  H  H66  1  0.681500  0.124200  0.179900  1.0  0.1384
  H  H67  1  0.496000  0.364700  0.072200  1.0  0.1258
  H  H68  1  0.481800  0.269600  0.297900  1.0  0.1302
  H  H69  1  0.540200  0.384300  0.345700  1.0  0.1148
  H  H70  1  0.540500  0.342100  0.262000  1.0  0.1426
  H  H71  1  0.443000  0.361900  0.270800  1.0  0.1351
  H  H72  1  0.442700  0.318500  0.179900  1.0  0.1385
  H  H73  1  0.868700  0.504000  0.072200  1.0  0.1261
  H  H74  1  0.787800  0.518200  0.297900  1.0  0.1294
  H  H75  1  0.844100  0.459800  0.345700  1.0  0.1146
  H  H76  1  0.801600  0.459500  0.262000  1.0  0.141
  H  H77  1  0.918900  0.557000  0.270800  1.0  0.1344
  H  H78  1  0.875800  0.557300  0.179900  1.0  0.1384
  H  H79  1  0.364700  0.868700  0.072200  1.0  0.1258
  H  H80  1  0.269600  0.787800  0.297900  1.0  0.1291
  H  H81  1  0.384300  0.844100  0.345700  1.0  0.1149
  H  H82  1  0.342100  0.801600  0.262000  1.0  0.1418
  H  H83  1  0.361900  0.918900  0.270800  1.0  0.1346
  H  H84  1  0.318500  0.875800  0.179900  1.0  0.1391
  H  H85  1  0.504000  0.635300  0.072200  1.0  0.126
  H  H86  1  0.518200  0.730400  0.297900  1.0  0.1294
  H  H87  1  0.459800  0.615700  0.345700  1.0  0.1148
  H  H88  1  0.459500  0.657900  0.262000  1.0  0.1443
  H  H89  1  0.557000  0.638100  0.270800  1.0  0.1346
  H  H90  1  0.557300  0.681500  0.179900  1.0  0.139
  H  H91  1  0.131300  0.496000  0.072200  1.0  0.1263
  H  H92  1  0.212200  0.481800  0.297900  1.0  0.1295
  H  H93  1  0.155900  0.540200  0.345700  1.0  0.1145
  H  H94  1  0.198400  0.540500  0.262000  1.0  0.1405
  H  H95  1  0.081100  0.443000  0.270800  1.0  0.1346
  H  H96  1  0.124200  0.442700  0.179900  1.0  0.1379
  H  H97  1  0.868700  0.364700  0.072200  1.0  0.1264
  H  H98  1  0.787800  0.269600  0.297900  1.0  0.1298
  H  H99  1  0.844100  0.384300  0.345700  1.0  0.1148
  H  H100  1  0.801600  0.342100  0.262000  1.0  0.144
  H  H101  1  0.918900  0.361900  0.270800  1.0  0.1344
  H  H102  1  0.875800  0.318500  0.179900  1.0  0.1385
  H  H103  1  0.635300  0.504000  0.072200  1.0  0.126
  H  H104  1  0.730400  0.518200  0.297900  1.0  0.1293
  H  H105  1  0.615700  0.459800  0.345700  1.0  0.1148
  H  H106  1  0.657900  0.459500  0.262000  1.0  0.1412
  H  H107  1  0.638100  0.557000  0.270800  1.0  0.1346
  H  H108  1  0.681500  0.557300  0.179900  1.0  0.1388
  H  H109  1  0.496000  0.131300  0.072200  1.0  0.1255
  H  H110  1  0.481800  0.212200  0.297900  1.0  0.1292
  H  H111  1  0.540200  0.155900  0.345700  1.0  0.1146
  H  H112  1  0.540500  0.198400  0.262000  1.0  0.1412
  H  H113  1  0.443000  0.081100  0.270800  1.0  0.1348
  H  H114  1  0.442700  0.124200  0.179900  1.0  0.1384
  H  H115  1  0.131300  0.635300  0.072200  1.0  0.1264
  H  H116  1  0.212200  0.730400  0.297900  1.0  0.1299
  H  H117  1  0.155900  0.615700  0.345700  1.0  0.1149
  H  H118  1  0.198400  0.657900  0.262000  1.0  0.1428
  H  H119  1  0.081100  0.638100  0.270800  1.0  0.1353
  H  H120  1  0.124200  0.681500  0.179900  1.0  0.139
  H  H121  1  0.364700  0.496000  0.072200  1.0  0.1258
  H  H122  1  0.269600  0.481800  0.297900  1.0  0.13
  H  H123  1  0.384300  0.540200  0.345700  1.0  0.1144
  H  H124  1  0.342100  0.540500  0.262000  1.0  0.1409
  H  H125  1  0.361900  0.443000  0.270800  1.0  0.1344
  H  H126  1  0.318500  0.442700  0.179900  1.0  0.1376
  H  H127  1  0.504000  0.868700  0.072200  1.0  0.1257
  H  H128  1  0.518200  0.787800  0.297900  1.0  0.1285
  H  H129  1  0.459800  0.844100  0.345700  1.0  0.1146
  H  H130  1  0.459500  0.801600  0.262000  1.0  0.1418
  H  H131  1  0.557000  0.918900  0.270800  1.0  0.1347
  H  H132  1  0.557300  0.875800  0.179900  1.0  0.1388
  H  H133  1  0.364700  0.868700  0.927800  1.0  0.1256
  H  H134  1  0.269600  0.787800  0.702100  1.0  0.1297
  H  H135  1  0.384300  0.844100  0.654300  1.0  0.1147
  H  H136  1  0.342100  0.801600  0.738000  1.0  0.1417
  H  H137  1  0.361900  0.918900  0.729200  1.0  0.1346
  H  H138  1  0.318500  0.875800  0.820100  1.0  0.1378
  H  H139  1  0.504000  0.635300  0.927800  1.0  0.126
  H  H140  1  0.518200  0.730400  0.702100  1.0  0.1305
  H  H141  1  0.459800  0.615700  0.654300  1.0  0.1148
  H  H142  1  0.459500  0.657900  0.738000  1.0  0.1442
  H  H143  1  0.557000  0.638100  0.729200  1.0  0.1347
  H  H144  1  0.557300  0.681500  0.820100  1.0  0.1377
  H  H145  1  0.131300  0.496000  0.927800  1.0  0.1265
  H  H146  1  0.212200  0.481800  0.702100  1.0  0.1301
  H  H147  1  0.155900  0.540200  0.654300  1.0  0.1149
  H  H148  1  0.198400  0.540500  0.738000  1.0  0.1405
  H  H149  1  0.081100  0.443000  0.729200  1.0  0.1347
  H  H150  1  0.124200  0.442700  0.820100  1.0  0.1373
  H  H151  1  0.635300  0.131300  0.927800  1.0  0.1259
  H  H152  1  0.730400  0.212200  0.702100  1.0  0.1299
  H  H153  1  0.615700  0.155900  0.654300  1.0  0.1145
  H  H154  1  0.657900  0.198400  0.738000  1.0  0.1416
  H  H155  1  0.638100  0.081100  0.729200  1.0  0.1351
  H  H156  1  0.681500  0.124200  0.820100  1.0  0.1377
  H  H157  1  0.496000  0.364700  0.927800  1.0  0.1261
  H  H158  1  0.481800  0.269600  0.702100  1.0  0.1307
  H  H159  1  0.540200  0.384300  0.654300  1.0  0.1151
  H  H160  1  0.540500  0.342100  0.738000  1.0  0.1425
  H  H161  1  0.443000  0.361900  0.729200  1.0  0.1351
  H  H162  1  0.442700  0.318500  0.820100  1.0  0.1379
  H  H163  1  0.868700  0.504000  0.927800  1.0  0.1259
  H  H164  1  0.787800  0.518200  0.702100  1.0  0.1306
  H  H165  1  0.844100  0.459800  0.654300  1.0  0.1147
  H  H166  1  0.801600  0.459500  0.738000  1.0  0.1407
  H  H167  1  0.918900  0.557000  0.729200  1.0  0.1345
  H  H168  1  0.875800  0.557300  0.820100  1.0  0.137
  C  C169  1  0.148800  0.653100  0.960900  1.0  -0.1456
  C  C170  1  0.226400  0.742000  0.746600  1.0  -0.1487
  C  C171  1  0.218990  0.729690  0.828700  1.0  0.1333
  C  C172  1  0.086250  0.593250  0.632900  1.0  0.7513
  C  C173  1  0.149440  0.628840  0.688100  1.0  -0.0249
  C  C174  1  0.114700  0.622800  0.685200  1.0  -0.0989
  C  C175  1  0.164900  0.671500  0.790900  1.0  0.1055
  C  C176  1  0.174770  0.653470  0.738900  1.0  -0.1709
  C  C177  1  0.104400  0.641700  0.732400  1.0  -0.0565
  C  C178  1  0.181200  0.685900  0.934700  1.0  0.2356
  C  C179  1  0.189900  0.696100  0.855500  1.0  -0.0589
  C  C180  1  0.130300  0.667700  0.787500  1.0  -0.1106
  C  C181  1  0.346900  0.495700  0.960900  1.0  -0.1425
  C  C182  1  0.258000  0.484400  0.746600  1.0  -0.1478
  C  C183  1  0.270310  0.489300  0.828700  1.0  0.1329
  C  C184  1  0.406750  0.493000  0.632900  1.0  0.7481
  C  C185  1  0.371160  0.520600  0.688100  1.0  -0.0257
  C  C186  1  0.377200  0.491900  0.685200  1.0  -0.0972
  C  C187  1  0.328500  0.493400  0.790900  1.0  0.1054
  C  C188  1  0.346530  0.521300  0.738900  1.0  -0.1701
  C  C189  1  0.358300  0.462700  0.732400  1.0  -0.0604
  C  C190  1  0.314100  0.495300  0.934700  1.0  0.2343
  C  C191  1  0.303900  0.493800  0.855500  1.0  -0.0584
  C  C192  1  0.332300  0.462600  0.787500  1.0  -0.1071
  C  C193  1  0.504300  0.851200  0.960900  1.0  -0.1447
  C  C194  1  0.515600  0.773600  0.746600  1.0  -0.1489
  C  C195  1  0.510700  0.781010  0.828700  1.0  0.1334
  C  C196  1  0.507000  0.913750  0.632900  1.0  0.7515
  C  C197  1  0.479400  0.850560  0.688100  1.0  -0.0247
  C  C198  1  0.508100  0.885300  0.685200  1.0  -0.0971
  C  C199  1  0.506600  0.835100  0.790900  1.0  0.1063
  C  C200  1  0.478700  0.825230  0.738900  1.0  -0.1725
  C  C201  1  0.537300  0.895600  0.732400  1.0  -0.0596
  C  C202  1  0.504700  0.818800  0.934700  1.0  0.235
  C  C203  1  0.506200  0.810100  0.855500  1.0  -0.0587
  C  C204  1  0.537400  0.869700  0.787500  1.0  -0.1109
  C  C205  1  0.851200  0.346900  0.960900  1.0  -0.1449
  C  C206  1  0.773600  0.258000  0.746600  1.0  -0.15
  C  C207  1  0.781010  0.270310  0.828700  1.0  0.1337
  C  C208  1  0.913750  0.406750  0.632900  1.0  0.7509
  C  C209  1  0.850560  0.371160  0.688100  1.0  -0.0246
  C  C210  1  0.885300  0.377200  0.685200  1.0  -0.0978
  C  C211  1  0.835100  0.328500  0.790900  1.0  0.1062
  C  C212  1  0.825230  0.346530  0.738900  1.0  -0.1748
  C  C213  1  0.895600  0.358300  0.732400  1.0  -0.0571
  C  C214  1  0.818800  0.314100  0.934700  1.0  0.2347
  C  C215  1  0.810100  0.303900  0.855500  1.0  -0.0585
  C  C216  1  0.869700  0.332300  0.787500  1.0  -0.1064
  C  C217  1  0.653100  0.504300  0.960900  1.0  -0.143
  C  C218  1  0.742000  0.515600  0.746600  1.0  -0.1481
  C  C219  1  0.729690  0.510700  0.828700  1.0  0.1333
  C  C220  1  0.593250  0.507000  0.632900  1.0  0.7488
  C  C221  1  0.628840  0.479400  0.688100  1.0  -0.0285
  C  C222  1  0.622800  0.508100  0.685200  1.0  -0.0973
  C  C223  1  0.671500  0.506600  0.790900  1.0  0.1058
  C  C224  1  0.653470  0.478700  0.738900  1.0  -0.1712
  C  C225  1  0.641700  0.537300  0.732400  1.0  -0.059
  C  C226  1  0.685900  0.504700  0.934700  1.0  0.2356
  C  C227  1  0.696100  0.506200  0.855500  1.0  -0.0587
  C  C228  1  0.667700  0.537400  0.787500  1.0  -0.1062
  C  C229  1  0.495700  0.148800  0.960900  1.0  -0.1432
  C  C230  1  0.484400  0.226400  0.746600  1.0  -0.1477
  C  C231  1  0.489300  0.218990  0.828700  1.0  0.1333
  C  C232  1  0.493000  0.086250  0.632900  1.0  0.7515
  C  C233  1  0.520600  0.149440  0.688100  1.0  -0.0254
  C  C234  1  0.491900  0.114700  0.685200  1.0  -0.098
  C  C235  1  0.493400  0.164900  0.790900  1.0  0.106
  C  C236  1  0.521300  0.174770  0.738900  1.0  -0.1708
  C  C237  1  0.462700  0.104400  0.732400  1.0  -0.0594
  C  C238  1  0.495300  0.181200  0.934700  1.0  0.2341
  C  C239  1  0.493800  0.189900  0.855500  1.0  -0.0581
  C  C240  1  0.462600  0.130300  0.787500  1.0  -0.1134
  C  C241  1  0.653100  0.148800  0.039100  1.0  -0.1429
  C  C242  1  0.742000  0.226400  0.253400  1.0  -0.1508
  C  C243  1  0.729690  0.218990  0.171300  1.0  0.1345
  C  C244  1  0.593250  0.086250  0.367100  1.0  0.7525
  C  C245  1  0.628840  0.149440  0.311900  1.0  -0.026
  C  C246  1  0.622800  0.114700  0.314800  1.0  -0.0971
  C  C247  1  0.671500  0.164900  0.209100  1.0  0.1063
  C  C248  1  0.653470  0.174770  0.261100  1.0  -0.1721
  C  C249  1  0.641700  0.104400  0.267600  1.0  -0.0596
  C  C250  1  0.685900  0.181200  0.065300  1.0  0.2358
  C  C251  1  0.696100  0.189900  0.144500  1.0  -0.0586
  C  C252  1  0.667700  0.130300  0.212500  1.0  -0.1101
  C  C253  1  0.495700  0.346900  0.039100  1.0  -0.1452
  C  C254  1  0.484400  0.258000  0.253400  1.0  -0.1511
  C  C255  1  0.489300  0.270310  0.171300  1.0  0.1347
  C  C256  1  0.493000  0.406750  0.367100  1.0  0.7515
  C  C257  1  0.520600  0.371160  0.311900  1.0  -0.0254
  C  C258  1  0.491900  0.377200  0.314800  1.0  -0.0977
  C  C259  1  0.493400  0.328500  0.209100  1.0  0.1059
  C  C260  1  0.521300  0.346530  0.261100  1.0  -0.1715
  C  C261  1  0.462700  0.358300  0.267600  1.0  -0.0572
  C  C262  1  0.495300  0.314100  0.065300  1.0  0.2356
  C  C263  1  0.493800  0.303900  0.144500  1.0  -0.0594
  C  C264  1  0.462600  0.332300  0.212500  1.0  -0.1098
  C  C265  1  0.851200  0.504300  0.039100  1.0  -0.1425
  C  C266  1  0.773600  0.515600  0.253400  1.0  -0.1494
  C  C267  1  0.781010  0.510700  0.171300  1.0  0.1339
  C  C268  1  0.913750  0.507000  0.367100  1.0  0.7484
  C  C269  1  0.850560  0.479400  0.311900  1.0  -0.028
  C  C270  1  0.885300  0.508100  0.314800  1.0  -0.098
  C  C271  1  0.835100  0.506600  0.209100  1.0  0.1059
  C  C272  1  0.825230  0.478700  0.261100  1.0  -0.1706
  C  C273  1  0.895600  0.537300  0.267600  1.0  -0.0589
  C  C274  1  0.818800  0.504700  0.065300  1.0  0.2348
  C  C275  1  0.810100  0.506200  0.144500  1.0  -0.0589
  C  C276  1  0.869700  0.537400  0.212500  1.0  -0.1064
  C  C277  1  0.346900  0.851200  0.039100  1.0  -0.1443
  C  C278  1  0.258000  0.773600  0.253400  1.0  -0.1497
  C  C279  1  0.270310  0.781010  0.171300  1.0  0.1343
  C  C280  1  0.406750  0.913750  0.367100  1.0  0.752
  C  C281  1  0.371160  0.850560  0.311900  1.0  -0.0255
  C  C282  1  0.377200  0.885300  0.314800  1.0  -0.098
  C  C283  1  0.328500  0.835100  0.209100  1.0  0.1066
  C  C284  1  0.346530  0.825230  0.261100  1.0  -0.171
  C  C285  1  0.358300  0.895600  0.267600  1.0  -0.058
  C  C286  1  0.314100  0.818800  0.065300  1.0  0.2343
  C  C287  1  0.303900  0.810100  0.144500  1.0  -0.0589
  C  C288  1  0.332300  0.869700  0.212500  1.0  -0.1143
  C  C289  1  0.504300  0.653100  0.039100  1.0  -0.1443
  C  C290  1  0.515600  0.742000  0.253400  1.0  -0.1506
  C  C291  1  0.510700  0.729690  0.171300  1.0  0.1341
  C  C292  1  0.507000  0.593250  0.367100  1.0  0.7516
  C  C293  1  0.479400  0.628840  0.311900  1.0  -0.0252
  C  C294  1  0.508100  0.622800  0.314800  1.0  -0.0981
  C  C295  1  0.506600  0.671500  0.209100  1.0  0.1061
  C  C296  1  0.478700  0.653470  0.261100  1.0  -0.1748
  C  C297  1  0.537300  0.641700  0.267600  1.0  -0.0562
  C  C298  1  0.504700  0.685900  0.065300  1.0  0.2359
  C  C299  1  0.506200  0.696100  0.144500  1.0  -0.0588
  C  C300  1  0.537400  0.667700  0.212500  1.0  -0.1076
  C  C301  1  0.148800  0.495700  0.039100  1.0  -0.1431
  C  C302  1  0.226400  0.484400  0.253400  1.0  -0.1494
  C  C303  1  0.218990  0.489300  0.171300  1.0  0.1339
  C  C304  1  0.086250  0.493000  0.367100  1.0  0.7491
  C  C305  1  0.149440  0.520600  0.311900  1.0  -0.027
  C  C306  1  0.114700  0.491900  0.314800  1.0  -0.0973
  C  C307  1  0.164900  0.493400  0.209100  1.0  0.106
  C  C308  1  0.174770  0.521300  0.261100  1.0  -0.1701
  C  C309  1  0.104400  0.462700  0.267600  1.0  -0.0583
  C  C310  1  0.181200  0.495300  0.065300  1.0  0.2362
  C  C311  1  0.189900  0.493800  0.144500  1.0  -0.0589
  C  C312  1  0.130300  0.462600  0.212500  1.0  -0.1065
  C  C313  1  0.851200  0.346900  0.039100  1.0  -0.1446
  C  C314  1  0.773600  0.258000  0.253400  1.0  -0.1507
  C  C315  1  0.781010  0.270310  0.171300  1.0  0.1345
  C  C316  1  0.913750  0.406750  0.367100  1.0  0.7515
  C  C317  1  0.850560  0.371160  0.311900  1.0  -0.0255
  C  C318  1  0.885300  0.377200  0.314800  1.0  -0.0985
  C  C319  1  0.835100  0.328500  0.209100  1.0  0.1063
  C  C320  1  0.825230  0.346530  0.261100  1.0  -0.1754
  C  C321  1  0.895600  0.358300  0.267600  1.0  -0.0568
  C  C322  1  0.818800  0.314100  0.065300  1.0  0.2361
  C  C323  1  0.810100  0.303900  0.144500  1.0  -0.0589
  C  C324  1  0.869700  0.332300  0.212500  1.0  -0.1077
  C  C325  1  0.653100  0.504300  0.039100  1.0  -0.1431
  C  C326  1  0.742000  0.515600  0.253400  1.0  -0.15
  C  C327  1  0.729690  0.510700  0.171300  1.0  0.1344
  C  C328  1  0.593250  0.507000  0.367100  1.0  0.7492
  C  C329  1  0.628840  0.479400  0.311900  1.0  -0.0283
  C  C330  1  0.622800  0.508100  0.314800  1.0  -0.0976
  C  C331  1  0.671500  0.506600  0.209100  1.0  0.106
  C  C332  1  0.653470  0.478700  0.261100  1.0  -0.171
  C  C333  1  0.641700  0.537300  0.267600  1.0  -0.0589
  C  C334  1  0.685900  0.504700  0.065300  1.0  0.2368
  C  C335  1  0.696100  0.506200  0.144500  1.0  -0.0592
  C  C336  1  0.667700  0.537400  0.212500  1.0  -0.1061
  C  C337  1  0.495700  0.148800  0.039100  1.0  -0.1426
  C  C338  1  0.484400  0.226400  0.253400  1.0  -0.1489
  C  C339  1  0.489300  0.218990  0.171300  1.0  0.1343
  C  C340  1  0.493000  0.086250  0.367100  1.0  0.7521
  C  C341  1  0.520600  0.149440  0.311900  1.0  -0.026
  C  C342  1  0.491900  0.114700  0.314800  1.0  -0.0977
  C  C343  1  0.493400  0.164900  0.209100  1.0  0.1063
  C  C344  1  0.521300  0.174770  0.261100  1.0  -0.1711
  C  C345  1  0.462700  0.104400  0.267600  1.0  -0.0594
  C  C346  1  0.495300  0.181200  0.065300  1.0  0.2352
  C  C347  1  0.493800  0.189900  0.144500  1.0  -0.0584
  C  C348  1  0.462600  0.130300  0.212500  1.0  -0.1131
  C  C349  1  0.148800  0.653100  0.039100  1.0  -0.1448
  C  C350  1  0.226400  0.742000  0.253400  1.0  -0.1509
  C  C351  1  0.218990  0.729690  0.171300  1.0  0.1344
  C  C352  1  0.086250  0.593250  0.367100  1.0  0.7516
  C  C353  1  0.149440  0.628840  0.311900  1.0  -0.0252
  C  C354  1  0.114700  0.622800  0.314800  1.0  -0.0978
  C  C355  1  0.164900  0.671500  0.209100  1.0  0.1057
  C  C356  1  0.174770  0.653470  0.261100  1.0  -0.1711
  C  C357  1  0.104400  0.641700  0.267600  1.0  -0.0567
  C  C358  1  0.181200  0.685900  0.065300  1.0  0.2369
  C  C359  1  0.189900  0.696100  0.144500  1.0  -0.0594
  C  C360  1  0.130300  0.667700  0.212500  1.0  -0.11
  C  C361  1  0.346900  0.495700  0.039100  1.0  -0.142
  C  C362  1  0.258000  0.484400  0.253400  1.0  -0.1487
  C  C363  1  0.270310  0.489300  0.171300  1.0  0.1336
  C  C364  1  0.406750  0.493000  0.367100  1.0  0.7484
  C  C365  1  0.371160  0.520600  0.311900  1.0  -0.0271
  C  C366  1  0.377200  0.491900  0.314800  1.0  -0.0975
  C  C367  1  0.328500  0.493400  0.209100  1.0  0.106
  C  C368  1  0.346530  0.521300  0.261100  1.0  -0.1709
  C  C369  1  0.358300  0.462700  0.267600  1.0  -0.0606
  C  C370  1  0.314100  0.495300  0.065300  1.0  0.2356
  C  C371  1  0.303900  0.493800  0.144500  1.0  -0.0585
  C  C372  1  0.332300  0.462600  0.212500  1.0  -0.1069
  C  C373  1  0.504300  0.851200  0.039100  1.0  -0.1446
  C  C374  1  0.515600  0.773600  0.253400  1.0  -0.1515
  C  C375  1  0.510700  0.781010  0.171300  1.0  0.1346
  C  C376  1  0.507000  0.913750  0.367100  1.0  0.7521
  C  C377  1  0.479400  0.850560  0.311900  1.0  -0.0252
  C  C378  1  0.508100  0.885300  0.314800  1.0  -0.0977
  C  C379  1  0.506600  0.835100  0.209100  1.0  0.1065
  C  C380  1  0.478700  0.825230  0.261100  1.0  -0.1726
  C  C381  1  0.537300  0.895600  0.267600  1.0  -0.0595
  C  C382  1  0.504700  0.818800  0.065300  1.0  0.2364
  C  C383  1  0.506200  0.810100  0.144500  1.0  -0.0592
  C  C384  1  0.537400  0.869700  0.212500  1.0  -0.1113
  C  C385  1  0.346900  0.851200  0.960900  1.0  -0.1447
  C  C386  1  0.258000  0.773600  0.746600  1.0  -0.1481
  C  C387  1  0.270310  0.781010  0.828700  1.0  0.1332
  C  C388  1  0.406750  0.913750  0.632900  1.0  0.7516
  C  C389  1  0.371160  0.850560  0.688100  1.0  -0.0255
  C  C390  1  0.377200  0.885300  0.685200  1.0  -0.0973
  C  C391  1  0.328500  0.835100  0.790900  1.0  0.1064
  C  C392  1  0.346530  0.825230  0.738900  1.0  -0.1712
  C  C393  1  0.358300  0.895600  0.732400  1.0  -0.058
  C  C394  1  0.314100  0.818800  0.934700  1.0  0.2346
  C  C395  1  0.303900  0.810100  0.855500  1.0  -0.0585
  C  C396  1  0.332300  0.869700  0.787500  1.0  -0.1149
  C  C397  1  0.504300  0.653100  0.960900  1.0  -0.1453
  C  C398  1  0.515600  0.742000  0.746600  1.0  -0.1498
  C  C399  1  0.510700  0.729690  0.828700  1.0  0.1331
  C  C400  1  0.507000  0.593250  0.632900  1.0  0.751
  C  C401  1  0.479400  0.628840  0.688100  1.0  -0.0243
  C  C402  1  0.508100  0.622800  0.685200  1.0  -0.0982
  C  C403  1  0.506600  0.671500  0.790900  1.0  0.106
  C  C404  1  0.478700  0.653470  0.738900  1.0  -0.1743
  C  C405  1  0.537300  0.641700  0.732400  1.0  -0.0564
  C  C406  1  0.504700  0.685900  0.934700  1.0  0.236
  C  C407  1  0.506200  0.696100  0.855500  1.0  -0.0584
  C  C408  1  0.537400  0.667700  0.787500  1.0  -0.107
  C  C409  1  0.148800  0.495700  0.960900  1.0  -0.1429
  C  C410  1  0.226400  0.484400  0.746600  1.0  -0.1477
  C  C411  1  0.218990  0.489300  0.828700  1.0  0.1332
  C  C412  1  0.086250  0.493000  0.632900  1.0  0.7487
  C  C413  1  0.149440  0.520600  0.688100  1.0  -0.0259
  C  C414  1  0.114700  0.491900  0.685200  1.0  -0.0973
  C  C415  1  0.164900  0.493400  0.790900  1.0  0.1058
  C  C416  1  0.174770  0.521300  0.738900  1.0  -0.1695
  C  C417  1  0.104400  0.462700  0.732400  1.0  -0.0581
  C  C418  1  0.181200  0.495300  0.934700  1.0  0.2364
  C  C419  1  0.189900  0.493800  0.855500  1.0  -0.0587
  C  C420  1  0.130300  0.462600  0.787500  1.0  -0.1066
  C  C421  1  0.653100  0.148800  0.960900  1.0  -0.1434
  C  C422  1  0.742000  0.226400  0.746600  1.0  -0.1484
  C  C423  1  0.729690  0.218990  0.828700  1.0  0.1335
  C  C424  1  0.593250  0.086250  0.632900  1.0  0.7518
  C  C425  1  0.628840  0.149440  0.688100  1.0  -0.0249
  C  C426  1  0.622800  0.114700  0.685200  1.0  -0.0976
  C  C427  1  0.671500  0.164900  0.790900  1.0  0.1061
  C  C428  1  0.653470  0.174770  0.738900  1.0  -0.1716
  C  C429  1  0.641700  0.104400  0.732400  1.0  -0.0596
  C  C430  1  0.685900  0.181200  0.934700  1.0  0.2359
  C  C431  1  0.696100  0.189900  0.855500  1.0  -0.0583
  C  C432  1  0.667700  0.130300  0.787500  1.0  -0.109
  C  C433  1  0.495700  0.346900  0.960900  1.0  -0.1455
  C  C434  1  0.484400  0.258000  0.746600  1.0  -0.1488
  C  C435  1  0.489300  0.270310  0.828700  1.0  0.134
  C  C436  1  0.493000  0.406750  0.632900  1.0  0.7513
  C  C437  1  0.520600  0.371160  0.688100  1.0  -0.0251
  C  C438  1  0.491900  0.377200  0.685200  1.0  -0.098
  C  C439  1  0.493400  0.328500  0.790900  1.0  0.1057
  C  C440  1  0.521300  0.346530  0.738900  1.0  -0.1713
  C  C441  1  0.462700  0.358300  0.732400  1.0  -0.057
  C  C442  1  0.495300  0.314100  0.934700  1.0  0.2358
  C  C443  1  0.493800  0.303900  0.855500  1.0  -0.059
  C  C444  1  0.462600  0.332300  0.787500  1.0  -0.1101
  C  C445  1  0.851200  0.504300  0.960900  1.0  -0.143
  C  C446  1  0.773600  0.515600  0.746600  1.0  -0.1484
  C  C447  1  0.781010  0.510700  0.828700  1.0  0.133
  C  C448  1  0.913750  0.507000  0.632900  1.0  0.7482
  C  C449  1  0.850560  0.479400  0.688100  1.0  -0.0279
  C  C450  1  0.885300  0.508100  0.685200  1.0  -0.0975
  C  C451  1  0.835100  0.506600  0.790900  1.0  0.1053
  C  C452  1  0.825230  0.478700  0.738900  1.0  -0.1705
  C  C453  1  0.895600  0.537300  0.732400  1.0  -0.0589
  C  C454  1  0.818800  0.504700  0.934700  1.0  0.2349
  C  C455  1  0.810100  0.506200  0.855500  1.0  -0.0585
  C  C456  1  0.869700  0.537400  0.787500  1.0  -0.1064
  N  N457  1  0.246550  0.753450  0.878800  1.0  -0.3898
  N  N458  1  0.246550  0.493100  0.878800  1.0  -0.3892
  N  N459  1  0.506900  0.753450  0.878800  1.0  -0.39
  N  N460  1  0.753450  0.246550  0.878800  1.0  -0.3899
  N  N461  1  0.753450  0.506900  0.878800  1.0  -0.39
  N  N462  1  0.493100  0.246550  0.878800  1.0  -0.3897
  N  N463  1  0.753450  0.246550  0.121200  1.0  -0.3924
  N  N464  1  0.493100  0.246550  0.121200  1.0  -0.3921
  N  N465  1  0.753450  0.506900  0.121200  1.0  -0.3922
  N  N466  1  0.246550  0.753450  0.121200  1.0  -0.3923
  N  N467  1  0.506900  0.753450  0.121200  1.0  -0.3926
  N  N468  1  0.246550  0.493100  0.121200  1.0  -0.3918
  N  N469  1  0.199700  0.706200  0.000000  1.0  -0.4057
  N  N470  1  0.293800  0.493500  0.000000  1.0  -0.4091
  N  N471  1  0.506500  0.800300  0.000000  1.0  -0.4073
  N  N472  1  0.800300  0.293800  0.000000  1.0  -0.4066
  N  N473  1  0.706200  0.506500  0.000000  1.0  -0.4099
  N  N474  1  0.493500  0.199700  0.000000  1.0  -0.4062
  N  N475  1  0.706200  0.199700  0.000000  1.0  -0.4067
  N  N476  1  0.493500  0.293800  0.000000  1.0  -0.4065
  N  N477  1  0.800300  0.506500  0.000000  1.0  -0.4092
  N  N478  1  0.293800  0.800300  0.000000  1.0  -0.4071
  N  N479  1  0.506500  0.706200  0.000000  1.0  -0.4061
  N  N480  1  0.199700  0.493500  0.000000  1.0  -0.4098
  Cl  Cl481  1  0.277400  0.722600  0.000000  1.0  -0.4393
  Cl  Cl482  1  0.277400  0.554800  0.000000  1.0  -0.4393
  Cl  Cl483  1  0.445200  0.722600  0.000000  1.0  -0.4412
  Cl  Cl484  1  0.722600  0.277400  0.000000  1.0  -0.4418
  Cl  Cl485  1  0.722600  0.445200  0.000000  1.0  -0.4357
  Cl  Cl486  1  0.554800  0.277400  0.000000  1.0  -0.4402
  Cl  Cl487  1  0.785200  0.570400  0.000000  1.0  -0.4163
  Cl  Cl488  1  0.429600  0.214800  0.000000  1.0  -0.4192
  Cl  Cl489  1  0.785200  0.214800  0.000000  1.0  -0.4185
  Cl  Cl490  1  0.214800  0.429600  0.000000  1.0  -0.4163
  Cl  Cl491  1  0.570400  0.785200  0.000000  1.0  -0.4183
  Cl  Cl492  1  0.214800  0.785200  0.000000  1.0  -0.4188
  O  O493  1  0.053920  0.585100  0.647200  1.0  -0.6604
  O  O494  1  0.097190  0.579460  0.580600  1.0  -0.5909
  O  O495  1  0.414900  0.468820  0.647200  1.0  -0.6624
  O  O496  1  0.420540  0.517730  0.580600  1.0  -0.5929
  O  O497  1  0.531180  0.946080  0.647200  1.0  -0.6644
  O  O498  1  0.482270  0.902810  0.580600  1.0  -0.5909
  O  O499  1  0.946080  0.414900  0.647200  1.0  -0.6626
  O  O500  1  0.902810  0.420540  0.580600  1.0  -0.5905
  O  O501  1  0.585100  0.531180  0.647200  1.0  -0.6615
  O  O502  1  0.579460  0.482270  0.580600  1.0  -0.5925
  O  O503  1  0.468820  0.053920  0.647200  1.0  -0.6654
  O  O504  1  0.517730  0.097190  0.580600  1.0  -0.5926
  O  O505  1  0.585100  0.053920  0.352800  1.0  -0.661
  O  O506  1  0.579460  0.097190  0.419400  1.0  -0.5929
  O  O507  1  0.468820  0.414900  0.352800  1.0  -0.6593
  O  O508  1  0.517730  0.420540  0.419400  1.0  -0.5922
  O  O509  1  0.946080  0.531180  0.352800  1.0  -0.6616
  O  O510  1  0.902810  0.482270  0.419400  1.0  -0.5937
  O  O511  1  0.414900  0.946080  0.352800  1.0  -0.6619
  O  O512  1  0.420540  0.902810  0.419400  1.0  -0.5936
  O  O513  1  0.531180  0.585100  0.352800  1.0  -0.6631
  O  O514  1  0.482270  0.579460  0.419400  1.0  -0.5916
  O  O515  1  0.053920  0.468820  0.352800  1.0  -0.6614
  O  O516  1  0.097190  0.517730  0.419400  1.0  -0.594
  O  O517  1  0.946080  0.414900  0.352800  1.0  -0.6612
  O  O518  1  0.902810  0.420540  0.419400  1.0  -0.5914
  O  O519  1  0.585100  0.531180  0.352800  1.0  -0.6577
  O  O520  1  0.579460  0.482270  0.419400  1.0  -0.594
  O  O521  1  0.468820  0.053920  0.352800  1.0  -0.6639
  O  O522  1  0.517730  0.097190  0.419400  1.0  -0.594
  O  O523  1  0.053920  0.585100  0.352800  1.0  -0.6597
  O  O524  1  0.097190  0.579460  0.419400  1.0  -0.5927
  O  O525  1  0.414900  0.468820  0.352800  1.0  -0.6612
  O  O526  1  0.420540  0.517730  0.419400  1.0  -0.5939
  O  O527  1  0.531180  0.946080  0.352800  1.0  -0.6632
  O  O528  1  0.482270  0.902810  0.419400  1.0  -0.5927
  O  O529  1  0.414900  0.946080  0.647200  1.0  -0.6628
  O  O530  1  0.420540  0.902810  0.580600  1.0  -0.5922
  O  O531  1  0.531180  0.585100  0.647200  1.0  -0.6643
  O  O532  1  0.482270  0.579460  0.580600  1.0  -0.5902
  O  O533  1  0.053920  0.468820  0.647200  1.0  -0.6624
  O  O534  1  0.097190  0.517730  0.580600  1.0  -0.5926
  O  O535  1  0.585100  0.053920  0.647200  1.0  -0.6628
  O  O536  1  0.579460  0.097190  0.580600  1.0  -0.591
  O  O537  1  0.468820  0.414900  0.647200  1.0  -0.6624
  O  O538  1  0.517730  0.420540  0.580600  1.0  -0.5911
  O  O539  1  0.946080  0.531180  0.647200  1.0  -0.6618
  O  O540  1  0.902810  0.482270  0.580600  1.0  -0.5927
  O  O541  1  0.031760  0.474960  0.500000  1.0  -1.206
  O  O542  1  0.525040  0.556800  0.500000  1.0  -1.2068
  O  O543  1  0.443200  0.968240  0.500000  1.0  -1.2052
  O  O544  1  0.968240  0.525040  0.500000  1.0  -1.2082
  O  O545  1  0.474960  0.443200  0.500000  1.0  -1.2058
  O  O546  1  0.556800  0.031760  0.500000  1.0  -1.2033
  O  O547  1  0.474960  0.031760  0.500000  1.0  -1.2072
  O  O548  1  0.556800  0.525040  0.500000  1.0  -1.207
  O  O549  1  0.968240  0.443200  0.500000  1.0  -1.2049
  O  O550  1  0.525040  0.968240  0.500000  1.0  -1.2045
  O  O551  1  0.443200  0.474960  0.500000  1.0  -1.2068
  O  O552  1  0.031760  0.556800  0.500000  1.0  -1.2057
  O  O553  1  0.033030  0.516510  0.393200  1.0  -1.1324
  O  O554  1  0.483490  0.516510  0.393200  1.0  -1.117
  O  O555  1  0.483490  0.966970  0.393200  1.0  -1.1326
  O  O556  1  0.966970  0.483490  0.393200  1.0  -1.133
  O  O557  1  0.516510  0.483480  0.393200  1.0  -1.1316
  O  O558  1  0.516510  0.033030  0.393200  1.0  -1.1323
  O  O559  1  0.516510  0.033030  0.606800  1.0  -1.1295
  O  O560  1  0.516510  0.483490  0.606800  1.0  -1.129
  O  O561  1  0.966970  0.483490  0.606800  1.0  -1.1299
  O  O562  1  0.483490  0.966970  0.606800  1.0  -1.1295
  O  O563  1  0.483490  0.516510  0.606800  1.0  -1.1298
  O  O564  1  0.033030  0.516510  0.606800  1.0  -1.1292
