# generated using pymatgen
data_CdH5C10N3O4
_symmetry_space_group_name_H-M   'P 1'
_cell_length_a   10.77310000
_cell_length_b   12.41990000
_cell_length_c   13.53260000
_cell_angle_alpha   99.09890000
_cell_angle_beta   90.00000000
_cell_angle_gamma   115.70300000
_symmetry_Int_Tables_number   1
_chemical_formula_structural   CdH5C10N3O4
_chemical_formula_sum   'Cd4 H20 C40 N12 O16'
_cell_volume   1606.19139992
_cell_formula_units_Z   4
loop_
 _symmetry_equiv_pos_site_id
 _symmetry_equiv_pos_as_xyz
  1  'x, y, z'
loop_
 _atom_site_type_symbol
 _atom_site_label
 _atom_site_symmetry_multiplicity
 _atom_site_fract_x
 _atom_site_fract_y
 _atom_site_fract_z
 _atom_site_occupancy
 _atom_site_charge
  Cd  Cd1  1  0.935170  0.406100  0.858650  1.0  0.9817
  Cd  Cd2  1  0.529070  0.593900  0.641350  1.0  0.9817
  Cd  Cd3  1  0.064830  0.593900  0.141350  1.0  0.9818
  Cd  Cd4  1  0.470930  0.406100  0.358650  1.0  0.9819
  H  H5  1  0.804800  0.113400  0.837300  1.0  0.0777
  H  H6  1  0.633500  0.954200  0.893700  1.0  0.1149
  H  H7  1  0.686900  0.336800  0.987000  1.0  0.0766
  H  H8  1  0.520000  0.185200  0.052800  1.0  0.1149
  H  H9  1  0.295900  0.572600  0.832100  1.0  0.0683
  H  H10  1  0.691400  0.886600  0.662700  1.0  0.0773
  H  H11  1  0.679300  0.045800  0.606300  1.0  0.1155
  H  H12  1  0.350100  0.663200  0.513000  1.0  0.0764
  H  H13  1  0.334800  0.814800  0.447200  1.0  0.1146
  H  H14  1  0.723300  0.427400  0.667900  1.0  0.069
  H  H15  1  0.195200  0.886600  0.162700  1.0  0.0771
  H  H16  1  0.366500  0.045800  0.106300  1.0  0.116
  H  H17  1  0.313100  0.663200  0.013000  1.0  0.0766
  H  H18  1  0.480000  0.814800  0.947200  1.0  0.1147
  H  H19  1  0.704100  0.427400  0.167900  1.0  0.0691
  H  H20  1  0.308600  0.113400  0.337300  1.0  0.0772
  H  H21  1  0.320700  0.954200  0.393700  1.0  0.1153
  H  H22  1  0.649900  0.336800  0.487000  1.0  0.0764
  H  H23  1  0.665200  0.185200  0.552800  1.0  0.1151
  H  H24  1  0.276700  0.572600  0.332100  1.0  0.0685
  C  C25  1  0.746600  0.129200  0.881900  1.0  0.1736
  C  C26  1  0.642900  0.032400  0.915500  1.0  -0.1752
  C  C27  1  0.679100  0.258600  0.969400  1.0  0.1858
  C  C28  1  0.576000  0.167000  0.007500  1.0  -0.1813
  C  C29  1  0.555400  0.050200  0.979600  1.0  0.05
  C  C30  1  0.249800  0.519000  0.773600  1.0  0.3205
  C  C31  1  0.211300  0.420600  0.624700  1.0  0.032
  C  C32  1  0.244600  0.383400  0.523000  1.0  0.7124
  C  C33  1  0.088700  0.381800  0.669900  1.0  0.0148
  C  C34  1  0.948900  0.290400  0.635300  1.0  0.7072
  C  C35  1  0.617400  0.870800  0.618100  1.0  0.175
  C  C36  1  0.610500  0.967600  0.584500  1.0  -0.176
  C  C37  1  0.420500  0.741400  0.530600  1.0  0.1857
  C  C38  1  0.409000  0.833000  0.492500  1.0  -0.1814
  C  C39  1  0.505200  0.949800  0.520400  1.0  0.0503
  C  C40  1  0.730800  0.481000  0.726400  1.0  0.3198
  C  C41  1  0.790700  0.579400  0.875300  1.0  0.032
  C  C42  1  0.861200  0.616600  0.977000  1.0  0.7135
  C  C43  1  0.706900  0.618200  0.830100  1.0  0.0144
  C  C44  1  0.658500  0.709600  0.864700  1.0  0.7092
  C  C45  1  0.253400  0.870800  0.118100  1.0  0.175
  C  C46  1  0.357100  0.967600  0.084500  1.0  -0.175
  C  C47  1  0.320900  0.741400  0.030600  1.0  0.1851
  C  C48  1  0.424000  0.833000  0.992500  1.0  -0.1815
  C  C49  1  0.444600  0.949800  0.020400  1.0  0.0504
  C  C50  1  0.750200  0.481000  0.226400  1.0  0.3197
  C  C51  1  0.788700  0.579400  0.375300  1.0  0.0325
  C  C52  1  0.755400  0.616600  0.477000  1.0  0.7144
  C  C53  1  0.911300  0.618200  0.330100  1.0  0.0142
  C  C54  1  0.051100  0.709600  0.364700  1.0  0.7098
  C  C55  1  0.382600  0.129200  0.381900  1.0  0.174
  C  C56  1  0.389500  0.032400  0.415500  1.0  -0.1747
  C  C57  1  0.579500  0.258600  0.469400  1.0  0.1852
  C  C58  1  0.591000  0.167000  0.507500  1.0  -0.1813
  C  C59  1  0.494800  0.050200  0.479600  1.0  0.05
  C  C60  1  0.269200  0.519000  0.273600  1.0  0.3198
  C  C61  1  0.209300  0.420600  0.124700  1.0  0.0323
  C  C62  1  0.138800  0.383400  0.023000  1.0  0.7124
  C  C63  1  0.293100  0.381800  0.169900  1.0  0.014
  C  C64  1  0.341500  0.290400  0.135300  1.0  0.708
  N  N65  1  0.767300  0.241600  0.909500  1.0  -0.2942
  N  N66  1  0.114500  0.446600  0.765200  1.0  -0.4459
  N  N67  1  0.312700  0.507200  0.690900  1.0  -0.4199
  N  N68  1  0.525700  0.758400  0.590500  1.0  -0.2922
  N  N69  1  0.667900  0.553400  0.734800  1.0  -0.4455
  N  N70  1  0.805500  0.492800  0.809100  1.0  -0.4204
  N  N71  1  0.232700  0.758400  0.090500  1.0  -0.2938
  N  N72  1  0.885500  0.553400  0.234800  1.0  -0.4456
  N  N73  1  0.687300  0.492800  0.309100  1.0  -0.4208
  N  N74  1  0.474300  0.241600  0.409500  1.0  -0.2937
  N  N75  1  0.332100  0.446600  0.265200  1.0  -0.4459
  N  N76  1  0.194500  0.507200  0.190900  1.0  -0.4202
  O  O77  1  0.854700  0.271400  0.691800  1.0  -0.5656
  O  O78  1  0.930600  0.229400  0.546600  1.0  -0.4558
  O  O79  1  0.152900  0.298000  0.465500  1.0  -0.4898
  O  O80  1  0.367900  0.439400  0.503300  1.0  -0.6045
  O  O81  1  0.583300  0.728600  0.808200  1.0  -0.5659
  O  O82  1  0.701200  0.770600  0.953400  1.0  -0.4563
  O  O83  1  0.854900  0.702000  0.034500  1.0  -0.4909
  O  O84  1  0.928500  0.560600  0.996700  1.0  -0.6051
  O  O85  1  0.145300  0.728600  0.308200  1.0  -0.5667
  O  O86  1  0.069400  0.770600  0.453400  1.0  -0.4571
  O  O87  1  0.847100  0.702000  0.534500  1.0  -0.4905
  O  O88  1  0.632100  0.560600  0.496700  1.0  -0.6042
  O  O89  1  0.416700  0.271400  0.191800  1.0  -0.5662
  O  O90  1  0.298800  0.229400  0.046600  1.0  -0.456
  O  O91  1  0.145100  0.298000  0.965500  1.0  -0.4888
  O  O92  1  0.071500  0.439400  0.003300  1.0  -0.6032
