# generated using pymatgen
data_Cd3H14(C5O2)6
_symmetry_space_group_name_H-M   'P 1'
_cell_length_a   7.86810000
_cell_length_b   10.13110000
_cell_length_c   13.49270000
_cell_angle_alpha   68.37600000
_cell_angle_beta   79.85500000
_cell_angle_gamma   70.82300000
_symmetry_Int_Tables_number   1
_chemical_formula_structural   Cd3H14(C5O2)6
_chemical_formula_sum   'Cd3 H14 C30 O12'
_cell_volume   942.49959874
_cell_formula_units_Z   1
loop_
 _symmetry_equiv_pos_site_id
 _symmetry_equiv_pos_as_xyz
  1  'x, y, z'
loop_
 _atom_site_type_symbol
 _atom_site_label
 _atom_site_symmetry_multiplicity
 _atom_site_fract_x
 _atom_site_fract_y
 _atom_site_fract_z
 _atom_site_occupancy
 _atom_site_charge
  Cd  Cd1  1  0.672780  0.843770  0.956560  1.0  1.0521
  Cd  Cd2  1  0.327220  0.156230  0.043440  1.0  1.051
  Cd  Cd3  1  0.000000  0.500000  0.000000  1.0  1.1037
  H  H4  1  0.702300  0.274500  0.672300  1.0  0.1064
  H  H5  1  0.645200  0.368400  0.943200  1.0  0.1108
  H  H6  1  0.564800  0.739200  0.486900  1.0  0.1157
  H  H7  1  0.667900  0.684500  0.657600  1.0  0.1055
  H  H8  1  0.948100  0.386100  0.346000  1.0  0.1088
  H  H9  1  0.898700  0.332200  0.527700  1.0  0.1119
  H  H10  1  0.613600  0.796600  0.304200  1.0  0.1023
  H  H11  1  0.297700  0.725500  0.327700  1.0  0.1057
  H  H12  1  0.354800  0.631600  0.056800  1.0  0.1105
  H  H13  1  0.435200  0.260800  0.513100  1.0  0.1158
  H  H14  1  0.332100  0.315500  0.342400  1.0  0.1056
  H  H15  1  0.051900  0.613900  0.654000  1.0  0.1109
  H  H16  1  0.101300  0.667800  0.472300  1.0  0.1116
  H  H17  1  0.386400  0.203400  0.695800  1.0  0.1016
  C  C18  1  0.663100  0.143400  0.876800  1.0  0.6852
  C  C19  1  0.670000  0.298900  0.816600  1.0  -0.1394
  C  C20  1  0.690400  0.342600  0.706000  1.0  -0.0701
  C  C21  1  0.658700  0.542200  0.808900  1.0  -0.1368
  C  C22  1  0.656400  0.649800  0.861200  1.0  0.6851
  C  C23  1  0.656100  0.398300  0.869000  1.0  0.0064
  C  C24  1  0.640900  0.668000  0.458500  1.0  -0.1278
  C  C25  1  0.672600  0.586500  0.697300  1.0  -0.0462
  C  C26  1  0.871000  0.457800  0.373600  1.0  -0.0279
  C  C27  1  0.786900  0.598200  0.304300  1.0  -0.1433
  C  C28  1  0.693300  0.486600  0.644400  1.0  0.0241
  C  C29  1  0.839900  0.425300  0.482500  1.0  -0.1354
  C  C30  1  0.723400  0.528400  0.525600  1.0  0.0569
  C  C31  1  0.671200  0.702600  0.348800  1.0  -0.0324
  C  C32  1  0.816000  0.632100  0.185600  1.0  0.7099
  C  C33  1  0.336900  0.856600  0.123200  1.0  0.6905
  C  C34  1  0.330000  0.701100  0.183400  1.0  -0.1387
  C  C35  1  0.309600  0.657400  0.294000  1.0  -0.071
  C  C36  1  0.341300  0.457800  0.191100  1.0  -0.1384
  C  C37  1  0.343600  0.350200  0.138800  1.0  0.6854
  C  C38  1  0.343900  0.601700  0.131000  1.0  0.0065
  C  C39  1  0.359100  0.332000  0.541500  1.0  -0.1274
  C  C40  1  0.327400  0.413500  0.302700  1.0  -0.0456
  C  C41  1  0.129000  0.542200  0.626400  1.0  -0.0279
  C  C42  1  0.213100  0.401800  0.695700  1.0  -0.1391
  C  C43  1  0.306700  0.513400  0.355600  1.0  0.0237
  C  C44  1  0.160100  0.574700  0.517500  1.0  -0.1353
  C  C45  1  0.276600  0.471600  0.474400  1.0  0.0572
  C  C46  1  0.328800  0.297400  0.651200  1.0  -0.0289
  C  C47  1  0.184000  0.367900  0.814400  1.0  0.708
  O  O48  1  0.701000  0.053100  0.828400  1.0  -0.5549
  O  O49  1  0.620000  0.106300  0.977800  1.0  -0.6511
  O  O50  1  0.701000  0.598300  0.957800  1.0  -0.6746
  O  O51  1  0.613100  0.784300  0.812400  1.0  -0.5554
  O  O52  1  0.920100  0.527600  0.156000  1.0  -0.6311
  O  O53  1  0.737000  0.757600  0.127100  1.0  -0.6124
  O  O54  1  0.299000  0.946900  0.171600  1.0  -0.5548
  O  O55  1  0.380000  0.893700  0.022200  1.0  -0.649
  O  O56  1  0.299000  0.401700  0.042200  1.0  -0.6734
  O  O57  1  0.386900  0.215700  0.187600  1.0  -0.5544
  O  O58  1  0.079900  0.472400  0.844000  1.0  -0.6313
  O  O59  1  0.263000  0.242400  0.872900  1.0  -0.6152
