# generated using pymatgen
data_BaUP2H2CO8
_symmetry_space_group_name_H-M   'P 1'
_cell_length_a   5.04830000
_cell_length_b   10.21140000
_cell_length_c   10.21140000
_cell_angle_alpha   97.69890000
_cell_angle_beta   96.63590000
_cell_angle_gamma   83.36410000
_symmetry_Int_Tables_number   1
_chemical_formula_structural   BaUP2H2CO8
_chemical_formula_sum   'Ba2 U2 P4 H4 C2 O16'
_cell_volume   515.47493239
_cell_formula_units_Z   2
loop_
 _symmetry_equiv_pos_site_id
 _symmetry_equiv_pos_as_xyz
  1  'x, y, z'
loop_
 _atom_site_type_symbol
 _atom_site_label
 _atom_site_symmetry_multiplicity
 _atom_site_fract_x
 _atom_site_fract_y
 _atom_site_fract_z
 _atom_site_occupancy
 _atom_site_charge
  Ba  Ba1  1  0.661050  0.105540  0.894460  1.0  1.7389
  Ba  Ba2  1  0.338950  0.894460  0.105540  1.0  1.7417
  U  U3  1  0.500000  0.000000  0.500000  1.0  2.9672
  U  U4  1  0.500000  0.500000  0.000000  1.0  2.9672
  P  P5  1  0.097300  0.880090  0.703930  1.0  1.7786
  P  P6  1  0.902700  0.703930  0.880090  1.0  1.7828
  P  P7  1  0.902700  0.119910  0.296070  1.0  1.7779
  P  P8  1  0.097300  0.296070  0.119910  1.0  1.7814
  H  H9  1  0.148600  0.652500  0.700300  1.0  0.2234
  H  H10  1  0.851400  0.700300  0.652500  1.0  0.2235
  H  H11  1  0.851400  0.347500  0.299700  1.0  0.2241
  H  H12  1  0.148600  0.299700  0.347500  1.0  0.2244
  C  C13  1  0.000000  0.719000  0.719000  1.0  -0.999
  C  C14  1  0.000000  0.281000  0.281000  1.0  -1.0079
  O  O15  1  0.365000  0.132260  0.614260  1.0  -0.7985
  O  O16  1  0.274800  0.859510  0.587710  1.0  -0.9449
  O  O17  1  0.225200  0.944420  0.832620  1.0  -0.971
  O  O18  1  0.831800  0.964350  0.663750  1.0  -1.145
  O  O19  1  0.635000  0.614260  0.132260  1.0  -0.801
  O  O20  1  0.725200  0.587710  0.859510  1.0  -0.9476
  O  O21  1  0.774800  0.832620  0.944420  1.0  -0.9691
  O  O22  1  0.168200  0.663750  0.964350  1.0  -1.1399
  O  O23  1  0.635000  0.867740  0.385740  1.0  -0.7991
  O  O24  1  0.725200  0.140490  0.412290  1.0  -0.945
  O  O25  1  0.774800  0.055580  0.167380  1.0  -0.9684
  O  O26  1  0.168200  0.035650  0.336250  1.0  -1.1353
  O  O27  1  0.365000  0.385740  0.867740  1.0  -0.8006
  O  O28  1  0.274800  0.412290  0.140490  1.0  -0.949
  O  O29  1  0.225200  0.167380  0.055580  1.0  -0.969
  O  O30  1  0.831800  0.336250  0.035650  1.0  -1.1409
