# generated using pymatgen
data_Cd3H14(C5O2)6
_symmetry_space_group_name_H-M   'P 1'
_cell_length_a   7.87330000
_cell_length_b   10.14320000
_cell_length_c   13.52800000
_cell_angle_alpha   68.35500000
_cell_angle_beta   79.64500000
_cell_angle_gamma   70.70200000
_symmetry_Int_Tables_number   1
_chemical_formula_structural   Cd3H14(C5O2)6
_chemical_formula_sum   'Cd3 H14 C30 O12'
_cell_volume   945.68873017
_cell_formula_units_Z   1
loop_
 _symmetry_equiv_pos_site_id
 _symmetry_equiv_pos_as_xyz
  1  'x, y, z'
loop_
 _atom_site_type_symbol
 _atom_site_label
 _atom_site_symmetry_multiplicity
 _atom_site_fract_x
 _atom_site_fract_y
 _atom_site_fract_z
 _atom_site_occupancy
 _atom_site_charge
  Cd  Cd1  1  0.826670  0.655900  0.543360  1.0  1.0516
  Cd  Cd2  1  0.173330  0.344100  0.456640  1.0  1.052
  Cd  Cd3  1  0.500000  0.000000  0.500000  1.0  1.1062
  H  H4  1  0.853300  0.131800  0.556500  1.0  0.107
  H  H5  1  0.797500  0.222900  0.828700  1.0  0.11
  H  H6  1  0.830300  0.815700  0.841900  1.0  0.1089
  H  H7  1  0.602300  0.166800  0.973200  1.0  0.1143
  H  H8  1  0.550900  0.111900  0.156600  1.0  0.1188
  H  H9  1  0.887300  0.703900  0.196900  1.0  0.106
  H  H10  1  0.935700  0.759300  0.012700  1.0  0.1212
  H  H11  1  0.146700  0.868200  0.443500  1.0  0.1072
  H  H12  1  0.202500  0.777100  0.171300  1.0  0.1111
  H  H13  1  0.169700  0.184300  0.158100  1.0  0.1086
  H  H14  1  0.397700  0.833200  0.026800  1.0  0.1137
  H  H15  1  0.449100  0.888100  0.843400  1.0  0.1195
  H  H16  1  0.112700  0.296100  0.803100  1.0  0.1064
  H  H17  1  0.064300  0.240700  0.987300  1.0  0.1214
  C  C18  1  0.839800  0.957700  0.690700  1.0  -0.1442
  C  C19  1  0.842300  0.102100  0.630500  1.0  0.0096
  C  C20  1  0.827900  0.202500  0.682600  1.0  -0.1453
  C  C21  1  0.809000  0.155800  0.794400  1.0  -0.0687
  C  C22  1  0.806900  0.012300  0.855100  1.0  -0.0007
  C  C23  1  0.826200  0.913400  0.802300  1.0  -0.0414
  C  C24  1  0.776300  0.971100  0.974200  1.0  0.0328
  C  C25  1  0.660500  0.073400  0.018100  1.0  -0.1144
  C  C26  1  0.628100  0.040800  0.128400  1.0  -0.0269
  C  C27  1  0.712600  0.901500  0.194500  1.0  -0.1356
  C  C28  1  0.829000  0.797100  0.151800  1.0  -0.0155
  C  C29  1  0.859800  0.830600  0.041000  1.0  -0.1188
  C  C30  1  0.843200  0.849800  0.638500  1.0  0.6929
  C  C31  1  0.837900  0.354600  0.624100  1.0  0.6777
  C  C32  1  0.684900  0.867700  0.314800  1.0  0.7011
  C  C33  1  0.160200  0.042300  0.309300  1.0  -0.1432
  C  C34  1  0.157700  0.897900  0.369500  1.0  0.0106
  C  C35  1  0.172100  0.797500  0.317400  1.0  -0.146
  C  C36  1  0.191000  0.844200  0.205600  1.0  -0.0652
  C  C37  1  0.193100  0.987700  0.144900  1.0  -0.0012
  C  C38  1  0.173800  0.086600  0.197700  1.0  -0.0418
  C  C39  1  0.223700  0.028900  0.025800  1.0  0.0326
  C  C40  1  0.339500  0.926600  0.981900  1.0  -0.117
  C  C41  1  0.371900  0.959200  0.871600  1.0  -0.0282
  C  C42  1  0.287400  0.098500  0.805500  1.0  -0.1359
  C  C43  1  0.171000  0.202900  0.848200  1.0  -0.0161
  C  C44  1  0.140200  0.169400  0.959000  1.0  -0.1194
  C  C45  1  0.156800  0.150200  0.361500  1.0  0.6927
  C  C46  1  0.162100  0.645400  0.375900  1.0  0.674
  C  C47  1  0.315100  0.132300  0.685200  1.0  0.7004
  O  O48  1  0.883900  0.716100  0.686200  1.0  -0.5638
  O  O49  1  0.798500  0.900400  0.541700  1.0  -0.693
  O  O50  1  0.881100  0.396700  0.521100  1.0  -0.6475
  O  O51  1  0.797800  0.446700  0.672300  1.0  -0.5557
  O  O52  1  0.580600  0.971400  0.345400  1.0  -0.6313
  O  O53  1  0.765700  0.743600  0.372000  1.0  -0.5997
  O  O54  1  0.116100  0.283900  0.313800  1.0  -0.5644
  O  O55  1  0.201500  0.099600  0.458300  1.0  -0.6958
  O  O56  1  0.118900  0.603300  0.478900  1.0  -0.6461
  O  O57  1  0.202200  0.553300  0.327700  1.0  -0.5564
  O  O58  1  0.419400  0.028600  0.654600  1.0  -0.6309
  O  O59  1  0.234300  0.256400  0.628000  1.0  -0.5983
