# generated using pymatgen
data_Cu3H40C41(NO)4
_symmetry_space_group_name_H-M   'P 1'
_cell_length_a   12.77000000
_cell_length_b   16.42800000
_cell_length_c   30.19500000
_cell_angle_alpha   90.00000000
_cell_angle_beta   90.00000000
_cell_angle_gamma   108.08300000
_symmetry_Int_Tables_number   1
_chemical_formula_structural   Cu3H40C41(NO)4
_chemical_formula_sum   'Cu12 H160 C164 N16 O16'
_cell_volume   6021.60176812
_cell_formula_units_Z   4
loop_
 _symmetry_equiv_pos_site_id
 _symmetry_equiv_pos_as_xyz
  1  'x, y, z'
loop_
 _atom_site_type_symbol
 _atom_site_label
 _atom_site_symmetry_multiplicity
 _atom_site_fract_x
 _atom_site_fract_y
 _atom_site_fract_z
 _atom_site_occupancy
 _atom_site_charge
  Cu  Cu1  1  0.485900  0.269470  0.655420  1.0  0.8322
  Cu  Cu2  1  0.619540  0.646010  0.884370  1.0  0.5129
  Cu  Cu3  1  0.553450  0.280400  0.059250  1.0  0.5252
  Cu  Cu4  1  0.514100  0.230530  0.155420  1.0  0.835
  Cu  Cu5  1  0.380460  0.853990  0.384370  1.0  0.5115
  Cu  Cu6  1  0.446550  0.219600  0.559250  1.0  0.5237
  Cu  Cu7  1  0.514100  0.730530  0.344580  1.0  0.8348
  Cu  Cu8  1  0.380460  0.353990  0.115630  1.0  0.5111
  Cu  Cu9  1  0.446550  0.719600  0.940750  1.0  0.5233
  Cu  Cu10  1  0.485900  0.769470  0.844580  1.0  0.8318
  Cu  Cu11  1  0.619540  0.146010  0.615630  1.0  0.5129
  Cu  Cu12  1  0.553450  0.780400  0.440750  1.0  0.5246
  H  H13  1  0.366200  0.391400  0.688400  1.0  0.0943
  H  H14  1  0.272500  0.405700  0.752200  1.0  0.1031
  H  H15  1  0.287400  0.178100  0.795400  1.0  0.1098
  H  H16  1  0.381100  0.163800  0.731500  1.0  0.102
  H  H17  1  0.961000  0.273700  0.798600  1.0  0.0992
  H  H18  1  0.036400  0.230500  0.772900  1.0  0.1214
  H  H19  1  0.059000  0.329700  0.769700  1.0  0.1235
  H  H20  1  0.138100  0.302900  0.976100  1.0  0.1087
  H  H21  1  0.027200  0.239300  0.958600  1.0  0.1092
  H  H22  1  0.045400  0.338200  0.958200  1.0  0.1146
  H  H23  1  0.429900  0.338000  0.825400  1.0  0.0912
  H  H24  1  0.440000  0.300800  0.872400  1.0  0.1058
  H  H25  1  0.445000  0.396900  0.867300  1.0  0.1144
  H  H26  1  0.497400  0.423100  0.011500  1.0  0.0894
  H  H27  1  0.390100  0.167000  0.999100  1.0  0.09
  H  H28  1  0.271500  0.178700  0.943000  1.0  0.111
  H  H29  1  0.378800  0.434900  0.955300  1.0  0.0924
  H  H30  1  0.557300  0.153700  0.879000  1.0  0.0913
  H  H31  1  0.561700  0.241000  0.856800  1.0  0.1037
  H  H32  1  0.569000  0.234600  0.908500  1.0  0.1173
  H  H33  1  0.866700  0.062800  0.871500  1.0  0.0904
  H  H34  1  0.968300  0.119300  0.898500  1.0  0.1102
  H  H35  1  0.969600  0.122600  0.846600  1.0  0.1137
  H  H36  1  0.932400  0.471600  0.878300  1.0  0.11
  H  H37  1  0.014000  0.441600  0.848500  1.0  0.1207
  H  H38  1  0.025700  0.441800  0.900200  1.0  0.1114
  H  H39  1  0.677700  0.529700  0.950000  1.0  0.0904
  H  H40  1  0.741100  0.411800  0.948500  1.0  0.1125
  H  H41  1  0.717000  0.404700  0.815800  1.0  0.0989
  H  H42  1  0.653600  0.522600  0.817300  1.0  0.0963
  H  H43  1  0.517800  0.917300  0.918800  1.0  0.0929
  H  H44  1  0.624300  0.058200  0.930700  1.0  0.1024
  H  H45  1  0.729200  0.074800  0.804600  1.0  0.1033
  H  H46  1  0.622700  0.933900  0.792600  1.0  0.0937
  H  H47  1  0.702700  0.290700  0.766500  1.0  0.1192
  H  H48  1  0.809300  0.283900  0.743000  1.0  0.118
  H  H49  1  0.724900  0.202100  0.763700  1.0  0.1203
  H  H50  1  0.244400  0.262800  0.642100  1.0  0.1215
  H  H51  1  0.209500  0.196200  0.603500  1.0  0.1468
  H  H52  1  0.255000  0.294300  0.592900  1.0  0.1346
  H  H53  1  0.633800  0.108600  0.188400  1.0  0.0937
  H  H54  1  0.727500  0.094300  0.252200  1.0  0.1038
  H  H55  1  0.712600  0.321900  0.295400  1.0  0.1105
  H  H56  1  0.618900  0.336200  0.231500  1.0  0.1026
  H  H57  1  0.039000  0.226300  0.298600  1.0  0.0998
  H  H58  1  0.963600  0.269500  0.272900  1.0  0.1221
  H  H59  1  0.941000  0.170300  0.269700  1.0  0.1222
  H  H60  1  0.861900  0.197100  0.476100  1.0  0.1095
  H  H61  1  0.972800  0.260700  0.458600  1.0  0.1085
  H  H62  1  0.954600  0.161800  0.458200  1.0  0.1144
  H  H63  1  0.570100  0.162000  0.325400  1.0  0.0919
  H  H64  1  0.560000  0.199200  0.372400  1.0  0.1057
  H  H65  1  0.555000  0.103100  0.367300  1.0  0.1146
  H  H66  1  0.502600  0.076900  0.511500  1.0  0.0895
  H  H67  1  0.609900  0.333000  0.499100  1.0  0.0898
  H  H68  1  0.728500  0.321300  0.443000  1.0  0.1108
  H  H69  1  0.621200  0.065100  0.455300  1.0  0.0924
  H  H70  1  0.442700  0.346300  0.379000  1.0  0.0916
  H  H71  1  0.438300  0.259000  0.356800  1.0  0.1038
  H  H72  1  0.431000  0.265400  0.408500  1.0  0.1178
  H  H73  1  0.133300  0.437200  0.371500  1.0  0.0906
  H  H74  1  0.031700  0.380700  0.398500  1.0  0.1108
  H  H75  1  0.030400  0.377400  0.346600  1.0  0.1132
  H  H76  1  0.067600  0.028400  0.378300  1.0  0.1108
  H  H77  1  0.986000  0.058400  0.348500  1.0  0.1212
  H  H78  1  0.974300  0.058200  0.400200  1.0  0.112
  H  H79  1  0.322300  0.970300  0.450000  1.0  0.0905
  H  H80  1  0.258900  0.088200  0.448500  1.0  0.1128
  H  H81  1  0.283000  0.095300  0.315800  1.0  0.0989
  H  H82  1  0.346400  0.977400  0.317300  1.0  0.0968
  H  H83  1  0.482200  0.582700  0.418800  1.0  0.0928
  H  H84  1  0.375700  0.441800  0.430700  1.0  0.1032
  H  H85  1  0.270800  0.425200  0.304600  1.0  0.1032
  H  H86  1  0.377300  0.566100  0.292600  1.0  0.0933
  H  H87  1  0.297300  0.209300  0.266500  1.0  0.1188
  H  H88  1  0.190700  0.216100  0.243000  1.0  0.1181
  H  H89  1  0.275100  0.297900  0.263700  1.0  0.1204
  H  H90  1  0.755600  0.237200  0.142100  1.0  0.1217
  H  H91  1  0.790500  0.303800  0.103500  1.0  0.1483
  H  H92  1  0.745000  0.205700  0.092900  1.0  0.1364
  H  H93  1  0.633800  0.608600  0.311600  1.0  0.0934
  H  H94  1  0.727500  0.594300  0.247800  1.0  0.1037
  H  H95  1  0.712600  0.821900  0.204600  1.0  0.1102
  H  H96  1  0.618900  0.836200  0.268500  1.0  0.1026
  H  H97  1  0.039000  0.726300  0.201400  1.0  0.0972
  H  H98  1  0.963600  0.769500  0.227100  1.0  0.1228
  H  H99  1  0.941000  0.670300  0.230300  1.0  0.1234
  H  H100  1  0.861900  0.697100  0.023900  1.0  0.1099
  H  H101  1  0.972800  0.760700  0.041400  1.0  0.1093
  H  H102  1  0.954600  0.661800  0.041800  1.0  0.1146
  H  H103  1  0.570100  0.662000  0.174600  1.0  0.0925
  H  H104  1  0.560000  0.699200  0.127600  1.0  0.1064
  H  H105  1  0.555000  0.603100  0.132700  1.0  0.1146
  H  H106  1  0.502600  0.576900  0.988500  1.0  0.0895
  H  H107  1  0.609900  0.833000  0.000900  1.0  0.0901
  H  H108  1  0.728500  0.821300  0.057000  1.0  0.1103
  H  H109  1  0.621200  0.565100  0.044700  1.0  0.0927
  H  H110  1  0.442700  0.846300  0.121000  1.0  0.0917
  H  H111  1  0.438300  0.759000  0.143200  1.0  0.1035
  H  H112  1  0.431000  0.765400  0.091500  1.0  0.1179
  H  H113  1  0.133300  0.937200  0.128500  1.0  0.0901
  H  H114  1  0.031700  0.880700  0.101500  1.0  0.1104
  H  H115  1  0.030400  0.877400  0.153400  1.0  0.1138
  H  H116  1  0.067600  0.528400  0.121700  1.0  0.1108
  H  H117  1  0.986000  0.558400  0.151500  1.0  0.1217
  H  H118  1  0.974300  0.558200  0.099800  1.0  0.1119
  H  H119  1  0.322300  0.470300  0.050000  1.0  0.0901
  H  H120  1  0.258900  0.588200  0.051500  1.0  0.1129
  H  H121  1  0.283000  0.595300  0.184200  1.0  0.0985
  H  H122  1  0.346400  0.477400  0.182700  1.0  0.0968
  H  H123  1  0.482200  0.082700  0.081200  1.0  0.0924
  H  H124  1  0.375700  0.941800  0.069300  1.0  0.1031
  H  H125  1  0.270800  0.925200  0.195400  1.0  0.1033
  H  H126  1  0.377300  0.066100  0.207400  1.0  0.0931
  H  H127  1  0.297300  0.709300  0.233500  1.0  0.1192
  H  H128  1  0.190700  0.716100  0.257000  1.0  0.1196
  H  H129  1  0.275100  0.797900  0.236300  1.0  0.1215
  H  H130  1  0.755600  0.737200  0.357900  1.0  0.1222
  H  H131  1  0.790500  0.803800  0.396500  1.0  0.1478
  H  H132  1  0.745000  0.705700  0.407100  1.0  0.1375
  H  H133  1  0.366200  0.891400  0.811600  1.0  0.0942
  H  H134  1  0.272500  0.905700  0.747800  1.0  0.1029
  H  H135  1  0.287400  0.678100  0.704600  1.0  0.1096
  H  H136  1  0.381100  0.663800  0.768500  1.0  0.1021
  H  H137  1  0.961000  0.773700  0.701400  1.0  0.0979
  H  H138  1  0.036400  0.730500  0.727100  1.0  0.1226
  H  H139  1  0.059000  0.829700  0.730300  1.0  0.1228
  H  H140  1  0.138100  0.802900  0.523900  1.0  0.1084
  H  H141  1  0.027200  0.739300  0.541400  1.0  0.1082
  H  H142  1  0.045400  0.838200  0.541800  1.0  0.1149
  H  H143  1  0.429900  0.838000  0.674600  1.0  0.0922
  H  H144  1  0.440000  0.800800  0.627600  1.0  0.1057
  H  H145  1  0.445000  0.896900  0.632700  1.0  0.1145
  H  H146  1  0.497400  0.923100  0.488500  1.0  0.0895
  H  H147  1  0.390100  0.667000  0.500900  1.0  0.0904
  H  H148  1  0.271500  0.678700  0.557000  1.0  0.1102
  H  H149  1  0.378800  0.934900  0.544700  1.0  0.0926
  H  H150  1  0.557300  0.653700  0.621000  1.0  0.0915
  H  H151  1  0.561700  0.741000  0.643200  1.0  0.1037
  H  H152  1  0.569000  0.734600  0.591500  1.0  0.1164
  H  H153  1  0.866700  0.562800  0.628500  1.0  0.0899
  H  H154  1  0.968300  0.619300  0.601500  1.0  0.1096
  H  H155  1  0.969600  0.622600  0.653400  1.0  0.1139
  H  H156  1  0.932400  0.971600  0.621700  1.0  0.11
  H  H157  1  0.014000  0.941600  0.651500  1.0  0.1198
  H  H158  1  0.025700  0.941800  0.599800  1.0  0.1114
  H  H159  1  0.677700  0.029700  0.550000  1.0  0.0905
  H  H160  1  0.741100  0.911800  0.551500  1.0  0.1133
  H  H161  1  0.717000  0.904700  0.684200  1.0  0.0983
  H  H162  1  0.653600  0.022600  0.682700  1.0  0.0964
  H  H163  1  0.517800  0.417300  0.581200  1.0  0.0925
  H  H164  1  0.624300  0.558200  0.569300  1.0  0.1026
  H  H165  1  0.729200  0.574800  0.695400  1.0  0.1031
  H  H166  1  0.622700  0.433900  0.707400  1.0  0.0935
  H  H167  1  0.702700  0.790700  0.733500  1.0  0.1204
  H  H168  1  0.809300  0.783900  0.757000  1.0  0.1183
  H  H169  1  0.724900  0.702100  0.736300  1.0  0.1202
  H  H170  1  0.244400  0.762800  0.857900  1.0  0.122
  H  H171  1  0.209500  0.696200  0.896500  1.0  0.1478
  H  H172  1  0.255000  0.794300  0.907100  1.0  0.1358
  C  C173  1  0.350400  0.348600  0.709800  1.0  0.1125
  C  C174  1  0.294300  0.357200  0.748100  1.0  -0.114
  C  C175  1  0.270700  0.293400  0.780100  1.0  -0.0141
  C  C176  1  0.303200  0.220900  0.773900  1.0  -0.1245
  C  C177  1  0.359300  0.212300  0.735600  1.0  0.1497
  C  C178  1  0.034800  0.280700  0.788800  1.0  -0.4244
  C  C179  1  0.222300  0.305100  0.824070  1.0  -0.0277
  C  C180  1  0.110200  0.293500  0.828400  1.0  0.0947
  C  C181  1  0.063900  0.291300  0.870200  1.0  -0.0737
  C  C182  1  0.129700  0.300700  0.907720  1.0  0.0557
  C  C183  1  0.241800  0.312300  0.903400  1.0  -0.0431
  C  C184  1  0.288100  0.314500  0.861600  1.0  0.0616
  C  C185  1  0.080500  0.294700  0.954500  1.0  -0.4021
  C  C186  1  0.412100  0.339900  0.856200  1.0  -0.4065
  C  C187  1  0.452200  0.374200  0.997700  1.0  0.1468
  C  C188  1  0.387800  0.220700  0.990400  1.0  0.1274
  C  C189  1  0.316800  0.227700  0.956800  1.0  -0.1295
  C  C190  1  0.313400  0.307900  0.943600  1.0  -0.0069
  C  C191  1  0.381100  0.381200  0.964100  1.0  -0.1068
  C  C192  1  0.783200  0.323100  0.879000  1.0  -0.072
  C  C193  1  0.714500  0.238900  0.877600  1.0  0.0684
  C  C194  1  0.759500  0.172100  0.875000  1.0  -0.0335
  C  C195  1  0.873200  0.189500  0.873700  1.0  0.0711
  C  C196  1  0.941900  0.273800  0.875100  1.0  -0.0348
  C  C197  1  0.896800  0.340600  0.877700  1.0  0.0637
  C  C198  1  0.588900  0.214800  0.880800  1.0  -0.3746
  C  C199  1  0.924200  0.116800  0.872500  1.0  -0.4048
  C  C200  1  0.974400  0.432400  0.876000  1.0  -0.4412
  C  C201  1  0.685600  0.504600  0.923100  1.0  0.1594
  C  C202  1  0.723600  0.434000  0.922200  1.0  -0.0981
  C  C203  1  0.735300  0.396600  0.882000  1.0  -0.0486
  C  C204  1  0.709100  0.429800  0.842700  1.0  -0.1212
  C  C205  1  0.671100  0.500400  0.843600  1.0  0.1272
  C  C206  1  0.560200  0.948900  0.895900  1.0  0.1437
  C  C207  1  0.624000  0.033300  0.903000  1.0  -0.0953
  C  C208  1  0.687300  0.080500  0.868800  1.0  0.0122
  C  C209  1  0.686800  0.043200  0.827500  1.0  -0.1385
  C  C210  1  0.623000  0.958800  0.820300  1.0  0.1525
  C  C211  1  0.732700  0.255000  0.748500  1.0  -0.4755
  C  C212  1  0.673000  0.237100  0.706100  1.0  0.7063
  C  C213  1  0.260800  0.249900  0.612400  1.0  -0.0964
  C  C214  1  0.649600  0.151400  0.209800  1.0  0.1126
  C  C215  1  0.705700  0.142800  0.248100  1.0  -0.1153
  C  C216  1  0.729300  0.206600  0.280100  1.0  -0.0123
  C  C217  1  0.696800  0.279100  0.273900  1.0  -0.1235
  C  C218  1  0.640700  0.287700  0.235600  1.0  0.1498
  C  C219  1  0.965200  0.219300  0.288800  1.0  -0.4249
  C  C220  1  0.777700  0.194900  0.324070  1.0  -0.0295
  C  C221  1  0.889800  0.206500  0.328400  1.0  0.0939
  C  C222  1  0.936100  0.208700  0.370200  1.0  -0.0742
  C  C223  1  0.870300  0.199300  0.407720  1.0  0.0541
  C  C224  1  0.758200  0.187700  0.403400  1.0  -0.0436
  C  C225  1  0.711900  0.185500  0.361600  1.0  0.0618
  C  C226  1  0.919500  0.205300  0.454500  1.0  -0.4023
  C  C227  1  0.587900  0.160100  0.356200  1.0  -0.4062
  C  C228  1  0.547800  0.125800  0.497700  1.0  0.1457
  C  C229  1  0.612200  0.279300  0.490400  1.0  0.1262
  C  C230  1  0.683200  0.272300  0.456800  1.0  -0.1309
  C  C231  1  0.686600  0.192100  0.443600  1.0  -0.0066
  C  C232  1  0.618900  0.118800  0.464100  1.0  -0.1069
  C  C233  1  0.216800  0.176900  0.379000  1.0  -0.0722
  C  C234  1  0.285500  0.261100  0.377600  1.0  0.0675
  C  C235  1  0.240500  0.327900  0.375000  1.0  -0.0336
  C  C236  1  0.126800  0.310500  0.373700  1.0  0.0703
  C  C237  1  0.058100  0.226200  0.375100  1.0  -0.0351
  C  C238  1  0.103200  0.159400  0.377700  1.0  0.0647
  C  C239  1  0.411100  0.285200  0.380800  1.0  -0.3756
  C  C240  1  0.075800  0.383200  0.372500  1.0  -0.4036
  C  C241  1  0.025600  0.067600  0.376000  1.0  -0.443
  C  C242  1  0.314400  0.995400  0.423100  1.0  0.1601
  C  C243  1  0.276400  0.066000  0.422200  1.0  -0.0991
  C  C244  1  0.264700  0.103400  0.382000  1.0  -0.0508
  C  C245  1  0.290900  0.070200  0.342700  1.0  -0.1209
  C  C246  1  0.328900  0.999600  0.343600  1.0  0.1275
  C  C247  1  0.439800  0.551100  0.395900  1.0  0.1433
  C  C248  1  0.376000  0.466700  0.403000  1.0  -0.0948
  C  C249  1  0.312700  0.419500  0.368800  1.0  0.0127
  C  C250  1  0.313200  0.456800  0.327500  1.0  -0.1379
  C  C251  1  0.377000  0.541200  0.320300  1.0  0.153
  C  C252  1  0.267300  0.245000  0.248500  1.0  -0.4747
  C  C253  1  0.327000  0.262900  0.206100  1.0  0.706
  C  C254  1  0.739200  0.250100  0.112400  1.0  -0.099
  C  C255  1  0.649600  0.651400  0.290200  1.0  0.1127
  C  C256  1  0.705700  0.642800  0.251900  1.0  -0.1148
  C  C257  1  0.729300  0.706600  0.219900  1.0  -0.0118
  C  C258  1  0.696800  0.779100  0.226100  1.0  -0.1229
  C  C259  1  0.640700  0.787700  0.264400  1.0  0.1502
  C  C260  1  0.965200  0.719300  0.211200  1.0  -0.4234
  C  C261  1  0.777700  0.694900  0.175930  1.0  -0.0291
  C  C262  1  0.889800  0.706500  0.171600  1.0  0.0937
  C  C263  1  0.936100  0.708700  0.129800  1.0  -0.0745
  C  C264  1  0.870300  0.699300  0.092280  1.0  0.0549
  C  C265  1  0.758200  0.687700  0.096600  1.0  -0.0445
  C  C266  1  0.711900  0.685500  0.138400  1.0  0.0618
  C  C267  1  0.919500  0.705300  0.045500  1.0  -0.4016
  C  C268  1  0.587900  0.660100  0.143800  1.0  -0.4064
  C  C269  1  0.547800  0.625800  0.002300  1.0  0.1462
  C  C270  1  0.612200  0.779300  0.009600  1.0  0.1269
  C  C271  1  0.683200  0.772300  0.043200  1.0  -0.1297
  C  C272  1  0.686600  0.692100  0.056400  1.0  -0.0059
  C  C273  1  0.618900  0.618800  0.035900  1.0  -0.108
  C  C274  1  0.216800  0.676900  0.121000  1.0  -0.0725
  C  C275  1  0.285500  0.761100  0.122400  1.0  0.0653
  C  C276  1  0.240500  0.827900  0.125000  1.0  -0.0338
  C  C277  1  0.126800  0.810500  0.126300  1.0  0.0696
  C  C278  1  0.058100  0.726200  0.124900  1.0  -0.0353
  C  C279  1  0.103200  0.659400  0.122300  1.0  0.0635
  C  C280  1  0.411100  0.785200  0.119200  1.0  -0.3756
  C  C281  1  0.075800  0.883200  0.127500  1.0  -0.4038
  C  C282  1  0.025600  0.567600  0.124000  1.0  -0.4433
  C  C283  1  0.314400  0.495400  0.076900  1.0  0.1606
  C  C284  1  0.276400  0.566000  0.077800  1.0  -0.1005
  C  C285  1  0.264700  0.603400  0.118000  1.0  -0.0508
  C  C286  1  0.290900  0.570200  0.157300  1.0  -0.1225
  C  C287  1  0.328900  0.499600  0.156400  1.0  0.1292
  C  C288  1  0.439800  0.051100  0.104100  1.0  0.1434
  C  C289  1  0.376000  0.966700  0.097000  1.0  -0.0919
  C  C290  1  0.312700  0.919500  0.131200  1.0  0.0128
  C  C291  1  0.313200  0.956800  0.172500  1.0  -0.1379
  C  C292  1  0.377000  0.041200  0.179700  1.0  0.1513
  C  C293  1  0.267300  0.745000  0.251500  1.0  -0.4761
  C  C294  1  0.327000  0.762900  0.293900  1.0  0.7056
  C  C295  1  0.739200  0.750100  0.387600  1.0  -0.0982
  C  C296  1  0.350400  0.848600  0.790200  1.0  0.1119
  C  C297  1  0.294300  0.857200  0.751900  1.0  -0.1147
  C  C298  1  0.270700  0.793400  0.719900  1.0  -0.0133
  C  C299  1  0.303200  0.720900  0.726100  1.0  -0.1244
  C  C300  1  0.359300  0.712300  0.764400  1.0  0.1501
  C  C301  1  0.034800  0.780700  0.711200  1.0  -0.4238
  C  C302  1  0.222300  0.805100  0.675930  1.0  -0.0274
  C  C303  1  0.110200  0.793500  0.671600  1.0  0.0946
  C  C304  1  0.063900  0.791300  0.629800  1.0  -0.0739
  C  C305  1  0.129700  0.800700  0.592280  1.0  0.0558
  C  C306  1  0.241800  0.812300  0.596600  1.0  -0.0438
  C  C307  1  0.288100  0.814500  0.638400  1.0  0.0615
  C  C308  1  0.080500  0.794700  0.545500  1.0  -0.399
  C  C309  1  0.412100  0.839900  0.643800  1.0  -0.4065
  C  C310  1  0.452200  0.874200  0.502300  1.0  0.1442
  C  C311  1  0.387800  0.720700  0.509600  1.0  0.1269
  C  C312  1  0.316800  0.727700  0.543200  1.0  -0.1299
  C  C313  1  0.313400  0.807900  0.556400  1.0  -0.0061
  C  C314  1  0.381100  0.881200  0.535900  1.0  -0.1079
  C  C315  1  0.783200  0.823100  0.621000  1.0  -0.0722
  C  C316  1  0.714500  0.738900  0.622400  1.0  0.0662
  C  C317  1  0.759500  0.672100  0.625000  1.0  -0.0339
  C  C318  1  0.873200  0.689500  0.626300  1.0  0.0698
  C  C319  1  0.941900  0.773800  0.624900  1.0  -0.035
  C  C320  1  0.896800  0.840600  0.622300  1.0  0.0629
  C  C321  1  0.588900  0.714800  0.619200  1.0  -0.3746
  C  C322  1  0.924200  0.616800  0.627500  1.0  -0.4049
  C  C323  1  0.974400  0.932400  0.624000  1.0  -0.4407
  C  C324  1  0.685600  0.004600  0.576900  1.0  0.1603
  C  C325  1  0.723600  0.934000  0.577800  1.0  -0.1002
  C  C326  1  0.735300  0.896600  0.618000  1.0  -0.0488
  C  C327  1  0.709100  0.929800  0.657300  1.0  -0.1203
  C  C328  1  0.671100  0.000400  0.656400  1.0  0.1283
  C  C329  1  0.560200  0.448900  0.604100  1.0  0.145
  C  C330  1  0.624000  0.533300  0.597000  1.0  -0.0919
  C  C331  1  0.687300  0.580500  0.631200  1.0  0.0119
  C  C332  1  0.686800  0.543200  0.672500  1.0  -0.1378
  C  C333  1  0.623000  0.458800  0.679700  1.0  0.1518
  C  C334  1  0.732700  0.755000  0.751500  1.0  -0.4765
  C  C335  1  0.673000  0.737100  0.793900  1.0  0.7068
  C  C336  1  0.260800  0.749900  0.887600  1.0  -0.0963
  N  N337  1  0.383000  0.276200  0.703600  1.0  -0.3379
  N  N338  1  0.455500  0.293900  0.010900  1.0  -0.3112
  N  N339  1  0.659400  0.537800  0.883800  1.0  -0.3154
  N  N340  1  0.559700  0.911700  0.854500  1.0  -0.3514
  N  N341  1  0.617000  0.223800  0.203600  1.0  -0.337
  N  N342  1  0.544500  0.206100  0.510900  1.0  -0.3102
  N  N343  1  0.340600  0.962200  0.383800  1.0  -0.3124
  N  N344  1  0.440300  0.588300  0.354500  1.0  -0.3503
  N  N345  1  0.617000  0.723800  0.296400  1.0  -0.336
  N  N346  1  0.544500  0.706100  0.989100  1.0  -0.3101
  N  N347  1  0.340600  0.462200  0.116200  1.0  -0.3124
  N  N348  1  0.440300  0.088300  0.145500  1.0  -0.3507
  N  N349  1  0.383000  0.776200  0.796400  1.0  -0.3372
  N  N350  1  0.455500  0.793900  0.489100  1.0  -0.3125
  N  N351  1  0.659400  0.037800  0.616200  1.0  -0.3157
  N  N352  1  0.559700  0.411700  0.645500  1.0  -0.3522
  O  O353  1  0.596500  0.269700  0.701600  1.0  -0.649
  O  O354  1  0.699000  0.192200  0.678800  1.0  -0.6061
  O  O355  1  0.373100  0.244200  0.610700  1.0  -0.684
  O  O356  1  0.565200  0.243400  0.604300  1.0  -0.8605
  O  O357  1  0.403500  0.230300  0.201600  1.0  -0.6509
  O  O358  1  0.301000  0.307800  0.178800  1.0  -0.6051
  O  O359  1  0.626900  0.255800  0.110700  1.0  -0.6852
  O  O360  1  0.434800  0.256600  0.104300  1.0  -0.86
  O  O361  1  0.403500  0.730300  0.298400  1.0  -0.6512
  O  O362  1  0.301000  0.807800  0.321200  1.0  -0.6053
  O  O363  1  0.626900  0.755800  0.389300  1.0  -0.6857
  O  O364  1  0.434800  0.756600  0.395700  1.0  -0.8599
  O  O365  1  0.596500  0.769700  0.798400  1.0  -0.649
  O  O366  1  0.699000  0.692200  0.821200  1.0  -0.6058
  O  O367  1  0.373100  0.744200  0.889300  1.0  -0.6836
  O  O368  1  0.565200  0.743400  0.895700  1.0  -0.8606
