# generated using pymatgen
data_Np(CO3)6
_symmetry_space_group_name_H-M   'P 1'
_cell_length_a   11.00100000
_cell_length_b   11.00100000
_cell_length_c   6.33300000
_cell_angle_alpha   90.00000000
_cell_angle_beta   90.00000000
_cell_angle_gamma   120.00000000
_symmetry_Int_Tables_number   1
_chemical_formula_structural   Np(CO3)6
_chemical_formula_sum   'Np2 C12 O36'
_cell_volume   663.74987008
_cell_formula_units_Z   2
loop_
 _symmetry_equiv_pos_site_id
 _symmetry_equiv_pos_as_xyz
  1  'x, y, z'
loop_
 _atom_site_type_symbol
 _atom_site_label
 _atom_site_symmetry_multiplicity
 _atom_site_fract_x
 _atom_site_fract_y
 _atom_site_fract_z
 _atom_site_occupancy
 _atom_site_charge
  Np  Np1  1  0.000000  0.000000  0.991700  1.0  2.1444
  Np  Np2  1  0.333333  0.666667  0.991700  1.0  2.1742
  C  C3  1  0.111000  0.780000  0.049000  1.0  0.4055
  C  C4  1  0.228000  0.896000  0.045000  1.0  0.3943
  C  C5  1  0.941000  0.021000  0.494000  1.0  0.4147
  C  C6  1  0.322000  0.594000  0.494000  1.0  0.4066
  C  C7  1  0.220000  0.331000  0.049000  1.0  0.4004
  C  C8  1  0.104000  0.332000  0.045000  1.0  0.3963
  C  C9  1  0.979000  0.920000  0.494000  1.0  0.4247
  C  C10  1  0.406000  0.728000  0.494000  1.0  0.4035
  C  C11  1  0.669000  0.889000  0.049000  1.0  0.4053
  C  C12  1  0.668000  0.772000  0.045000  1.0  0.3965
  C  C13  1  0.080000  0.059000  0.494000  1.0  0.4154
  C  C14  1  0.272000  0.678000  0.494000  1.0  0.3983
  O  O15  1  0.015000  0.804000  0.124000  1.0  -0.1824
  O  O16  1  0.003000  0.775000  0.916000  1.0  -0.2505
  O  O17  1  0.197000  0.978000  0.124000  1.0  -0.1088
  O  O18  1  0.231000  0.010000  0.953000  1.0  -0.351
  O  O19  1  0.926000  0.071000  0.668000  1.0  -0.4047
  O  O20  1  0.868000  0.937000  0.318000  1.0  -0.2087
  O  O21  1  0.345000  0.899000  0.950000  1.0  -0.308
  O  O22  1  0.321000  0.858000  0.131000  1.0  -0.2009
  O  O23  1  0.103000  0.651000  0.930000  1.0  -0.3068
  O  O24  1  0.135000  0.691000  0.120000  1.0  -0.1298
  O  O25  1  0.269000  0.534000  0.315000  1.0  -0.1623
  O  O26  1  0.401000  0.593000  0.668000  1.0  -0.4543
  O  O27  1  0.196000  0.211000  0.124000  1.0  -0.1813
  O  O28  1  0.225000  0.228000  0.916000  1.0  -0.2489
  O  O29  1  0.022000  0.219000  0.124000  1.0  -0.1075
  O  O30  1  0.990000  0.221000  0.953000  1.0  -0.3446
  O  O31  1  0.929000  0.855000  0.668000  1.0  -0.4013
  O  O32  1  0.063000  0.931000  0.318000  1.0  -0.2075
  O  O33  1  0.101000  0.446000  0.950000  1.0  -0.3066
  O  O34  1  0.142000  0.463000  0.131000  1.0  -0.2036
  O  O35  1  0.349000  0.452000  0.930000  1.0  -0.3076
  O  O36  1  0.309000  0.444000  0.120000  1.0  -0.1232
  O  O37  1  0.466000  0.735000  0.315000  1.0  -0.1638
  O  O38  1  0.407000  0.808000  0.668000  1.0  -0.4516
  O  O39  1  0.789000  0.985000  0.124000  1.0  -0.1865
  O  O40  1  0.772000  0.997000  0.916000  1.0  -0.2517
  O  O41  1  0.781000  0.803000  0.124000  1.0  -0.1072
  O  O42  1  0.779000  0.769000  0.953000  1.0  -0.3453
  O  O43  1  0.145000  0.074000  0.668000  1.0  -0.4041
  O  O44  1  0.069000  0.132000  0.318000  1.0  -0.2065
  O  O45  1  0.554000  0.655000  0.950000  1.0  -0.3085
  O  O46  1  0.537000  0.679000  0.131000  1.0  -0.2028
  O  O47  1  0.548000  0.897000  0.930000  1.0  -0.3058
  O  O48  1  0.556000  0.865000  0.120000  1.0  -0.1254
  O  O49  1  0.265000  0.731000  0.315000  1.0  -0.1644
  O  O50  1  0.192000  0.599000  0.668000  1.0  -0.4561
