# generated using pymatgen
data_Zr2P3HO12F
_symmetry_space_group_name_H-M   'P 1'
_cell_length_a   6.60500000
_cell_length_b   8.78700000
_cell_length_c   11.49900000
_cell_angle_alpha   93.07000000
_cell_angle_beta   90.42000000
_cell_angle_gamma   104.66000000
_symmetry_Int_Tables_number   1
_chemical_formula_structural   Zr2P3HO12F
_chemical_formula_sum   'Zr4 P6 H2 O24 F2'
_cell_volume   644.57644009
_cell_formula_units_Z   2
loop_
 _symmetry_equiv_pos_site_id
 _symmetry_equiv_pos_as_xyz
  1  'x, y, z'
loop_
 _atom_site_type_symbol
 _atom_site_label
 _atom_site_symmetry_multiplicity
 _atom_site_fract_x
 _atom_site_fract_y
 _atom_site_fract_z
 _atom_site_occupancy
 _atom_site_charge
  Zr  Zr1  1  0.180500  0.774400  0.406200  1.0  2.1113
  Zr  Zr2  1  0.228100  0.941400  0.851300  1.0  2.0919
  Zr  Zr3  1  0.819500  0.225600  0.593800  1.0  2.1098
  Zr  Zr4  1  0.771900  0.058600  0.148700  1.0  2.0907
  P  P5  1  0.285600  0.119000  0.583700  1.0  1.7559
  P  P6  1  0.239200  0.956800  0.141700  1.0  1.8404
  P  P7  1  0.870800  0.406000  0.322000  1.0  1.748
  P  P8  1  0.714400  0.881000  0.416300  1.0  1.7553
  P  P9  1  0.760800  0.043200  0.858300  1.0  1.8391
  P  P10  1  0.129200  0.594000  0.678000  1.0  1.7494
  H  H11  1  0.650000  0.568000  0.333000  1.0  0.308
  H  H12  1  0.350000  0.432000  0.667000  1.0  0.3063
  O  O13  1  0.250600  0.007200  0.472700  1.0  -0.8516
  O  O14  1  0.136100  0.223100  0.583100  1.0  -0.826
  O  O15  1  0.516800  0.226700  0.591100  1.0  -0.846
  O  O16  1  0.243300  0.020300  0.689200  1.0  -0.8643
  O  O17  1  0.450600  0.065200  0.165200  1.0  -0.7759
  O  O18  1  0.080200  0.059800  0.158900  1.0  -0.7894
  O  O19  1  0.210600  0.861900  0.022400  1.0  -0.7169
  O  O20  1  0.198000  0.842200  0.237500  1.0  -0.8027
  O  O21  1  0.871700  0.299800  0.210400  1.0  -0.7588
  O  O22  1  0.072100  0.541300  0.332400  1.0  -0.7796
  O  O23  1  0.838100  0.313700  0.430500  1.0  -0.8311
  O  O24  1  0.676200  0.479000  0.300800  1.0  -0.5972
  O  O25  1  0.749400  0.992800  0.527300  1.0  -0.85
  O  O26  1  0.863900  0.776900  0.416900  1.0  -0.8244
  O  O27  1  0.483200  0.773300  0.408900  1.0  -0.8451
  O  O28  1  0.756700  0.979700  0.310800  1.0  -0.8659
  O  O29  1  0.549400  0.934800  0.834800  1.0  -0.7775
  O  O30  1  0.919800  0.940200  0.841100  1.0  -0.7901
  O  O31  1  0.789400  0.138100  0.977600  1.0  -0.7167
  O  O32  1  0.802000  0.157800  0.762500  1.0  -0.8037
  O  O33  1  0.128300  0.700200  0.789600  1.0  -0.7594
  O  O34  1  0.927900  0.458700  0.667600  1.0  -0.7797
  O  O35  1  0.161900  0.686300  0.569500  1.0  -0.8326
  O  O36  1  0.323800  0.521000  0.699200  1.0  -0.5972
  F  F37  1  0.303700  0.163100  0.923700  1.0  -0.4118
  F  F38  1  0.696300  0.836900  0.076300  1.0  -0.4129
