# generated using pymatgen
data_NiH14C16(NO)4
_symmetry_space_group_name_H-M   'P 1'
_cell_length_a   13.16980000
_cell_length_b   16.69690000
_cell_length_c   19.19650000
_cell_angle_alpha   90.00000000
_cell_angle_beta   90.00000000
_cell_angle_gamma   108.96700000
_symmetry_Int_Tables_number   1
_chemical_formula_structural   NiH14C16(NO)4
_chemical_formula_sum   'Ni6 H84 C96 N24 O24'
_cell_volume   3992.02444944
_cell_formula_units_Z   6
loop_
 _symmetry_equiv_pos_site_id
 _symmetry_equiv_pos_as_xyz
  1  'x, y, z'
loop_
 _atom_site_type_symbol
 _atom_site_label
 _atom_site_symmetry_multiplicity
 _atom_site_fract_x
 _atom_site_fract_y
 _atom_site_fract_z
 _atom_site_occupancy
 _atom_site_charge
  Ni  Ni1  1  0.462470  0.527870  0.773830  1.0  0.7654
  Ni  Ni2  1  0.037530  0.972130  0.273830  1.0  0.7656
  Ni  Ni3  1  0.537530  0.472130  0.226170  1.0  0.7658
  Ni  Ni4  1  0.962470  0.027870  0.726170  1.0  0.7657
  Ni  Ni5  1  0.000000  0.500000  0.000000  1.0  0.7327
  Ni  Ni6  1  0.500000  0.000000  0.500000  1.0  0.7327
  H  H7  1  0.794100  0.587100  0.885100  1.0  0.1
  H  H8  1  0.754600  0.764800  0.753700  1.0  0.0952
  H  H9  1  0.032000  0.812100  0.861900  1.0  0.1136
  H  H10  1  0.111500  0.375100  0.946600  1.0  0.081
  H  H11  1  0.117400  0.295600  0.850800  1.0  0.1369
  H  H12  1  0.943100  0.416500  0.745700  1.0  0.1402
  H  H13  1  0.942500  0.492600  0.845300  1.0  0.0769
  H  H14  1  0.459400  0.638500  0.647700  1.0  0.0824
  H  H15  1  0.346500  0.646800  0.559800  1.0  0.1404
  H  H16  1  0.116300  0.448600  0.647100  1.0  0.1214
  H  H17  1  0.235900  0.446900  0.733500  1.0  0.0736
  H  H18  1  0.321600  0.637900  0.799100  1.0  0.0779
  H  H19  1  0.202600  0.652900  0.881800  1.0  0.1433
  H  H20  1  0.310900  0.507500  0.011800  1.0  0.1461
  H  H21  1  0.424900  0.494900  0.924300  1.0  0.0829
  H  H22  1  0.051000  0.253000  0.731000  1.0  0.3424
  H  H23  1  0.998000  0.310000  0.694000  1.0  0.3302
  H  H24  1  0.178000  0.581000  0.508000  1.0  0.3643
  H  H25  1  0.085000  0.510000  0.544000  1.0  0.3521
  H  H26  1  0.157000  0.638000  0.004000  1.0  0.3141
  H  H27  1  0.198000  0.585000  0.049000  1.0  0.3269
  H  H28  1  0.705900  0.912900  0.385100  1.0  0.0997
  H  H29  1  0.745400  0.735200  0.253700  1.0  0.0957
  H  H30  1  0.468000  0.687900  0.361900  1.0  0.1124
  H  H31  1  0.388500  0.124900  0.446600  1.0  0.0808
  H  H32  1  0.382600  0.204400  0.350800  1.0  0.1381
  H  H33  1  0.556900  0.083500  0.245700  1.0  0.139
  H  H34  1  0.557500  0.007400  0.345300  1.0  0.0773
  H  H35  1  0.040600  0.861500  0.147700  1.0  0.0825
  H  H36  1  0.153500  0.853200  0.059800  1.0  0.1408
  H  H37  1  0.383700  0.051400  0.147100  1.0  0.1213
  H  H38  1  0.264100  0.053100  0.233500  1.0  0.0732
  H  H39  1  0.178400  0.862100  0.299100  1.0  0.0781
  H  H40  1  0.297400  0.847100  0.381800  1.0  0.1436
  H  H41  1  0.189100  0.992500  0.511800  1.0  0.1467
  H  H42  1  0.075100  0.005100  0.424300  1.0  0.0839
  H  H43  1  0.449000  0.247000  0.231000  1.0  0.3416
  H  H44  1  0.502000  0.190000  0.194000  1.0  0.3299
  H  H45  1  0.322000  0.919000  0.008000  1.0  0.3654
  H  H46  1  0.415000  0.990000  0.044000  1.0  0.3537
  H  H47  1  0.343000  0.862000  0.504000  1.0  0.3185
  H  H48  1  0.302000  0.915000  0.549000  1.0  0.3259
  H  H49  1  0.205900  0.412900  0.114900  1.0  0.0996
  H  H50  1  0.245400  0.235200  0.246300  1.0  0.0956
  H  H51  1  0.968000  0.187900  0.138100  1.0  0.1126
  H  H52  1  0.888500  0.624900  0.053400  1.0  0.081
  H  H53  1  0.882600  0.704400  0.149200  1.0  0.1384
  H  H54  1  0.056900  0.583500  0.254300  1.0  0.1395
  H  H55  1  0.057500  0.507400  0.154700  1.0  0.0774
  H  H56  1  0.540600  0.361500  0.352300  1.0  0.0818
  H  H57  1  0.653500  0.353200  0.440200  1.0  0.142
  H  H58  1  0.883700  0.551400  0.352900  1.0  0.1215
  H  H59  1  0.764100  0.553100  0.266500  1.0  0.0729
  H  H60  1  0.678400  0.362100  0.200900  1.0  0.0776
  H  H61  1  0.797400  0.347100  0.118200  1.0  0.1436
  H  H62  1  0.689100  0.492500  0.988200  1.0  0.1462
  H  H63  1  0.575100  0.505100  0.075700  1.0  0.084
  H  H64  1  0.949000  0.747000  0.269000  1.0  0.3408
  H  H65  1  0.002000  0.690000  0.306000  1.0  0.3296
  H  H66  1  0.822000  0.419000  0.492000  1.0  0.3658
  H  H67  1  0.915000  0.490000  0.456000  1.0  0.3529
  H  H68  1  0.843000  0.362000  0.996000  1.0  0.318
  H  H69  1  0.802000  0.415000  0.951000  1.0  0.3265
  H  H70  1  0.294100  0.087100  0.614900  1.0  0.0993
  H  H71  1  0.254600  0.264800  0.746300  1.0  0.0952
  H  H72  1  0.532000  0.312100  0.638100  1.0  0.1141
  H  H73  1  0.611500  0.875100  0.553400  1.0  0.0811
  H  H74  1  0.617400  0.795600  0.649200  1.0  0.1368
  H  H75  1  0.443100  0.916500  0.754300  1.0  0.1407
  H  H76  1  0.442500  0.992600  0.654700  1.0  0.077
  H  H77  1  0.959400  0.138500  0.852300  1.0  0.0817
  H  H78  1  0.846500  0.146800  0.940200  1.0  0.1409
  H  H79  1  0.616300  0.948600  0.852900  1.0  0.1214
  H  H80  1  0.735900  0.946900  0.766500  1.0  0.073
  H  H81  1  0.821600  0.137900  0.700900  1.0  0.0774
  H  H82  1  0.702600  0.152900  0.618200  1.0  0.1432
  H  H83  1  0.810900  0.007500  0.488200  1.0  0.1461
  H  H84  1  0.924900  0.994900  0.575700  1.0  0.0829
  H  H85  1  0.551000  0.753000  0.769000  1.0  0.3427
  H  H86  1  0.498000  0.810000  0.806000  1.0  0.3305
  H  H87  1  0.678000  0.081000  0.992000  1.0  0.3647
  H  H88  1  0.585000  0.010000  0.956000  1.0  0.3513
  H  H89  1  0.657000  0.138000  0.496000  1.0  0.3146
  H  H90  1  0.698000  0.085000  0.451000  1.0  0.3271
  C  C91  1  0.992700  0.661900  0.927800  1.0  0.662
  C  C92  1  0.925400  0.694100  0.879100  1.0  -0.1658
  C  C93  1  0.821300  0.641500  0.864100  1.0  -0.0005
  C  C94  1  0.757100  0.668800  0.818300  1.0  -0.157
  C  C95  1  0.644700  0.614400  0.805000  1.0  0.6458
  C  C96  1  0.797400  0.747100  0.786200  1.0  -0.0053
  C  C97  1  0.900700  0.799800  0.801700  1.0  -0.1406
  C  C98  1  0.936900  0.885300  0.768900  1.0  0.633
  C  C99  1  0.963200  0.774500  0.849400  1.0  0.0045
  C  C100  1  0.075300  0.382800  0.905600  1.0  0.1819
  C  C101  1  0.079200  0.335000  0.848500  1.0  -0.3042
  C  C102  1  0.027600  0.343500  0.786800  1.0  0.3707
  C  C103  1  0.977000  0.405700  0.786700  1.0  -0.3555
  C  C104  1  0.977300  0.450800  0.846700  1.0  0.172
  C  C105  1  0.388600  0.599200  0.647300  1.0  0.1919
  C  C106  1  0.322100  0.604800  0.594800  1.0  -0.2945
  C  C107  1  0.216800  0.547600  0.592900  1.0  0.389
  C  C108  1  0.186700  0.488400  0.646200  1.0  -0.3397
  C  C109  1  0.258700  0.487600  0.697200  1.0  0.1795
  C  C110  1  0.318100  0.609900  0.842500  1.0  0.1639
  C  C111  1  0.247400  0.619800  0.891800  1.0  -0.2808
  C  C112  1  0.242100  0.581400  0.955900  1.0  0.3365
  C  C113  1  0.310900  0.534200  0.968100  1.0  -0.2953
  C  C114  1  0.378600  0.527100  0.915400  1.0  0.178
  C  C115  1  0.507300  0.838100  0.427800  1.0  0.6627
  C  C116  1  0.574600  0.805900  0.379100  1.0  -0.167
  C  C117  1  0.678700  0.858500  0.364100  1.0  -0.0016
  C  C118  1  0.742900  0.831200  0.318300  1.0  -0.1562
  C  C119  1  0.855300  0.885600  0.305000  1.0  0.646
  C  C120  1  0.702600  0.752900  0.286200  1.0  -0.0042
  C  C121  1  0.599300  0.700200  0.301700  1.0  -0.1411
  C  C122  1  0.563100  0.614700  0.268900  1.0  0.6337
  C  C123  1  0.536800  0.725500  0.349400  1.0  0.0046
  C  C124  1  0.424700  0.117200  0.405600  1.0  0.1812
  C  C125  1  0.420800  0.165000  0.348500  1.0  -0.3091
  C  C126  1  0.472400  0.156500  0.286800  1.0  0.371
  C  C127  1  0.523000  0.094300  0.286700  1.0  -0.3503
  C  C128  1  0.522700  0.049200  0.346700  1.0  0.17
  C  C129  1  0.111400  0.900800  0.147300  1.0  0.1925
  C  C130  1  0.177900  0.895200  0.094800  1.0  -0.2947
  C  C131  1  0.283200  0.952400  0.092900  1.0  0.3875
  C  C132  1  0.313300  0.011600  0.146200  1.0  -0.3386
  C  C133  1  0.241300  0.012400  0.197200  1.0  0.1801
  C  C134  1  0.181900  0.890100  0.342500  1.0  0.1637
  C  C135  1  0.252600  0.880200  0.391800  1.0  -0.2828
  C  C136  1  0.257900  0.918600  0.455900  1.0  0.3358
  C  C137  1  0.189100  0.965800  0.468100  1.0  -0.2965
  C  C138  1  0.121400  0.972900  0.415400  1.0  0.1776
  C  C139  1  0.007300  0.338100  0.072200  1.0  0.6623
  C  C140  1  0.074600  0.305900  0.120900  1.0  -0.1669
  C  C141  1  0.178700  0.358500  0.135900  1.0  -0.0011
  C  C142  1  0.242900  0.331200  0.181700  1.0  -0.1562
  C  C143  1  0.355300  0.385600  0.195000  1.0  0.6461
  C  C144  1  0.202600  0.252900  0.213800  1.0  -0.0042
  C  C145  1  0.099300  0.200200  0.198300  1.0  -0.141
  C  C146  1  0.063100  0.114700  0.231100  1.0  0.634
  C  C147  1  0.036800  0.225500  0.150600  1.0  0.004
  C  C148  1  0.924700  0.617200  0.094400  1.0  0.1806
  C  C149  1  0.920800  0.665000  0.151500  1.0  -0.3087
  C  C150  1  0.972400  0.656500  0.213200  1.0  0.3713
  C  C151  1  0.023000  0.594300  0.213300  1.0  -0.3513
  C  C152  1  0.022700  0.549200  0.153300  1.0  0.1717
  C  C153  1  0.611400  0.400800  0.352700  1.0  0.192
  C  C154  1  0.677900  0.395200  0.405200  1.0  -0.2943
  C  C155  1  0.783200  0.452400  0.407100  1.0  0.3887
  C  C156  1  0.813300  0.511600  0.353800  1.0  -0.3384
  C  C157  1  0.741300  0.512400  0.302800  1.0  0.1794
  C  C158  1  0.681900  0.390100  0.157500  1.0  0.1653
  C  C159  1  0.752600  0.380200  0.108200  1.0  -0.2824
  C  C160  1  0.757900  0.418600  0.044100  1.0  0.3356
  C  C161  1  0.689100  0.465800  0.031900  1.0  -0.2961
  C  C162  1  0.621400  0.472900  0.084600  1.0  0.1774
  C  C163  1  0.492700  0.161900  0.572200  1.0  0.6614
  C  C164  1  0.425400  0.194100  0.620900  1.0  -0.1656
  C  C165  1  0.321300  0.141500  0.635900  1.0  -0.0002
  C  C166  1  0.257100  0.168800  0.681700  1.0  -0.1569
  C  C167  1  0.144700  0.114400  0.695000  1.0  0.6459
  C  C168  1  0.297400  0.247100  0.713800  1.0  -0.0051
  C  C169  1  0.400700  0.299800  0.698300  1.0  -0.1412
  C  C170  1  0.436900  0.385300  0.731100  1.0  0.6333
  C  C171  1  0.463200  0.274500  0.650600  1.0  0.0042
  C  C172  1  0.575300  0.882800  0.594400  1.0  0.181
  C  C173  1  0.579200  0.835000  0.651500  1.0  -0.3046
  C  C174  1  0.527600  0.843500  0.713200  1.0  0.3703
  C  C175  1  0.477000  0.905700  0.713300  1.0  -0.3564
  C  C176  1  0.477300  0.950800  0.653300  1.0  0.1723
  C  C177  1  0.888600  0.099200  0.852700  1.0  0.1917
  C  C178  1  0.822100  0.104800  0.905200  1.0  -0.2956
  C  C179  1  0.716800  0.047600  0.907100  1.0  0.3893
  C  C180  1  0.686700  0.988400  0.853800  1.0  -0.3392
  C  C181  1  0.758700  0.987600  0.802800  1.0  0.1789
  C  C182  1  0.818100  0.109900  0.657500  1.0  0.164
  C  C183  1  0.747400  0.119800  0.608200  1.0  -0.2813
  C  C184  1  0.742100  0.081400  0.544100  1.0  0.337
  C  C185  1  0.810900  0.034200  0.531900  1.0  -0.295
  C  C186  1  0.878600  0.027100  0.584600  1.0  0.1777
  N  N187  1  0.022800  0.440600  0.907400  1.0  -0.3521
  N  N188  1  0.026900  0.295700  0.729900  1.0  -0.6518
  N  N189  1  0.360400  0.541400  0.698800  1.0  -0.3545
  N  N190  1  0.146400  0.549700  0.542300  1.0  -0.7336
  N  N191  1  0.383100  0.562600  0.852500  1.0  -0.3398
  N  N192  1  0.168400  0.586800  0.006600  1.0  -0.6115
  N  N193  1  0.477200  0.059400  0.407400  1.0  -0.3522
  N  N194  1  0.473100  0.204300  0.229900  1.0  -0.6521
  N  N195  1  0.139600  0.958600  0.198800  1.0  -0.3551
  N  N196  1  0.353600  0.950300  0.042300  1.0  -0.7344
  N  N197  1  0.116900  0.937400  0.352500  1.0  -0.338
  N  N198  1  0.331600  0.913200  0.506600  1.0  -0.6113
  N  N199  1  0.977200  0.559400  0.092600  1.0  -0.3533
  N  N200  1  0.973100  0.704300  0.270100  1.0  -0.6535
  N  N201  1  0.639600  0.458600  0.301200  1.0  -0.3555
  N  N202  1  0.853600  0.450300  0.457700  1.0  -0.734
  N  N203  1  0.616900  0.437400  0.147500  1.0  -0.3384
  N  N204  1  0.831600  0.413200  0.993400  1.0  -0.6117
  N  N205  1  0.522800  0.940600  0.592600  1.0  -0.353
  N  N206  1  0.526900  0.795700  0.770100  1.0  -0.6531
  N  N207  1  0.860400  0.041400  0.801200  1.0  -0.3554
  N  N208  1  0.646400  0.049700  0.957700  1.0  -0.736
  N  N209  1  0.883100  0.062600  0.647500  1.0  -0.3396
  N  N210  1  0.668400  0.086800  0.493400  1.0  -0.6119
  O  O211  1  0.954200  0.584070  0.942910  1.0  -0.5918
  O  O212  1  0.080200  0.711500  0.950800  1.0  -0.6322
  O  O213  1  0.605600  0.543360  0.834670  1.0  -0.5567
  O  O214  1  0.588000  0.639950  0.762220  1.0  -0.5902
  O  O215  1  0.886500  0.899390  0.717070  1.0  -0.5642
  O  O216  1  0.014000  0.944780  0.795460  1.0  -0.5638
  O  O217  1  0.545800  0.915930  0.442910  1.0  -0.5924
  O  O218  1  0.419800  0.788500  0.450800  1.0  -0.632
  O  O219  1  0.894400  0.956640  0.334670  1.0  -0.5552
  O  O220  1  0.912000  0.860050  0.262220  1.0  -0.5904
  O  O221  1  0.613500  0.600610  0.217070  1.0  -0.5644
  O  O222  1  0.486000  0.555220  0.295460  1.0  -0.564
  O  O223  1  0.045800  0.415930  0.057090  1.0  -0.5919
  O  O224  1  0.919800  0.288500  0.049200  1.0  -0.6325
  O  O225  1  0.394400  0.456640  0.165330  1.0  -0.5549
  O  O226  1  0.412000  0.360050  0.237780  1.0  -0.5891
  O  O227  1  0.113500  0.100610  0.282930  1.0  -0.5656
  O  O228  1  0.986000  0.055220  0.204540  1.0  -0.5637
  O  O229  1  0.454200  0.084070  0.557090  1.0  -0.5918
  O  O230  1  0.580200  0.211500  0.549200  1.0  -0.6326
  O  O231  1  0.105600  0.043360  0.665330  1.0  -0.5563
  O  O232  1  0.088000  0.139950  0.737780  1.0  -0.5889
  O  O233  1  0.386500  0.399390  0.782930  1.0  -0.5646
  O  O234  1  0.514000  0.444780  0.704540  1.0  -0.5633
