# generated using pymatgen
data_CuH8C12(NO2)2
_symmetry_space_group_name_H-M   'P 1'
_cell_length_a   5.11860000
_cell_length_b   11.32540000
_cell_length_c   12.57660000
_cell_angle_alpha   92.02930000
_cell_angle_beta   101.74200000
_cell_angle_gamma   79.97900000
_symmetry_Int_Tables_number   1
_chemical_formula_structural   CuH8C12(NO2)2
_chemical_formula_sum   'Cu2 H16 C24 N4 O8'
_cell_volume   702.92149491
_cell_formula_units_Z   2
loop_
 _symmetry_equiv_pos_site_id
 _symmetry_equiv_pos_as_xyz
  1  'x, y, z'
loop_
 _atom_site_type_symbol
 _atom_site_label
 _atom_site_symmetry_multiplicity
 _atom_site_fract_x
 _atom_site_fract_y
 _atom_site_fract_z
 _atom_site_occupancy
 _atom_site_charge
  Cu  Cu1  1  0.055640  0.783490  0.225940  1.0  0.8559
  Cu  Cu2  1  0.829700  0.283490  0.774060  1.0  0.8562
  H  H3  1  0.872500  0.507000  0.662800  1.0  0.0775
  H  H4  1  0.652700  0.622000  0.512200  1.0  0.1222
  H  H5  1  0.092500  0.405600  0.459200  1.0  0.1165
  H  H6  1  0.324200  0.297200  0.611800  1.0  0.0943
  H  H7  1  0.334900  0.107800  0.807200  1.0  0.0821
  H  H8  1  0.597000  0.969200  0.932400  1.0  0.1216
  H  H9  1  0.048500  0.056500  0.123400  1.0  0.1175
  H  H10  1  0.810300  0.197500  0.997000  1.0  0.0904
  H  H11  1  0.209700  0.007000  0.337200  1.0  0.0776
  H  H12  1  0.140500  0.122000  0.487800  1.0  0.1225
  H  H13  1  0.633300  0.905600  0.540800  1.0  0.1165
  H  H14  1  0.712400  0.797200  0.388200  1.0  0.0945
  H  H15  1  0.527700  0.607800  0.192800  1.0  0.0808
  H  H16  1  0.664600  0.469200  0.067600  1.0  0.1222
  H  H17  1  0.925100  0.556500  0.876600  1.0  0.1168
  H  H18  1  0.813300  0.697500  0.003000  1.0  0.0898
  C  C19  1  0.711730  0.486800  0.621260  1.0  0.1702
  C  C20  1  0.582420  0.555900  0.530640  1.0  -0.1385
  C  C21  1  0.348210  0.525900  0.468020  1.0  -0.0572
  C  C22  1  0.251820  0.427900  0.499840  1.0  -0.075
  C  C23  1  0.390570  0.363500  0.591340  1.0  0.1387
  C  C24  1  0.194370  0.598100  0.368340  1.0  0.6483
  C  C25  1  0.278000  0.098100  0.872400  1.0  0.1738
  C  C26  1  0.435350  0.014100  0.946700  1.0  -0.1393
  C  C27  1  0.351990  0.996600  0.042980  1.0  -0.0467
  C  C28  1  0.112610  0.066300  0.059820  1.0  -0.1301
  C  C29  1  0.969660  0.149700  0.983320  1.0  0.1758
  C  C30  1  0.516850  0.908400  0.127900  1.0  0.669
  C  C31  1  0.090470  0.986800  0.378740  1.0  0.1715
  C  C32  1  0.051780  0.055900  0.469360  1.0  -0.1386
  C  C33  1  0.880190  0.025900  0.531980  1.0  -0.057
  C  C34  1  0.751980  0.927900  0.500160  1.0  -0.0736
  C  C35  1  0.799230  0.863500  0.408660  1.0  0.1392
  C  C36  1  0.826030  0.098100  0.631660  1.0  0.65
  C  C37  1  0.405600  0.598100  0.127600  1.0  0.175
  C  C38  1  0.488650  0.514100  0.053300  1.0  -0.1394
  C  C39  1  0.309010  0.496600  0.957020  1.0  -0.0492
  C  C40  1  0.052790  0.566300  0.940180  1.0  -0.1296
  C  C41  1  0.986340  0.649700  0.016680  1.0  0.1775
  C  C42  1  0.388950  0.408400  0.872100  1.0  0.669
  N  N43  1  0.620330  0.393500  0.652460  1.0  -0.3228
  N  N44  1  0.048670  0.166100  0.889140  1.0  -0.3165
  N  N45  1  0.967870  0.893500  0.347540  1.0  -0.3229
  N  N46  1  0.159530  0.666100  0.110860  1.0  -0.317
  O  O47  1  0.302850  0.683100  0.343500  1.0  -0.5748
  O  O48  1  0.976050  0.572300  0.320100  1.0  -0.6194
  O  O49  1  0.762960  0.873900  0.118320  1.0  -0.6046
  O  O50  1  0.409670  0.876300  0.199540  1.0  -0.634
  O  O51  1  0.959350  0.183100  0.656500  1.0  -0.5719
  O  O52  1  0.655950  0.072300  0.679900  1.0  -0.6184
  O  O53  1  0.644640  0.373900  0.881680  1.0  -0.603
  O  O54  1  0.210130  0.376300  0.800460  1.0  -0.6332
