# generated using pymatgen
data_CuH8C12(NO2)2
_symmetry_space_group_name_H-M   'P 1'
_cell_length_a   5.03280000
_cell_length_b   11.17600000
_cell_length_c   12.67970000
_cell_angle_alpha   91.84770000
_cell_angle_beta   101.44700000
_cell_angle_gamma   80.64990000
_symmetry_Int_Tables_number   1
_chemical_formula_structural   CuH8C12(NO2)2
_chemical_formula_sum   'Cu2 H16 C24 N4 O8'
_cell_volume   689.71646601
_cell_formula_units_Z   2
loop_
 _symmetry_equiv_pos_site_id
 _symmetry_equiv_pos_as_xyz
  1  'x, y, z'
loop_
 _atom_site_type_symbol
 _atom_site_label
 _atom_site_symmetry_multiplicity
 _atom_site_fract_x
 _atom_site_fract_y
 _atom_site_fract_z
 _atom_site_occupancy
 _atom_site_charge
  Cu  Cu1  1  0.399440  0.197750  0.227000  1.0  0.8351
  Cu  Cu2  1  0.172440  0.697750  0.773000  1.0  0.8348
  H  H3  1  0.584900  0.589900  0.455400  1.0  0.1196
  H  H4  1  0.170500  0.410600  0.873000  1.0  0.1224
  H  H5  1  0.408400  0.273000  0.002600  1.0  0.0781
  H  H6  1  0.633800  0.514400  0.066800  1.0  0.117
  H  H7  1  0.894100  0.377500  0.192600  1.0  0.0774
  H  H8  1  0.096600  0.357300  0.511000  1.0  0.1165
  H  H9  1  0.034300  0.467300  0.664600  1.0  0.0749
  H  H10  1  0.506300  0.692700  0.609000  1.0  0.0788
  H  H11  1  0.129500  0.089900  0.544600  1.0  0.1199
  H  H12  1  0.297500  0.910600  0.127000  1.0  0.1223
  H  H13  1  0.405800  0.773000  0.997400  1.0  0.0774
  H  H14  1  0.567000  0.014400  0.933200  1.0  0.1174
  H  H15  1  0.701500  0.877500  0.807400  1.0  0.076
  H  H16  1  0.585600  0.857300  0.489000  1.0  0.116
  H  H17  1  0.369700  0.967300  0.335400  1.0  0.0746
  H  H18  1  0.897300  0.192700  0.391000  1.0  0.0789
  C  C19  1  0.346670  0.461600  0.464540  1.0  -0.0422
  C  C20  1  0.400570  0.391500  0.364940  1.0  0.6435
  C  C21  1  0.470900  0.563600  0.496200  1.0  -0.1148
  C  C22  1  0.108300  0.405100  0.936800  1.0  -0.1233
  C  C23  1  0.251850  0.323200  0.015700  1.0  0.1809
  C  C24  1  0.791730  0.466800  0.052060  1.0  -0.1422
  C  C25  1  0.870690  0.478900  0.953780  1.0  -0.0431
  C  C26  1  0.707800  0.567600  0.869000  1.0  0.6769
  C  C27  1  0.948890  0.383900  0.127380  1.0  0.1588
  C  C28  1  0.181260  0.425200  0.528920  1.0  -0.1016
  C  C29  1  0.144030  0.492300  0.621260  1.0  0.1713
  C  C30  1  0.422620  0.625000  0.588440  1.0  0.1376
  C  C31  1  0.882130  0.961600  0.535460  1.0  -0.0441
  C  C32  1  0.035630  0.891500  0.635060  1.0  0.6399
  C  C33  1  0.974700  0.063600  0.503800  1.0  -0.1174
  C  C34  1  0.171500  0.905100  0.063200  1.0  -0.1224
  C  C35  1  0.236150  0.823200  0.984300  1.0  0.1819
  C  C36  1  0.739670  0.966800  0.947940  1.0  -0.1414
  C  C37  1  0.916910  0.978900  0.046220  1.0  -0.0425
  C  C38  1  0.838800  0.067600  0.131000  1.0  0.6757
  C  C39  1  0.821510  0.883900  0.872620  1.0  0.1601
  C  C40  1  0.652340  0.925200  0.471080  1.0  -0.1013
  C  C41  1  0.522770  0.992300  0.378740  1.0  0.17
  C  C42  1  0.834180  0.125000  0.411560  1.0  0.1388
  N  N43  1  0.175580  0.312900  0.109960  1.0  -0.3182
  N  N44  1  0.259220  0.590500  0.649640  1.0  -0.3087
  N  N45  1  0.065620  0.812900  0.890040  1.0  -0.3201
  N  N46  1  0.609580  0.090500  0.350360  1.0  -0.3103
  O  O47  1  0.269030  0.303000  0.340860  1.0  -0.571
  O  O48  1  0.817060  0.597500  0.797120  1.0  -0.6172
  O  O49  1  0.565880  0.420100  0.315360  1.0  -0.6059
  O  O50  1  0.460360  0.604200  0.878520  1.0  -0.5953
  O  O51  1  0.928170  0.803000  0.659140  1.0  -0.5712
  O  O52  1  0.019940  0.097500  0.202880  1.0  -0.6161
  O  O53  1  0.250520  0.920100  0.684640  1.0  -0.6064
  O  O54  1  0.581840  0.104200  0.121480  1.0  -0.5959
