# generated using pymatgen
data_InPCO6
_symmetry_space_group_name_H-M   'P 1'
_cell_length_a   5.65300000
_cell_length_b   6.62700000
_cell_length_c   9.39100000
_cell_angle_alpha   70.78800000
_cell_angle_beta   75.83600000
_cell_angle_gamma   89.68000000
_symmetry_Int_Tables_number   1
_chemical_formula_structural   InPCO6
_chemical_formula_sum   'In2 P2 C2 O12'
_cell_volume   321.03624433
_cell_formula_units_Z   2
loop_
 _symmetry_equiv_pos_site_id
 _symmetry_equiv_pos_as_xyz
  1  'x, y, z'
loop_
 _atom_site_type_symbol
 _atom_site_label
 _atom_site_symmetry_multiplicity
 _atom_site_fract_x
 _atom_site_fract_y
 _atom_site_fract_z
 _atom_site_occupancy
 _atom_site_charge
  In  In1  1  0.286400  0.331700  0.839400  1.0  1.6631
  In  In2  1  0.713600  0.668300  0.160600  1.0  1.6645
  P  P3  1  0.306000  0.790200  0.924000  1.0  1.8298
  P  P4  1  0.694000  0.209800  0.076000  1.0  1.8679
  C  C5  1  0.372000  0.506000  0.487400  1.0  0.6051
  C  C6  1  0.628000  0.494000  0.512600  1.0  0.6044
  O  O7  1  0.277000  0.654000  0.824600  1.0  -0.7553
  O  O8  1  0.447800  0.240200  0.030500  1.0  -0.7978
  O  O9  1  0.907000  0.255000  0.931300  1.0  -0.7786
  O  O10  1  0.684000  0.974900  0.189900  1.0  -0.7585
  O  O11  1  0.189100  0.441900  0.604500  1.0  -0.5068
  O  O12  1  0.639900  0.426000  0.655000  1.0  -0.5201
  O  O13  1  0.723000  0.346000  0.175400  1.0  -0.7551
  O  O14  1  0.552200  0.759800  0.969500  1.0  -0.7975
  O  O15  1  0.093000  0.745000  0.068700  1.0  -0.7794
  O  O16  1  0.316000  0.025100  0.810100  1.0  -0.7584
  O  O17  1  0.810900  0.558100  0.395500  1.0  -0.5066
  O  O18  1  0.360100  0.574000  0.345000  1.0  -0.5206
