# generated using pymatgen
data_InPCO6
_symmetry_space_group_name_H-M   'P 1'
_cell_length_a   10.35000000
_cell_length_b   12.19000000
_cell_length_c   13.00000000
_cell_angle_alpha   90.00000000
_cell_angle_beta   90.00000000
_cell_angle_gamma   90.00000000
_symmetry_Int_Tables_number   1
_chemical_formula_structural   InPCO6
_chemical_formula_sum   'In8 P8 C8 O48'
_cell_volume   1640.16450000
_cell_formula_units_Z   8
loop_
 _symmetry_equiv_pos_site_id
 _symmetry_equiv_pos_as_xyz
  1  'x, y, z'
loop_
 _atom_site_type_symbol
 _atom_site_label
 _atom_site_symmetry_multiplicity
 _atom_site_fract_x
 _atom_site_fract_y
 _atom_site_fract_z
 _atom_site_occupancy
 _atom_site_charge
  In  In1  1  0.559300  0.270300  0.000000  1.0  1.5775
  In  In2  1  0.440700  0.729700  0.000000  1.0  1.575
  In  In3  1  0.440700  0.270300  0.500000  1.0  1.5755
  In  In4  1  0.559300  0.729700  0.500000  1.0  1.5769
  In  In5  1  0.275900  0.000000  0.250000  1.0  1.5981
  In  In6  1  0.724100  0.000000  0.250000  1.0  1.596
  In  In7  1  0.724100  0.000000  0.750000  1.0  1.5937
  In  In8  1  0.275900  0.000000  0.750000  1.0  1.5958
  P  P9  1  0.781000  0.083400  0.000000  1.0  1.8081
  P  P10  1  0.219000  0.916600  0.000000  1.0  1.8072
  P  P11  1  0.219000  0.083400  0.500000  1.0  1.8065
  P  P12  1  0.781000  0.916600  0.500000  1.0  1.8088
  P  P13  1  0.500000  0.204300  0.250000  1.0  1.8796
  P  P14  1  0.500000  0.795700  0.250000  1.0  1.8804
  P  P15  1  0.500000  0.795700  0.750000  1.0  1.8804
  P  P16  1  0.500000  0.204300  0.750000  1.0  1.8796
  C  C17  1  0.574000  0.512300  0.000000  1.0  0.5936
  C  C18  1  0.426000  0.487700  0.000000  1.0  0.5919
  C  C19  1  0.426000  0.512300  0.500000  1.0  0.5928
  C  C20  1  0.574000  0.487700  0.500000  1.0  0.5931
  C  C21  1  0.000000  0.066700  0.250000  1.0  0.6329
  C  C22  1  0.000000  0.933300  0.250000  1.0  0.6328
  C  C23  1  0.000000  0.933300  0.750000  1.0  0.6328
  C  C24  1  0.000000  0.066700  0.750000  1.0  0.6329
  O  O25  1  0.545500  0.277500  0.162600  1.0  -0.7739
  O  O26  1  0.392000  0.133800  0.210200  1.0  -0.8059
  O  O27  1  0.105700  0.111900  0.240500  1.0  -0.5032
  O  O28  1  0.725800  0.024100  0.908200  1.0  -0.7973
  O  O29  1  0.454500  0.722500  0.162600  1.0  -0.7764
  O  O30  1  0.608000  0.866200  0.210200  1.0  -0.8048
  O  O31  1  0.894300  0.888100  0.240500  1.0  -0.5055
  O  O32  1  0.274200  0.975900  0.908200  1.0  -0.7989
  O  O33  1  0.454500  0.277500  0.337400  1.0  -0.775
  O  O34  1  0.608000  0.133800  0.289800  1.0  -0.8065
  O  O35  1  0.894300  0.111900  0.259500  1.0  -0.5019
  O  O36  1  0.274200  0.024100  0.591800  1.0  -0.7982
  O  O37  1  0.545500  0.722500  0.337400  1.0  -0.7759
  O  O38  1  0.392000  0.866200  0.289800  1.0  -0.8053
  O  O39  1  0.105700  0.888100  0.259500  1.0  -0.5041
  O  O40  1  0.725800  0.975900  0.591800  1.0  -0.7988
  O  O41  1  0.454500  0.722500  0.837400  1.0  -0.7769
  O  O42  1  0.608000  0.866200  0.789800  1.0  -0.8057
  O  O43  1  0.894300  0.888100  0.759500  1.0  -0.5049
  O  O44  1  0.274200  0.975900  0.091800  1.0  -0.7993
  O  O45  1  0.545500  0.277500  0.837400  1.0  -0.7736
  O  O46  1  0.392000  0.133800  0.789800  1.0  -0.806
  O  O47  1  0.105700  0.111900  0.759500  1.0  -0.5021
  O  O48  1  0.725800  0.024100  0.091800  1.0  -0.7977
  O  O49  1  0.545500  0.722500  0.662600  1.0  -0.7755
  O  O50  1  0.392000  0.866200  0.710200  1.0  -0.8041
  O  O51  1  0.105700  0.888100  0.740500  1.0  -0.5048
  O  O52  1  0.725800  0.975900  0.408200  1.0  -0.7983
  O  O53  1  0.454500  0.277500  0.662600  1.0  -0.7751
  O  O54  1  0.608000  0.133800  0.710200  1.0  -0.8046
  O  O55  1  0.894300  0.111900  0.740500  1.0  -0.5034
  O  O56  1  0.274200  0.024100  0.408200  1.0  -0.7979
  O  O57  1  0.647800  0.431900  0.000000  1.0  -0.4899
  O  O58  1  0.607100  0.611100  0.000000  1.0  -0.5286
  O  O59  1  0.742600  0.201500  0.000000  1.0  -0.7051
  O  O60  1  0.924000  0.091000  0.000000  1.0  -0.5955
  O  O61  1  0.352200  0.568100  0.000000  1.0  -0.4899
  O  O62  1  0.392900  0.388900  0.000000  1.0  -0.5322
  O  O63  1  0.257400  0.798500  0.000000  1.0  -0.7054
  O  O64  1  0.076000  0.909000  0.000000  1.0  -0.593
  O  O65  1  0.352200  0.431900  0.500000  1.0  -0.4901
  O  O66  1  0.392900  0.611100  0.500000  1.0  -0.5301
  O  O67  1  0.257400  0.201500  0.500000  1.0  -0.7059
  O  O68  1  0.076000  0.091000  0.500000  1.0  -0.5923
  O  O69  1  0.647800  0.568100  0.500000  1.0  -0.4891
  O  O70  1  0.607100  0.388900  0.500000  1.0  -0.5327
  O  O71  1  0.742600  0.798500  0.500000  1.0  -0.7049
  O  O72  1  0.924000  0.909000  0.500000  1.0  -0.5961
