# generated using pymatgen
data_ZnPO4
_symmetry_space_group_name_H-M   'P 1'
_cell_length_a   14.01890000
_cell_length_b   13.47920000
_cell_length_c   14.27870000
_cell_angle_alpha   90.00000000
_cell_angle_beta   90.46600000
_cell_angle_gamma   90.00000000
_symmetry_Int_Tables_number   1
_chemical_formula_structural   ZnPO4
_chemical_formula_sum   'Zn20 P20 O80'
_cell_volume   2698.06469935
_cell_formula_units_Z   20
loop_
 _symmetry_equiv_pos_site_id
 _symmetry_equiv_pos_as_xyz
  1  'x, y, z'
loop_
 _atom_site_type_symbol
 _atom_site_label
 _atom_site_symmetry_multiplicity
 _atom_site_fract_x
 _atom_site_fract_y
 _atom_site_fract_z
 _atom_site_occupancy
 _atom_site_charge
  Zn  Zn1  1  0.121600  0.130300  0.734200  1.0  1.1984
  Zn  Zn2  1  0.974100  0.730100  0.874200  1.0  1.1717
  Zn  Zn3  1  0.621600  0.630300  0.734200  1.0  1.1984
  Zn  Zn4  1  0.474100  0.230100  0.874200  1.0  1.1717
  Zn  Zn5  1  0.878400  0.130300  0.765800  1.0  1.1988
  Zn  Zn6  1  0.025900  0.730100  0.625800  1.0  1.1712
  Zn  Zn7  1  0.378400  0.630300  0.765800  1.0  1.1988
  Zn  Zn8  1  0.525900  0.230100  0.625800  1.0  1.1712
  Zn  Zn9  1  0.878400  0.869700  0.265800  1.0  1.1989
  Zn  Zn10  1  0.025900  0.269900  0.125800  1.0  1.1708
  Zn  Zn11  1  0.378400  0.369700  0.265800  1.0  1.1989
  Zn  Zn12  1  0.525900  0.769900  0.125800  1.0  1.1708
  Zn  Zn13  1  0.121600  0.869700  0.234200  1.0  1.1985
  Zn  Zn14  1  0.974100  0.269900  0.374200  1.0  1.1714
  Zn  Zn15  1  0.621600  0.369700  0.234200  1.0  1.1985
  Zn  Zn16  1  0.474100  0.769900  0.374200  1.0  1.1714
  Zn  Zn17  1  0.000000  0.434100  0.750000  1.0  1.1963
  Zn  Zn18  1  0.500000  0.934100  0.750000  1.0  1.1963
  Zn  Zn19  1  0.000000  0.565900  0.250000  1.0  1.1965
  Zn  Zn20  1  0.500000  0.065900  0.250000  1.0  1.1965
  P  P21  1  0.146500  0.612800  0.773700  1.0  1.7531
  P  P22  1  0.974800  0.253200  0.607200  1.0  1.7524
  P  P23  1  0.646500  0.112800  0.773700  1.0  1.7527
  P  P24  1  0.474800  0.753200  0.607200  1.0  1.7524
  P  P25  1  0.853500  0.612800  0.726300  1.0  1.7528
  P  P26  1  0.025200  0.253200  0.892800  1.0  1.7525
  P  P27  1  0.353500  0.112800  0.726300  1.0  1.7524
  P  P28  1  0.525200  0.753200  0.892800  1.0  1.7525
  P  P29  1  0.853500  0.387200  0.226300  1.0  1.753
  P  P30  1  0.025200  0.746800  0.392800  1.0  1.7601
  P  P31  1  0.353500  0.887200  0.226300  1.0  1.7526
  P  P32  1  0.525200  0.246800  0.392800  1.0  1.7601
  P  P33  1  0.146500  0.387200  0.273700  1.0  1.7531
  P  P34  1  0.974800  0.746800  0.107200  1.0  1.7736
  P  P35  1  0.646500  0.887200  0.273700  1.0  1.7527
  P  P36  1  0.474800  0.246800  0.107200  1.0  1.7736
  P  P37  1  0.000000  0.930400  0.750000  1.0  1.83
  P  P38  1  0.500000  0.430400  0.750000  1.0  1.83
  P  P39  1  0.000000  0.069600  0.250000  1.0  1.8302
  P  P40  1  0.500000  0.569600  0.250000  1.0  1.8302
  O  O41  1  0.058300  0.182900  0.623700  1.0  -0.7127
  O  O42  1  0.087000  0.994800  0.760100  1.0  -0.7487
  O  O43  1  0.249500  0.613300  0.811100  1.0  -0.7279
  O  O44  1  0.889000  0.221200  0.662500  1.0  -0.7117
  O  O45  1  0.008100  0.865000  0.664900  1.0  -0.7712
  O  O46  1  0.084300  0.649600  0.853100  1.0  -0.7801
  O  O47  1  0.948700  0.253800  0.504400  1.0  -0.7898
  O  O48  1  0.138800  0.680300  0.689300  1.0  -0.727
  O  O49  1  0.003600  0.357900  0.635900  1.0  -0.7277
  O  O50  1  0.119900  0.506600  0.750500  1.0  -0.6993
  O  O51  1  0.558300  0.682900  0.623700  1.0  -0.7117
  O  O52  1  0.587000  0.494800  0.760100  1.0  -0.7487
  O  O53  1  0.749500  0.113300  0.811100  1.0  -0.7279
  O  O54  1  0.389000  0.721200  0.662500  1.0  -0.7117
  O  O55  1  0.508100  0.365000  0.664900  1.0  -0.7712
  O  O56  1  0.584300  0.149600  0.853100  1.0  -0.7801
  O  O57  1  0.448700  0.753800  0.504400  1.0  -0.7898
  O  O58  1  0.638800  0.180300  0.689300  1.0  -0.727
  O  O59  1  0.503600  0.857900  0.635900  1.0  -0.7277
  O  O60  1  0.619900  0.006600  0.750500  1.0  -0.6993
  O  O61  1  0.941700  0.182900  0.876300  1.0  -0.7106
  O  O62  1  0.913000  0.994800  0.739900  1.0  -0.7486
  O  O63  1  0.750500  0.613300  0.688900  1.0  -0.7279
  O  O64  1  0.111000  0.221200  0.837500  1.0  -0.7116
  O  O65  1  0.991900  0.865000  0.835100  1.0  -0.7717
  O  O66  1  0.915700  0.649600  0.646900  1.0  -0.7799
  O  O67  1  0.051300  0.253800  0.995600  1.0  -0.7911
  O  O68  1  0.861200  0.680300  0.810700  1.0  -0.7266
  O  O69  1  0.996400  0.357900  0.864100  1.0  -0.7278
  O  O70  1  0.880100  0.506600  0.749500  1.0  -0.6995
  O  O71  1  0.441700  0.682900  0.876300  1.0  -0.7106
  O  O72  1  0.413000  0.494800  0.739900  1.0  -0.7486
  O  O73  1  0.250500  0.113300  0.688900  1.0  -0.7279
  O  O74  1  0.611000  0.721200  0.837500  1.0  -0.7116
  O  O75  1  0.491900  0.365000  0.835100  1.0  -0.7717
  O  O76  1  0.415700  0.149600  0.646900  1.0  -0.7799
  O  O77  1  0.551300  0.753800  0.995600  1.0  -0.7911
  O  O78  1  0.361200  0.180300  0.810700  1.0  -0.7266
  O  O79  1  0.496400  0.857900  0.864100  1.0  -0.7278
  O  O80  1  0.380100  0.006600  0.749500  1.0  -0.6995
  O  O81  1  0.941700  0.817100  0.376300  1.0  -0.713
  O  O82  1  0.913000  0.005200  0.239900  1.0  -0.7487
  O  O83  1  0.750500  0.386700  0.188900  1.0  -0.7283
  O  O84  1  0.111000  0.778800  0.337500  1.0  -0.7117
  O  O85  1  0.991900  0.135000  0.335100  1.0  -0.7717
  O  O86  1  0.915700  0.350400  0.146900  1.0  -0.7806
  O  O87  1  0.051300  0.746200  0.495600  1.0  -0.7911
  O  O88  1  0.861200  0.319700  0.310700  1.0  -0.7269
  O  O89  1  0.996400  0.642100  0.364100  1.0  -0.7284
  O  O90  1  0.880100  0.493400  0.249500  1.0  -0.6984
  O  O91  1  0.441700  0.317100  0.376300  1.0  -0.7121
  O  O92  1  0.413000  0.505200  0.239900  1.0  -0.7487
  O  O93  1  0.250500  0.886700  0.188900  1.0  -0.7283
  O  O94  1  0.611000  0.278800  0.337500  1.0  -0.7117
  O  O95  1  0.491900  0.635000  0.335100  1.0  -0.7717
  O  O96  1  0.415700  0.850400  0.146900  1.0  -0.7806
  O  O97  1  0.551300  0.246200  0.495600  1.0  -0.7911
  O  O98  1  0.361200  0.819700  0.310700  1.0  -0.7269
  O  O99  1  0.496400  0.142100  0.364100  1.0  -0.7284
  O  O100  1  0.380100  0.993400  0.249500  1.0  -0.6984
  O  O101  1  0.058300  0.817100  0.123700  1.0  -0.7103
  O  O102  1  0.087000  0.005200  0.260100  1.0  -0.7492
  O  O103  1  0.249500  0.386700  0.311100  1.0  -0.7278
  O  O104  1  0.889000  0.778800  0.162500  1.0  -0.7118
  O  O105  1  0.008100  0.135000  0.164900  1.0  -0.7708
  O  O106  1  0.084300  0.350400  0.353100  1.0  -0.7793
  O  O107  1  0.948700  0.746200  0.004400  1.0  -0.7899
  O  O108  1  0.138800  0.319700  0.189300  1.0  -0.7272
  O  O109  1  0.003600  0.642100  0.135900  1.0  -0.7286
  O  O110  1  0.119900  0.493400  0.250500  1.0  -0.698
  O  O111  1  0.558300  0.317100  0.123700  1.0  -0.7103
  O  O112  1  0.587000  0.505200  0.260100  1.0  -0.7492
  O  O113  1  0.749500  0.886700  0.311100  1.0  -0.7278
  O  O114  1  0.389000  0.278800  0.162500  1.0  -0.7118
  O  O115  1  0.508100  0.635000  0.164900  1.0  -0.7708
  O  O116  1  0.584300  0.850400  0.353100  1.0  -0.7793
  O  O117  1  0.448700  0.246200  0.004400  1.0  -0.7899
  O  O118  1  0.638800  0.819700  0.189300  1.0  -0.7272
  O  O119  1  0.503600  0.142100  0.135900  1.0  -0.7286
  O  O120  1  0.619900  0.993400  0.250500  1.0  -0.698
