# generated using pymatgen
data_CuH10C8IN2
_symmetry_space_group_name_H-M   'P 1'
_cell_length_a   16.37840000
_cell_length_b   16.37840000
_cell_length_c   16.37840000
_cell_angle_alpha   105.43900000
_cell_angle_beta   105.43900000
_cell_angle_gamma   105.43900000
_symmetry_Int_Tables_number   1
_chemical_formula_structural   CuH10C8IN2
_chemical_formula_sum   'Cu12 H120 C96 I12 N24'
_cell_volume   3804.05491962
_cell_formula_units_Z   12
loop_
 _symmetry_equiv_pos_site_id
 _symmetry_equiv_pos_as_xyz
  1  'x, y, z'
loop_
 _atom_site_type_symbol
 _atom_site_label
 _atom_site_symmetry_multiplicity
 _atom_site_fract_x
 _atom_site_fract_y
 _atom_site_fract_z
 _atom_site_occupancy
 _atom_site_charge
  Cu  Cu1  1  0.569120  0.250540  0.932960  1.0  0.2356
  Cu  Cu2  1  0.749470  0.430870  0.067070  1.0  0.2361
  Cu  Cu3  1  0.932960  0.569120  0.250540  1.0  0.2363
  Cu  Cu4  1  0.067070  0.749470  0.430870  1.0  0.2345
  Cu  Cu5  1  0.250540  0.932960  0.569120  1.0  0.2366
  Cu  Cu6  1  0.430870  0.067070  0.749470  1.0  0.2365
  Cu  Cu7  1  0.430880  0.749460  0.067040  1.0  0.2361
  Cu  Cu8  1  0.250530  0.569130  0.932930  1.0  0.2363
  Cu  Cu9  1  0.067040  0.430880  0.749460  1.0  0.2362
  Cu  Cu10  1  0.932930  0.250530  0.569130  1.0  0.2357
  Cu  Cu11  1  0.749460  0.067040  0.430880  1.0  0.2363
  Cu  Cu12  1  0.569130  0.932930  0.250530  1.0  0.2357
  H  H13  1  0.472400  0.907000  0.750600  1.0  0.1121
  H  H14  1  0.383200  0.866100  0.766100  1.0  0.1301
  H  H15  1  0.616800  0.233100  0.133900  1.0  0.1269
  H  H16  1  0.528100  0.249600  0.093300  1.0  0.1135
  H  H17  1  0.604000  0.800000  0.860100  1.0  0.1151
  H  H18  1  0.611600  0.901500  0.899500  1.0  0.1148
  H  H19  1  0.603700  0.859900  0.799300  1.0  0.1093
  H  H20  1  0.454800  0.742600  0.682400  1.0  0.1116
  H  H21  1  0.371200  0.711000  0.710900  1.0  0.1222
  H  H22  1  0.454000  0.681900  0.741800  1.0  0.1117
  H  H23  1  0.393100  0.288900  0.018000  1.0  0.1212
  H  H24  1  0.399900  0.242700  0.925400  1.0  0.1198
  H  H25  1  0.757400  0.600300  0.074600  1.0  0.1123
  H  H26  1  0.710600  0.607200  0.982200  1.0  0.1214
  H  H27  1  0.298500  0.234700  0.785500  1.0  0.1084
  H  H28  1  0.332600  0.340200  0.811500  1.0  0.1039
  H  H29  1  0.229100  0.284700  0.780300  1.0  0.1122
  H  H30  1  0.233500  0.234400  0.977700  1.0  0.0969
  H  H31  1  0.227200  0.166500  0.886900  1.0  0.1134
  H  H32  1  0.166200  0.225300  0.885200  1.0  0.1173
  H  H33  1  0.750600  0.472400  0.907000  1.0  0.1096
  H  H34  1  0.766100  0.383200  0.866100  1.0  0.1299
  H  H35  1  0.133900  0.616800  0.233100  1.0  0.1276
  H  H36  1  0.093300  0.528100  0.249600  1.0  0.1161
  H  H37  1  0.860100  0.604000  0.800000  1.0  0.1141
  H  H38  1  0.899500  0.611600  0.901500  1.0  0.113
  H  H39  1  0.799300  0.603700  0.859900  1.0  0.1083
  H  H40  1  0.682400  0.454800  0.742600  1.0  0.1105
  H  H41  1  0.710900  0.371200  0.711000  1.0  0.1231
  H  H42  1  0.741800  0.454000  0.681900  1.0  0.1151
  H  H43  1  0.018000  0.393100  0.288900  1.0  0.1235
  H  H44  1  0.925400  0.399900  0.242700  1.0  0.1209
  H  H45  1  0.074600  0.757400  0.600300  1.0  0.1106
  H  H46  1  0.982200  0.710600  0.607200  1.0  0.1248
  H  H47  1  0.785500  0.298500  0.234700  1.0  0.1086
  H  H48  1  0.811500  0.332600  0.340200  1.0  0.1037
  H  H49  1  0.780300  0.229100  0.284700  1.0  0.1087
  H  H50  1  0.977700  0.233500  0.234400  1.0  0.0955
  H  H51  1  0.886900  0.227200  0.166500  1.0  0.114
  H  H52  1  0.885200  0.166200  0.225300  1.0  0.1161
  H  H53  1  0.907000  0.750600  0.472400  1.0  0.1071
  H  H54  1  0.866100  0.766100  0.383200  1.0  0.1289
  H  H55  1  0.233100  0.133900  0.616800  1.0  0.1289
  H  H56  1  0.249600  0.093300  0.528100  1.0  0.1143
  H  H57  1  0.800000  0.860100  0.604000  1.0  0.1128
  H  H58  1  0.901500  0.899500  0.611600  1.0  0.1143
  H  H59  1  0.859900  0.799300  0.603700  1.0  0.1096
  H  H60  1  0.742600  0.682400  0.454800  1.0  0.1108
  H  H61  1  0.711000  0.710900  0.371200  1.0  0.1197
  H  H62  1  0.681900  0.741800  0.454000  1.0  0.1132
  H  H63  1  0.288900  0.018000  0.393100  1.0  0.1203
  H  H64  1  0.242700  0.925400  0.399900  1.0  0.122
  H  H65  1  0.600300  0.074600  0.757400  1.0  0.1117
  H  H66  1  0.607200  0.982200  0.710600  1.0  0.12
  H  H67  1  0.234700  0.785500  0.298500  1.0  0.1079
  H  H68  1  0.340200  0.811500  0.332600  1.0  0.1027
  H  H69  1  0.284700  0.780300  0.229100  1.0  0.1089
  H  H70  1  0.234400  0.977700  0.233500  1.0  0.0949
  H  H71  1  0.166500  0.886900  0.227200  1.0  0.1141
  H  H72  1  0.225300  0.885200  0.166200  1.0  0.1174
  H  H73  1  0.527600  0.093000  0.249400  1.0  0.112
  H  H74  1  0.616800  0.133900  0.233900  1.0  0.1314
  H  H75  1  0.383200  0.766900  0.866100  1.0  0.1231
  H  H76  1  0.471900  0.750400  0.906700  1.0  0.1129
  H  H77  1  0.396000  0.200000  0.139900  1.0  0.1151
  H  H78  1  0.388400  0.098500  0.100500  1.0  0.1141
  H  H79  1  0.396300  0.140100  0.200700  1.0  0.1107
  H  H80  1  0.545200  0.257400  0.317600  1.0  0.1112
  H  H81  1  0.628800  0.289000  0.289100  1.0  0.1126
  H  H82  1  0.546000  0.318100  0.258200  1.0  0.1138
  H  H83  1  0.606900  0.711100  0.982000  1.0  0.1217
  H  H84  1  0.600100  0.757300  0.074600  1.0  0.1194
  H  H85  1  0.242600  0.399700  0.925400  1.0  0.1134
  H  H86  1  0.289400  0.392800  0.017800  1.0  0.1214
  H  H87  1  0.701500  0.765300  0.214500  1.0  0.1081
  H  H88  1  0.667400  0.659800  0.188500  1.0  0.1043
  H  H89  1  0.770900  0.715300  0.219700  1.0  0.1122
  H  H90  1  0.766500  0.765600  0.022300  1.0  0.0962
  H  H91  1  0.772800  0.833500  0.113100  1.0  0.1162
  H  H92  1  0.833800  0.774700  0.114800  1.0  0.1156
  H  H93  1  0.249400  0.527600  0.093000  1.0  0.1093
  H  H94  1  0.233900  0.616800  0.133900  1.0  0.1296
  H  H95  1  0.866100  0.383200  0.766900  1.0  0.1317
  H  H96  1  0.906700  0.471900  0.750400  1.0  0.1178
  H  H97  1  0.139900  0.396000  0.200000  1.0  0.1131
  H  H98  1  0.100500  0.388400  0.098500  1.0  0.1128
  H  H99  1  0.200700  0.396300  0.140100  1.0  0.108
  H  H100  1  0.317600  0.545200  0.257400  1.0  0.1104
  H  H101  1  0.289100  0.628800  0.289000  1.0  0.1226
  H  H102  1  0.258200  0.546000  0.318100  1.0  0.1136
  H  H103  1  0.982000  0.606900  0.711100  1.0  0.1228
  H  H104  1  0.074600  0.600100  0.757300  1.0  0.1209
  H  H105  1  0.925400  0.242600  0.399700  1.0  0.1124
  H  H106  1  0.017800  0.289400  0.392800  1.0  0.1242
  H  H107  1  0.214500  0.701500  0.765300  1.0  0.1082
  H  H108  1  0.188500  0.667400  0.659800  1.0  0.1029
  H  H109  1  0.219700  0.770900  0.715300  1.0  0.1088
  H  H110  1  0.022300  0.766500  0.765600  1.0  0.0959
  H  H111  1  0.113100  0.772800  0.833500  1.0  0.1143
  H  H112  1  0.114800  0.833800  0.774700  1.0  0.117
  H  H113  1  0.093000  0.249400  0.527600  1.0  0.1085
  H  H114  1  0.133900  0.233900  0.616800  1.0  0.1283
  H  H115  1  0.766900  0.866100  0.383200  1.0  0.1297
  H  H116  1  0.750400  0.906700  0.471900  1.0  0.1159
  H  H117  1  0.200000  0.139900  0.396000  1.0  0.1121
  H  H118  1  0.098500  0.100500  0.388400  1.0  0.1141
  H  H119  1  0.140100  0.200700  0.396300  1.0  0.109
  H  H120  1  0.257400  0.317600  0.545200  1.0  0.1118
  H  H121  1  0.289000  0.289100  0.628800  1.0  0.1179
  H  H122  1  0.318100  0.258200  0.546000  1.0  0.1124
  H  H123  1  0.711100  0.982000  0.606900  1.0  0.1207
  H  H124  1  0.757300  0.074600  0.600100  1.0  0.1196
  H  H125  1  0.399700  0.925400  0.242600  1.0  0.1115
  H  H126  1  0.392800  0.017800  0.289400  1.0  0.1199
  H  H127  1  0.765300  0.214500  0.701500  1.0  0.1072
  H  H128  1  0.659800  0.188500  0.667400  1.0  0.1033
  H  H129  1  0.715300  0.219700  0.770900  1.0  0.1085
  H  H130  1  0.765600  0.022300  0.766500  1.0  0.0934
  H  H131  1  0.833500  0.113100  0.772800  1.0  0.1143
  H  H132  1  0.774700  0.114800  0.833800  1.0  0.1165
  C  C133  1  0.523450  0.123090  0.027570  1.0  0.2631
  C  C134  1  0.511900  0.038160  0.038190  1.0  -0.0897
  C  C135  1  0.476670  0.972910  0.877190  1.0  0.2535
  C  C136  1  0.448360  0.890000  0.793650  1.0  -0.3094
  C  C137  1  0.480970  0.815740  0.815890  1.0  0.2488
  C  C138  1  0.551590  0.206080  0.109970  1.0  -0.3146
  C  C139  1  0.584580  0.846800  0.846520  1.0  -0.3845
  C  C140  1  0.436240  0.730040  0.730020  1.0  -0.3824
  C  C141  1  0.622610  0.527040  0.019040  1.0  0.2634
  C  C142  1  0.537930  0.537660  0.008890  1.0  -0.0898
  C  C143  1  0.473110  0.377330  0.981200  1.0  0.2611
  C  C144  1  0.393330  0.295610  0.961500  1.0  -0.2972
  C  C145  1  0.300420  0.300860  0.912000  1.0  0.2556
  C  C146  1  0.704410  0.606930  0.038820  1.0  -0.302
  C  C147  1  0.288980  0.289020  0.813600  1.0  -0.3829
  C  C148  1  0.224940  0.224860  0.915100  1.0  -0.369
  C  C149  1  0.027570  0.523450  0.123090  1.0  0.2587
  C  C150  1  0.038190  0.511900  0.038160  1.0  -0.0898
  C  C151  1  0.877190  0.476670  0.972910  1.0  0.2568
  C  C152  1  0.793650  0.448360  0.890000  1.0  -0.2987
  C  C153  1  0.815890  0.480970  0.815740  1.0  0.2479
  C  C154  1  0.109970  0.551590  0.206080  1.0  -0.321
  C  C155  1  0.846520  0.584580  0.846800  1.0  -0.3834
  C  C156  1  0.730020  0.436240  0.730040  1.0  -0.3825
  C  C157  1  0.019040  0.622610  0.527040  1.0  0.2659
  C  C158  1  0.008890  0.537930  0.537660  1.0  -0.0899
  C  C159  1  0.981200  0.473110  0.377330  1.0  0.2588
  C  C160  1  0.961500  0.393330  0.295610  1.0  -0.3046
  C  C161  1  0.912000  0.300420  0.300860  1.0  0.255
  C  C162  1  0.038820  0.704410  0.606930  1.0  -0.3022
  C  C163  1  0.813600  0.288980  0.289020  1.0  -0.3808
  C  C164  1  0.915100  0.224940  0.224860  1.0  -0.3678
  C  C165  1  0.123090  0.027570  0.523450  1.0  0.2589
  C  C166  1  0.038160  0.038190  0.511900  1.0  -0.0897
  C  C167  1  0.972910  0.877190  0.476670  1.0  0.2541
  C  C168  1  0.890000  0.793650  0.448360  1.0  -0.3048
  C  C169  1  0.815740  0.815890  0.480970  1.0  0.2495
  C  C170  1  0.206080  0.109970  0.551590  1.0  -0.316
  C  C171  1  0.846800  0.846520  0.584580  1.0  -0.3831
  C  C172  1  0.730040  0.730020  0.436240  1.0  -0.3832
  C  C173  1  0.527040  0.019040  0.622610  1.0  0.2636
  C  C174  1  0.537660  0.008890  0.537930  1.0  -0.0898
  C  C175  1  0.377330  0.981200  0.473110  1.0  0.2608
  C  C176  1  0.295610  0.961500  0.393330  1.0  -0.3017
  C  C177  1  0.300860  0.912000  0.300420  1.0  0.2553
  C  C178  1  0.606930  0.038820  0.704410  1.0  -0.3086
  C  C179  1  0.289020  0.813600  0.288980  1.0  -0.3824
  C  C180  1  0.224860  0.915100  0.224940  1.0  -0.3688
  C  C181  1  0.476550  0.876910  0.972430  1.0  0.2633
  C  C182  1  0.488100  0.961840  0.961810  1.0  -0.0899
  C  C183  1  0.523330  0.027090  0.122810  1.0  0.2523
  C  C184  1  0.551640  0.110000  0.206350  1.0  -0.3103
  C  C185  1  0.519030  0.184260  0.184110  1.0  0.2488
  C  C186  1  0.448410  0.793920  0.890030  1.0  -0.3147
  C  C187  1  0.415420  0.153200  0.153480  1.0  -0.3838
  C  C188  1  0.563760  0.269960  0.269980  1.0  -0.3823
  C  C189  1  0.377390  0.472960  0.980960  1.0  0.264
  C  C190  1  0.462070  0.462340  0.991110  1.0  -0.089
  C  C191  1  0.526890  0.622670  0.018800  1.0  0.2601
  C  C192  1  0.606670  0.704390  0.038500  1.0  -0.294
  C  C193  1  0.699580  0.699140  0.088000  1.0  0.2552
  C  C194  1  0.295590  0.393070  0.961180  1.0  -0.302
  C  C195  1  0.711020  0.710980  0.186400  1.0  -0.381
  C  C196  1  0.775060  0.775140  0.084900  1.0  -0.3696
  C  C197  1  0.972430  0.476550  0.876910  1.0  0.2599
  C  C198  1  0.961810  0.488100  0.961840  1.0  -0.091
  C  C199  1  0.122810  0.523330  0.027090  1.0  0.2559
  C  C200  1  0.206350  0.551640  0.110000  1.0  -0.2997
  C  C201  1  0.184110  0.519030  0.184260  1.0  0.25
  C  C202  1  0.890030  0.448410  0.793920  1.0  -0.3217
  C  C203  1  0.153480  0.415420  0.153200  1.0  -0.3824
  C  C204  1  0.269980  0.563760  0.269960  1.0  -0.3809
  C  C205  1  0.980960  0.377390  0.472960  1.0  0.2654
  C  C206  1  0.991110  0.462070  0.462340  1.0  -0.0892
  C  C207  1  0.018800  0.526890  0.622670  1.0  0.2607
  C  C208  1  0.038500  0.606670  0.704390  1.0  -0.3048
  C  C209  1  0.088000  0.699580  0.699140  1.0  0.2556
  C  C210  1  0.961180  0.295590  0.393070  1.0  -0.3038
  C  C211  1  0.186400  0.711020  0.710980  1.0  -0.3804
  C  C212  1  0.084900  0.775060  0.775140  1.0  -0.37
  C  C213  1  0.876910  0.972430  0.476550  1.0  0.2609
  C  C214  1  0.961840  0.961810  0.488100  1.0  -0.0896
  C  C215  1  0.027090  0.122810  0.523330  1.0  0.2527
  C  C216  1  0.110000  0.206350  0.551640  1.0  -0.3061
  C  C217  1  0.184260  0.184110  0.519030  1.0  0.2478
  C  C218  1  0.793920  0.890030  0.448410  1.0  -0.3162
  C  C219  1  0.153200  0.153480  0.415420  1.0  -0.3859
  C  C220  1  0.269960  0.269980  0.563760  1.0  -0.3817
  C  C221  1  0.472960  0.980960  0.377390  1.0  0.2632
  C  C222  1  0.462340  0.991110  0.462070  1.0  -0.0898
  C  C223  1  0.622670  0.018800  0.526890  1.0  0.2611
  C  C224  1  0.704390  0.038500  0.606670  1.0  -0.2996
  C  C225  1  0.699140  0.088000  0.699580  1.0  0.2565
  C  C226  1  0.393070  0.961180  0.295590  1.0  -0.3086
  C  C227  1  0.710980  0.186400  0.711020  1.0  -0.3817
  C  C228  1  0.775140  0.084900  0.775060  1.0  -0.3679
  I  I229  1  0.738610  0.261390  0.999990  1.0  -0.3843
  I  I230  1  0.500010  0.238070  0.761970  1.0  -0.3789
  I  I231  1  0.999990  0.738610  0.261390  1.0  -0.3843
  I  I232  1  0.761970  0.500010  0.238070  1.0  -0.3776
  I  I233  1  0.261390  0.999990  0.738610  1.0  -0.3835
  I  I234  1  0.238070  0.761970  0.500010  1.0  -0.377
  I  I235  1  0.261390  0.738610  0.000010  1.0  -0.3838
  I  I236  1  0.499990  0.761930  0.238030  1.0  -0.3784
  I  I237  1  0.000010  0.261390  0.738610  1.0  -0.3842
  I  I238  1  0.238030  0.499990  0.761930  1.0  -0.3774
  I  I239  1  0.738610  0.000010  0.261390  1.0  -0.3841
  I  I240  1  0.761930  0.238030  0.499990  1.0  -0.3771
  N  N241  1  0.512670  0.129700  0.946780  1.0  -0.1502
  N  N242  1  0.487620  0.053590  0.870610  1.0  -0.1509
  N  N243  1  0.629390  0.447010  0.011800  1.0  -0.1587
  N  N244  1  0.553020  0.370640  0.988050  1.0  -0.16
  N  N245  1  0.946780  0.512670  0.129700  1.0  -0.1507
  N  N246  1  0.870610  0.487620  0.053590  1.0  -0.1504
  N  N247  1  0.011800  0.629390  0.447010  1.0  -0.1572
  N  N248  1  0.988050  0.553020  0.370640  1.0  -0.1582
  N  N249  1  0.129700  0.946780  0.512670  1.0  -0.1524
  N  N250  1  0.053590  0.870610  0.487620  1.0  -0.1521
  N  N251  1  0.447010  0.011800  0.629390  1.0  -0.1565
  N  N252  1  0.370640  0.988050  0.553020  1.0  -0.155
  N  N253  1  0.487330  0.870300  0.053220  1.0  -0.1504
  N  N254  1  0.512380  0.946410  0.129390  1.0  -0.1524
  N  N255  1  0.370610  0.552990  0.988200  1.0  -0.1587
  N  N256  1  0.446980  0.629360  0.011950  1.0  -0.1571
  N  N257  1  0.053220  0.487330  0.870300  1.0  -0.1536
  N  N258  1  0.129390  0.512380  0.946410  1.0  -0.1521
  N  N259  1  0.988200  0.370610  0.552990  1.0  -0.1575
  N  N260  1  0.011950  0.446980  0.629360  1.0  -0.1561
  N  N261  1  0.870300  0.053220  0.487330  1.0  -0.1541
  N  N262  1  0.946410  0.129390  0.512380  1.0  -0.1521
  N  N263  1  0.552990  0.988200  0.370610  1.0  -0.1582
  N  N264  1  0.629360  0.011950  0.446980  1.0  -0.1564
