# generated using pymatgen
data_GdH9C18(NO2)3
_symmetry_space_group_name_H-M   'P 1'
_cell_length_a   9.93800000
_cell_length_b   11.71300000
_cell_length_c   13.49800000
_cell_angle_alpha   66.88000000
_cell_angle_beta   86.94000000
_cell_angle_gamma   76.45000000
_symmetry_Int_Tables_number   1
_chemical_formula_structural   GdH9C18(NO2)3
_chemical_formula_sum   'Gd2 H18 C36 N6 O12'
_cell_volume   1403.49326249
_cell_formula_units_Z   2
loop_
 _symmetry_equiv_pos_site_id
 _symmetry_equiv_pos_as_xyz
  1  'x, y, z'
loop_
 _atom_site_type_symbol
 _atom_site_label
 _atom_site_symmetry_multiplicity
 _atom_site_fract_x
 _atom_site_fract_y
 _atom_site_fract_z
 _atom_site_occupancy
 _atom_site_charge
  Gd  Gd1  1  0.236410  0.526170  0.004820  1.0  2.2286
  Gd  Gd2  1  0.763590  0.473830  0.995180  1.0  2.2288
  H  H3  1  0.055200  0.234800  0.265500  1.0  0.1123
  H  H4  1  0.011600  0.122200  0.441500  1.0  0.0682
  H  H5  1  0.437900  0.008900  0.319300  1.0  0.1141
  H  H6  1  0.718000  0.702200  0.524200  1.0  0.0706
  H  H7  1  0.686100  0.600400  0.704900  1.0  0.1201
  H  H8  1  0.303500  0.826200  0.657800  1.0  0.1128
  H  H9  1  0.239800  0.568800  0.726400  1.0  0.1108
  H  H10  1  0.307800  0.597900  0.554800  1.0  0.0716
  H  H11  1  0.908800  0.466200  0.661400  1.0  0.113
  H  H12  1  0.944800  0.765200  0.734500  1.0  0.1128
  H  H13  1  0.988400  0.877800  0.558500  1.0  0.0686
  H  H14  1  0.562100  0.991100  0.680700  1.0  0.1143
  H  H15  1  0.282000  0.297800  0.475800  1.0  0.0707
  H  H16  1  0.313900  0.399600  0.295100  1.0  0.1204
  H  H17  1  0.696500  0.173800  0.342200  1.0  0.1127
  H  H18  1  0.760200  0.431200  0.273600  1.0  0.1104
  H  H19  1  0.692200  0.402100  0.445200  1.0  0.0715
  H  H20  1  0.091200  0.533800  0.338600  1.0  0.1146
  C  C21  1  0.288900  0.208700  0.158760  1.0  0.7377
  C  C22  1  0.252500  0.134800  0.272550  1.0  -0.0839
  C  C23  1  0.123600  0.167800  0.310400  1.0  -0.1592
  C  C24  1  0.098500  0.099100  0.416400  1.0  0.1777
  C  C25  1  0.315700  0.969100  0.447400  1.0  0.1922
  C  C26  1  0.350100  0.033500  0.342510  1.0  -0.0752
  C  C27  1  0.418300  0.859600  0.524900  1.0  0.1945
  C  C28  1  0.634000  0.728200  0.551700  1.0  0.1743
  C  C29  1  0.615600  0.665300  0.660600  1.0  -0.1418
  C  C30  1  0.489800  0.701400  0.701610  1.0  -0.1087
  C  C31  1  0.389200  0.800100  0.632570  1.0  -0.0636
  C  C32  1  0.465100  0.632700  0.819080  1.0  0.8423
  C  C33  1  0.013200  0.495800  0.823670  1.0  0.8124
  C  C34  1  0.065900  0.513200  0.713440  1.0  -0.1148
  C  C35  1  0.186700  0.553500  0.680300  1.0  -0.1317
  C  C36  1  0.226500  0.570500  0.576800  1.0  0.1667
  C  C37  1  0.039000  0.511300  0.539400  1.0  0.1983
  C  C38  1  0.991000  0.492600  0.641500  1.0  -0.091
  C  C39  1  0.711100  0.791300  0.841240  1.0  0.7381
  C  C40  1  0.747500  0.865200  0.727450  1.0  -0.0797
  C  C41  1  0.876400  0.832200  0.689600  1.0  -0.1589
  C  C42  1  0.901500  0.900900  0.583600  1.0  0.1754
  C  C43  1  0.684300  0.030900  0.552600  1.0  0.1925
  C  C44  1  0.649900  0.966500  0.657490  1.0  -0.0738
  C  C45  1  0.581700  0.140400  0.475100  1.0  0.194
  C  C46  1  0.366000  0.271800  0.448300  1.0  0.1739
  C  C47  1  0.384400  0.334700  0.339400  1.0  -0.141
  C  C48  1  0.510200  0.298600  0.298390  1.0  -0.1082
  C  C49  1  0.610800  0.199900  0.367430  1.0  -0.0637
  C  C50  1  0.534900  0.367300  0.180920  1.0  0.8412
  C  C51  1  0.986800  0.504200  0.176330  1.0  0.8138
  C  C52  1  0.934100  0.486800  0.286560  1.0  -0.1144
  C  C53  1  0.813300  0.446500  0.319700  1.0  -0.1329
  C  C54  1  0.773500  0.429500  0.423200  1.0  0.1666
  C  C55  1  0.961000  0.488700  0.460600  1.0  0.1978
  C  C56  1  0.009000  0.507400  0.358500  1.0  -0.089
  N  N57  1  0.191400  0.001300  0.485100  1.0  -0.4099
  N  N58  1  0.539200  0.823200  0.484300  1.0  -0.3792
  N  N59  1  0.156200  0.550300  0.506500  1.0  -0.3999
  N  N60  1  0.808600  0.998700  0.514900  1.0  -0.4108
  N  N61  1  0.460800  0.176800  0.515700  1.0  -0.3796
  N  N62  1  0.843800  0.449700  0.493500  1.0  -0.3982
  O  O63  1  0.396500  0.164110  0.123520  1.0  -0.5734
  O  O64  1  0.204410  0.314250  0.107000  1.0  -0.7789
  O  O65  1  0.343830  0.649120  0.849640  1.0  -0.769
  O  O66  1  0.568390  0.558770  0.878340  1.0  -0.8256
  O  O67  1  0.088850  0.506240  0.889350  1.0  -0.8173
  O  O68  1  0.895620  0.473070  0.842250  1.0  -0.7029
  O  O69  1  0.603500  0.835890  0.876480  1.0  -0.5743
  O  O70  1  0.795590  0.685750  0.893000  1.0  -0.7796
  O  O71  1  0.656170  0.350880  0.150360  1.0  -0.7671
  O  O72  1  0.431610  0.441230  0.121660  1.0  -0.8231
  O  O73  1  0.911150  0.493760  0.110650  1.0  -0.8169
  O  O74  1  0.104380  0.526930  0.157750  1.0  -0.6993
