# generated using pymatgen
data_Al3P3O12F
_symmetry_space_group_name_H-M   'P 1'
_cell_length_a   9.07400000
_cell_length_b   9.23000000
_cell_length_c   9.30900000
_cell_angle_alpha   76.44600000
_cell_angle_beta   87.34300000
_cell_angle_gamma   89.38800000
_symmetry_Int_Tables_number   1
_chemical_formula_structural   Al3P3O12F
_chemical_formula_sum   'Al6 P6 O24 F2'
_cell_volume   757.12816487
_cell_formula_units_Z   2
loop_
 _symmetry_equiv_pos_site_id
 _symmetry_equiv_pos_as_xyz
  1  'x, y, z'
loop_
 _atom_site_type_symbol
 _atom_site_label
 _atom_site_symmetry_multiplicity
 _atom_site_fract_x
 _atom_site_fract_y
 _atom_site_fract_z
 _atom_site_occupancy
 _atom_site_charge
  Al  Al1  1  0.839340  0.374670  0.925860  1.0  1.9553
  Al  Al2  1  0.434330  0.132200  0.911930  1.0  1.8426
  Al  Al3  1  0.619030  0.390990  0.341890  1.0  1.9678
  Al  Al4  1  0.160660  0.625330  0.074140  1.0  1.9554
  Al  Al5  1  0.565670  0.867800  0.088070  1.0  1.8422
  Al  Al6  1  0.380970  0.609010  0.658110  1.0  1.9504
  P  P7  1  0.187440  0.381850  0.902580  1.0  2.0378
  P  P8  1  0.617550  0.371700  0.676340  1.0  2.031
  P  P9  1  0.646060  0.168190  0.145660  1.0  1.8233
  P  P10  1  0.812560  0.618150  0.097420  1.0  2.0375
  P  P11  1  0.382450  0.628300  0.323660  1.0  2.0248
  P  P12  1  0.353940  0.831810  0.854340  1.0  1.8239
  O  O13  1  0.502630  0.254820  0.737200  1.0  -0.9227
  O  O14  1  0.652060  0.999140  0.187790  1.0  -0.7671
  O  O15  1  0.262060  0.232800  0.928730  1.0  -0.9078
  O  O16  1  0.533210  0.233260  0.033110  1.0  -0.8343
  O  O17  1  0.617900  0.223700  0.288750  1.0  -0.9308
  O  O18  1  0.752840  0.357300  0.769430  1.0  -0.9786
  O  O19  1  0.024640  0.361800  0.877300  1.0  -0.9805
  O  O20  1  0.675400  0.355100  0.522800  1.0  -0.9828
  O  O21  1  0.198000  0.452500  0.035650  1.0  -0.9378
  O  O22  1  0.799950  0.230400  0.080650  1.0  -0.8772
  O  O23  1  0.554450  0.528500  0.661900  1.0  -0.9476
  O  O24  1  0.250300  0.490100  0.763220  1.0  -1.0046
  O  O25  1  0.497370  0.745180  0.262800  1.0  -0.9215
  O  O26  1  0.347940  0.000860  0.812210  1.0  -0.7671
  O  O27  1  0.737940  0.767200  0.071270  1.0  -0.9095
  O  O28  1  0.466790  0.766740  0.966890  1.0  -0.8357
  O  O29  1  0.382100  0.776300  0.711250  1.0  -0.9318
  O  O30  1  0.247160  0.642700  0.230570  1.0  -0.9798
  O  O31  1  0.975360  0.638200  0.122700  1.0  -0.9801
  O  O32  1  0.324600  0.644900  0.477200  1.0  -0.9826
  O  O33  1  0.802000  0.547500  0.964350  1.0  -0.9387
  O  O34  1  0.200050  0.769600  0.919350  1.0  -0.8747
  O  O35  1  0.445550  0.471500  0.338100  1.0  -0.9484
  O  O36  1  0.749700  0.509900  0.236780  1.0  -1.0046
  F  F37  1  0.394190  0.986390  0.083640  1.0  -0.5714
  F  F38  1  0.605810  0.013610  0.916360  1.0  -0.5742
