# generated using pymatgen
data_ErH3(C5O4)2
_symmetry_space_group_name_H-M   'P 1'
_cell_length_a   7.12430000
_cell_length_b   10.69330000
_cell_length_c   17.09200000
_cell_angle_alpha   97.10900000
_cell_angle_beta   90.00000000
_cell_angle_gamma   90.00000000
_symmetry_Int_Tables_number   1
_chemical_formula_structural   ErH3(C5O4)2
_chemical_formula_sum   'Er4 H12 C40 O32'
_cell_volume   1292.09754397
_cell_formula_units_Z   4
loop_
 _symmetry_equiv_pos_site_id
 _symmetry_equiv_pos_as_xyz
  1  'x, y, z'
loop_
 _atom_site_type_symbol
 _atom_site_label
 _atom_site_symmetry_multiplicity
 _atom_site_fract_x
 _atom_site_fract_y
 _atom_site_fract_z
 _atom_site_occupancy
 _atom_site_charge
  Er  Er1  1  0.020140  0.677410  0.746570  1.0  1.4989
  Er  Er2  1  0.520140  0.822590  0.753430  1.0  1.4988
  Er  Er3  1  0.979860  0.322590  0.253430  1.0  1.4983
  Er  Er4  1  0.479860  0.177410  0.246570  1.0  1.4986
  H  H5  1  0.456100  0.180500  0.559500  1.0  0.45
  H  H6  1  0.180600  0.488500  0.520000  1.0  0.1199
  H  H7  1  0.151700  0.835500  0.549700  1.0  0.1193
  H  H8  1  0.956100  0.319500  0.940500  1.0  0.4495
  H  H9  1  0.680600  0.011500  0.980000  1.0  0.1201
  H  H10  1  0.651700  0.664500  0.950300  1.0  0.119
  H  H11  1  0.543900  0.819500  0.440500  1.0  0.449
  H  H12  1  0.819400  0.511500  0.480000  1.0  0.1193
  H  H13  1  0.848300  0.164500  0.450300  1.0  0.1191
  H  H14  1  0.043900  0.680500  0.059500  1.0  0.4494
  H  H15  1  0.319400  0.988500  0.020000  1.0  0.1194
  H  H16  1  0.348300  0.335500  0.049700  1.0  0.1192
  C  C17  1  0.326100  0.585800  0.650000  1.0  0.6542
  C  C18  1  0.424400  0.542000  0.573600  1.0  -0.0101
  C  C19  1  0.309300  0.493100  0.511700  1.0  -0.032
  C  C20  1  0.618600  0.548800  0.562000  1.0  -0.1116
  C  C21  1  0.754100  0.596700  0.626000  1.0  0.6795
  C  C22  1  0.852800  0.890300  0.635300  1.0  0.7026
  C  C23  1  0.927500  0.952800  0.567000  1.0  -0.0598
  C  C24  1  0.090300  0.901300  0.529500  1.0  -0.0254
  C  C25  1  0.839200  0.053200  0.537000  1.0  -0.0777
  C  C26  1  0.677300  0.121600  0.579200  1.0  0.6511
  C  C27  1  0.826100  0.914200  0.850000  1.0  0.6544
  C  C28  1  0.924400  0.958000  0.926400  1.0  -0.0103
  C  C29  1  0.809300  0.006900  0.988300  1.0  -0.0317
  C  C30  1  0.118600  0.951200  0.938000  1.0  -0.1113
  C  C31  1  0.254100  0.903300  0.874000  1.0  0.6789
  C  C32  1  0.352800  0.609700  0.864700  1.0  0.7037
  C  C33  1  0.427500  0.547200  0.933000  1.0  -0.0604
  C  C34  1  0.590300  0.598700  0.970500  1.0  -0.0253
  C  C35  1  0.339200  0.446800  0.963000  1.0  -0.0788
  C  C36  1  0.177300  0.378400  0.920800  1.0  0.6513
  C  C37  1  0.673900  0.414200  0.350000  1.0  0.6533
  C  C38  1  0.575600  0.458000  0.426400  1.0  -0.01
  C  C39  1  0.690700  0.506900  0.488300  1.0  -0.0314
  C  C40  1  0.381400  0.451200  0.438000  1.0  -0.111
  C  C41  1  0.245900  0.403300  0.374000  1.0  0.6783
  C  C42  1  0.147200  0.109700  0.364700  1.0  0.7023
  C  C43  1  0.072500  0.047200  0.433000  1.0  -0.0599
  C  C44  1  0.909700  0.098700  0.470500  1.0  -0.0267
  C  C45  1  0.160800  0.946800  0.463000  1.0  -0.0786
  C  C46  1  0.322700  0.878400  0.420800  1.0  0.6527
  C  C47  1  0.173900  0.085800  0.150000  1.0  0.6533
  C  C48  1  0.075600  0.042000  0.073600  1.0  -0.0098
  C  C49  1  0.190700  0.993100  0.011700  1.0  -0.0318
  C  C50  1  0.881400  0.048800  0.062000  1.0  -0.1112
  C  C51  1  0.745900  0.096700  0.126000  1.0  0.679
  C  C52  1  0.647200  0.390300  0.135300  1.0  0.7015
  C  C53  1  0.572500  0.452800  0.067000  1.0  -0.0595
  C  C54  1  0.409700  0.401300  0.029500  1.0  -0.0268
  C  C55  1  0.660800  0.553200  0.037000  1.0  -0.0776
  C  C56  1  0.822700  0.621600  0.079200  1.0  0.6531
  O  O57  1  0.242800  0.506600  0.685560  1.0  -0.5001
  O  O58  1  0.307800  0.703800  0.671590  1.0  -0.6551
  O  O59  1  0.924200  0.587100  0.614500  1.0  -0.5669
  O  O60  1  0.690400  0.646300  0.693110  1.0  -0.7092
  O  O61  1  0.972000  0.844800  0.676900  1.0  -0.5677
  O  O62  1  0.677800  0.885800  0.644820  1.0  -0.5934
  O  O63  1  0.677900  0.152200  0.650400  1.0  -0.457
  O  O64  1  0.543900  0.148800  0.533000  1.0  -0.5097
  O  O65  1  0.742800  0.993400  0.814440  1.0  -0.5029
  O  O66  1  0.807800  0.796200  0.828410  1.0  -0.6547
  O  O67  1  0.424200  0.912900  0.885500  1.0  -0.5667
  O  O68  1  0.190400  0.853700  0.806890  1.0  -0.7043
  O  O69  1  0.472000  0.655200  0.823100  1.0  -0.5689
  O  O70  1  0.177800  0.614200  0.855180  1.0  -0.5928
  O  O71  1  0.177900  0.347800  0.849600  1.0  -0.4563
  O  O72  1  0.043900  0.351200  0.967000  1.0  -0.5103
  O  O73  1  0.757200  0.493400  0.314440  1.0  -0.5027
  O  O74  1  0.692200  0.296200  0.328410  1.0  -0.6546
  O  O75  1  0.075800  0.412900  0.385500  1.0  -0.5659
  O  O76  1  0.309600  0.353700  0.306890  1.0  -0.7046
  O  O77  1  0.028000  0.155200  0.323100  1.0  -0.5693
  O  O78  1  0.322200  0.114200  0.355180  1.0  -0.593
  O  O79  1  0.322100  0.847800  0.349600  1.0  -0.4556
  O  O80  1  0.456100  0.851200  0.467000  1.0  -0.51
  O  O81  1  0.257200  0.006600  0.185560  1.0  -0.499
  O  O82  1  0.192200  0.203800  0.171590  1.0  -0.6549
  O  O83  1  0.575800  0.087100  0.114500  1.0  -0.5662
  O  O84  1  0.809600  0.146300  0.193110  1.0  -0.7087
  O  O85  1  0.528000  0.344800  0.176900  1.0  -0.568
  O  O86  1  0.822200  0.385800  0.144820  1.0  -0.5932
  O  O87  1  0.822100  0.652200  0.150400  1.0  -0.4566
  O  O88  1  0.956100  0.648800  0.033000  1.0  -0.5099
