# generated using pymatgen
data_Cu2H14WC14(SN)4
_symmetry_space_group_name_H-M   'P 1'
_cell_length_a   11.03170000
_cell_length_b   13.89340000
_cell_length_c   18.29110000
_cell_angle_alpha   73.65880000
_cell_angle_beta   72.44870000
_cell_angle_gamma   66.60840000
_symmetry_Int_Tables_number   1
_chemical_formula_structural   Cu2H14WC14(SN)4
_chemical_formula_sum   'Cu8 H56 W4 C56 S16 N16'
_cell_volume   2411.03805019
_cell_formula_units_Z   4
loop_
 _symmetry_equiv_pos_site_id
 _symmetry_equiv_pos_as_xyz
  1  'x, y, z'
loop_
 _atom_site_type_symbol
 _atom_site_label
 _atom_site_symmetry_multiplicity
 _atom_site_fract_x
 _atom_site_fract_y
 _atom_site_fract_z
 _atom_site_occupancy
 _atom_site_charge
  Cu  Cu1  1  0.407650  0.737010  0.604990  1.0  0.3217
  Cu  Cu2  1  0.593330  0.740920  0.746860  1.0  0.2711
  Cu  Cu3  1  0.749650  0.762990  0.895010  1.0  0.3183
  Cu  Cu4  1  0.081110  0.759080  0.753140  1.0  0.2708
  Cu  Cu5  1  0.592350  0.262990  0.395010  1.0  0.3204
  Cu  Cu6  1  0.406670  0.259080  0.253140  1.0  0.271
  Cu  Cu7  1  0.250350  0.237010  0.104990  1.0  0.319
  Cu  Cu8  1  0.918890  0.240920  0.246860  1.0  0.271
  H  H9  1  0.947700  0.765800  0.987600  1.0  0.0807
  H  H10  1  0.766600  0.554600  0.037800  1.0  0.1024
  H  H11  1  0.901000  0.506600  0.135600  1.0  0.1244
  H  H12  1  0.106200  0.567900  0.135500  1.0  0.1048
  H  H13  1  0.111000  0.678300  0.079300  1.0  0.1137
  H  H14  1  0.002500  0.565000  0.270200  1.0  0.1045
  H  H15  1  0.932600  0.848400  0.124600  1.0  0.0883
  H  H16  1  0.483200  0.780200  0.027600  1.0  0.1054
  H  H17  1  0.553300  0.010400  0.855800  1.0  0.1088
  H  H18  1  0.322400  0.084500  0.932300  1.0  0.1265
  H  H19  1  0.250200  0.867600  0.097000  1.0  0.1137
  H  H20  1  0.223700  0.990300  0.094900  1.0  0.1128
  H  H21  1  0.200100  0.874600  0.949600  1.0  0.1059
  H  H22  1  0.990300  0.078400  0.099400  1.0  0.1045
  H  H23  1  0.701100  0.734200  0.512400  1.0  0.0808
  H  H24  1  0.359000  0.945400  0.462200  1.0  0.1029
  H  H25  1  0.543200  0.993400  0.364400  1.0  0.1245
  H  H26  1  0.809600  0.932100  0.364500  1.0  0.1049
  H  H27  1  0.868600  0.821700  0.420700  1.0  0.1148
  H  H28  1  0.837700  0.935000  0.229800  1.0  0.1052
  H  H29  1  0.905600  0.651600  0.375400  1.0  0.0882
  H  H30  1  0.291000  0.719800  0.472400  1.0  0.1046
  H  H31  1  0.419500  0.489600  0.644200  1.0  0.1081
  H  H32  1  0.339200  0.415500  0.567700  1.0  0.1271
  H  H33  1  0.214800  0.632400  0.403000  1.0  0.1125
  H  H34  1  0.308900  0.509700  0.405100  1.0  0.1154
  H  H35  1  0.024300  0.625400  0.550400  1.0  0.1047
  H  H36  1  0.168100  0.421600  0.400600  1.0  0.1055
  H  H37  1  0.052300  0.234200  0.012400  1.0  0.0807
  H  H38  1  0.233400  0.445400  0.962200  1.0  0.1026
  H  H39  1  0.099000  0.493400  0.864400  1.0  0.1243
  H  H40  1  0.893800  0.432100  0.864500  1.0  0.1058
  H  H41  1  0.889000  0.321700  0.920700  1.0  0.1126
  H  H42  1  0.997500  0.435000  0.729800  1.0  0.105
  H  H43  1  0.067400  0.151600  0.875400  1.0  0.0883
  H  H44  1  0.516800  0.219800  0.972400  1.0  0.1045
  H  H45  1  0.446700  0.989600  0.144200  1.0  0.1091
  H  H46  1  0.677600  0.915500  0.067700  1.0  0.1263
  H  H47  1  0.749800  0.132400  0.903000  1.0  0.1131
  H  H48  1  0.776300  0.009700  0.905100  1.0  0.1124
  H  H49  1  0.799900  0.125400  0.050400  1.0  0.1058
  H  H50  1  0.009700  0.921600  0.900600  1.0  0.1052
  H  H51  1  0.298900  0.265800  0.487600  1.0  0.0801
  H  H52  1  0.641000  0.054600  0.537800  1.0  0.103
  H  H53  1  0.456800  0.006600  0.635600  1.0  0.124
  H  H54  1  0.190400  0.067900  0.635500  1.0  0.1052
  H  H55  1  0.131400  0.178300  0.579300  1.0  0.1155
  H  H56  1  0.162300  0.065000  0.770200  1.0  0.1047
  H  H57  1  0.094400  0.348400  0.624600  1.0  0.0885
  H  H58  1  0.709000  0.280200  0.527600  1.0  0.1049
  H  H59  1  0.580500  0.510400  0.355800  1.0  0.1094
  H  H60  1  0.660800  0.584500  0.432300  1.0  0.1272
  H  H61  1  0.785200  0.367600  0.597000  1.0  0.113
  H  H62  1  0.691100  0.490300  0.594900  1.0  0.1153
  H  H63  1  0.975700  0.374600  0.449600  1.0  0.1051
  H  H64  1  0.831900  0.578400  0.599400  1.0  0.1054
  W  W65  1  0.844380  0.741980  0.744740  1.0  0.6837
  W  W66  1  0.331100  0.758020  0.755260  1.0  0.685
  W  W67  1  0.155620  0.258020  0.255260  1.0  0.6845
  W  W68  1  0.668900  0.241980  0.244740  1.0  0.6841
  C  C69  1  0.917700  0.706800  0.012400  1.0  0.124
  C  C70  1  0.820200  0.592500  0.039900  1.0  -0.0073
  C  C71  1  0.894100  0.565500  0.093300  1.0  -0.1263
  C  C72  1  0.049800  0.641900  0.116700  1.0  -0.0905
  C  C73  1  0.979000  0.699000  0.185800  1.0  0.0362
  C  C74  1  0.969300  0.640800  0.261600  1.0  -0.114
  C  C75  1  0.928500  0.807400  0.176000  1.0  -0.1242
  C  C76  1  0.472200  0.847400  0.993800  1.0  0.0842
  C  C77  1  0.509800  0.972500  0.900700  1.0  0.0176
  C  C78  1  0.383300  0.013500  0.942300  1.0  -0.1482
  C  C79  1  0.238000  0.938500  0.062700  1.0  -0.0712
  C  C80  1  0.114800  0.971500  0.029100  1.0  0.031
  C  C81  1  0.118300  0.926100  0.970300  1.0  -0.118
  C  C82  1  0.994600  0.046200  0.058800  1.0  -0.1054
  C  C83  1  0.636900  0.793200  0.487600  1.0  0.1201
  C  C84  1  0.452600  0.907500  0.460100  1.0  -0.0085
  C  C85  1  0.552900  0.934500  0.406700  1.0  -0.1252
  C  C86  1  0.808400  0.858100  0.383300  1.0  -0.0863
  C  C87  1  0.863800  0.801000  0.314200  1.0  0.0355
  C  C88  1  0.871700  0.859200  0.238400  1.0  -0.1105
  C  C89  1  0.911900  0.692600  0.324000  1.0  -0.1275
  C  C90  1  0.313400  0.652600  0.506200  1.0  0.0848
  C  C91  1  0.383000  0.527500  0.599300  1.0  0.0177
  C  C92  1  0.339100  0.486500  0.557700  1.0  -0.147
  C  C93  1  0.239200  0.561500  0.437300  1.0  -0.0698
  C  C94  1  0.115400  0.528500  0.470900  1.0  0.0289
  C  C95  1  0.014700  0.573900  0.529700  1.0  -0.1162
  C  C96  1  0.099600  0.453800  0.441200  1.0  -0.1078
  C  C97  1  0.082300  0.293200  0.987600  1.0  0.1192
  C  C98  1  0.179800  0.407500  0.960100  1.0  -0.0079
  C  C99  1  0.105900  0.434500  0.906700  1.0  -0.1249
  C  C100  1  0.950200  0.358100  0.883300  1.0  -0.0824
  C  C101  1  0.021000  0.301000  0.814200  1.0  0.0359
  C  C102  1  0.030700  0.359200  0.738400  1.0  -0.1122
  C  C103  1  0.071500  0.192600  0.824000  1.0  -0.1259
  C  C104  1  0.527800  0.152600  0.006200  1.0  0.0852
  C  C105  1  0.490200  0.027500  0.099300  1.0  0.0168
  C  C106  1  0.616700  0.986500  0.057700  1.0  -0.1455
  C  C107  1  0.762000  0.061500  0.937300  1.0  -0.0707
  C  C108  1  0.885200  0.028500  0.970900  1.0  0.03
  C  C109  1  0.881700  0.073900  0.029700  1.0  -0.1161
  C  C110  1  0.005400  0.953800  0.941200  1.0  -0.1061
  C  C111  1  0.363100  0.206800  0.512400  1.0  0.1212
  C  C112  1  0.547400  0.092500  0.539900  1.0  -0.0083
  C  C113  1  0.447100  0.065500  0.593300  1.0  -0.1242
  C  C114  1  0.191600  0.141900  0.616700  1.0  -0.0848
  C  C115  1  0.136200  0.199000  0.685800  1.0  0.0364
  C  C116  1  0.128300  0.140800  0.761600  1.0  -0.1122
  C  C117  1  0.088100  0.307400  0.676000  1.0  -0.1268
  C  C118  1  0.686600  0.347400  0.493800  1.0  0.0844
  C  C119  1  0.617000  0.472500  0.400700  1.0  0.0169
  C  C120  1  0.660900  0.513500  0.442300  1.0  -0.1471
  C  C121  1  0.760800  0.438500  0.562700  1.0  -0.0671
  C  C122  1  0.884600  0.471500  0.529100  1.0  0.0276
  C  C123  1  0.985300  0.426100  0.470300  1.0  -0.116
  C  C124  1  0.900400  0.546200  0.558800  1.0  -0.1064
  S  S125  1  0.387840  0.861630  0.799210  1.0  -0.3846
  S  S126  1  0.731610  0.644410  0.836790  1.0  -0.4089
  S  S127  1  0.521330  0.636700  0.702840  1.0  -0.4369
  S  S128  1  0.205340  0.678240  0.849220  1.0  -0.3971
  S  S129  1  0.048680  0.638370  0.700790  1.0  -0.3831
  S  S130  1  0.212810  0.855590  0.663210  1.0  -0.4088
  S  S131  1  0.860870  0.863300  0.797160  1.0  -0.4358
  S  S132  1  0.732800  0.821760  0.650780  1.0  -0.3969
  S  S133  1  0.612160  0.138370  0.200790  1.0  -0.3856
  S  S134  1  0.268390  0.355590  0.163210  1.0  -0.4082
  S  S135  1  0.478670  0.363300  0.297160  1.0  -0.4366
  S  S136  1  0.794660  0.321760  0.150780  1.0  -0.3958
  S  S137  1  0.951320  0.361630  0.299210  1.0  -0.3833
  S  S138  1  0.787190  0.144410  0.336790  1.0  -0.4095
  S  S139  1  0.139130  0.136700  0.202840  1.0  -0.4368
  S  S140  1  0.267200  0.178240  0.349220  1.0  -0.397
  N  N141  1  0.833200  0.683700  0.988300  1.0  -0.3272
  N  N142  1  0.956900  0.637800  0.076000  1.0  0.0523
  N  N143  1  0.565000  0.868600  0.933200  1.0  -0.3201
  N  N144  1  0.360100  0.933800  0.001200  1.0  0.0598
  N  N145  1  0.505200  0.816300  0.511700  1.0  -0.3319
  N  N146  1  0.670700  0.862200  0.424000  1.0  0.0529
  N  N147  1  0.366800  0.631400  0.566800  1.0  -0.3211
  N  N148  1  0.295100  0.566200  0.498800  1.0  0.0606
  N  N149  1  0.166800  0.316300  0.011700  1.0  -0.3293
  N  N150  1  0.043100  0.362200  0.924000  1.0  0.053
  N  N151  1  0.435000  0.131400  0.066800  1.0  -0.3212
  N  N152  1  0.639900  0.066200  0.998800  1.0  0.0604
  N  N153  1  0.494800  0.183700  0.488300  1.0  -0.3319
  N  N154  1  0.329300  0.137800  0.576000  1.0  0.0522
  N  N155  1  0.633200  0.368600  0.433200  1.0  -0.3219
  N  N156  1  0.704900  0.433800  0.501200  1.0  0.0601
