# generated using pymatgen
data_Zn2H8C15O7
_symmetry_space_group_name_H-M   'P 1'
_cell_length_a   16.27820000
_cell_length_b   16.27820000
_cell_length_c   30.49920000
_cell_angle_alpha   90.00000000
_cell_angle_beta   90.00000000
_cell_angle_gamma   90.00000000
_symmetry_Int_Tables_number   1
_chemical_formula_structural   Zn2H8C15O7
_chemical_formula_sum   'Zn32 H128 C240 O112'
_cell_volume   8081.67177098
_cell_formula_units_Z   16
loop_
 _symmetry_equiv_pos_site_id
 _symmetry_equiv_pos_as_xyz
  1  'x, y, z'
loop_
 _atom_site_type_symbol
 _atom_site_label
 _atom_site_symmetry_multiplicity
 _atom_site_fract_x
 _atom_site_fract_y
 _atom_site_fract_z
 _atom_site_occupancy
 _atom_site_charge
  Zn  Zn1  1  0.638830  0.909960  0.796130  1.0  1.0535
  Zn  Zn2  1  0.624680  0.886000  0.899700  1.0  1.0693
  Zn  Zn3  1  0.861170  0.590040  0.796130  1.0  1.054
  Zn  Zn4  1  0.875320  0.614000  0.899700  1.0  1.0693
  Zn  Zn5  1  0.590040  0.638830  0.796130  1.0  1.0501
  Zn  Zn6  1  0.614000  0.624680  0.899700  1.0  1.0671
  Zn  Zn7  1  0.909960  0.861170  0.796130  1.0  1.051
  Zn  Zn8  1  0.886000  0.875320  0.899700  1.0  1.0665
  Zn  Zn9  1  0.361170  0.409960  0.703870  1.0  1.0534
  Zn  Zn10  1  0.375320  0.386000  0.600300  1.0  1.0695
  Zn  Zn11  1  0.138830  0.090040  0.703870  1.0  1.054
  Zn  Zn12  1  0.124680  0.114000  0.600300  1.0  1.0696
  Zn  Zn13  1  0.409960  0.138830  0.703870  1.0  1.0507
  Zn  Zn14  1  0.386000  0.124680  0.600300  1.0  1.0667
  Zn  Zn15  1  0.090040  0.361170  0.703870  1.0  1.0504
  Zn  Zn16  1  0.114000  0.375320  0.600300  1.0  1.0674
  Zn  Zn17  1  0.361170  0.090040  0.203870  1.0  1.054
  Zn  Zn18  1  0.375320  0.114000  0.100300  1.0  1.0701
  Zn  Zn19  1  0.138830  0.409960  0.203870  1.0  1.0534
  Zn  Zn20  1  0.124680  0.386000  0.100300  1.0  1.0699
  Zn  Zn21  1  0.409960  0.361170  0.203870  1.0  1.051
  Zn  Zn22  1  0.386000  0.375320  0.100300  1.0  1.0679
  Zn  Zn23  1  0.090040  0.138830  0.203870  1.0  1.0502
  Zn  Zn24  1  0.114000  0.124680  0.100300  1.0  1.0685
  Zn  Zn25  1  0.638830  0.590040  0.296130  1.0  1.054
  Zn  Zn26  1  0.624680  0.614000  0.399700  1.0  1.0698
  Zn  Zn27  1  0.861170  0.909960  0.296130  1.0  1.0535
  Zn  Zn28  1  0.875320  0.886000  0.399700  1.0  1.0698
  Zn  Zn29  1  0.590040  0.861170  0.296130  1.0  1.0504
  Zn  Zn30  1  0.614000  0.875320  0.399700  1.0  1.0682
  Zn  Zn31  1  0.909960  0.638830  0.296130  1.0  1.0507
  Zn  Zn32  1  0.886000  0.624680  0.399700  1.0  1.0677
  H  H33  1  0.387600  0.978500  0.911500  1.0  0.1127
  H  H34  1  0.189700  0.059400  0.844700  1.0  0.1037
  H  H35  1  0.403500  0.017900  0.780600  1.0  0.114
  H  H36  1  0.319900  0.052200  0.967100  1.0  0.1097
  H  H37  1  0.106700  0.995300  0.028800  1.0  0.1163
  H  H38  1  0.049600  0.958000  0.961500  1.0  0.1099
  H  H39  1  0.125500  0.968900  0.897600  1.0  0.1152
  H  H40  1  0.728600  0.849000  0.843400  1.0  0.4179
  H  H41  1  0.112400  0.521500  0.911500  1.0  0.1129
  H  H42  1  0.310300  0.440600  0.844700  1.0  0.1039
  H  H43  1  0.096500  0.482100  0.780600  1.0  0.1141
  H  H44  1  0.180100  0.447800  0.967100  1.0  0.1095
  H  H45  1  0.393300  0.504700  0.028800  1.0  0.1166
  H  H46  1  0.450400  0.542000  0.961500  1.0  0.1098
  H  H47  1  0.374500  0.531100  0.897600  1.0  0.1156
  H  H48  1  0.771400  0.651000  0.843400  1.0  0.4194
  H  H49  1  0.521500  0.387600  0.911500  1.0  0.1128
  H  H50  1  0.440600  0.189700  0.844700  1.0  0.1042
  H  H51  1  0.482100  0.403500  0.780600  1.0  0.1135
  H  H52  1  0.447800  0.319900  0.967100  1.0  0.11
  H  H53  1  0.504700  0.106700  0.028800  1.0  0.1162
  H  H54  1  0.542000  0.049600  0.961500  1.0  0.1109
  H  H55  1  0.531100  0.125500  0.897600  1.0  0.116
  H  H56  1  0.651000  0.728600  0.843400  1.0  0.4172
  H  H57  1  0.978500  0.112400  0.911500  1.0  0.113
  H  H58  1  0.059400  0.310300  0.844700  1.0  0.1035
  H  H59  1  0.017900  0.096500  0.780600  1.0  0.1139
  H  H60  1  0.052200  0.180100  0.967100  1.0  0.1099
  H  H61  1  0.995300  0.393300  0.028800  1.0  0.1165
  H  H62  1  0.958000  0.450400  0.961500  1.0  0.1105
  H  H63  1  0.968900  0.374500  0.897600  1.0  0.1157
  H  H64  1  0.849000  0.771400  0.843400  1.0  0.4167
  H  H65  1  0.612400  0.478500  0.588500  1.0  0.1129
  H  H66  1  0.810300  0.559400  0.655300  1.0  0.1036
  H  H67  1  0.596500  0.517900  0.719400  1.0  0.1144
  H  H68  1  0.680100  0.552200  0.532900  1.0  0.1097
  H  H69  1  0.893300  0.495300  0.471200  1.0  0.1164
  H  H70  1  0.950400  0.458000  0.538500  1.0  0.1097
  H  H71  1  0.874500  0.468900  0.602400  1.0  0.1155
  H  H72  1  0.271400  0.349000  0.656600  1.0  0.4196
  H  H73  1  0.887600  0.021500  0.588500  1.0  0.1128
  H  H74  1  0.689700  0.940600  0.655300  1.0  0.1038
  H  H75  1  0.903500  0.982100  0.719400  1.0  0.1143
  H  H76  1  0.819900  0.947800  0.532900  1.0  0.1097
  H  H77  1  0.606700  0.004700  0.471200  1.0  0.1165
  H  H78  1  0.549600  0.042000  0.538500  1.0  0.1099
  H  H79  1  0.625500  0.031100  0.602400  1.0  0.1152
  H  H80  1  0.228600  0.151000  0.656600  1.0  0.4179
  H  H81  1  0.478500  0.887600  0.588500  1.0  0.1132
  H  H82  1  0.559400  0.689700  0.655300  1.0  0.1037
  H  H83  1  0.517900  0.903500  0.719400  1.0  0.1141
  H  H84  1  0.552200  0.819900  0.532900  1.0  0.1098
  H  H85  1  0.495300  0.606700  0.471200  1.0  0.1166
  H  H86  1  0.458000  0.549600  0.538500  1.0  0.1107
  H  H87  1  0.468900  0.625500  0.602400  1.0  0.1157
  H  H88  1  0.349000  0.228600  0.656600  1.0  0.4166
  H  H89  1  0.021500  0.612400  0.588500  1.0  0.1131
  H  H90  1  0.940600  0.810300  0.655300  1.0  0.1042
  H  H91  1  0.982100  0.596500  0.719400  1.0  0.1141
  H  H92  1  0.947800  0.680100  0.532900  1.0  0.11
  H  H93  1  0.004700  0.893300  0.471200  1.0  0.116
  H  H94  1  0.042000  0.950400  0.538500  1.0  0.1103
  H  H95  1  0.031100  0.874500  0.602400  1.0  0.1155
  H  H96  1  0.151000  0.271400  0.656600  1.0  0.4163
  H  H97  1  0.612400  0.021500  0.088500  1.0  0.1133
  H  H98  1  0.810300  0.940600  0.155300  1.0  0.1039
  H  H99  1  0.596500  0.982100  0.219400  1.0  0.1144
  H  H100  1  0.680100  0.947800  0.032900  1.0  0.1095
  H  H101  1  0.893300  0.004700  0.971200  1.0  0.1165
  H  H102  1  0.950400  0.042000  0.038500  1.0  0.1096
  H  H103  1  0.874500  0.031100  0.102400  1.0  0.1152
  H  H104  1  0.271400  0.151000  0.156600  1.0  0.419
  H  H105  1  0.887600  0.478500  0.088500  1.0  0.1126
  H  H106  1  0.689700  0.559400  0.155300  1.0  0.1037
  H  H107  1  0.903500  0.517900  0.219400  1.0  0.1145
  H  H108  1  0.819900  0.552200  0.032900  1.0  0.1098
  H  H109  1  0.606700  0.495300  0.971200  1.0  0.1161
  H  H110  1  0.549600  0.458000  0.038500  1.0  0.1097
  H  H111  1  0.625500  0.468900  0.102400  1.0  0.1152
  H  H112  1  0.228600  0.349000  0.156600  1.0  0.4181
  H  H113  1  0.478500  0.612400  0.088500  1.0  0.1131
  H  H114  1  0.559400  0.810300  0.155300  1.0  0.1036
  H  H115  1  0.517900  0.596500  0.219400  1.0  0.1144
  H  H116  1  0.552200  0.680100  0.032900  1.0  0.11
  H  H117  1  0.495300  0.893300  0.971200  1.0  0.1161
  H  H118  1  0.458000  0.950400  0.038500  1.0  0.1105
  H  H119  1  0.468900  0.874500  0.102400  1.0  0.1156
  H  H120  1  0.349000  0.271400  0.156600  1.0  0.4167
  H  H121  1  0.021500  0.887600  0.088500  1.0  0.113
  H  H122  1  0.940600  0.689700  0.155300  1.0  0.1042
  H  H123  1  0.982100  0.903500  0.219400  1.0  0.1139
  H  H124  1  0.947800  0.819900  0.032900  1.0  0.11
  H  H125  1  0.004700  0.606700  0.971200  1.0  0.1162
  H  H126  1  0.042000  0.549600  0.038500  1.0  0.1106
  H  H127  1  0.031100  0.625500  0.102400  1.0  0.1155
  H  H128  1  0.151000  0.228600  0.156600  1.0  0.4168
  H  H129  1  0.387600  0.521500  0.411500  1.0  0.1126
  H  H130  1  0.189700  0.440600  0.344700  1.0  0.1037
  H  H131  1  0.403500  0.482100  0.280600  1.0  0.1141
  H  H132  1  0.319900  0.447800  0.467100  1.0  0.1097
  H  H133  1  0.106700  0.504700  0.528800  1.0  0.1165
  H  H134  1  0.049600  0.542000  0.461500  1.0  0.1101
  H  H135  1  0.125500  0.531100  0.397600  1.0  0.1155
  H  H136  1  0.728600  0.651000  0.343400  1.0  0.4187
  H  H137  1  0.112400  0.978500  0.411500  1.0  0.113
  H  H138  1  0.310300  0.059400  0.344700  1.0  0.1036
  H  H139  1  0.096500  0.017900  0.280600  1.0  0.1137
  H  H140  1  0.180100  0.052200  0.467100  1.0  0.1097
  H  H141  1  0.393300  0.995300  0.528800  1.0  0.1167
  H  H142  1  0.450400  0.958000  0.461500  1.0  0.1099
  H  H143  1  0.374500  0.968900  0.397600  1.0  0.1157
  H  H144  1  0.771400  0.849000  0.343400  1.0  0.419
  H  H145  1  0.521500  0.112400  0.411500  1.0  0.1127
  H  H146  1  0.440600  0.310300  0.344700  1.0  0.1042
  H  H147  1  0.482100  0.096500  0.280600  1.0  0.1137
  H  H148  1  0.447800  0.180100  0.467100  1.0  0.1099
  H  H149  1  0.504700  0.393300  0.528800  1.0  0.1162
  H  H150  1  0.542000  0.450400  0.461500  1.0  0.1105
  H  H151  1  0.531100  0.374500  0.397600  1.0  0.1159
  H  H152  1  0.651000  0.771400  0.343400  1.0  0.4166
  H  H153  1  0.978500  0.387600  0.411500  1.0  0.1131
  H  H154  1  0.059400  0.189700  0.344700  1.0  0.1037
  H  H155  1  0.017900  0.403500  0.280600  1.0  0.1137
  H  H156  1  0.052200  0.319900  0.467100  1.0  0.1097
  H  H157  1  0.995300  0.106700  0.528800  1.0  0.1169
  H  H158  1  0.958000  0.049600  0.461500  1.0  0.1108
  H  H159  1  0.968900  0.125500  0.397600  1.0  0.1158
  H  H160  1  0.849000  0.728600  0.343400  1.0  0.4177
  C  C161  1  0.408100  0.993800  0.846100  1.0  -0.1446
  C  C162  1  0.362300  0.994200  0.884740  1.0  -0.0523
  C  C163  1  0.280000  0.017200  0.884630  1.0  0.0355
  C  C164  1  0.245600  0.042500  0.845260  1.0  -0.0903
  C  C165  1  0.291400  0.043600  0.806050  1.0  -0.1246
  C  C166  1  0.372200  0.018400  0.806880  1.0  -0.0528
  C  C167  1  0.251100  0.066800  0.764160  1.0  0.712
  C  C168  1  0.231000  0.012400  0.925850  1.0  0.065
  C  C169  1  0.264700  0.033600  0.965860  1.0  -0.0786
  C  C170  1  0.219300  0.028100  0.004330  1.0  -0.146
  C  C171  1  0.138300  0.999500  0.002650  1.0  -0.0469
  C  C172  1  0.104500  0.977600  0.962750  1.0  -0.0715
  C  C173  1  0.149600  0.984000  0.924790  1.0  -0.104
  C  C174  1  0.256500  0.054000  0.046600  1.0  0.6909
  C  C175  1  0.494000  0.960600  0.845920  1.0  0.7295
  C  C176  1  0.091900  0.506200  0.846100  1.0  -0.1448
  C  C177  1  0.137700  0.505800  0.884740  1.0  -0.0517
  C  C178  1  0.220000  0.482800  0.884630  1.0  0.0367
  C  C179  1  0.254400  0.457500  0.845260  1.0  -0.0891
  C  C180  1  0.208600  0.456400  0.806050  1.0  -0.1254
  C  C181  1  0.127800  0.481600  0.806880  1.0  -0.0524
  C  C182  1  0.248900  0.433200  0.764160  1.0  0.7121
  C  C183  1  0.269000  0.487600  0.925850  1.0  0.064
  C  C184  1  0.235300  0.466400  0.965860  1.0  -0.0801
  C  C185  1  0.280700  0.471900  0.004330  1.0  -0.1456
  C  C186  1  0.361700  0.500500  0.002650  1.0  -0.0482
  C  C187  1  0.395500  0.522400  0.962750  1.0  -0.0712
  C  C188  1  0.350400  0.516000  0.924790  1.0  -0.1049
  C  C189  1  0.243500  0.446000  0.046600  1.0  0.69
  C  C190  1  0.006000  0.539400  0.845920  1.0  0.7296
  C  C191  1  0.506200  0.408100  0.846100  1.0  -0.1467
  C  C192  1  0.505800  0.362300  0.884740  1.0  -0.0497
  C  C193  1  0.482800  0.280000  0.884630  1.0  0.0366
  C  C194  1  0.457500  0.245600  0.845260  1.0  -0.0893
  C  C195  1  0.456400  0.291400  0.806050  1.0  -0.1251
  C  C196  1  0.481600  0.372200  0.806880  1.0  -0.0506
  C  C197  1  0.433200  0.251100  0.764160  1.0  0.7134
  C  C198  1  0.487600  0.231000  0.925850  1.0  0.0632
  C  C199  1  0.466400  0.264700  0.965860  1.0  -0.0814
  C  C200  1  0.471900  0.219300  0.004330  1.0  -0.1452
  C  C201  1  0.500500  0.138300  0.002650  1.0  -0.0493
  C  C202  1  0.522400  0.104500  0.962750  1.0  -0.0708
  C  C203  1  0.516000  0.149600  0.924790  1.0  -0.1047
  C  C204  1  0.446000  0.256500  0.046600  1.0  0.6914
  C  C205  1  0.539400  0.494000  0.845920  1.0  0.7297
  C  C206  1  0.993800  0.091900  0.846100  1.0  -0.1471
  C  C207  1  0.994200  0.137700  0.884740  1.0  -0.05
  C  C208  1  0.017200  0.220000  0.884630  1.0  0.0357
  C  C209  1  0.042500  0.254400  0.845260  1.0  -0.0901
  C  C210  1  0.043600  0.208600  0.806050  1.0  -0.1237
  C  C211  1  0.018400  0.127800  0.806880  1.0  -0.0513
  C  C212  1  0.066800  0.248900  0.764160  1.0  0.714
  C  C213  1  0.012400  0.269000  0.925850  1.0  0.0619
  C  C214  1  0.033600  0.235300  0.965860  1.0  -0.0813
  C  C215  1  0.028100  0.280700  0.004330  1.0  -0.1459
  C  C216  1  0.999500  0.361700  0.002650  1.0  -0.0488
  C  C217  1  0.977600  0.395500  0.962750  1.0  -0.0713
  C  C218  1  0.984000  0.350400  0.924790  1.0  -0.1054
  C  C219  1  0.054000  0.243500  0.046600  1.0  0.6901
  C  C220  1  0.960600  0.006000  0.845920  1.0  0.7297
  C  C221  1  0.591900  0.493800  0.653900  1.0  -0.145
  C  C222  1  0.637700  0.494200  0.615260  1.0  -0.0515
  C  C223  1  0.720000  0.517200  0.615370  1.0  0.0366
  C  C224  1  0.754400  0.542500  0.654740  1.0  -0.0888
  C  C225  1  0.708600  0.543600  0.693950  1.0  -0.1265
  C  C226  1  0.627800  0.518400  0.693120  1.0  -0.0503
  C  C227  1  0.748900  0.566800  0.735840  1.0  0.7118
  C  C228  1  0.769000  0.512400  0.574150  1.0  0.0635
  C  C229  1  0.735300  0.533600  0.534140  1.0  -0.0807
  C  C230  1  0.780700  0.528100  0.495670  1.0  -0.145
  C  C231  1  0.861700  0.499500  0.497350  1.0  -0.0477
  C  C232  1  0.895500  0.477600  0.537250  1.0  -0.0726
  C  C233  1  0.850400  0.484000  0.575210  1.0  -0.1036
  C  C234  1  0.743500  0.554000  0.453400  1.0  0.6897
  C  C235  1  0.506000  0.460600  0.654080  1.0  0.7299
  C  C236  1  0.908100  0.006200  0.653900  1.0  -0.1448
  C  C237  1  0.862300  0.005800  0.615260  1.0  -0.051
  C  C238  1  0.780000  0.982800  0.615370  1.0  0.0361
  C  C239  1  0.745600  0.957500  0.654740  1.0  -0.0897
  C  C240  1  0.791400  0.956400  0.693950  1.0  -0.1236
  C  C241  1  0.872200  0.981600  0.693120  1.0  -0.0504
  C  C242  1  0.751100  0.933200  0.735840  1.0  0.7103
  C  C243  1  0.731000  0.987600  0.574150  1.0  0.0639
  C  C244  1  0.764700  0.966400  0.534140  1.0  -0.0785
  C  C245  1  0.719300  0.971900  0.495670  1.0  -0.1443
  C  C246  1  0.638300  0.000500  0.497350  1.0  -0.0463
  C  C247  1  0.604500  0.022400  0.537250  1.0  -0.0705
  C  C248  1  0.649600  0.016000  0.575210  1.0  -0.104
  C  C249  1  0.756500  0.946000  0.453400  1.0  0.6903
  C  C250  1  0.994000  0.039400  0.654080  1.0  0.7297
  C  C251  1  0.493800  0.908100  0.653900  1.0  -0.1459
  C  C252  1  0.494200  0.862300  0.615260  1.0  -0.0493
  C  C253  1  0.517200  0.780000  0.615370  1.0  0.0357
  C  C254  1  0.542500  0.745600  0.654740  1.0  -0.0892
  C  C255  1  0.543600  0.791400  0.693950  1.0  -0.1246
  C  C256  1  0.518400  0.872200  0.693120  1.0  -0.0492
  C  C257  1  0.566800  0.751100  0.735840  1.0  0.7127
  C  C258  1  0.512400  0.731000  0.574150  1.0  0.0613
  C  C259  1  0.533600  0.764700  0.534140  1.0  -0.0814
  C  C260  1  0.528100  0.719300  0.495670  1.0  -0.1447
  C  C261  1  0.499500  0.638300  0.497350  1.0  -0.0479
  C  C262  1  0.477600  0.604500  0.537250  1.0  -0.0705
  C  C263  1  0.484000  0.649600  0.575210  1.0  -0.1046
  C  C264  1  0.554000  0.756500  0.453400  1.0  0.6901
  C  C265  1  0.460600  0.994000  0.654080  1.0  0.7302
  C  C266  1  0.006200  0.591900  0.653900  1.0  -0.1467
  C  C267  1  0.005800  0.637700  0.615260  1.0  -0.0493
  C  C268  1  0.982800  0.720000  0.615370  1.0  0.0369
  C  C269  1  0.957500  0.754400  0.654740  1.0  -0.0889
  C  C270  1  0.956400  0.708600  0.693950  1.0  -0.1244
  C  C271  1  0.981600  0.627800  0.693120  1.0  -0.0488
  C  C272  1  0.933200  0.748900  0.735840  1.0  0.7127
  C  C273  1  0.987600  0.769000  0.574150  1.0  0.0623
  C  C274  1  0.966400  0.735300  0.534140  1.0  -0.0816
  C  C275  1  0.971900  0.780700  0.495670  1.0  -0.1445
  C  C276  1  0.000500  0.861700  0.497350  1.0  -0.0475
  C  C277  1  0.022400  0.895500  0.537250  1.0  -0.0708
  C  C278  1  0.016000  0.850400  0.575210  1.0  -0.1048
  C  C279  1  0.946000  0.743500  0.453400  1.0  0.6906
  C  C280  1  0.039400  0.506000  0.654080  1.0  0.73
  C  C281  1  0.591900  0.006200  0.153900  1.0  -0.1447
  C  C282  1  0.637700  0.005800  0.115260  1.0  -0.051
  C  C283  1  0.720000  0.982800  0.115370  1.0  0.0369
  C  C284  1  0.754400  0.957500  0.154740  1.0  -0.0889
  C  C285  1  0.708600  0.956400  0.193950  1.0  -0.1252
  C  C286  1  0.627800  0.981600  0.193120  1.0  -0.0506
  C  C287  1  0.748900  0.933200  0.235840  1.0  0.7113
  C  C288  1  0.769000  0.987600  0.074150  1.0  0.0633
  C  C289  1  0.735300  0.966400  0.034140  1.0  -0.0801
  C  C290  1  0.780700  0.971900  0.995670  1.0  -0.1442
  C  C291  1  0.861700  0.000500  0.997350  1.0  -0.0473
  C  C292  1  0.895500  0.022400  0.037250  1.0  -0.0713
  C  C293  1  0.850400  0.016000  0.075210  1.0  -0.1046
  C  C294  1  0.743500  0.946000  0.953400  1.0  0.69
  C  C295  1  0.506000  0.039400  0.154080  1.0  0.7297
  C  C296  1  0.908100  0.493800  0.153900  1.0  -0.1446
  C  C297  1  0.862300  0.494200  0.115260  1.0  -0.0518
  C  C298  1  0.780000  0.517200  0.115370  1.0  0.0358
  C  C299  1  0.745600  0.542500  0.154740  1.0  -0.0901
  C  C300  1  0.791400  0.543600  0.193950  1.0  -0.1246
  C  C301  1  0.872200  0.518400  0.193120  1.0  -0.0502
  C  C302  1  0.751100  0.566800  0.235840  1.0  0.7111
  C  C303  1  0.731000  0.512400  0.074150  1.0  0.0641
  C  C304  1  0.764700  0.533600  0.034140  1.0  -0.0788
  C  C305  1  0.719300  0.528100  0.995670  1.0  -0.1449
  C  C306  1  0.638300  0.499500  0.997350  1.0  -0.0467
  C  C307  1  0.604500  0.477600  0.037250  1.0  -0.0715
  C  C308  1  0.649600  0.484000  0.075210  1.0  -0.1031
  C  C309  1  0.756500  0.554000  0.953400  1.0  0.6901
  C  C310  1  0.994000  0.460600  0.154080  1.0  0.7297
  C  C311  1  0.493800  0.591900  0.153900  1.0  -0.1469
  C  C312  1  0.494200  0.637700  0.115260  1.0  -0.0493
  C  C313  1  0.517200  0.720000  0.115370  1.0  0.036
  C  C314  1  0.542500  0.754400  0.154740  1.0  -0.0895
  C  C315  1  0.543600  0.708600  0.193950  1.0  -0.1239
  C  C316  1  0.518400  0.627800  0.193120  1.0  -0.0495
  C  C317  1  0.566800  0.748900  0.235840  1.0  0.7128
  C  C318  1  0.512400  0.769000  0.074150  1.0  0.0611
  C  C319  1  0.533600  0.735300  0.034140  1.0  -0.0813
  C  C320  1  0.528100  0.780700  0.995670  1.0  -0.1459
  C  C321  1  0.499500  0.861700  0.997350  1.0  -0.048
  C  C322  1  0.477600  0.895500  0.037250  1.0  -0.0712
  C  C323  1  0.484000  0.850400  0.075210  1.0  -0.105
  C  C324  1  0.554000  0.743500  0.953400  1.0  0.6897
  C  C325  1  0.460600  0.506000  0.154080  1.0  0.7302
  C  C326  1  0.006200  0.908100  0.153900  1.0  -0.1464
  C  C327  1  0.005800  0.862300  0.115260  1.0  -0.049
  C  C328  1  0.982800  0.780000  0.115370  1.0  0.0368
  C  C329  1  0.957500  0.745600  0.154740  1.0  -0.0894
  C  C330  1  0.956400  0.791400  0.193950  1.0  -0.1252
  C  C331  1  0.981600  0.872200  0.193120  1.0  -0.0486
  C  C332  1  0.933200  0.751100  0.235840  1.0  0.713
  C  C333  1  0.987600  0.731000  0.074150  1.0  0.0624
  C  C334  1  0.966400  0.764700  0.034140  1.0  -0.0816
  C  C335  1  0.971900  0.719300  0.995670  1.0  -0.1434
  C  C336  1  0.000500  0.638300  0.997350  1.0  -0.0476
  C  C337  1  0.022400  0.604500  0.037250  1.0  -0.0706
  C  C338  1  0.016000  0.649600  0.075210  1.0  -0.1047
  C  C339  1  0.946000  0.756500  0.953400  1.0  0.691
  C  C340  1  0.039400  0.994000  0.154080  1.0  0.7299
  C  C341  1  0.408100  0.506200  0.346100  1.0  -0.1448
  C  C342  1  0.362300  0.505800  0.384740  1.0  -0.0516
  C  C343  1  0.280000  0.482800  0.384630  1.0  0.0358
  C  C344  1  0.245600  0.457500  0.345260  1.0  -0.0898
  C  C345  1  0.291400  0.456400  0.306050  1.0  -0.1242
  C  C346  1  0.372200  0.481600  0.306880  1.0  -0.0523
  C  C347  1  0.251100  0.433200  0.264160  1.0  0.7117
  C  C348  1  0.231000  0.487600  0.425850  1.0  0.0647
  C  C349  1  0.264700  0.466400  0.465860  1.0  -0.0785
  C  C350  1  0.219300  0.471900  0.504330  1.0  -0.1456
  C  C351  1  0.138300  0.500500  0.502650  1.0  -0.0476
  C  C352  1  0.104500  0.522400  0.462750  1.0  -0.0705
  C  C353  1  0.149600  0.516000  0.424790  1.0  -0.1044
  C  C354  1  0.256500  0.446000  0.546600  1.0  0.6907
  C  C355  1  0.494000  0.539400  0.345920  1.0  0.7297
  C  C356  1  0.091900  0.993800  0.346100  1.0  -0.1452
  C  C357  1  0.137700  0.994200  0.384740  1.0  -0.0522
  C  C358  1  0.220000  0.017200  0.384630  1.0  0.0363
  C  C359  1  0.254400  0.042500  0.345260  1.0  -0.089
  C  C360  1  0.208600  0.043600  0.306050  1.0  -0.1261
  C  C361  1  0.127800  0.018400  0.306880  1.0  -0.0529
  C  C362  1  0.248900  0.066800  0.264160  1.0  0.7123
  C  C363  1  0.269000  0.012400  0.425850  1.0  0.0643
  C  C364  1  0.235300  0.033600  0.465860  1.0  -0.0805
  C  C365  1  0.280700  0.028100  0.504330  1.0  -0.1461
  C  C366  1  0.361700  0.999500  0.502650  1.0  -0.0477
  C  C367  1  0.395500  0.977600  0.462750  1.0  -0.0728
  C  C368  1  0.350400  0.984000  0.424790  1.0  -0.1043
  C  C369  1  0.243500  0.054000  0.546600  1.0  0.6902
  C  C370  1  0.006000  0.960600  0.345920  1.0  0.7296
  C  C371  1  0.506200  0.091900  0.346100  1.0  -0.1472
  C  C372  1  0.505800  0.137700  0.384740  1.0  -0.0498
  C  C373  1  0.482800  0.220000  0.384630  1.0  0.0367
  C  C374  1  0.457500  0.254400  0.345260  1.0  -0.0892
  C  C375  1  0.456400  0.208600  0.306050  1.0  -0.1241
  C  C376  1  0.481600  0.127800  0.306880  1.0  -0.0509
  C  C377  1  0.433200  0.248900  0.264160  1.0  0.7133
  C  C378  1  0.487600  0.269000  0.425850  1.0  0.0632
  C  C379  1  0.466400  0.235300  0.465860  1.0  -0.0816
  C  C380  1  0.471900  0.280700  0.504330  1.0  -0.1451
  C  C381  1  0.500500  0.361700  0.502650  1.0  -0.0486
  C  C382  1  0.522400  0.395500  0.462750  1.0  -0.071
  C  C383  1  0.516000  0.350400  0.424790  1.0  -0.1054
  C  C384  1  0.446000  0.243500  0.546600  1.0  0.6912
  C  C385  1  0.539400  0.006000  0.345920  1.0  0.7298
  C  C386  1  0.993800  0.408100  0.346100  1.0  -0.1461
  C  C387  1  0.994200  0.362300  0.384740  1.0  -0.0503
  C  C388  1  0.017200  0.280000  0.384630  1.0  0.0354
  C  C389  1  0.042500  0.245600  0.345260  1.0  -0.0895
  C  C390  1  0.043600  0.291400  0.306050  1.0  -0.1248
  C  C391  1  0.018400  0.372200  0.306880  1.0  -0.0509
  C  C392  1  0.066800  0.251100  0.264160  1.0  0.7137
  C  C393  1  0.012400  0.231000  0.425850  1.0  0.0621
  C  C394  1  0.033600  0.264700  0.465860  1.0  -0.0811
  C  C395  1  0.028100  0.219300  0.504330  1.0  -0.1459
  C  C396  1  0.999500  0.138300  0.502650  1.0  -0.0494
  C  C397  1  0.977600  0.104500  0.462750  1.0  -0.0707
  C  C398  1  0.984000  0.149600  0.424790  1.0  -0.1046
  C  C399  1  0.054000  0.256500  0.546600  1.0  0.6903
  C  C400  1  0.960600  0.494000  0.345920  1.0  0.7298
  O  O401  1  0.291600  0.090200  0.731840  1.0  -0.6749
  O  O402  1  0.173200  0.058500  0.762930  1.0  -0.5853
  O  O403  1  0.333700  0.061100  0.047620  1.0  -0.5945
  O  O404  1  0.214100  0.067000  0.079840  1.0  -0.6642
  O  O405  1  0.677420  0.850600  0.847010  1.0  -0.9223
  O  O406  1  0.524380  0.943700  0.809570  1.0  -0.5835
  O  O407  1  0.528600  0.952300  0.882720  1.0  -0.6135
  O  O408  1  0.208400  0.409800  0.731840  1.0  -0.6745
  O  O409  1  0.326800  0.441500  0.762930  1.0  -0.585
  O  O410  1  0.166300  0.438900  0.047620  1.0  -0.595
  O  O411  1  0.285900  0.433000  0.079840  1.0  -0.6647
  O  O412  1  0.822580  0.649400  0.847010  1.0  -0.9206
  O  O413  1  0.975620  0.556300  0.809570  1.0  -0.5841
  O  O414  1  0.971400  0.547700  0.882720  1.0  -0.6141
  O  O415  1  0.409800  0.291600  0.731840  1.0  -0.6779
  O  O416  1  0.441500  0.173200  0.762930  1.0  -0.5899
  O  O417  1  0.438900  0.333700  0.047620  1.0  -0.5977
  O  O418  1  0.433000  0.214100  0.079840  1.0  -0.6657
  O  O419  1  0.649400  0.677420  0.847010  1.0  -0.9215
  O  O420  1  0.556300  0.524380  0.809570  1.0  -0.5839
  O  O421  1  0.547700  0.528600  0.882720  1.0  -0.6124
  O  O422  1  0.090200  0.208400  0.731840  1.0  -0.6808
  O  O423  1  0.058500  0.326800  0.762930  1.0  -0.5884
  O  O424  1  0.061100  0.166300  0.047620  1.0  -0.5989
  O  O425  1  0.067000  0.285900  0.079840  1.0  -0.6664
  O  O426  1  0.850600  0.822580  0.847010  1.0  -0.9227
  O  O427  1  0.943700  0.975620  0.809570  1.0  -0.5847
  O  O428  1  0.952300  0.971400  0.882720  1.0  -0.6126
  O  O429  1  0.708400  0.590200  0.768160  1.0  -0.6758
  O  O430  1  0.826800  0.558500  0.737070  1.0  -0.5857
  O  O431  1  0.666300  0.561100  0.452380  1.0  -0.5941
  O  O432  1  0.785900  0.567000  0.420160  1.0  -0.6615
  O  O433  1  0.322580  0.350600  0.652990  1.0  -0.9193
  O  O434  1  0.475620  0.443700  0.690430  1.0  -0.5824
  O  O435  1  0.471400  0.452300  0.617280  1.0  -0.6151
  O  O436  1  0.791600  0.909800  0.768160  1.0  -0.677
  O  O437  1  0.673200  0.941500  0.737070  1.0  -0.5858
  O  O438  1  0.833700  0.938900  0.452380  1.0  -0.5947
  O  O439  1  0.714100  0.933000  0.420160  1.0  -0.6616
  O  O440  1  0.177420  0.149400  0.652990  1.0  -0.921
  O  O441  1  0.024380  0.056300  0.690430  1.0  -0.5813
  O  O442  1  0.028600  0.047700  0.617280  1.0  -0.6145
  O  O443  1  0.590200  0.791600  0.768160  1.0  -0.6818
  O  O444  1  0.558500  0.673200  0.737070  1.0  -0.5888
  O  O445  1  0.561100  0.833700  0.452380  1.0  -0.5979
  O  O446  1  0.567000  0.714100  0.420160  1.0  -0.664
  O  O447  1  0.350600  0.177420  0.652990  1.0  -0.9196
  O  O448  1  0.443700  0.024380  0.690430  1.0  -0.5826
  O  O449  1  0.452300  0.028600  0.617280  1.0  -0.6134
  O  O450  1  0.909800  0.708400  0.768160  1.0  -0.6798
  O  O451  1  0.941500  0.826800  0.737070  1.0  -0.5874
  O  O452  1  0.938900  0.666300  0.452380  1.0  -0.5982
  O  O453  1  0.933000  0.785900  0.420160  1.0  -0.6631
  O  O454  1  0.149400  0.322580  0.652990  1.0  -0.9216
  O  O455  1  0.056300  0.475620  0.690430  1.0  -0.5824
  O  O456  1  0.047700  0.471400  0.617280  1.0  -0.6134
  O  O457  1  0.708400  0.909800  0.268160  1.0  -0.6764
  O  O458  1  0.826800  0.941500  0.237070  1.0  -0.5858
  O  O459  1  0.666300  0.938900  0.952380  1.0  -0.5946
  O  O460  1  0.785900  0.933000  0.920160  1.0  -0.6619
  O  O461  1  0.322580  0.149400  0.152990  1.0  -0.9188
  O  O462  1  0.475620  0.056300  0.190430  1.0  -0.5834
  O  O463  1  0.471400  0.047700  0.117280  1.0  -0.615
  O  O464  1  0.791600  0.590200  0.268160  1.0  -0.676
  O  O465  1  0.673200  0.558500  0.237070  1.0  -0.5857
  O  O466  1  0.833700  0.561100  0.952380  1.0  -0.5941
  O  O467  1  0.714100  0.567000  0.920160  1.0  -0.6615
  O  O468  1  0.177420  0.350600  0.152990  1.0  -0.9209
  O  O469  1  0.024380  0.443700  0.190430  1.0  -0.5824
  O  O470  1  0.028600  0.452300  0.117280  1.0  -0.6146
  O  O471  1  0.590200  0.708400  0.268160  1.0  -0.6822
  O  O472  1  0.558500  0.826800  0.237070  1.0  -0.5889
  O  O473  1  0.561100  0.666300  0.952380  1.0  -0.6003
  O  O474  1  0.567000  0.785900  0.920160  1.0  -0.6638
  O  O475  1  0.350600  0.322580  0.152990  1.0  -0.921
  O  O476  1  0.443700  0.475620  0.190430  1.0  -0.584
  O  O477  1  0.452300  0.471400  0.117280  1.0  -0.6134
  O  O478  1  0.909800  0.791600  0.268160  1.0  -0.6792
  O  O479  1  0.941500  0.673200  0.237070  1.0  -0.59
  O  O480  1  0.938900  0.833700  0.952380  1.0  -0.5993
  O  O481  1  0.933000  0.714100  0.920160  1.0  -0.6631
  O  O482  1  0.149400  0.177420  0.152990  1.0  -0.9204
  O  O483  1  0.056300  0.024380  0.190430  1.0  -0.5831
  O  O484  1  0.047700  0.028600  0.117280  1.0  -0.6133
  O  O485  1  0.291600  0.409800  0.231840  1.0  -0.6752
  O  O486  1  0.173200  0.441500  0.262930  1.0  -0.5851
  O  O487  1  0.333700  0.438900  0.547620  1.0  -0.5951
  O  O488  1  0.214100  0.433000  0.579840  1.0  -0.6648
  O  O489  1  0.677420  0.649400  0.347010  1.0  -0.9208
  O  O490  1  0.524380  0.556300  0.309570  1.0  -0.5822
  O  O491  1  0.528600  0.547700  0.382720  1.0  -0.6137
  O  O492  1  0.208400  0.090200  0.231840  1.0  -0.6746
  O  O493  1  0.326800  0.058500  0.262930  1.0  -0.585
  O  O494  1  0.166300  0.061100  0.547620  1.0  -0.5945
  O  O495  1  0.285900  0.067000  0.579840  1.0  -0.6637
  O  O496  1  0.822580  0.850600  0.347010  1.0  -0.9186
  O  O497  1  0.975620  0.943700  0.309570  1.0  -0.5832
  O  O498  1  0.971400  0.952300  0.382720  1.0  -0.614
  O  O499  1  0.409800  0.208400  0.231840  1.0  -0.6781
  O  O500  1  0.441500  0.326800  0.262930  1.0  -0.5868
  O  O501  1  0.438900  0.166300  0.547620  1.0  -0.6002
  O  O502  1  0.433000  0.285900  0.579840  1.0  -0.6659
  O  O503  1  0.649400  0.822580  0.347010  1.0  -0.9219
  O  O504  1  0.556300  0.975620  0.309570  1.0  -0.5832
  O  O505  1  0.547700  0.971400  0.382720  1.0  -0.6126
  O  O506  1  0.090200  0.291600  0.231840  1.0  -0.6805
  O  O507  1  0.058500  0.173200  0.262930  1.0  -0.5886
  O  O508  1  0.061100  0.333700  0.547620  1.0  -0.5995
  O  O509  1  0.067000  0.214100  0.579840  1.0  -0.6663
  O  O510  1  0.850600  0.677420  0.347010  1.0  -0.9191
  O  O511  1  0.943700  0.524380  0.309570  1.0  -0.5834
  O  O512  1  0.952300  0.528600  0.382720  1.0  -0.6125
