# generated using pymatgen
data_CdH10C12(N3O)4
_symmetry_space_group_name_H-M   'P 1'
_cell_length_a   10.09360000
_cell_length_b   12.51080000
_cell_length_c   15.17210000
_cell_angle_alpha   90.00000000
_cell_angle_beta   90.00000000
_cell_angle_gamma   90.00000000
_symmetry_Int_Tables_number   1
_chemical_formula_structural   CdH10C12(N3O)4
_chemical_formula_sum   'Cd4 H40 C48 N48 O16'
_cell_volume   1915.91778097
_cell_formula_units_Z   4
loop_
 _symmetry_equiv_pos_site_id
 _symmetry_equiv_pos_as_xyz
  1  'x, y, z'
loop_
 _atom_site_type_symbol
 _atom_site_label
 _atom_site_symmetry_multiplicity
 _atom_site_fract_x
 _atom_site_fract_y
 _atom_site_fract_z
 _atom_site_occupancy
 _atom_site_charge
  Cd  Cd1  1  0.000000  0.500000  0.000000  1.0  0.9734
  Cd  Cd2  1  0.500000  0.500000  0.500000  1.0  0.9734
  Cd  Cd3  1  0.000000  0.000000  0.500000  1.0  0.9734
  Cd  Cd4  1  0.500000  0.000000  0.000000  1.0  0.9734
  H  H5  1  0.378900  0.759300  0.057900  1.0  0.0815
  H  H6  1  0.637500  0.776200  0.870700  1.0  0.1036
  H  H7  1  0.518700  0.498000  0.887400  1.0  0.1189
  H  H8  1  0.444200  0.479200  0.729200  1.0  0.1106
  H  H9  1  0.715900  0.648900  0.616000  1.0  0.0789
  H  H10  1  0.121100  0.240700  0.557900  1.0  0.0816
  H  H11  1  0.862500  0.223800  0.370700  1.0  0.1031
  H  H12  1  0.981300  0.502000  0.387400  1.0  0.1202
  H  H13  1  0.055800  0.520800  0.229200  1.0  0.111
  H  H14  1  0.784100  0.351100  0.116000  1.0  0.0788
  H  H15  1  0.621100  0.259300  0.442100  1.0  0.0815
  H  H16  1  0.362500  0.276200  0.629300  1.0  0.104
  H  H17  1  0.481300  0.998000  0.612600  1.0  0.1194
  H  H18  1  0.555800  0.979200  0.770800  1.0  0.1108
  H  H19  1  0.284100  0.148900  0.884000  1.0  0.0791
  H  H20  1  0.878900  0.740700  0.942100  1.0  0.0814
  H  H21  1  0.137500  0.723800  0.129300  1.0  0.1042
  H  H22  1  0.018700  0.002000  0.112600  1.0  0.1198
  H  H23  1  0.944200  0.020800  0.270800  1.0  0.111
  H  H24  1  0.215900  0.851100  0.384000  1.0  0.0791
  H  H25  1  0.621100  0.240700  0.942100  1.0  0.0815
  H  H26  1  0.362500  0.223800  0.129300  1.0  0.104
  H  H27  1  0.481300  0.502000  0.112600  1.0  0.1202
  H  H28  1  0.555800  0.520800  0.270800  1.0  0.1111
  H  H29  1  0.284100  0.351100  0.384000  1.0  0.0784
  H  H30  1  0.878900  0.759300  0.442100  1.0  0.0814
  H  H31  1  0.137500  0.776200  0.629300  1.0  0.1041
  H  H32  1  0.018700  0.498000  0.612600  1.0  0.1189
  H  H33  1  0.944200  0.479200  0.770800  1.0  0.1105
  H  H34  1  0.215900  0.648900  0.884000  1.0  0.0781
  H  H35  1  0.378900  0.740700  0.557900  1.0  0.0816
  H  H36  1  0.637500  0.723800  0.370700  1.0  0.1034
  H  H37  1  0.518700  0.002000  0.387400  1.0  0.1197
  H  H38  1  0.444200  0.020800  0.229200  1.0  0.1109
  H  H39  1  0.715900  0.851100  0.116000  1.0  0.0791
  H  H40  1  0.121100  0.259300  0.057900  1.0  0.0815
  H  H41  1  0.862500  0.276200  0.870700  1.0  0.1035
  H  H42  1  0.981300  0.998000  0.887400  1.0  0.1195
  H  H43  1  0.055800  0.979200  0.729200  1.0  0.1109
  H  H44  1  0.784100  0.148900  0.616000  1.0  0.0796
  C  C45  1  0.435900  0.739900  0.012400  1.0  0.2781
  C  C46  1  0.576300  0.751100  0.911600  1.0  0.1741
  C  C47  1  0.584800  0.553500  0.875520  1.0  -0.029
  C  C48  1  0.721000  0.509600  0.905500  1.0  0.623
  C  C49  1  0.516100  0.524000  0.718900  1.0  0.181
  C  C50  1  0.665000  0.616100  0.659400  1.0  0.2912
  C  C51  1  0.064100  0.260100  0.512400  1.0  0.2785
  C  C52  1  0.923700  0.248900  0.411600  1.0  0.1745
  C  C53  1  0.915200  0.446500  0.375520  1.0  -0.0294
  C  C54  1  0.779000  0.490400  0.405500  1.0  0.6218
  C  C55  1  0.983900  0.476000  0.218900  1.0  0.1817
  C  C56  1  0.835000  0.383900  0.159400  1.0  0.291
  C  C57  1  0.564100  0.239900  0.487600  1.0  0.2779
  C  C58  1  0.423700  0.251100  0.588400  1.0  0.1743
  C  C59  1  0.415200  0.053500  0.624480  1.0  -0.0289
  C  C60  1  0.279000  0.009600  0.594500  1.0  0.6218
  C  C61  1  0.483900  0.024000  0.781100  1.0  0.1818
  C  C62  1  0.335000  0.116100  0.840600  1.0  0.2915
  C  C63  1  0.935900  0.760100  0.987600  1.0  0.2782
  C  C64  1  0.076300  0.748900  0.088400  1.0  0.174
  C  C65  1  0.084800  0.946500  0.124480  1.0  -0.0283
  C  C66  1  0.221000  0.990400  0.094500  1.0  0.6228
  C  C67  1  0.016100  0.976000  0.281100  1.0  0.1811
  C  C68  1  0.165000  0.883900  0.340600  1.0  0.2923
  C  C69  1  0.564100  0.260100  0.987600  1.0  0.2771
  C  C70  1  0.423700  0.248900  0.088400  1.0  0.1747
  C  C71  1  0.415200  0.446500  0.124480  1.0  -0.0288
  C  C72  1  0.279000  0.490400  0.094500  1.0  0.6276
  C  C73  1  0.483900  0.476000  0.281100  1.0  0.1819
  C  C74  1  0.335000  0.383900  0.340600  1.0  0.2921
  C  C75  1  0.935900  0.739900  0.487600  1.0  0.2775
  C  C76  1  0.076300  0.751100  0.588400  1.0  0.1737
  C  C77  1  0.084800  0.553500  0.624480  1.0  -0.0285
  C  C78  1  0.221000  0.509600  0.594500  1.0  0.628
  C  C79  1  0.016100  0.524000  0.781100  1.0  0.1812
  C  C80  1  0.165000  0.616100  0.840600  1.0  0.2919
  C  C81  1  0.435900  0.760100  0.512400  1.0  0.2779
  C  C82  1  0.576300  0.748900  0.411600  1.0  0.1737
  C  C83  1  0.584800  0.946500  0.375520  1.0  -0.0289
  C  C84  1  0.721000  0.990400  0.405500  1.0  0.6285
  C  C85  1  0.516100  0.976000  0.218900  1.0  0.1808
  C  C86  1  0.665000  0.883900  0.159400  1.0  0.291
  C  C87  1  0.064100  0.239900  0.012400  1.0  0.2775
  C  C88  1  0.923700  0.251100  0.911600  1.0  0.1748
  C  C89  1  0.915200  0.053500  0.875520  1.0  -0.0294
  C  C90  1  0.779000  0.009600  0.905500  1.0  0.628
  C  C91  1  0.983900  0.024000  0.718900  1.0  0.1816
  C  C92  1  0.835000  0.116100  0.659400  1.0  0.2912
  N  N93  1  0.541100  0.650440  0.920320  1.0  0.147
  N  N94  1  0.448700  0.641200  0.985360  1.0  -0.354
  N  N95  1  0.512300  0.811800  0.969000  1.0  -0.4371
  N  N96  1  0.588500  0.569830  0.780770  1.0  0.1377
  N  N97  1  0.687400  0.628800  0.743460  1.0  -0.3683
  N  N98  1  0.560800  0.551000  0.640560  1.0  -0.4193
  N  N99  1  0.958900  0.349560  0.420320  1.0  0.1473
  N  N100  1  0.051300  0.358800  0.485360  1.0  -0.3542
  N  N101  1  0.987700  0.188200  0.469000  1.0  -0.4366
  N  N102  1  0.911500  0.430170  0.280770  1.0  0.1373
  N  N103  1  0.812600  0.371200  0.243460  1.0  -0.3668
  N  N104  1  0.939200  0.449000  0.140560  1.0  -0.419
  N  N105  1  0.458900  0.150440  0.579680  1.0  0.1475
  N  N106  1  0.551300  0.141200  0.514640  1.0  -0.3542
  N  N107  1  0.487700  0.311800  0.531000  1.0  -0.4369
  N  N108  1  0.411500  0.069830  0.719230  1.0  0.1371
  N  N109  1  0.312600  0.128800  0.756540  1.0  -0.3667
  N  N110  1  0.439200  0.051000  0.859440  1.0  -0.4198
  N  N111  1  0.041100  0.849560  0.079680  1.0  0.1472
  N  N112  1  0.948700  0.858800  0.014640  1.0  -0.3544
  N  N113  1  0.012300  0.688200  0.031000  1.0  -0.4372
  N  N114  1  0.088500  0.930170  0.219230  1.0  0.137
  N  N115  1  0.187400  0.871200  0.256540  1.0  -0.3666
  N  N116  1  0.060800  0.949000  0.359440  1.0  -0.4204
  N  N117  1  0.458900  0.349560  0.079680  1.0  0.1476
  N  N118  1  0.551300  0.358800  0.014640  1.0  -0.3545
  N  N119  1  0.487700  0.188200  0.031000  1.0  -0.4367
  N  N120  1  0.411500  0.430170  0.219230  1.0  0.137
  N  N121  1  0.312600  0.371200  0.256540  1.0  -0.3659
  N  N122  1  0.439200  0.449000  0.359440  1.0  -0.4203
  N  N123  1  0.041100  0.650440  0.579680  1.0  0.1472
  N  N124  1  0.948700  0.641200  0.514640  1.0  -0.3553
  N  N125  1  0.012300  0.811800  0.531000  1.0  -0.4372
  N  N126  1  0.088500  0.569830  0.719230  1.0  0.1371
  N  N127  1  0.187400  0.628800  0.756540  1.0  -0.3683
  N  N128  1  0.060800  0.551000  0.859440  1.0  -0.42
  N  N129  1  0.541100  0.849560  0.420320  1.0  0.147
  N  N130  1  0.448700  0.858800  0.485360  1.0  -0.3545
  N  N131  1  0.512300  0.688200  0.469000  1.0  -0.4372
  N  N132  1  0.588500  0.930170  0.280770  1.0  0.1374
  N  N133  1  0.687400  0.871200  0.243460  1.0  -0.367
  N  N134  1  0.560800  0.949000  0.140560  1.0  -0.4186
  N  N135  1  0.958900  0.150440  0.920320  1.0  0.1474
  N  N136  1  0.051300  0.141200  0.985360  1.0  -0.354
  N  N137  1  0.987700  0.311800  0.969000  1.0  -0.4368
  N  N138  1  0.911500  0.069830  0.780770  1.0  0.1376
  N  N139  1  0.812600  0.128800  0.743460  1.0  -0.3671
  N  N140  1  0.939200  0.051000  0.640560  1.0  -0.4197
  O  O141  1  0.777600  0.552890  0.969120  1.0  -0.6153
  O  O142  1  0.759300  0.432880  0.861270  1.0  -0.5936
  O  O143  1  0.722400  0.447110  0.469120  1.0  -0.6158
  O  O144  1  0.740700  0.567120  0.361270  1.0  -0.5932
  O  O145  1  0.222400  0.052890  0.530880  1.0  -0.6157
  O  O146  1  0.240700  0.932880  0.638730  1.0  -0.5935
  O  O147  1  0.277600  0.947110  0.030880  1.0  -0.6162
  O  O148  1  0.259300  0.067120  0.138730  1.0  -0.594
  O  O149  1  0.222400  0.447110  0.030880  1.0  -0.6163
  O  O150  1  0.240700  0.567120  0.138730  1.0  -0.5934
  O  O151  1  0.277600  0.552890  0.530880  1.0  -0.6156
  O  O152  1  0.259300  0.432880  0.638730  1.0  -0.593
  O  O153  1  0.777600  0.947110  0.469120  1.0  -0.6157
  O  O154  1  0.759300  0.067120  0.361270  1.0  -0.5925
  O  O155  1  0.722400  0.052890  0.969120  1.0  -0.6156
  O  O156  1  0.740700  0.932880  0.861270  1.0  -0.593
