# generated using pymatgen
data_Sm3S7O29
_symmetry_space_group_name_H-M   'P 1'
_cell_length_a   14.35510000
_cell_length_b   14.35510000
_cell_length_c   10.11320000
_cell_angle_alpha   90.00000000
_cell_angle_beta   90.00000000
_cell_angle_gamma   120.00000000
_symmetry_Int_Tables_number   1
_chemical_formula_structural   Sm3S7O29
_chemical_formula_sum   'Sm6 S14 O58'
_cell_volume   1804.81076250
_cell_formula_units_Z   2
loop_
 _symmetry_equiv_pos_site_id
 _symmetry_equiv_pos_as_xyz
  1  'x, y, z'
loop_
 _atom_site_type_symbol
 _atom_site_label
 _atom_site_symmetry_multiplicity
 _atom_site_fract_x
 _atom_site_fract_y
 _atom_site_fract_z
 _atom_site_occupancy
 _atom_site_charge
  Sm  Sm1  1  0.856620  0.440230  0.903610  1.0  2.3248
  Sm  Sm2  1  0.559770  0.416380  0.903610  1.0  2.323
  Sm  Sm3  1  0.583620  0.143380  0.903610  1.0  2.3247
  Sm  Sm4  1  0.440230  0.856620  0.403610  1.0  2.3258
  Sm  Sm5  1  0.416380  0.559770  0.403610  1.0  2.3237
  Sm  Sm6  1  0.143380  0.583620  0.403610  1.0  2.3228
  S  S7  1  0.806650  0.663460  0.941500  1.0  1.6662
  S  S8  1  0.994510  0.519230  0.154210  1.0  1.7232
  S  S9  1  0.336540  0.143190  0.941500  1.0  1.6704
  S  S10  1  0.480770  0.475280  0.154210  1.0  1.7222
  S  S11  1  0.856810  0.193350  0.941500  1.0  1.6676
  S  S12  1  0.524720  0.005490  0.154210  1.0  1.7212
  S  S13  1  0.663460  0.806650  0.441500  1.0  1.6676
  S  S14  1  0.519230  0.994510  0.654210  1.0  1.723
  S  S15  1  0.143190  0.336540  0.441500  1.0  1.668
  S  S16  1  0.475280  0.480770  0.654210  1.0  1.7215
  S  S17  1  0.193350  0.856810  0.441500  1.0  1.6701
  S  S18  1  0.005490  0.524720  0.654210  1.0  1.7218
  S  S19  1  0.666667  0.333333  0.691640  1.0  1.6603
  S  S20  1  0.333333  0.666667  0.191640  1.0  1.6603
  O  O21  1  0.831400  0.705800  0.807600  1.0  -0.4934
  O  O22  1  0.854000  0.595500  0.971700  1.0  -0.6613
  O  O23  1  0.848300  0.752700  0.038600  1.0  -0.4843
  O  O24  1  0.689000  0.597900  0.959500  1.0  -0.6464
  O  O25  1  0.030800  0.548300  0.015100  1.0  -0.7031
  O  O26  1  0.876780  0.450600  0.149800  1.0  -0.6515
  O  O27  1  0.028400  0.616900  0.236400  1.0  -0.7364
  O  O28  1  0.047400  0.463800  0.216300  1.0  -0.7278
  O  O29  1  0.722300  0.444100  0.749700  1.0  -0.8056
  O  O30  1  0.294200  0.125600  0.807600  1.0  -0.4925
  O  O31  1  0.404500  0.258500  0.971700  1.0  -0.6633
  O  O32  1  0.247300  0.095600  0.038600  1.0  -0.4828
  O  O33  1  0.402100  0.091100  0.959500  1.0  -0.6479
  O  O34  1  0.451700  0.482500  0.015100  1.0  -0.703
  O  O35  1  0.549400  0.426180  0.149800  1.0  -0.6519
  O  O36  1  0.383100  0.411500  0.236400  1.0  -0.7378
  O  O37  1  0.536200  0.583600  0.216300  1.0  -0.7251
  O  O38  1  0.555900  0.278200  0.749700  1.0  -0.8021
  O  O39  1  0.874400  0.168600  0.807600  1.0  -0.4917
  O  O40  1  0.741500  0.146000  0.971700  1.0  -0.6616
  O  O41  1  0.904400  0.151700  0.038600  1.0  -0.4828
  O  O42  1  0.908900  0.311000  0.959500  1.0  -0.65
  O  O43  1  0.517500  0.969200  0.015100  1.0  -0.7037
  O  O44  1  0.573820  0.123220  0.149800  1.0  -0.6567
  O  O45  1  0.588500  0.971600  0.236400  1.0  -0.734
  O  O46  1  0.416400  0.952600  0.216300  1.0  -0.7235
  O  O47  1  0.721800  0.277700  0.749700  1.0  -0.8041
  O  O48  1  0.705800  0.831400  0.307600  1.0  -0.4911
  O  O49  1  0.595500  0.854000  0.471700  1.0  -0.6624
  O  O50  1  0.752700  0.848300  0.538600  1.0  -0.4833
  O  O51  1  0.597900  0.689000  0.459500  1.0  -0.6497
  O  O52  1  0.548300  0.030800  0.515100  1.0  -0.7044
  O  O53  1  0.450600  0.876780  0.649800  1.0  -0.6546
  O  O54  1  0.616900  0.028400  0.736400  1.0  -0.7339
  O  O55  1  0.463800  0.047400  0.716300  1.0  -0.7232
  O  O56  1  0.444100  0.722300  0.249700  1.0  -0.8033
  O  O57  1  0.125600  0.294200  0.307600  1.0  -0.4922
  O  O58  1  0.258500  0.404500  0.471700  1.0  -0.6619
  O  O59  1  0.095600  0.247300  0.538600  1.0  -0.4842
  O  O60  1  0.091100  0.402100  0.459500  1.0  -0.6455
  O  O61  1  0.482500  0.451700  0.515100  1.0  -0.7028
  O  O62  1  0.426180  0.549400  0.649800  1.0  -0.6513
  O  O63  1  0.411500  0.383100  0.736400  1.0  -0.7348
  O  O64  1  0.583600  0.536200  0.716300  1.0  -0.7269
  O  O65  1  0.278200  0.555900  0.249700  1.0  -0.8043
  O  O66  1  0.168600  0.874400  0.307600  1.0  -0.4919
  O  O67  1  0.146000  0.741500  0.471700  1.0  -0.6637
  O  O68  1  0.151700  0.904400  0.538600  1.0  -0.4838
  O  O69  1  0.311000  0.908900  0.459500  1.0  -0.6498
  O  O70  1  0.969200  0.517500  0.515100  1.0  -0.7031
  O  O71  1  0.123220  0.573820  0.649800  1.0  -0.6511
  O  O72  1  0.971600  0.588500  0.736400  1.0  -0.7369
  O  O73  1  0.952600  0.416400  0.716300  1.0  -0.725
  O  O74  1  0.277700  0.721800  0.249700  1.0  -0.8005
  O  O75  1  0.666667  0.333333  0.549800  1.0  -0.4273
  O  O76  1  0.666667  0.333333  0.990200  1.0  -0.6572
  O  O77  1  0.333333  0.666667  0.049800  1.0  -0.4273
  O  O78  1  0.333333  0.666667  0.490200  1.0  -0.6569
