# generated using pymatgen
data_Tb3S7O29
_symmetry_space_group_name_H-M   'P 1'
_cell_length_a   14.26980000
_cell_length_b   14.26980000
_cell_length_c   10.06600000
_cell_angle_alpha   90.00000000
_cell_angle_beta   90.00000000
_cell_angle_gamma   120.00000000
_symmetry_Int_Tables_number   1
_chemical_formula_structural   Tb3S7O29
_chemical_formula_sum   'Tb6 S14 O58'
_cell_volume   1775.10206928
_cell_formula_units_Z   2
loop_
 _symmetry_equiv_pos_site_id
 _symmetry_equiv_pos_as_xyz
  1  'x, y, z'
loop_
 _atom_site_type_symbol
 _atom_site_label
 _atom_site_symmetry_multiplicity
 _atom_site_fract_x
 _atom_site_fract_y
 _atom_site_fract_z
 _atom_site_occupancy
 _atom_site_charge
  Tb  Tb1  1  0.441030  0.856590  0.219530  1.0  2.2776
  Tb  Tb2  1  0.143410  0.584440  0.219530  1.0  2.277
  Tb  Tb3  1  0.415560  0.558970  0.219530  1.0  2.2781
  Tb  Tb4  1  0.856590  0.441030  0.719530  1.0  2.2775
  Tb  Tb5  1  0.584440  0.143410  0.719530  1.0  2.2786
  Tb  Tb6  1  0.558970  0.415560  0.719530  1.0  2.2771
  S  S7  1  0.661970  0.806230  0.256390  1.0  1.6532
  S  S8  1  0.519940  0.995340  0.468680  1.0  1.7288
  S  S9  1  0.193770  0.855740  0.256390  1.0  1.6537
  S  S10  1  0.004660  0.524600  0.468680  1.0  1.7299
  S  S11  1  0.144260  0.338030  0.256390  1.0  1.6535
  S  S12  1  0.475400  0.480060  0.468680  1.0  1.7283
  S  S13  1  0.806230  0.661970  0.756390  1.0  1.6587
  S  S14  1  0.995340  0.519940  0.968680  1.0  1.7293
  S  S15  1  0.855740  0.193770  0.756390  1.0  1.6634
  S  S16  1  0.524600  0.004660  0.968680  1.0  1.7289
  S  S17  1  0.338030  0.144260  0.756390  1.0  1.6642
  S  S18  1  0.480060  0.475400  0.968680  1.0  1.7292
  S  S19  1  0.333333  0.666667  0.009550  1.0  1.6621
  S  S20  1  0.666667  0.333333  0.509550  1.0  1.6621
  O  O21  1  0.703900  0.829200  0.121000  1.0  -0.5079
  O  O22  1  0.593300  0.688400  0.276100  1.0  -0.6532
  O  O23  1  0.596500  0.857200  0.285800  1.0  -0.6828
  O  O24  1  0.752600  0.846600  0.350800  1.0  -0.488
  O  O25  1  0.546800  0.030300  0.329800  1.0  -0.6297
  O  O26  1  0.618700  0.029600  0.550700  1.0  -0.735
  O  O27  1  0.451800  0.876500  0.465700  1.0  -0.6807
  O  O28  1  0.465000  0.047800  0.533200  1.0  -0.6768
  O  O29  1  0.445000  0.724000  0.068300  1.0  -0.8184
  O  O30  1  0.170800  0.874700  0.121000  1.0  -0.5083
  O  O31  1  0.311600  0.904900  0.276100  1.0  -0.6524
  O  O32  1  0.142800  0.739300  0.285800  1.0  -0.6824
  O  O33  1  0.153400  0.906000  0.350800  1.0  -0.489
  O  O34  1  0.969700  0.516500  0.329800  1.0  -0.6293
  O  O35  1  0.970400  0.589100  0.550700  1.0  -0.7366
  O  O36  1  0.123500  0.575300  0.465700  1.0  -0.6774
  O  O37  1  0.952200  0.417200  0.533200  1.0  -0.6806
  O  O38  1  0.276000  0.721000  0.068300  1.0  -0.8161
  O  O39  1  0.125300  0.296100  0.121000  1.0  -0.5097
  O  O40  1  0.095100  0.406700  0.276100  1.0  -0.6493
  O  O41  1  0.260700  0.403500  0.285800  1.0  -0.6807
  O  O42  1  0.094000  0.247400  0.350800  1.0  -0.4899
  O  O43  1  0.483500  0.453200  0.329800  1.0  -0.6282
  O  O44  1  0.410900  0.381300  0.550700  1.0  -0.7362
  O  O45  1  0.424700  0.548200  0.465700  1.0  -0.6773
  O  O46  1  0.582800  0.535000  0.533200  1.0  -0.6809
  O  O47  1  0.279000  0.555000  0.068300  1.0  -0.8191
  O  O48  1  0.829200  0.703900  0.621000  1.0  -0.5099
  O  O49  1  0.688400  0.593300  0.776100  1.0  -0.6488
  O  O50  1  0.857200  0.596500  0.785800  1.0  -0.6811
  O  O51  1  0.846600  0.752600  0.850800  1.0  -0.4886
  O  O52  1  0.030300  0.546800  0.829800  1.0  -0.6282
  O  O53  1  0.029600  0.618700  0.050700  1.0  -0.7367
  O  O54  1  0.876500  0.451800  0.965700  1.0  -0.6771
  O  O55  1  0.047800  0.465000  0.033200  1.0  -0.6808
  O  O56  1  0.724000  0.445000  0.568300  1.0  -0.8214
  O  O57  1  0.874700  0.170800  0.621000  1.0  -0.5083
  O  O58  1  0.904900  0.311600  0.776100  1.0  -0.6525
  O  O59  1  0.739300  0.142800  0.785800  1.0  -0.6814
  O  O60  1  0.906000  0.153400  0.850800  1.0  -0.4881
  O  O61  1  0.516500  0.969700  0.829800  1.0  -0.6293
  O  O62  1  0.589100  0.970400  0.050700  1.0  -0.7354
  O  O63  1  0.575300  0.123500  0.965700  1.0  -0.6835
  O  O64  1  0.417200  0.952200  0.033200  1.0  -0.6776
  O  O65  1  0.721000  0.276000  0.568300  1.0  -0.8193
  O  O66  1  0.296100  0.125300  0.621000  1.0  -0.5092
  O  O67  1  0.406700  0.095100  0.776100  1.0  -0.652
  O  O68  1  0.403500  0.260700  0.785800  1.0  -0.6817
  O  O69  1  0.247400  0.094000  0.850800  1.0  -0.4882
  O  O70  1  0.453200  0.483500  0.829800  1.0  -0.629
  O  O71  1  0.381300  0.410900  0.050700  1.0  -0.7379
  O  O72  1  0.548200  0.424700  0.965700  1.0  -0.6783
  O  O73  1  0.535000  0.582800  0.033200  1.0  -0.6811
  O  O74  1  0.555000  0.279000  0.568300  1.0  -0.817
  O  O75  1  0.333333  0.666667  0.869300  1.0  -0.435
  O  O76  1  0.333333  0.666667  0.304700  1.0  -0.6015
  O  O77  1  0.666667  0.333333  0.369300  1.0  -0.435
  O  O78  1  0.666667  0.333333  0.804700  1.0  -0.6015
