# generated using pymatgen
data_Cu3H8W2(C6N5)4
_symmetry_space_group_name_H-M   'P 1'
_cell_length_a   11.41900000
_cell_length_b   20.29300000
_cell_length_c   20.29300000
_cell_angle_alpha   75.43770000
_cell_angle_beta   73.65900000
_cell_angle_gamma   73.65900000
_symmetry_Int_Tables_number   1
_chemical_formula_structural   Cu3H8W2(C6N5)4
_chemical_formula_sum   'Cu12 H32 W8 C96 N80'
_cell_volume   4253.71691278
_cell_formula_units_Z   4
loop_
 _symmetry_equiv_pos_site_id
 _symmetry_equiv_pos_as_xyz
  1  'x, y, z'
loop_
 _atom_site_type_symbol
 _atom_site_label
 _atom_site_symmetry_multiplicity
 _atom_site_fract_x
 _atom_site_fract_y
 _atom_site_fract_z
 _atom_site_occupancy
 _atom_site_charge
  Cu  Cu1  1  0.848030  0.619520  0.116560  1.0  0.8246
  Cu  Cu2  1  0.415890  0.116560  0.619520  1.0  0.8243
  Cu  Cu3  1  0.651970  0.383440  0.880480  1.0  0.8245
  Cu  Cu4  1  0.084110  0.880480  0.383440  1.0  0.8247
  Cu  Cu5  1  0.151970  0.380480  0.883440  1.0  0.8248
  Cu  Cu6  1  0.584110  0.883440  0.380480  1.0  0.8245
  Cu  Cu7  1  0.348030  0.616560  0.119520  1.0  0.8245
  Cu  Cu8  1  0.915890  0.119520  0.616560  1.0  0.8244
  Cu  Cu9  1  0.113500  0.886500  0.886500  1.0  0.9158
  Cu  Cu10  1  0.386500  0.613500  0.613500  1.0  0.9156
  Cu  Cu11  1  0.886500  0.113500  0.113500  1.0  0.9156
  Cu  Cu12  1  0.613500  0.386500  0.386500  1.0  0.9158
  H  H13  1  0.268800  0.498300  0.239500  1.0  0.1102
  H  H14  1  0.088600  0.454700  0.288300  1.0  0.1624
  H  H15  1  0.916000  0.503400  0.239600  1.0  0.1028
  H  H16  1  0.097900  0.634500  0.102700  1.0  0.056
  H  H17  1  0.993400  0.239500  0.498300  1.0  0.1096
  H  H18  1  0.168400  0.288300  0.454700  1.0  0.1632
  H  H19  1  0.341000  0.239600  0.503400  1.0  0.1016
  H  H20  1  0.164900  0.102700  0.634500  1.0  0.0564
  H  H21  1  0.231200  0.260500  0.001700  1.0  0.1111
  H  H22  1  0.411400  0.211700  0.045300  1.0  0.1631
  H  H23  1  0.584000  0.260400  0.996600  1.0  0.1017
  H  H24  1  0.402100  0.397300  0.865500  1.0  0.0562
  H  H25  1  0.506600  0.001700  0.260500  1.0  0.1099
  H  H26  1  0.331600  0.045300  0.211700  1.0  0.1627
  H  H27  1  0.159000  0.996600  0.260400  1.0  0.1011
  H  H28  1  0.335100  0.865500  0.397300  1.0  0.0559
  H  H29  1  0.731200  0.501700  0.760500  1.0  0.1096
  H  H30  1  0.911400  0.545300  0.711700  1.0  0.1624
  H  H31  1  0.084000  0.496600  0.760400  1.0  0.1025
  H  H32  1  0.902100  0.365500  0.897300  1.0  0.0563
  H  H33  1  0.006600  0.760500  0.501700  1.0  0.1103
  H  H34  1  0.831600  0.711700  0.545300  1.0  0.1629
  H  H35  1  0.659000  0.760400  0.496600  1.0  0.1019
  H  H36  1  0.835100  0.897300  0.365500  1.0  0.0563
  H  H37  1  0.768800  0.739500  0.998300  1.0  0.1103
  H  H38  1  0.588600  0.788300  0.954700  1.0  0.1629
  H  H39  1  0.416000  0.739600  0.003400  1.0  0.1017
  H  H40  1  0.597900  0.602700  0.134500  1.0  0.0561
  H  H41  1  0.493400  0.998300  0.739500  1.0  0.111
  H  H42  1  0.668400  0.954700  0.788300  1.0  0.1626
  H  H43  1  0.841000  0.003400  0.739600  1.0  0.1014
  H  H44  1  0.664900  0.134500  0.602700  1.0  0.0558
  W  W45  1  0.936490  0.841820  0.158180  1.0  0.0549
  W  W46  1  0.063510  0.158180  0.841820  1.0  0.0598
  W  W47  1  0.563510  0.341820  0.658180  1.0  0.0579
  W  W48  1  0.436490  0.658180  0.341820  1.0  0.0605
  W  W49  1  0.750000  0.380290  0.119710  1.0  0.0632
  W  W50  1  0.750000  0.119710  0.380290  1.0  0.0607
  W  W51  1  0.250000  0.619710  0.880290  1.0  0.0604
  W  W52  1  0.250000  0.880290  0.619710  1.0  0.063
  C  C53  1  0.892700  0.758810  0.128190  1.0  0.1939
  C  C54  1  0.118920  0.773000  0.135560  1.0  0.1355
  C  C55  1  0.012710  0.864780  0.047200  1.0  0.2045
  C  C56  1  0.798270  0.476380  0.117280  1.0  0.1747
  C  C57  1  0.082820  0.616420  0.963340  1.0  0.1496
  C  C58  1  0.175920  0.727940  0.888620  1.0  0.2166
  C  C59  1  0.596320  0.329340  0.153420  1.0  0.0912
  C  C60  1  0.196670  0.518220  0.220440  1.0  0.246
  C  C61  1  0.090900  0.492190  0.249210  1.0  -0.2065
  C  C62  1  0.989810  0.520920  0.220460  1.0  0.2468
  C  C63  1  0.096520  0.596510  0.141250  1.0  0.3708
  C  C64  1  0.220300  0.128190  0.758810  1.0  0.1945
  C  C65  1  0.972520  0.135560  0.773000  1.0  0.139
  C  C66  1  0.075310  0.047200  0.864780  1.0  0.2043
  C  C67  1  0.608070  0.117280  0.476380  1.0  0.176
  C  C68  1  0.337420  0.963340  0.616420  1.0  0.149
  C  C69  1  0.207520  0.888620  0.727940  1.0  0.2198
  C  C70  1  0.920920  0.153420  0.329340  1.0  0.0932
  C  C71  1  0.064670  0.220440  0.518220  1.0  0.2451
  C  C72  1  0.167700  0.249210  0.492190  1.0  -0.2046
  C  C73  1  0.268810  0.220460  0.520920  1.0  0.246
  C  C74  1  0.165720  0.141250  0.596510  1.0  0.3718
  C  C75  1  0.607300  0.371810  0.741190  1.0  0.1946
  C  C76  1  0.381080  0.364440  0.727000  1.0  0.1376
  C  C77  1  0.487290  0.452800  0.635220  1.0  0.2052
  C  C78  1  0.701730  0.382720  0.023620  1.0  0.173
  C  C79  1  0.417180  0.536660  0.883580  1.0  0.1487
  C  C80  1  0.324080  0.611380  0.772060  1.0  0.2166
  C  C81  1  0.903680  0.346580  0.170660  1.0  0.0928
  C  C82  1  0.303330  0.279560  0.981780  1.0  0.2464
  C  C83  1  0.409100  0.250790  0.007810  1.0  -0.2033
  C  C84  1  0.510190  0.279540  0.979080  1.0  0.2483
  C  C85  1  0.403480  0.358750  0.903490  1.0  0.3697
  C  C86  1  0.279700  0.741190  0.371810  1.0  0.1964
  C  C87  1  0.527480  0.727000  0.364440  1.0  0.1389
  C  C88  1  0.424690  0.635220  0.452800  1.0  0.2046
  C  C89  1  0.891930  0.023620  0.382720  1.0  0.1745
  C  C90  1  0.162580  0.883580  0.536660  1.0  0.1487
  C  C91  1  0.292480  0.772060  0.611380  1.0  0.2172
  C  C92  1  0.579080  0.170660  0.346580  1.0  0.0886
  C  C93  1  0.435330  0.981780  0.279560  1.0  0.2432
  C  C94  1  0.332300  0.007810  0.250790  1.0  -0.2038
  C  C95  1  0.231190  0.979080  0.279540  1.0  0.245
  C  C96  1  0.334280  0.903490  0.358750  1.0  0.3723
  C  C97  1  0.107300  0.241190  0.871810  1.0  0.1935
  C  C98  1  0.881080  0.227000  0.864440  1.0  0.1362
  C  C99  1  0.987290  0.135220  0.952800  1.0  0.2061
  C  C100  1  0.201730  0.523620  0.882720  1.0  0.175
  C  C101  1  0.917180  0.383580  0.036660  1.0  0.1491
  C  C102  1  0.824080  0.272060  0.111380  1.0  0.2159
  C  C103  1  0.403680  0.670660  0.846580  1.0  0.0915
  C  C104  1  0.803330  0.481780  0.779560  1.0  0.2461
  C  C105  1  0.909100  0.507810  0.750790  1.0  -0.2042
  C  C106  1  0.010190  0.479080  0.779540  1.0  0.2461
  C  C107  1  0.903480  0.403490  0.858750  1.0  0.3722
  C  C108  1  0.779700  0.871810  0.241190  1.0  0.1955
  C  C109  1  0.027480  0.864440  0.227000  1.0  0.1395
  C  C110  1  0.924690  0.952800  0.135220  1.0  0.2027
  C  C111  1  0.391930  0.882720  0.523620  1.0  0.1754
  C  C112  1  0.662580  0.036660  0.383580  1.0  0.149
  C  C113  1  0.792480  0.111380  0.272060  1.0  0.2172
  C  C114  1  0.079080  0.846580  0.670660  1.0  0.09
  C  C115  1  0.935330  0.779560  0.481780  1.0  0.2455
  C  C116  1  0.832300  0.750790  0.507810  1.0  -0.206
  C  C117  1  0.731190  0.779540  0.479080  1.0  0.2463
  C  C118  1  0.834280  0.858750  0.403490  1.0  0.3695
  C  C119  1  0.392700  0.628190  0.258810  1.0  0.1946
  C  C120  1  0.618920  0.635560  0.273000  1.0  0.1366
  C  C121  1  0.512710  0.547200  0.364780  1.0  0.2056
  C  C122  1  0.298270  0.617280  0.976380  1.0  0.1747
  C  C123  1  0.582820  0.463340  0.116420  1.0  0.1481
  C  C124  1  0.675920  0.388620  0.227940  1.0  0.2185
  C  C125  1  0.096320  0.653420  0.829340  1.0  0.0894
  C  C126  1  0.696670  0.720440  0.018220  1.0  0.2436
  C  C127  1  0.590900  0.749210  0.992190  1.0  -0.2038
  C  C128  1  0.489810  0.720460  0.020920  1.0  0.2474
  C  C129  1  0.596520  0.641250  0.096510  1.0  0.3714
  C  C130  1  0.720300  0.258810  0.628190  1.0  0.1959
  C  C131  1  0.472520  0.273000  0.635560  1.0  0.1389
  C  C132  1  0.575310  0.364780  0.547200  1.0  0.2035
  C  C133  1  0.108070  0.976380  0.617280  1.0  0.1743
  C  C134  1  0.837420  0.116420  0.463340  1.0  0.1491
  C  C135  1  0.707520  0.227940  0.388620  1.0  0.2166
  C  C136  1  0.420920  0.829340  0.653420  1.0  0.0926
  C  C137  1  0.564670  0.018220  0.720440  1.0  0.2442
  C  C138  1  0.667700  0.992190  0.749210  1.0  -0.2035
  C  C139  1  0.768810  0.020920  0.720460  1.0  0.2471
  C  C140  1  0.665720  0.096510  0.641250  1.0  0.3707
  C  C141  1  0.776200  0.887900  0.112100  1.0  0.1094
  C  C142  1  0.936500  0.754600  0.245400  1.0  0.1192
  C  C143  1  0.223800  0.112100  0.887900  1.0  0.1071
  C  C144  1  0.063500  0.245400  0.754600  1.0  0.1184
  C  C145  1  0.723800  0.387900  0.612100  1.0  0.1058
  C  C146  1  0.563500  0.254600  0.745400  1.0  0.1193
  C  C147  1  0.276200  0.612100  0.387900  1.0  0.1074
  C  C148  1  0.436500  0.745400  0.254600  1.0  0.1186
  N  N149  1  0.872310  0.712230  0.115550  1.0  -0.3693
  N  N150  1  0.210300  0.732230  0.122370  1.0  -0.398
  N  N151  1  0.050340  0.876100  0.988220  1.0  -0.3956
  N  N152  1  0.821040  0.527210  0.118510  1.0  -0.366
  N  N153  1  0.995090  0.616800  0.007420  1.0  -0.398
  N  N154  1  0.139970  0.785410  0.892650  1.0  -0.3925
  N  N155  1  0.513940  0.302360  0.168760  1.0  -0.3545
  N  N156  1  0.992760  0.573490  0.165590  1.0  -0.3263
  N  N157  1  0.199210  0.571120  0.166060  1.0  -0.3333
  N  N158  1  0.299910  0.115550  0.712230  1.0  -0.3691
  N  N159  1  0.935100  0.122370  0.732230  1.0  -0.3979
  N  N160  1  0.085340  0.988220  0.876100  1.0  -0.3949
  N  N161  1  0.533240  0.118510  0.527210  1.0  -0.3671
  N  N162  1  0.380690  0.007420  0.616800  1.0  -0.3976
  N  N163  1  0.181970  0.892650  0.785410  1.0  -0.3916
  N  N164  1  0.014940  0.168760  0.302360  1.0  -0.3552
  N  N165  1  0.268160  0.165590  0.573490  1.0  -0.3252
  N  N166  1  0.063610  0.166060  0.571120  1.0  -0.3337
  N  N167  1  0.627690  0.384450  0.787770  1.0  -0.3683
  N  N168  1  0.289700  0.377630  0.767770  1.0  -0.399
  N  N169  1  0.449660  0.511780  0.623900  1.0  -0.3945
  N  N170  1  0.678960  0.381490  0.972790  1.0  -0.367
  N  N171  1  0.504910  0.492580  0.883200  1.0  -0.3991
  N  N172  1  0.360030  0.607350  0.714590  1.0  -0.3922
  N  N173  1  0.986060  0.331240  0.197640  1.0  -0.3554
  N  N174  1  0.507240  0.334410  0.926510  1.0  -0.323
  N  N175  1  0.300790  0.333940  0.928880  1.0  -0.3361
  N  N176  1  0.200090  0.787770  0.384450  1.0  -0.3695
  N  N177  1  0.564900  0.767770  0.377630  1.0  -0.3969
  N  N178  1  0.414660  0.623900  0.511780  1.0  -0.3946
  N  N179  1  0.966760  0.972790  0.381490  1.0  -0.3675
  N  N180  1  0.119310  0.883200  0.492580  1.0  -0.3983
  N  N181  1  0.318030  0.714590  0.607350  1.0  -0.3906
  N  N182  1  0.485060  0.197640  0.331240  1.0  -0.3547
  N  N183  1  0.231840  0.926510  0.334410  1.0  -0.325
  N  N184  1  0.436390  0.928880  0.333940  1.0  -0.3353
  N  N185  1  0.127690  0.287770  0.884450  1.0  -0.3693
  N  N186  1  0.789700  0.267770  0.877630  1.0  -0.3967
  N  N187  1  0.949660  0.123900  0.011780  1.0  -0.3951
  N  N188  1  0.178960  0.472790  0.881490  1.0  -0.3675
  N  N189  1  0.004910  0.383200  0.992580  1.0  -0.3979
  N  N190  1  0.860030  0.214590  0.107350  1.0  -0.3914
  N  N191  1  0.486060  0.697640  0.831240  1.0  -0.3546
  N  N192  1  0.007240  0.426510  0.834410  1.0  -0.3255
  N  N193  1  0.800790  0.428880  0.833940  1.0  -0.3338
  N  N194  1  0.700090  0.884450  0.287770  1.0  -0.3686
  N  N195  1  0.064900  0.877630  0.267770  1.0  -0.3993
  N  N196  1  0.914660  0.011780  0.123900  1.0  -0.396
  N  N197  1  0.466760  0.881490  0.472790  1.0  -0.3665
  N  N198  1  0.619310  0.992580  0.383200  1.0  -0.3976
  N  N199  1  0.818030  0.107350  0.214590  1.0  -0.3913
  N  N200  1  0.985060  0.831240  0.697640  1.0  -0.3555
  N  N201  1  0.731840  0.834410  0.426510  1.0  -0.3243
  N  N202  1  0.936390  0.833940  0.428880  1.0  -0.3331
  N  N203  1  0.372310  0.615550  0.212230  1.0  -0.3676
  N  N204  1  0.710300  0.622370  0.232230  1.0  -0.399
  N  N205  1  0.550340  0.488220  0.376100  1.0  -0.3936
  N  N206  1  0.321040  0.618510  0.027210  1.0  -0.3677
  N  N207  1  0.495090  0.507420  0.116800  1.0  -0.3987
  N  N208  1  0.639970  0.392650  0.285410  1.0  -0.3916
  N  N209  1  0.013940  0.668760  0.802360  1.0  -0.3557
  N  N210  1  0.492760  0.665590  0.073490  1.0  -0.3242
  N  N211  1  0.699210  0.666060  0.071120  1.0  -0.3351
  N  N212  1  0.799910  0.212230  0.615550  1.0  -0.3699
  N  N213  1  0.435100  0.232230  0.622370  1.0  -0.3971
  N  N214  1  0.585340  0.376100  0.488220  1.0  -0.3938
  N  N215  1  0.033240  0.027210  0.618510  1.0  -0.3665
  N  N216  1  0.880690  0.116800  0.507420  1.0  -0.3987
  N  N217  1  0.681970  0.285410  0.392650  1.0  -0.3927
  N  N218  1  0.514940  0.802360  0.668760  1.0  -0.3556
  N  N219  1  0.768160  0.073490  0.665590  1.0  -0.3237
  N  N220  1  0.563610  0.071120  0.666060  1.0  -0.3359
  N  N221  1  0.692500  0.912300  0.087700  1.0  -0.3799
  N  N222  1  0.934200  0.709200  0.290800  1.0  -0.3805
  N  N223  1  0.307500  0.087700  0.912300  1.0  -0.3797
  N  N224  1  0.065800  0.290800  0.709200  1.0  -0.3853
  N  N225  1  0.807500  0.412300  0.587700  1.0  -0.3776
  N  N226  1  0.565800  0.209200  0.790800  1.0  -0.3819
  N  N227  1  0.192500  0.587700  0.412300  1.0  -0.3778
  N  N228  1  0.434200  0.790800  0.209200  1.0  -0.3865
