# generated using pymatgen
data_Cu3H8W2(C6N5)4
_symmetry_space_group_name_H-M   'P 1'
_cell_length_a   11.52840000
_cell_length_b   14.76100000
_cell_length_c   25.59300000
_cell_angle_alpha   90.00000000
_cell_angle_beta   90.00000000
_cell_angle_gamma   90.00000000
_symmetry_Int_Tables_number   1
_chemical_formula_structural   Cu3H8W2(C6N5)4
_chemical_formula_sum   'Cu12 H32 W8 C96 N80'
_cell_volume   4355.17904245
_cell_formula_units_Z   4
loop_
 _symmetry_equiv_pos_site_id
 _symmetry_equiv_pos_as_xyz
  1  'x, y, z'
loop_
 _atom_site_type_symbol
 _atom_site_label
 _atom_site_symmetry_multiplicity
 _atom_site_fract_x
 _atom_site_fract_y
 _atom_site_fract_z
 _atom_site_occupancy
 _atom_site_charge
  Cu  Cu1  1  0.500000  0.500000  0.500000  1.0  0.7612
  Cu  Cu2  1  0.500000  0.000000  0.000000  1.0  0.7612
  Cu  Cu3  1  0.500000  0.500000  0.000000  1.0  0.7612
  Cu  Cu4  1  0.500000  0.000000  0.500000  1.0  0.7612
  Cu  Cu5  1  0.000000  0.500000  0.500000  1.0  0.8578
  Cu  Cu6  1  0.000000  0.000000  0.000000  1.0  0.8578
  Cu  Cu7  1  0.000000  0.500000  0.000000  1.0  0.8578
  Cu  Cu8  1  0.000000  0.000000  0.500000  1.0  0.8578
  Cu  Cu9  1  0.685060  0.514040  0.250000  1.0  0.7045
  Cu  Cu10  1  0.685060  0.985960  0.250000  1.0  0.7051
  Cu  Cu11  1  0.314940  0.485960  0.750000  1.0  0.7052
  Cu  Cu12  1  0.314940  0.014040  0.750000  1.0  0.7046
  H  H13  1  0.750100  0.499200  0.484600  1.0  0.08
  H  H14  1  0.578100  0.553500  0.611900  1.0  0.1242
  H  H15  1  0.751200  0.578500  0.654400  1.0  0.1415
  H  H16  1  0.921900  0.555600  0.610200  1.0  0.1098
  H  H17  1  0.750100  0.000800  0.015400  1.0  0.0806
  H  H18  1  0.578100  0.946500  0.888100  1.0  0.1237
  H  H19  1  0.751200  0.921500  0.845600  1.0  0.1424
  H  H20  1  0.921900  0.944400  0.889800  1.0  0.1095
  H  H21  1  0.249900  0.500800  0.984600  1.0  0.0803
  H  H22  1  0.421900  0.446500  0.111900  1.0  0.1241
  H  H23  1  0.248800  0.421500  0.154400  1.0  0.1418
  H  H24  1  0.078100  0.444400  0.110200  1.0  0.1093
  H  H25  1  0.249900  0.999200  0.515400  1.0  0.0814
  H  H26  1  0.421900  0.053500  0.388100  1.0  0.1235
  H  H27  1  0.248800  0.078500  0.345600  1.0  0.1424
  H  H28  1  0.078100  0.055600  0.389800  1.0  0.1093
  H  H29  1  0.249900  0.500800  0.515400  1.0  0.0808
  H  H30  1  0.421900  0.446500  0.388100  1.0  0.1233
  H  H31  1  0.248800  0.421500  0.345600  1.0  0.1424
  H  H32  1  0.078100  0.444400  0.389800  1.0  0.1092
  H  H33  1  0.249900  0.999200  0.984600  1.0  0.0803
  H  H34  1  0.421900  0.053500  0.111900  1.0  0.1243
  H  H35  1  0.248800  0.078500  0.154400  1.0  0.1415
  H  H36  1  0.078100  0.055600  0.110200  1.0  0.1091
  H  H37  1  0.750100  0.499200  0.015400  1.0  0.0812
  H  H38  1  0.578100  0.553500  0.888100  1.0  0.1239
  H  H39  1  0.751200  0.578500  0.845600  1.0  0.1423
  H  H40  1  0.921900  0.555600  0.889800  1.0  0.1094
  H  H41  1  0.750100  0.000800  0.484600  1.0  0.0801
  H  H42  1  0.578100  0.946500  0.611900  1.0  0.1243
  H  H43  1  0.751200  0.921500  0.654400  1.0  0.1417
  H  H44  1  0.921900  0.944400  0.610200  1.0  0.1098
  W  W45  1  0.723300  0.250000  0.389440  1.0  0.1334
  W  W46  1  0.723300  0.250000  0.110560  1.0  0.1362
  W  W47  1  0.276700  0.750000  0.889440  1.0  0.1348
  W  W48  1  0.276700  0.750000  0.610560  1.0  0.1377
  W  W49  1  0.772610  0.750000  0.400510  1.0  0.1386
  W  W50  1  0.772610  0.750000  0.099490  1.0  0.1418
  W  W51  1  0.227390  0.250000  0.900510  1.0  0.138
  W  W52  1  0.227390  0.250000  0.599490  1.0  0.1413
  C  C53  1  0.626000  0.342900  0.439100  1.0  0.1844
  C  C54  1  0.841000  0.339000  0.431300  1.0  0.1619
  C  C55  1  0.710400  0.361600  0.334500  1.0  0.1858
  C  C56  1  0.636700  0.655700  0.423600  1.0  0.1803
  C  C57  1  0.883600  0.642100  0.427500  1.0  0.145
  C  C58  1  0.734900  0.657800  0.336900  1.0  0.2139
  C  C59  1  0.750200  0.513900  0.519900  1.0  0.2746
  C  C60  1  0.647700  0.546500  0.594000  1.0  0.2146
  C  C61  1  0.750400  0.560600  0.619600  1.0  -0.0988
  C  C62  1  0.851900  0.547700  0.592700  1.0  0.1621
  C  C63  1  0.626000  0.157100  0.060900  1.0  0.1851
  C  C64  1  0.841000  0.161000  0.068700  1.0  0.1631
  C  C65  1  0.710400  0.138400  0.165500  1.0  0.1875
  C  C66  1  0.636700  0.844300  0.076400  1.0  0.1801
  C  C67  1  0.883600  0.857900  0.072500  1.0  0.1455
  C  C68  1  0.734900  0.842200  0.163100  1.0  0.2137
  C  C69  1  0.750200  0.986100  0.980100  1.0  0.2739
  C  C70  1  0.647700  0.953500  0.906000  1.0  0.2155
  C  C71  1  0.750400  0.939400  0.880400  1.0  -0.0974
  C  C72  1  0.851900  0.952300  0.907300  1.0  0.1615
  C  C73  1  0.374000  0.657100  0.939100  1.0  0.1851
  C  C74  1  0.159000  0.661000  0.931300  1.0  0.162
  C  C75  1  0.289600  0.638400  0.834500  1.0  0.1873
  C  C76  1  0.363300  0.344300  0.923600  1.0  0.1808
  C  C77  1  0.116400  0.357900  0.927500  1.0  0.1442
  C  C78  1  0.265100  0.342200  0.836900  1.0  0.2129
  C  C79  1  0.249800  0.486100  0.019900  1.0  0.2743
  C  C80  1  0.352300  0.453500  0.094000  1.0  0.2168
  C  C81  1  0.249600  0.439400  0.119600  1.0  -0.0985
  C  C82  1  0.148100  0.452300  0.092700  1.0  0.1614
  C  C83  1  0.374000  0.842900  0.560900  1.0  0.1847
  C  C84  1  0.159000  0.839000  0.568700  1.0  0.1621
  C  C85  1  0.289600  0.861600  0.665500  1.0  0.187
  C  C86  1  0.363300  0.155700  0.576400  1.0  0.1804
  C  C87  1  0.116400  0.142100  0.572500  1.0  0.1446
  C  C88  1  0.265100  0.157800  0.663100  1.0  0.2148
  C  C89  1  0.249800  0.013900  0.480100  1.0  0.2742
  C  C90  1  0.352300  0.046500  0.406000  1.0  0.2173
  C  C91  1  0.249600  0.060600  0.380400  1.0  -0.0969
  C  C92  1  0.148100  0.047700  0.407300  1.0  0.1628
  C  C93  1  0.374000  0.657100  0.560900  1.0  0.1854
  C  C94  1  0.159000  0.661000  0.568700  1.0  0.1626
  C  C95  1  0.289600  0.638400  0.665500  1.0  0.1872
  C  C96  1  0.363300  0.344300  0.576400  1.0  0.1807
  C  C97  1  0.116400  0.357900  0.572500  1.0  0.1452
  C  C98  1  0.265100  0.342200  0.663100  1.0  0.2136
  C  C99  1  0.249800  0.486100  0.480100  1.0  0.274
  C  C100  1  0.352300  0.453500  0.406000  1.0  0.2171
  C  C101  1  0.249600  0.439400  0.380400  1.0  -0.0972
  C  C102  1  0.148100  0.452300  0.407300  1.0  0.1626
  C  C103  1  0.374000  0.842900  0.939100  1.0  0.1845
  C  C104  1  0.159000  0.839000  0.931300  1.0  0.1614
  C  C105  1  0.289600  0.861600  0.834500  1.0  0.1856
  C  C106  1  0.363300  0.155700  0.923600  1.0  0.1813
  C  C107  1  0.116400  0.142100  0.927500  1.0  0.1444
  C  C108  1  0.265100  0.157800  0.836900  1.0  0.214
  C  C109  1  0.249800  0.013900  0.019900  1.0  0.2747
  C  C110  1  0.352300  0.046500  0.094000  1.0  0.217
  C  C111  1  0.249600  0.060600  0.119600  1.0  -0.0987
  C  C112  1  0.148100  0.047700  0.092700  1.0  0.1619
  C  C113  1  0.626000  0.342900  0.060900  1.0  0.1847
  C  C114  1  0.841000  0.339000  0.068700  1.0  0.1624
  C  C115  1  0.710400  0.361600  0.165500  1.0  0.1862
  C  C116  1  0.636700  0.655700  0.076400  1.0  0.1794
  C  C117  1  0.883600  0.642100  0.072500  1.0  0.1453
  C  C118  1  0.734900  0.657800  0.163100  1.0  0.2143
  C  C119  1  0.750200  0.513900  0.980100  1.0  0.274
  C  C120  1  0.647700  0.546500  0.906000  1.0  0.2157
  C  C121  1  0.750400  0.560600  0.880400  1.0  -0.0971
  C  C122  1  0.851900  0.547700  0.907300  1.0  0.1617
  C  C123  1  0.626000  0.157100  0.439100  1.0  0.1846
  C  C124  1  0.841000  0.161000  0.431300  1.0  0.1625
  C  C125  1  0.710400  0.138400  0.334500  1.0  0.1864
  C  C126  1  0.636700  0.844300  0.423600  1.0  0.1802
  C  C127  1  0.883600  0.857900  0.427500  1.0  0.1447
  C  C128  1  0.734900  0.842200  0.336900  1.0  0.213
  C  C129  1  0.750200  0.986100  0.519900  1.0  0.2741
  C  C130  1  0.647700  0.953500  0.594000  1.0  0.2141
  C  C131  1  0.750400  0.939400  0.619600  1.0  -0.0987
  C  C132  1  0.851900  0.952300  0.592700  1.0  0.1615
  C  C133  1  0.547100  0.250000  0.358800  1.0  0.1709
  C  C134  1  0.885300  0.250000  0.346800  1.0  0.1508
  C  C135  1  0.547100  0.250000  0.141200  1.0  0.1699
  C  C136  1  0.885300  0.250000  0.153200  1.0  0.1505
  C  C137  1  0.452900  0.750000  0.858800  1.0  0.1716
  C  C138  1  0.114700  0.750000  0.846800  1.0  0.1491
  C  C139  1  0.452900  0.750000  0.641200  1.0  0.1707
  C  C140  1  0.114700  0.750000  0.653200  1.0  0.1489
  C  C141  1  0.925300  0.750000  0.350800  1.0  0.1399
  C  C142  1  0.767500  0.750000  0.485900  1.0  0.1352
  C  C143  1  0.925300  0.750000  0.149200  1.0  0.1394
  C  C144  1  0.767500  0.750000  0.014100  1.0  0.1362
  C  C145  1  0.074700  0.250000  0.850800  1.0  0.1385
  C  C146  1  0.232500  0.250000  0.985900  1.0  0.1351
  C  C147  1  0.074700  0.250000  0.649200  1.0  0.1373
  C  C148  1  0.232500  0.250000  0.514100  1.0  0.1362
  N  N149  1  0.576800  0.396300  0.462000  1.0  -0.3593
  N  N150  1  0.902100  0.385800  0.453300  1.0  -0.3675
  N  N151  1  0.701800  0.419500  0.304200  1.0  -0.3382
  N  N152  1  0.570400  0.602400  0.436600  1.0  -0.4223
  N  N153  1  0.941800  0.586200  0.446000  1.0  -0.4161
  N  N154  1  0.715600  0.607200  0.304200  1.0  -0.3662
  N  N155  1  0.646200  0.522400  0.542700  1.0  -0.309
  N  N156  1  0.853800  0.524100  0.542300  1.0  -0.3032
  N  N157  1  0.576800  0.103700  0.038000  1.0  -0.3599
  N  N158  1  0.902100  0.114200  0.046700  1.0  -0.3672
  N  N159  1  0.701800  0.080500  0.195800  1.0  -0.3378
  N  N160  1  0.570400  0.897600  0.063400  1.0  -0.4219
  N  N161  1  0.941800  0.913800  0.054000  1.0  -0.4161
  N  N162  1  0.715600  0.892800  0.195800  1.0  -0.3653
  N  N163  1  0.646200  0.977600  0.957300  1.0  -0.3086
  N  N164  1  0.853800  0.975900  0.957700  1.0  -0.3029
  N  N165  1  0.423200  0.603700  0.962000  1.0  -0.3609
  N  N166  1  0.097900  0.614200  0.953300  1.0  -0.3679
  N  N167  1  0.298200  0.580500  0.804200  1.0  -0.3373
  N  N168  1  0.429600  0.397600  0.936600  1.0  -0.4213
  N  N169  1  0.058200  0.413800  0.946000  1.0  -0.4173
  N  N170  1  0.284400  0.392800  0.804200  1.0  -0.3643
  N  N171  1  0.353800  0.477600  0.042700  1.0  -0.3104
  N  N172  1  0.146200  0.475900  0.042300  1.0  -0.302
  N  N173  1  0.423200  0.896300  0.538000  1.0  -0.3597
  N  N174  1  0.097900  0.885800  0.546700  1.0  -0.3678
  N  N175  1  0.298200  0.919500  0.695800  1.0  -0.3388
  N  N176  1  0.429600  0.102400  0.563400  1.0  -0.4223
  N  N177  1  0.058200  0.086200  0.554000  1.0  -0.4167
  N  N178  1  0.284400  0.107200  0.695800  1.0  -0.3653
  N  N179  1  0.353800  0.022400  0.457300  1.0  -0.3106
  N  N180  1  0.146200  0.024100  0.457700  1.0  -0.3023
  N  N181  1  0.423200  0.603700  0.538000  1.0  -0.3607
  N  N182  1  0.097900  0.614200  0.546700  1.0  -0.3677
  N  N183  1  0.298200  0.580500  0.695800  1.0  -0.3376
  N  N184  1  0.429600  0.397600  0.563400  1.0  -0.4221
  N  N185  1  0.058200  0.413800  0.554000  1.0  -0.4174
  N  N186  1  0.284400  0.392800  0.695800  1.0  -0.3649
  N  N187  1  0.353800  0.477600  0.457300  1.0  -0.3107
  N  N188  1  0.146200  0.475900  0.457700  1.0  -0.3018
  N  N189  1  0.423200  0.896300  0.962000  1.0  -0.3599
  N  N190  1  0.097900  0.885800  0.953300  1.0  -0.3677
  N  N191  1  0.298200  0.919500  0.804200  1.0  -0.3379
  N  N192  1  0.429600  0.102400  0.936600  1.0  -0.4213
  N  N193  1  0.058200  0.086200  0.946000  1.0  -0.417
  N  N194  1  0.284400  0.107200  0.804200  1.0  -0.3655
  N  N195  1  0.353800  0.022400  0.042700  1.0  -0.3103
  N  N196  1  0.146200  0.024100  0.042300  1.0  -0.3022
  N  N197  1  0.576800  0.396300  0.038000  1.0  -0.3591
  N  N198  1  0.902100  0.385800  0.046700  1.0  -0.3675
  N  N199  1  0.701800  0.419500  0.195800  1.0  -0.339
  N  N200  1  0.570400  0.602400  0.063400  1.0  -0.4234
  N  N201  1  0.941800  0.586200  0.054000  1.0  -0.4157
  N  N202  1  0.715600  0.607200  0.195800  1.0  -0.366
  N  N203  1  0.646200  0.522400  0.957300  1.0  -0.3094
  N  N204  1  0.853800  0.524100  0.957700  1.0  -0.3027
  N  N205  1  0.576800  0.103700  0.462000  1.0  -0.36
  N  N206  1  0.902100  0.114200  0.453300  1.0  -0.3677
  N  N207  1  0.701800  0.080500  0.304200  1.0  -0.3376
  N  N208  1  0.570400  0.897600  0.436600  1.0  -0.4214
  N  N209  1  0.941800  0.913800  0.446000  1.0  -0.4162
  N  N210  1  0.715600  0.892800  0.304200  1.0  -0.3645
  N  N211  1  0.646200  0.977600  0.542700  1.0  -0.3083
  N  N212  1  0.853800  0.975900  0.542300  1.0  -0.3035
  N  N213  1  0.454700  0.250000  0.341600  1.0  -0.392
  N  N214  1  0.972100  0.250000  0.324000  1.0  -0.3941
  N  N215  1  0.454700  0.250000  0.158400  1.0  -0.3925
  N  N216  1  0.972100  0.250000  0.176000  1.0  -0.3948
  N  N217  1  0.545300  0.750000  0.841600  1.0  -0.3922
  N  N218  1  0.027900  0.750000  0.824000  1.0  -0.3942
  N  N219  1  0.545300  0.750000  0.658400  1.0  -0.3932
  N  N220  1  0.027900  0.750000  0.676000  1.0  -0.394
  N  N221  1  0.005800  0.750000  0.323300  1.0  -0.4
  N  N222  1  0.766100  0.750000  0.530400  1.0  -0.4112
  N  N223  1  0.005800  0.750000  0.176700  1.0  -0.4004
  N  N224  1  0.766100  0.750000  0.969600  1.0  -0.4088
  N  N225  1  0.994200  0.250000  0.823300  1.0  -0.3999
  N  N226  1  0.233900  0.250000  0.030400  1.0  -0.4115
  N  N227  1  0.994200  0.250000  0.676700  1.0  -0.3995
  N  N228  1  0.233900  0.250000  0.469600  1.0  -0.4091
