# generated using pymatgen
data_Eu3S7O29
_symmetry_space_group_name_H-M   'P 1'
_cell_length_a   14.32800000
_cell_length_b   14.32800000
_cell_length_c   10.09660000
_cell_angle_alpha   90.00000000
_cell_angle_beta   90.00000000
_cell_angle_gamma   120.00000000
_symmetry_Int_Tables_number   1
_chemical_formula_structural   Eu3S7O29
_chemical_formula_sum   'Eu6 S14 O58'
_cell_volume   1795.05156369
_cell_formula_units_Z   2
loop_
 _symmetry_equiv_pos_site_id
 _symmetry_equiv_pos_as_xyz
  1  'x, y, z'
loop_
 _atom_site_type_symbol
 _atom_site_label
 _atom_site_symmetry_multiplicity
 _atom_site_fract_x
 _atom_site_fract_y
 _atom_site_fract_z
 _atom_site_occupancy
 _atom_site_charge
  Eu  Eu1  1  0.584070  0.143470  0.613080  1.0  2.1488
  Eu  Eu2  1  0.856530  0.440600  0.613080  1.0  2.1464
  Eu  Eu3  1  0.559400  0.415930  0.613080  1.0  2.1464
  Eu  Eu4  1  0.143470  0.584070  0.113080  1.0  2.147
  Eu  Eu5  1  0.440600  0.856530  0.113080  1.0  2.1473
  Eu  Eu6  1  0.415930  0.559400  0.113080  1.0  2.1478
  S  S7  1  0.337170  0.143570  0.574980  1.0  1.6559
  S  S8  1  0.524400  0.004890  0.363280  1.0  1.7453
  S  S9  1  0.856430  0.193600  0.574980  1.0  1.6538
  S  S10  1  0.995110  0.519510  0.363280  1.0  1.7453
  S  S11  1  0.806400  0.662830  0.574980  1.0  1.6534
  S  S12  1  0.480490  0.475600  0.363280  1.0  1.7407
  S  S13  1  0.143570  0.337170  0.074980  1.0  1.6541
  S  S14  1  0.004890  0.524400  0.863280  1.0  1.7462
  S  S15  1  0.193600  0.856430  0.074980  1.0  1.6554
  S  S16  1  0.519510  0.995110  0.863280  1.0  1.7453
  S  S17  1  0.662830  0.806400  0.074980  1.0  1.6539
  S  S18  1  0.475600  0.480490  0.863280  1.0  1.7397
  S  S19  1  0.666667  0.333333  0.824080  1.0  1.6844
  S  S20  1  0.333333  0.666667  0.324080  1.0  1.6844
  O  O21  1  0.574120  0.122600  0.367100  1.0  -0.6117
  O  O22  1  0.417050  0.953050  0.300300  1.0  -0.6682
  O  O23  1  0.516240  0.968890  0.501500  1.0  -0.6661
  O  O24  1  0.587640  0.970630  0.281200  1.0  -0.7018
  O  O25  1  0.247410  0.094690  0.479200  1.0  -0.5012
  O  O26  1  0.403600  0.259050  0.545300  1.0  -0.633
  O  O27  1  0.403630  0.092300  0.556500  1.0  -0.6585
  O  O28  1  0.294970  0.124900  0.709600  1.0  -0.5058
  O  O29  1  0.722410  0.444570  0.766400  1.0  -0.8181
  O  O30  1  0.877400  0.451520  0.367100  1.0  -0.6053
  O  O31  1  0.046950  0.464000  0.300300  1.0  -0.6708
  O  O32  1  0.031110  0.547350  0.501500  1.0  -0.6641
  O  O33  1  0.029370  0.617010  0.281200  1.0  -0.7049
  O  O34  1  0.905310  0.152720  0.479200  1.0  -0.5004
  O  O35  1  0.740950  0.144550  0.545300  1.0  -0.6323
  O  O36  1  0.907700  0.311330  0.556500  1.0  -0.6607
  O  O37  1  0.875100  0.170070  0.709600  1.0  -0.5084
  O  O38  1  0.555430  0.277840  0.766400  1.0  -0.8148
  O  O39  1  0.548480  0.425880  0.367100  1.0  -0.6038
  O  O40  1  0.536000  0.582950  0.300300  1.0  -0.6698
  O  O41  1  0.452650  0.483760  0.501500  1.0  -0.6654
  O  O42  1  0.382990  0.412360  0.281200  1.0  -0.7055
  O  O43  1  0.847280  0.752590  0.479200  1.0  -0.502
  O  O44  1  0.855450  0.596400  0.545300  1.0  -0.6318
  O  O45  1  0.688670  0.596370  0.556500  1.0  -0.6568
  O  O46  1  0.829930  0.705030  0.709600  1.0  -0.5104
  O  O47  1  0.722160  0.277590  0.766400  1.0  -0.8155
  O  O48  1  0.122600  0.574120  0.867100  1.0  -0.6026
  O  O49  1  0.953050  0.417050  0.800300  1.0  -0.6689
  O  O50  1  0.968890  0.516240  0.001500  1.0  -0.6659
  O  O51  1  0.970630  0.587640  0.781200  1.0  -0.7052
  O  O52  1  0.094690  0.247410  0.979200  1.0  -0.5006
  O  O53  1  0.259050  0.403600  0.045300  1.0  -0.6323
  O  O54  1  0.092300  0.403630  0.056500  1.0  -0.6559
  O  O55  1  0.124900  0.294970  0.209600  1.0  -0.5099
  O  O56  1  0.444570  0.722410  0.266400  1.0  -0.8149
  O  O57  1  0.451520  0.877400  0.867100  1.0  -0.6065
  O  O58  1  0.464000  0.046950  0.800300  1.0  -0.6674
  O  O59  1  0.547350  0.031110  0.001500  1.0  -0.6654
  O  O60  1  0.617010  0.029370  0.781200  1.0  -0.7023
  O  O61  1  0.152720  0.905310  0.979200  1.0  -0.5013
  O  O62  1  0.144550  0.740950  0.045300  1.0  -0.6339
  O  O63  1  0.311330  0.907700  0.056500  1.0  -0.6604
  O  O64  1  0.170070  0.875100  0.209600  1.0  -0.5069
  O  O65  1  0.277840  0.555430  0.266400  1.0  -0.8163
  O  O66  1  0.425880  0.548480  0.867100  1.0  -0.6047
  O  O67  1  0.582950  0.536000  0.800300  1.0  -0.6714
  O  O68  1  0.483760  0.452650  0.001500  1.0  -0.6646
  O  O69  1  0.412360  0.382990  0.781200  1.0  -0.7033
  O  O70  1  0.752590  0.847280  0.979200  1.0  -0.4992
  O  O71  1  0.596400  0.855450  0.045300  1.0  -0.6332
  O  O72  1  0.596370  0.688670  0.056500  1.0  -0.6607
  O  O73  1  0.705030  0.829930  0.209600  1.0  -0.5091
  O  O74  1  0.277590  0.722160  0.266400  1.0  -0.8138
  O  O75  1  0.666667  0.333333  0.965700  1.0  -0.4341
  O  O76  1  0.666667  0.333333  0.528400  1.0  -0.6048
  O  O77  1  0.333333  0.666667  0.465700  1.0  -0.4341
  O  O78  1  0.333333  0.666667  0.028400  1.0  -0.6048
