# generated using pymatgen
data_CdH24C36(NF2)4
_symmetry_space_group_name_H-M   'P 1'
_cell_length_a   13.04420000
_cell_length_b   13.04420000
_cell_length_c   16.75800000
_cell_angle_alpha   109.75700000
_cell_angle_beta   109.75700000
_cell_angle_gamma   93.33930000
_symmetry_Int_Tables_number   1
_chemical_formula_structural   CdH24C36(NF2)4
_chemical_formula_sum   'Cd2 H48 C72 N8 F16'
_cell_volume   2477.21006879
_cell_formula_units_Z   2
loop_
 _symmetry_equiv_pos_site_id
 _symmetry_equiv_pos_as_xyz
  1  'x, y, z'
loop_
 _atom_site_type_symbol
 _atom_site_label
 _atom_site_symmetry_multiplicity
 _atom_site_fract_x
 _atom_site_fract_y
 _atom_site_fract_z
 _atom_site_occupancy
 _atom_site_charge
  Cd  Cd1  1  0.122400  0.877600  0.250000  1.0  0.6357
  Cd  Cd2  1  0.877600  0.122400  0.750000  1.0  0.6365
  H  H3  1  0.348800  0.825200  0.218300  1.0  0.0627
  H  H4  1  0.042000  0.703800  0.039800  1.0  0.0633
  H  H5  1  0.418700  0.733900  0.109800  1.0  0.118
  H  H6  1  0.103000  0.604800  0.927200  1.0  0.1177
  H  H7  1  0.328000  0.647600  0.903900  1.0  0.107
  H  H8  1  0.246400  0.536200  0.881200  1.0  0.1079
  H  H9  1  0.216800  0.139600  0.385700  1.0  0.0528
  H  H10  1  0.958500  0.945300  0.360500  1.0  0.0562
  H  H11  1  0.179900  0.290500  0.485600  1.0  0.1066
  H  H12  1  0.914900  0.090700  0.459900  1.0  0.1153
  H  H13  1  0.075600  0.326000  0.612700  1.0  0.1089
  H  H14  1  0.945600  0.280200  0.554000  1.0  0.1153
  H  H15  1  0.174800  0.651200  0.281700  1.0  0.064
  H  H16  1  0.296200  0.958000  0.460200  1.0  0.0639
  H  H17  1  0.266100  0.581300  0.390200  1.0  0.1184
  H  H18  1  0.395200  0.897000  0.572800  1.0  0.1187
  H  H19  1  0.352400  0.672000  0.596100  1.0  0.1099
  H  H20  1  0.463800  0.753600  0.618800  1.0  0.1073
  H  H21  1  0.860400  0.783200  0.114300  1.0  0.054
  H  H22  1  0.054700  0.041500  0.139500  1.0  0.0562
  H  H23  1  0.709500  0.820100  0.014400  1.0  0.1075
  H  H24  1  0.909300  0.085100  0.040100  1.0  0.1151
  H  H25  1  0.674000  0.924400  0.887300  1.0  0.1095
  H  H26  1  0.719800  0.054400  0.946000  1.0  0.1167
  H  H27  1  0.651200  0.174800  0.781700  1.0  0.0635
  H  H28  1  0.958000  0.296200  0.960200  1.0  0.063
  H  H29  1  0.581300  0.266100  0.890200  1.0  0.1189
  H  H30  1  0.897000  0.395200  0.072800  1.0  0.1179
  H  H31  1  0.672000  0.352400  0.096100  1.0  0.1093
  H  H32  1  0.753600  0.463800  0.118800  1.0  0.1082
  H  H33  1  0.783200  0.860400  0.614300  1.0  0.0546
  H  H34  1  0.041500  0.054700  0.639500  1.0  0.0559
  H  H35  1  0.820100  0.709500  0.514400  1.0  0.1064
  H  H36  1  0.085100  0.909300  0.540100  1.0  0.1156
  H  H37  1  0.924400  0.674000  0.387300  1.0  0.1091
  H  H38  1  0.054400  0.719800  0.446000  1.0  0.1159
  H  H39  1  0.825200  0.348800  0.718300  1.0  0.0641
  H  H40  1  0.703800  0.042000  0.539800  1.0  0.0633
  H  H41  1  0.733900  0.418700  0.609800  1.0  0.1191
  H  H42  1  0.604800  0.103000  0.427200  1.0  0.1179
  H  H43  1  0.647600  0.328000  0.403900  1.0  0.1066
  H  H44  1  0.536200  0.246400  0.381200  1.0  0.1075
  H  H45  1  0.139600  0.216800  0.885700  1.0  0.0533
  H  H46  1  0.945300  0.958500  0.860500  1.0  0.0573
  H  H47  1  0.290500  0.179900  0.985600  1.0  0.1077
  H  H48  1  0.090700  0.914900  0.959900  1.0  0.1148
  H  H49  1  0.326000  0.075600  0.112700  1.0  0.1101
  H  H50  1  0.280200  0.945600  0.054000  1.0  0.1139
  C  C51  1  0.298090  0.780630  0.158000  1.0  0.1294
  C  C52  1  0.119620  0.709480  0.054390  1.0  0.128
  C  C53  1  0.340700  0.725720  0.093730  1.0  -0.2399
  C  C54  1  0.155440  0.650540  0.986460  1.0  -0.2463
  C  C55  1  0.268390  0.658470  0.005390  1.0  0.1192
  C  C56  1  0.307900  0.596100  0.930540  1.0  -0.1787
  C  C57  1  0.406660  0.546140  0.965200  1.0  -0.0992
  C  C58  1  0.394650  0.442410  0.970220  1.0  0.1322
  C  C59  1  0.485080  0.397900  0.003950  1.0  0.1249
  C  C60  1  0.153750  0.129090  0.400370  1.0  0.1405
  C  C61  1  0.004390  0.016730  0.385890  1.0  0.1456
  C  C62  1  0.132320  0.220020  0.460550  1.0  -0.2303
  C  C63  1  0.977700  0.103420  0.445490  1.0  -0.2413
  C  C64  1  0.042420  0.208220  0.483980  1.0  0.129
  C  C65  1  0.016950  0.304650  0.550910  1.0  -0.1606
  C  C66  1  0.009620  0.405380  0.525120  1.0  -0.0644
  C  C67  1  0.917430  0.409830  0.456070  1.0  0.1361
  C  C68  1  0.907310  0.500510  0.431220  1.0  0.1337
  C  C69  1  0.219370  0.701910  0.342000  1.0  0.1291
  C  C70  1  0.290520  0.880380  0.445610  1.0  0.1272
  C  C71  1  0.274280  0.659300  0.406270  1.0  -0.243
  C  C72  1  0.349460  0.844560  0.513540  1.0  -0.2462
  C  C73  1  0.341530  0.731610  0.494610  1.0  0.1208
  C  C74  1  0.403900  0.692100  0.569460  1.0  -0.186
  C  C75  1  0.453860  0.593340  0.534800  1.0  -0.1013
  C  C76  1  0.557590  0.605350  0.529780  1.0  0.1328
  C  C77  1  0.602100  0.514920  0.496050  1.0  0.127
  C  C78  1  0.870910  0.846250  0.099630  1.0  0.1413
  C  C79  1  0.983270  0.995610  0.114110  1.0  0.1478
  C  C80  1  0.779980  0.867680  0.039450  1.0  -0.23
  C  C81  1  0.896580  0.022300  0.054510  1.0  -0.2393
  C  C82  1  0.791780  0.957580  0.016020  1.0  0.1305
  C  C83  1  0.695350  0.983050  0.949090  1.0  -0.1625
  C  C84  1  0.594620  0.990380  0.974880  1.0  -0.0661
  C  C85  1  0.590170  0.082570  0.043930  1.0  0.1364
  C  C86  1  0.499490  0.092690  0.068780  1.0  0.1324
  C  C87  1  0.701910  0.219370  0.842000  1.0  0.1304
  C  C88  1  0.880380  0.290520  0.945610  1.0  0.1282
  C  C89  1  0.659300  0.274280  0.906270  1.0  -0.2409
  C  C90  1  0.844560  0.349460  0.013540  1.0  -0.2479
  C  C91  1  0.731610  0.341530  0.994610  1.0  0.1204
  C  C92  1  0.692100  0.403900  0.069460  1.0  -0.1832
  C  C93  1  0.593340  0.453860  0.034800  1.0  -0.0985
  C  C94  1  0.605350  0.557590  0.029780  1.0  0.1331
  C  C95  1  0.514920  0.602100  0.996050  1.0  0.1274
  C  C96  1  0.846250  0.870910  0.599630  1.0  0.141
  C  C97  1  0.995610  0.983270  0.614110  1.0  0.1457
  C  C98  1  0.867680  0.779980  0.539450  1.0  -0.2324
  C  C99  1  0.022300  0.896580  0.554510  1.0  -0.2394
  C  C100  1  0.957580  0.791780  0.516020  1.0  0.1285
  C  C101  1  0.983050  0.695350  0.449090  1.0  -0.1696
  C  C102  1  0.990380  0.594620  0.474880  1.0  -0.0672
  C  C103  1  0.082570  0.590170  0.543930  1.0  0.1364
  C  C104  1  0.092690  0.499490  0.568780  1.0  0.1336
  C  C105  1  0.780630  0.298090  0.658000  1.0  0.1286
  C  C106  1  0.709480  0.119620  0.554390  1.0  0.1261
  C  C107  1  0.725720  0.340700  0.593730  1.0  -0.2419
  C  C108  1  0.650540  0.155440  0.486460  1.0  -0.2461
  C  C109  1  0.658470  0.268390  0.505390  1.0  0.1191
  C  C110  1  0.596100  0.307900  0.430540  1.0  -0.1765
  C  C111  1  0.546140  0.406660  0.465200  1.0  -0.1001
  C  C112  1  0.442410  0.394650  0.470220  1.0  0.1321
  C  C113  1  0.397900  0.485080  0.503950  1.0  0.1251
  C  C114  1  0.129090  0.153750  0.900370  1.0  0.1394
  C  C115  1  0.016730  0.004390  0.885890  1.0  0.1483
  C  C116  1  0.220020  0.132320  0.960550  1.0  -0.2284
  C  C117  1  0.103420  0.977700  0.945490  1.0  -0.2382
  C  C118  1  0.208220  0.042420  0.983980  1.0  0.1302
  C  C119  1  0.304650  0.016950  0.050910  1.0  -0.1672
  C  C120  1  0.405380  0.009620  0.025120  1.0  -0.0683
  C  C121  1  0.409830  0.917430  0.956070  1.0  0.1367
  C  C122  1  0.500510  0.907310  0.931220  1.0  0.1333
  N  N123  1  0.189230  0.774410  0.139880  1.0  -0.3919
  N  N124  1  0.091160  0.028040  0.362140  1.0  -0.369
  N  N125  1  0.225590  0.810770  0.360120  1.0  -0.3917
  N  N126  1  0.971960  0.908840  0.137860  1.0  -0.3687
  N  N127  1  0.810770  0.225590  0.860120  1.0  -0.3916
  N  N128  1  0.908840  0.971960  0.637860  1.0  -0.3695
  N  N129  1  0.774410  0.189230  0.639880  1.0  -0.3902
  N  N130  1  0.028040  0.091160  0.862140  1.0  -0.3671
  F  F131  1  0.292020  0.383140  0.941200  1.0  -0.136
  F  F132  1  0.467570  0.296870  0.007230  1.0  -0.1342
  F  F133  1  0.833240  0.320200  0.409400  1.0  -0.1337
  F  F134  1  0.813980  0.495340  0.362020  1.0  -0.1441
  F  F135  1  0.616860  0.707980  0.558800  1.0  -0.1345
  F  F136  1  0.703130  0.532430  0.492770  1.0  -0.1335
  F  F137  1  0.679800  0.166760  0.090600  1.0  -0.1324
  F  F138  1  0.504660  0.186020  0.137980  1.0  -0.144
  F  F139  1  0.707980  0.616860  0.058800  1.0  -0.1349
  F  F140  1  0.532430  0.703130  0.992770  1.0  -0.1332
  F  F141  1  0.166760  0.679800  0.590600  1.0  -0.1325
  F  F142  1  0.186020  0.504660  0.637980  1.0  -0.1441
  F  F143  1  0.383140  0.292020  0.441200  1.0  -0.1353
  F  F144  1  0.296870  0.467570  0.507230  1.0  -0.1338
  F  F145  1  0.320200  0.833240  0.909400  1.0  -0.1343
  F  F146  1  0.495340  0.813980  0.862020  1.0  -0.1453
