# generated using pymatgen
data_CdH28C36(NF2)4
_symmetry_space_group_name_H-M   'P 1'
_cell_length_a   13.04550000
_cell_length_b   13.04550000
_cell_length_c   16.68500000
_cell_angle_alpha   109.47100000
_cell_angle_beta   109.47100000
_cell_angle_gamma   93.70560000
_symmetry_Int_Tables_number   1
_chemical_formula_structural   CdH28C36(NF2)4
_chemical_formula_sum   'Cd2 H56 C72 N8 F16'
_cell_volume   2474.21978619
_cell_formula_units_Z   2
loop_
 _symmetry_equiv_pos_site_id
 _symmetry_equiv_pos_as_xyz
  1  'x, y, z'
loop_
 _atom_site_type_symbol
 _atom_site_label
 _atom_site_symmetry_multiplicity
 _atom_site_fract_x
 _atom_site_fract_y
 _atom_site_fract_z
 _atom_site_occupancy
 _atom_site_charge
  Cd  Cd1  1  0.847990  0.603010  0.059800  1.0  0.6142
  Cd  Cd2  1  0.603010  0.847990  0.559800  1.0  0.6134
  H  H3  1  0.096620  0.561380  0.053790  1.0  0.0478
  H  H4  1  0.739600  0.422270  0.835000  1.0  0.0412
  H  H5  1  0.163240  0.458270  0.923290  1.0  0.1209
  H  H6  1  0.824020  0.310350  0.723690  1.0  0.0457
  H  H7  1  0.633200  0.123640  0.901010  1.0  0.033
  H  H8  1  0.292380  0.992280  0.708250  1.0  0.0453
  H  H9  1  0.687600  0.007450  0.756940  1.0  0.0441
  H  H10  1  0.364240  0.883450  0.583770  1.0  0.0411
  H  H11  1  0.946230  0.860480  0.184310  1.0  0.0283
  H  H12  1  0.672080  0.641320  0.164490  1.0  0.0498
  H  H13  1  0.910440  0.026410  0.286010  1.0  0.0538
  H  H14  1  0.630910  0.808280  0.280440  1.0  0.0443
  H  H15  1  0.831770  0.628010  0.352280  1.0  0.0347
  H  H16  1  0.522360  0.414170  0.300710  1.0  0.0369
  H  H17  1  0.784150  0.790340  0.464690  1.0  0.0394
  H  H18  1  0.480030  0.588280  0.420250  1.0  0.0358
  H  H19  1  0.561380  0.096620  0.553790  1.0  0.0529
  H  H20  1  0.422270  0.739600  0.335000  1.0  0.0452
  H  H21  1  0.458270  0.163240  0.423290  1.0  0.1177
  H  H22  1  0.310350  0.824020  0.223690  1.0  0.051
  H  H23  1  0.123640  0.633200  0.401010  1.0  0.0362
  H  H24  1  0.992280  0.292380  0.208250  1.0  0.0465
  H  H25  1  0.007450  0.687600  0.256940  1.0  0.0457
  H  H26  1  0.883450  0.364240  0.083770  1.0  0.0439
  H  H27  1  0.860480  0.946230  0.684310  1.0  0.029
  H  H28  1  0.641320  0.672080  0.664490  1.0  0.0505
  H  H29  1  0.026410  0.910440  0.786010  1.0  0.0542
  H  H30  1  0.808280  0.630910  0.780440  1.0  0.0451
  H  H31  1  0.628010  0.831770  0.852280  1.0  0.0355
  H  H32  1  0.414170  0.522360  0.800710  1.0  0.0374
  H  H33  1  0.790340  0.784150  0.964690  1.0  0.0397
  H  H34  1  0.588280  0.480030  0.920250  1.0  0.0367
  H  H35  1  0.040360  0.357190  0.688710  1.0  0.0466
  H  H36  1  0.953950  0.236290  0.688200  1.0  0.0816
  H  H37  1  0.137200  0.318310  0.856410  1.0  0.0809
  H  H38  1  0.324370  0.219710  0.927290  1.0  0.0791
  H  H39  1  0.373080  0.047110  0.892000  1.0  0.0518
  H  H40  1  0.483430  0.172500  0.942830  1.0  0.0447
  H  H41  1  0.787820  0.047010  0.431990  1.0  0.0377
  H  H42  1  0.640530  0.994830  0.351550  1.0  0.0652
  H  H43  1  0.771170  0.089170  0.279930  1.0  0.0529
  H  H44  1  0.750470  0.282840  0.226500  1.0  0.0854
  H  H45  1  0.615490  0.388790  0.181540  1.0  0.0405
  H  H46  1  0.768400  0.440980  0.230270  1.0  0.0408
  H  H47  1  0.234040  0.956350  0.188830  1.0  0.0833
  H  H48  1  0.357830  0.036850  0.188080  1.0  0.0384
  H  H49  1  0.318310  0.137200  0.356410  1.0  0.0801
  H  H50  1  0.219710  0.324370  0.427290  1.0  0.0806
  H  H51  1  0.172980  0.481470  0.444130  1.0  0.0412
  H  H52  1  0.045040  0.373680  0.390050  1.0  0.0457
  H  H53  1  0.994490  0.640670  0.851670  1.0  0.0643
  H  H54  1  0.047440  0.787940  0.932010  1.0  0.0378
  H  H55  1  0.089170  0.771170  0.779930  1.0  0.0511
  H  H56  1  0.282840  0.750470  0.726500  1.0  0.0851
  H  H57  1  0.441870  0.768560  0.730810  1.0  0.0429
  H  H58  1  0.388090  0.615870  0.681170  1.0  0.0469
  C  C59  1  0.033600  0.514400  0.981000  1.0  0.5406
  C  C60  1  0.833500  0.432500  0.857000  1.0  0.3204
  C  C61  1  0.070900  0.455100  0.908000  1.0  -0.045
  C  C62  1  0.880200  0.373800  0.794000  1.0  -0.1128
  C  C63  1  0.998100  0.389900  0.814000  1.0  -0.1252
  C  C64  1  0.025300  0.310700  0.732000  1.0  -0.1194
  C  C65  1  0.138800  0.277200  0.785000  1.0  -0.0914
  C  C66  1  0.247600  0.333200  0.808000  1.0  0.2662
  C  C67  1  0.121300  0.168700  0.782000  1.0  0.1497
  C  C68  1  0.333100  0.282900  0.845000  1.0  0.1403
  C  C69  1  0.218300  0.129700  0.816000  1.0  0.0859
  C  C70  1  0.324500  0.183500  0.855000  1.0  -0.0706
  C  C71  1  0.410300  0.117700  0.878000  1.0  -0.1648
  C  C72  1  0.456400  0.069600  0.806000  1.0  0.0718
  C  C73  1  0.572000  0.074000  0.828000  1.0  -0.0931
  C  C74  1  0.385300  0.002700  0.724000  1.0  -0.0672
  C  C75  1  0.597700  0.010300  0.749000  1.0  0.1122
  C  C76  1  0.425500  0.942500  0.654000  1.0  0.1752
  C  C77  1  0.874500  0.853500  0.208000  1.0  0.2299
  C  C78  1  0.727000  0.727000  0.194000  1.0  0.4132
  C  C79  1  0.856000  0.942000  0.263000  1.0  -0.1271
  C  C80  1  0.702600  0.821400  0.258000  1.0  -0.1555
  C  C81  1  0.764000  0.926000  0.292000  1.0  -0.093
  C  C82  1  0.728300  0.023700  0.358000  1.0  -0.1818
  C  C83  1  0.731300  0.128700  0.331000  1.0  -0.0825
  C  C84  1  0.813500  0.220500  0.375000  1.0  0.0941
  C  C85  1  0.641000  0.137000  0.263000  1.0  0.3234
  C  C86  1  0.806600  0.315400  0.351000  1.0  0.0525
  C  C87  1  0.626400  0.221600  0.239000  1.0  0.3101
  C  C88  1  0.712300  0.321700  0.279000  1.0  -0.0923
  C  C89  1  0.694200  0.415800  0.246000  1.0  -0.1661
  C  C90  1  0.681900  0.512100  0.322000  1.0  -0.0821
  C  C91  1  0.752900  0.615100  0.366000  1.0  -0.1548
  C  C92  1  0.582300  0.497700  0.338000  1.0  -0.0772
  C  C93  1  0.726500  0.705500  0.429000  1.0  0.3157
  C  C94  1  0.559100  0.596900  0.406000  1.0  0.3717
  C  C95  1  0.514400  0.033600  0.481000  1.0  0.5392
  C  C96  1  0.432500  0.833500  0.357000  1.0  0.3207
  C  C97  1  0.455100  0.070900  0.408000  1.0  -0.0459
  C  C98  1  0.373800  0.880200  0.294000  1.0  -0.1454
  C  C99  1  0.389900  0.998100  0.314000  1.0  -0.1178
  C  C100  1  0.310700  0.025300  0.232000  1.0  -0.123
  C  C101  1  0.277200  0.138800  0.285000  1.0  -0.098
  C  C102  1  0.333200  0.247600  0.308000  1.0  0.2624
  C  C103  1  0.168700  0.121300  0.282000  1.0  0.1489
  C  C104  1  0.282900  0.333100  0.345000  1.0  0.141
  C  C105  1  0.129700  0.218300  0.316000  1.0  0.0864
  C  C106  1  0.183500  0.324500  0.355000  1.0  -0.0725
  C  C107  1  0.117700  0.410300  0.378000  1.0  -0.1599
  C  C108  1  0.069600  0.456400  0.306000  1.0  0.0729
  C  C109  1  0.074000  0.572000  0.328000  1.0  -0.0953
  C  C110  1  0.002700  0.385300  0.224000  1.0  -0.065
  C  C111  1  0.010300  0.597700  0.249000  1.0  0.1059
  C  C112  1  0.942500  0.425500  0.154000  1.0  0.1739
  C  C113  1  0.853500  0.874500  0.708000  1.0  0.2304
  C  C114  1  0.727000  0.727000  0.694000  1.0  0.4178
  C  C115  1  0.942000  0.856000  0.763000  1.0  -0.1295
  C  C116  1  0.821400  0.702600  0.758000  1.0  -0.1558
  C  C117  1  0.926000  0.764000  0.792000  1.0  -0.0929
  C  C118  1  0.023700  0.728300  0.858000  1.0  -0.1812
  C  C119  1  0.128700  0.731300  0.831000  1.0  -0.0806
  C  C120  1  0.220500  0.813500  0.875000  1.0  0.0958
  C  C121  1  0.137000  0.641000  0.763000  1.0  0.3223
  C  C122  1  0.315400  0.806600  0.851000  1.0  0.0553
  C  C123  1  0.221600  0.626400  0.739000  1.0  0.3106
  C  C124  1  0.321700  0.712300  0.779000  1.0  -0.0909
  C  C125  1  0.415800  0.694200  0.746000  1.0  -0.1692
  C  C126  1  0.512100  0.681900  0.822000  1.0  -0.0813
  C  C127  1  0.615100  0.752900  0.866000  1.0  -0.1553
  C  C128  1  0.497700  0.582300  0.838000  1.0  -0.0746
  C  C129  1  0.705500  0.726500  0.929000  1.0  0.3142
  C  C130  1  0.596900  0.559100  0.906000  1.0  0.3661
  N  N131  1  0.924700  0.505100  0.951000  1.0  -0.4582
  N  N132  1  0.816400  0.749600  0.174000  1.0  -0.4095
  N  N133  1  0.541900  0.956300  0.672000  1.0  -0.27
  N  N134  1  0.632900  0.693100  0.448000  1.0  -0.4345
  N  N135  1  0.505100  0.924700  0.451000  1.0  -0.4578
  N  N136  1  0.749600  0.816400  0.674000  1.0  -0.4082
  N  N137  1  0.956300  0.541900  0.172000  1.0  -0.2689
  N  N138  1  0.693100  0.632900  0.948000  1.0  -0.4329
  F  F139  1  0.260600  0.430000  0.807200  1.0  -0.2717
  F  F140  1  0.014900  0.110700  0.753700  1.0  -0.2991
  F  F141  1  0.433800  0.344400  0.873500  1.0  -0.2438
  F  F142  1  0.190700  0.020500  0.820000  1.0  -0.3895
  F  F143  1  0.914600  0.235800  0.453100  1.0  -0.3296
  F  F144  1  0.558700  0.044300  0.219500  1.0  -0.2566
  F  F145  1  0.892000  0.404800  0.399300  1.0  -0.2644
  F  F146  1  0.542700  0.227500  0.176200  1.0  -0.2718
  F  F147  1  0.430000  0.260600  0.307200  1.0  -0.2687
  F  F148  1  0.110700  0.014900  0.253700  1.0  -0.3023
  F  F149  1  0.344400  0.433800  0.373500  1.0  -0.2447
  F  F150  1  0.020500  0.190700  0.320000  1.0  -0.3917
  F  F151  1  0.235800  0.914600  0.953100  1.0  -0.3303
  F  F152  1  0.044300  0.558700  0.719500  1.0  -0.2584
  F  F153  1  0.404800  0.892000  0.899300  1.0  -0.2682
  F  F154  1  0.227500  0.542700  0.676200  1.0  -0.311
