# generated using pymatgen
data_Cd2H53C72(NF2)8
_symmetry_space_group_name_H-M   'P 1'
_cell_length_a   13.04550000
_cell_length_b   13.04550000
_cell_length_c   16.68500000
_cell_angle_alpha   109.47100000
_cell_angle_beta   109.47100000
_cell_angle_gamma   93.70560000
_symmetry_Int_Tables_number   1
_chemical_formula_structural   Cd2H53C72(NF2)8
_chemical_formula_sum   'Cd2 H53 C72 N8 F16'
_cell_volume   2474.21978619
_cell_formula_units_Z   1
loop_
 _symmetry_equiv_pos_site_id
 _symmetry_equiv_pos_as_xyz
  1  'x, y, z'
loop_
 _atom_site_type_symbol
 _atom_site_label
 _atom_site_symmetry_multiplicity
 _atom_site_fract_x
 _atom_site_fract_y
 _atom_site_fract_z
 _atom_site_occupancy
 _atom_site_charge
  Cd  Cd1  1  0.122490  0.877510  0.750000  1.0  0.6049
  Cd  Cd2  1  0.877510  0.122490  0.250000  1.0  0.6102
  H  H3  1  0.366420  0.839040  0.735240  1.0  0.0397
  H  H4  1  0.025550  0.707140  0.539110  1.0  0.0267
  H  H5  1  0.435520  0.732930  0.607630  1.0  0.1053
  H  H6  1  0.090500  0.595100  0.412300  1.0  0.0388
  H  H7  1  0.331800  0.655270  0.395950  1.0  0.0384
  H  H8  1  0.236310  0.526880  0.371710  1.0  0.0438
  H  H9  1  0.406360  0.585660  0.536900  1.0  0.0271
  H  H10  1  0.233360  0.136560  0.882190  1.0  0.0234
  H  H11  1  0.943940  0.925400  0.849960  1.0  0.0448
  H  H12  1  0.195110  0.306000  0.992280  1.0  0.0297
  H  H13  1  0.899300  0.089880  0.963910  1.0  0.0334
  H  H14  1  0.086830  0.329150  0.126090  1.0  0.0322
  H  H15  1  0.935150  0.276340  0.060560  1.0  0.0413
  H  H16  1  0.048520  0.364280  0.974210  1.0  0.0553
  H  H17  1  0.160960  0.633580  0.764760  1.0  0.0437
  H  H18  1  0.292860  0.974450  0.960890  1.0  0.0297
  H  H19  1  0.267070  0.564480  0.892370  1.0  0.1052
  H  H20  1  0.404900  0.909500  0.087700  1.0  0.046
  H  H21  1  0.344730  0.668200  0.104050  1.0  0.0354
  H  H22  1  0.473120  0.763690  0.128290  1.0  0.0439
  H  H23  1  0.414340  0.593640  0.963100  1.0  0.0362
  H  H24  1  0.863440  0.766640  0.617810  1.0  0.0241
  H  H25  1  0.074600  0.056060  0.650040  1.0  0.0407
  H  H26  1  0.694000  0.804890  0.507720  1.0  0.0329
  H  H27  1  0.910120  0.100700  0.536090  1.0  0.0362
  H  H28  1  0.670850  0.913170  0.373910  1.0  0.0336
  H  H29  1  0.723660  0.064850  0.439440  1.0  0.0418
  H  H30  1  0.635720  0.951480  0.525790  1.0  0.0522
  H  H31  1  0.633580  0.160960  0.264760  1.0  0.0404
  H  H32  1  0.974450  0.292860  0.460890  1.0  0.0264
  H  H33  1  0.564480  0.267070  0.392370  1.0  0.1032
  H  H34  1  0.909500  0.404900  0.587700  1.0  0.0433
  H  H35  1  0.766640  0.863440  0.117810  1.0  0.0226
  H  H36  1  0.056060  0.074600  0.150040  1.0  0.0379
  H  H37  1  0.804890  0.694000  0.007720  1.0  0.0471
  H  H38  1  0.100700  0.910120  0.036090  1.0  0.0427
  H  H39  1  0.839040  0.366420  0.235240  1.0  0.0436
  H  H40  1  0.707140  0.025550  0.039110  1.0  0.0295
  H  H41  1  0.732930  0.435520  0.107630  1.0  0.1071
  H  H42  1  0.595100  0.090500  0.912300  1.0  0.0424
  H  H43  1  0.526990  0.236220  0.871690  1.0  0.0455
  H  H44  1  0.655240  0.331950  0.895980  1.0  0.0361
  H  H45  1  0.585660  0.406360  0.036900  1.0  0.0315
  H  H46  1  0.136560  0.233360  0.382190  1.0  0.0236
  H  H47  1  0.925400  0.943940  0.349960  1.0  0.0388
  H  H48  1  0.306000  0.195110  0.492280  1.0  0.0318
  H  H49  1  0.089880  0.899300  0.463910  1.0  0.0358
  H  H50  1  0.276280  0.935190  0.560580  1.0  0.0414
  H  H51  1  0.329230  0.086840  0.626090  1.0  0.0327
  H  H52  1  0.364280  0.048520  0.474210  1.0  0.0542
  H  H53  1  0.763780  0.473010  0.628310  1.0  0.0443
  H  H54  1  0.668050  0.344760  0.604020  1.0  0.0344
  H  H55  1  0.593640  0.414340  0.463100  1.0  0.037
  C  C56  1  0.304050  0.785950  0.663500  1.0  0.4162
  C  C57  1  0.117900  0.711100  0.554000  1.0  0.3155
  C  C58  1  0.342800  0.726200  0.592000  1.0  -0.1227
  C  C59  1  0.154100  0.649900  0.483000  1.0  -0.1471
  C  C60  1  0.270850  0.660150  0.504000  1.0  -0.0331
  C  C61  1  0.307500  0.596500  0.427000  1.0  -0.141
  C  C62  1  0.407150  0.546850  0.465000  1.0  -0.0545
  C  C63  1  0.514650  0.601750  0.496000  1.0  0.1861
  C  C64  1  0.605900  0.557100  0.531500  1.0  0.207
  C  C65  1  0.157700  0.128300  0.901000  1.0  0.2173
  C  C66  1  0.000250  0.010750  0.882500  1.0  0.3186
  C  C67  1  0.136850  0.222150  0.962500  1.0  -0.1208
  C  C68  1  0.974850  0.103150  0.946000  1.0  -0.1733
  C  C69  1  0.041050  0.206950  0.985000  1.0  -0.0645
  C  C70  1  0.017050  0.303950  0.056000  1.0  -0.1888
  C  C71  1  0.009500  0.403500  0.026000  1.0  -0.0364
  C  C72  1  0.093550  0.499450  0.068000  1.0  0.2397
  C  C73  1  0.082800  0.589200  0.044000  1.0  0.1193
  C  C74  1  0.214050  0.695950  0.836500  1.0  0.407
  C  C75  1  0.288900  0.882100  0.946000  1.0  0.3159
  C  C76  1  0.273800  0.657200  0.908000  1.0  -0.1212
  C  C77  1  0.350100  0.845900  0.017000  1.0  -0.1544
  C  C78  1  0.339850  0.729150  0.996000  1.0  -0.0389
  C  C79  1  0.403500  0.692500  0.073000  1.0  -0.1394
  C  C80  1  0.453150  0.592850  0.035000  1.0  -0.0736
  C  C81  1  0.398250  0.485350  0.004000  1.0  0.1857
  C  C82  1  0.442900  0.394100  0.968500  1.0  0.213
  C  C83  1  0.871700  0.842300  0.599000  1.0  0.2179
  C  C84  1  0.989250  0.999750  0.617500  1.0  0.318
  C  C85  1  0.777850  0.863150  0.537500  1.0  -0.1237
  C  C86  1  0.896850  0.025150  0.554000  1.0  -0.1718
  C  C87  1  0.793050  0.958950  0.515000  1.0  -0.0635
  C  C88  1  0.696050  0.982950  0.444000  1.0  -0.1891
  C  C89  1  0.596500  0.990500  0.474000  1.0  0.013
  C  C90  1  0.500550  0.906450  0.432000  1.0  0.2249
  C  C91  1  0.410800  0.917200  0.456000  1.0  0.2357
  C  C92  1  0.695950  0.214050  0.336500  1.0  0.418
  C  C93  1  0.882100  0.288900  0.446000  1.0  0.3144
  C  C94  1  0.657200  0.273800  0.408000  1.0  -0.1242
  C  C95  1  0.845900  0.350100  0.517000  1.0  -0.1507
  C  C96  1  0.729150  0.339850  0.496000  1.0  -0.0334
  C  C97  1  0.692500  0.403500  0.573000  1.0  -0.1403
  C  C98  1  0.592850  0.453150  0.535000  1.0  -0.075
  C  C99  1  0.485350  0.398250  0.504000  1.0  0.1847
  C  C100  1  0.394100  0.442900  0.468500  1.0  0.2129
  C  C101  1  0.842300  0.871700  0.099000  1.0  0.2261
  C  C102  1  0.999750  0.989250  0.117500  1.0  0.3131
  C  C103  1  0.863150  0.777850  0.037500  1.0  -0.1412
  C  C104  1  0.025150  0.896850  0.054000  1.0  -0.158
  C  C105  1  0.958950  0.793050  0.015000  1.0  -0.1075
  C  C106  1  0.982950  0.696050  0.944000  1.0  -0.1372
  C  C107  1  0.990500  0.596500  0.974000  1.0  -0.1326
  C  C108  1  0.906450  0.500550  0.932000  1.0  0.1086
  C  C109  1  0.917200  0.410800  0.956000  1.0  0.2149
  C  C110  1  0.785950  0.304050  0.163500  1.0  0.4152
  C  C111  1  0.711100  0.117900  0.054000  1.0  0.3144
  C  C112  1  0.726200  0.342800  0.092000  1.0  -0.1222
  C  C113  1  0.649900  0.154100  0.983000  1.0  -0.1513
  C  C114  1  0.660150  0.270850  0.004000  1.0  -0.034
  C  C115  1  0.596500  0.307500  0.927000  1.0  -0.1405
  C  C116  1  0.546850  0.407150  0.965000  1.0  -0.0554
  C  C117  1  0.601750  0.514650  0.996000  1.0  0.1878
  C  C118  1  0.557100  0.605900  0.031500  1.0  0.2131
  C  C119  1  0.128300  0.157700  0.401000  1.0  0.2176
  C  C120  1  0.010750  0.000250  0.382500  1.0  0.3178
  C  C121  1  0.222150  0.136850  0.462500  1.0  -0.1216
  C  C122  1  0.103150  0.974850  0.446000  1.0  -0.1715
  C  C123  1  0.206950  0.041050  0.485000  1.0  -0.0563
  C  C124  1  0.303950  0.017050  0.556000  1.0  -0.1919
  C  C125  1  0.403500  0.009500  0.526000  1.0  -0.0111
  C  C126  1  0.499450  0.093550  0.568000  1.0  0.228
  C  C127  1  0.589200  0.082800  0.544000  1.0  0.2369
  N  N128  1  0.191400  0.774400  0.639500  1.0  -0.394
  N  N129  1  0.091750  0.028250  0.863000  1.0  -0.4197
  N  N130  1  0.225600  0.808600  0.860500  1.0  -0.3817
  N  N131  1  0.971750  0.908250  0.637000  1.0  -0.4184
  N  N132  1  0.808600  0.225600  0.360500  1.0  -0.3935
  N  N133  1  0.908250  0.971750  0.137000  1.0  -0.4174
  N  N134  1  0.774400  0.191400  0.139500  1.0  -0.3934
  N  N135  1  0.028250  0.091750  0.363000  1.0  -0.4188
  F  F136  1  0.534950  0.704750  0.493600  1.0  -0.3516
  F  F137  1  0.709450  0.616850  0.559900  1.0  -0.2286
  F  F138  1  0.185950  0.504150  0.138450  1.0  -0.2074
  F  F139  1  0.166650  0.680250  0.089900  1.0  -0.2453
  F  F140  1  0.295250  0.465050  0.006400  1.0  -0.3436
  F  F141  1  0.383150  0.290550  0.940100  1.0  -0.2261
  F  F142  1  0.495850  0.814050  0.361550  1.0  -0.2068
  F  F143  1  0.319750  0.833350  0.410100  1.0  -0.2466
  F  F144  1  0.465050  0.295250  0.506400  1.0  -0.3494
  F  F145  1  0.290550  0.383150  0.440100  1.0  -0.2261
  F  F146  1  0.814050  0.495850  0.861550  1.0  -0.1951
  F  F147  1  0.833350  0.319750  0.910100  1.0  -0.2414
  F  F148  1  0.704750  0.534950  0.993600  1.0  -0.3355
  F  F149  1  0.616850  0.709450  0.059900  1.0  -0.2235
  F  F150  1  0.504150  0.185950  0.638450  1.0  -0.22
  F  F151  1  0.680250  0.166650  0.589900  1.0  -0.2473
