# generated using pymatgen
data_Cd2H30C49N4O5F6
_symmetry_space_group_name_H-M   'P 1'
_cell_length_a   13.82100000
_cell_length_b   32.91000000
_cell_length_c   14.90300000
_cell_angle_alpha   90.00000000
_cell_angle_beta   112.93900000
_cell_angle_gamma   90.00000000
_symmetry_Int_Tables_number   1
_chemical_formula_structural   Cd2H30C49N4O5F6
_chemical_formula_sum   'Cd8 H120 C196 N16 O20 F24'
_cell_volume   6242.56550608
_cell_formula_units_Z   4
loop_
 _symmetry_equiv_pos_site_id
 _symmetry_equiv_pos_as_xyz
  1  'x, y, z'
loop_
 _atom_site_type_symbol
 _atom_site_label
 _atom_site_symmetry_multiplicity
 _atom_site_fract_x
 _atom_site_fract_y
 _atom_site_fract_z
 _atom_site_occupancy
 _atom_site_charge
  Cd  Cd1  1  0.103760  0.968890  0.467060  1.0  0.8897
  Cd  Cd2  1  0.621510  0.700670  0.125650  1.0  0.6591
  Cd  Cd3  1  0.396240  0.468890  0.032940  1.0  0.8858
  Cd  Cd4  1  0.878490  0.200670  0.374350  1.0  0.6595
  Cd  Cd5  1  0.896240  0.031110  0.532940  1.0  0.8858
  Cd  Cd6  1  0.378490  0.299330  0.874350  1.0  0.6591
  Cd  Cd7  1  0.603760  0.531110  0.967060  1.0  0.8899
  Cd  Cd8  1  0.121510  0.799330  0.625650  1.0  0.6587
  H  H9  1  0.171200  0.881300  0.429400  1.0  0.0699
  H  H10  1  0.154300  0.830800  0.320100  1.0  0.1185
  H  H11  1  0.991700  0.907600  0.106800  1.0  0.1188
  H  H12  1  0.014300  0.956300  0.223200  1.0  0.0643
  H  H13  1  0.216400  0.813500  0.193300  1.0  0.1016
  H  H14  1  0.059800  0.753400  0.943800  1.0  0.1007
  H  H15  1  0.912200  0.839400  0.033900  1.0  0.1047
  H  H16  1  0.332800  0.766200  0.228800  1.0  0.1042
  H  H17  1  0.486800  0.735600  0.243000  1.0  0.0679
  H  H18  1  0.373400  0.709100  0.967700  1.0  0.074
  H  H19  1  0.214600  0.739000  0.945000  1.0  0.1172
  H  H20  1  0.922400  0.851900  0.837000  1.0  0.1133
  H  H21  1  0.624300  0.879500  0.659400  1.0  0.1062
  H  H22  1  0.684700  0.776700  0.818700  1.0  0.1221
  H  H23  1  0.968600  0.894700  0.744000  1.0  0.1098
  H  H24  1  0.013900  0.951000  0.678400  1.0  0.0734
  H  H25  1  0.727900  0.993300  0.592700  1.0  0.0821
  H  H26  1  0.514900  0.759800  0.662200  1.0  0.1057
  H  H27  1  0.335900  0.752300  0.612300  1.0  0.0605
  H  H28  1  0.303800  0.865300  0.669600  1.0  0.0675
  H  H29  1  0.479200  0.876800  0.714200  1.0  0.0871
  H  H30  1  0.469500  0.978200  0.650300  1.0  0.0992
  H  H31  1  0.627500  0.981400  0.785100  1.0  0.0964
  H  H32  1  0.491900  0.924700  0.943900  1.0  0.1029
  H  H33  1  0.332800  0.924800  0.812400  1.0  0.1012
  H  H34  1  0.747700  0.930900  0.166200  1.0  0.1093
  H  H35  1  0.752000  0.867000  0.232300  1.0  0.1011
  H  H36  1  0.666000  0.817300  0.967900  1.0  0.0927
  H  H37  1  0.660700  0.880300  0.900800  1.0  0.0963
  H  H38  1  0.677100  0.939200  0.657000  1.0  0.1019
  H  H39  1  0.328800  0.381300  0.070600  1.0  0.0697
  H  H40  1  0.345700  0.330800  0.179900  1.0  0.1183
  H  H41  1  0.508300  0.407600  0.393200  1.0  0.1191
  H  H42  1  0.485700  0.456300  0.276800  1.0  0.0643
  H  H43  1  0.283600  0.313500  0.306700  1.0  0.1028
  H  H44  1  0.440200  0.253400  0.556200  1.0  0.1014
  H  H45  1  0.587800  0.339400  0.466100  1.0  0.105
  H  H46  1  0.167200  0.266200  0.271200  1.0  0.1053
  H  H47  1  0.013200  0.235600  0.257000  1.0  0.0673
  H  H48  1  0.126600  0.209100  0.532300  1.0  0.0743
  H  H49  1  0.285400  0.239000  0.555000  1.0  0.1172
  H  H50  1  0.577600  0.351900  0.663000  1.0  0.113
  H  H51  1  0.875700  0.379500  0.840600  1.0  0.1063
  H  H52  1  0.815300  0.276700  0.681300  1.0  0.1219
  H  H53  1  0.531400  0.394700  0.756000  1.0  0.1092
  H  H54  1  0.486100  0.451000  0.821600  1.0  0.074
  H  H55  1  0.772100  0.493300  0.907300  1.0  0.082
  H  H56  1  0.985100  0.259800  0.837800  1.0  0.1057
  H  H57  1  0.164100  0.252300  0.887700  1.0  0.0605
  H  H58  1  0.196200  0.365300  0.830400  1.0  0.0683
  H  H59  1  0.020800  0.376800  0.785800  1.0  0.0872
  H  H60  1  0.030500  0.478200  0.849700  1.0  0.0991
  H  H61  1  0.872500  0.481400  0.714900  1.0  0.0963
  H  H62  1  0.008100  0.424700  0.556100  1.0  0.104
  H  H63  1  0.167200  0.424800  0.687600  1.0  0.1008
  H  H64  1  0.752300  0.430900  0.333800  1.0  0.1089
  H  H65  1  0.748000  0.367000  0.267700  1.0  0.1018
  H  H66  1  0.834000  0.317300  0.532100  1.0  0.0922
  H  H67  1  0.839300  0.380300  0.599200  1.0  0.096
  H  H68  1  0.822900  0.439200  0.843000  1.0  0.1022
  H  H69  1  0.828800  0.118700  0.570600  1.0  0.0697
  H  H70  1  0.845700  0.169200  0.679900  1.0  0.1187
  H  H71  1  0.008300  0.092400  0.893200  1.0  0.1193
  H  H72  1  0.985700  0.043700  0.776800  1.0  0.0652
  H  H73  1  0.783600  0.186500  0.806700  1.0  0.1031
  H  H74  1  0.940200  0.246600  0.056200  1.0  0.1028
  H  H75  1  0.087800  0.160600  0.966100  1.0  0.1049
  H  H76  1  0.667200  0.233800  0.771200  1.0  0.1055
  H  H77  1  0.513200  0.264400  0.757000  1.0  0.0672
  H  H78  1  0.626600  0.290900  0.032300  1.0  0.0741
  H  H79  1  0.785400  0.261000  0.055000  1.0  0.1169
  H  H80  1  0.077600  0.148100  0.163000  1.0  0.1128
  H  H81  1  0.375700  0.120500  0.340600  1.0  0.107
  H  H82  1  0.315300  0.223300  0.181300  1.0  0.1217
  H  H83  1  0.031400  0.105300  0.256000  1.0  0.1092
  H  H84  1  0.986100  0.049000  0.321600  1.0  0.0743
  H  H85  1  0.272100  0.006700  0.407300  1.0  0.0821
  H  H86  1  0.485100  0.240200  0.337800  1.0  0.1059
  H  H87  1  0.664100  0.247700  0.387700  1.0  0.0598
  H  H88  1  0.696200  0.134700  0.330400  1.0  0.0692
  H  H89  1  0.520800  0.123200  0.285800  1.0  0.0867
  H  H90  1  0.530500  0.021800  0.349700  1.0  0.0991
  H  H91  1  0.372500  0.018600  0.214900  1.0  0.0974
  H  H92  1  0.508100  0.075300  0.056100  1.0  0.1044
  H  H93  1  0.667200  0.075200  0.187600  1.0  0.1007
  H  H94  1  0.252300  0.069100  0.833800  1.0  0.1087
  H  H95  1  0.248000  0.133000  0.767700  1.0  0.1018
  H  H96  1  0.334000  0.182700  0.032100  1.0  0.0924
  H  H97  1  0.339300  0.119700  0.099200  1.0  0.0954
  H  H98  1  0.322900  0.060800  0.343000  1.0  0.1027
  H  H99  1  0.671200  0.618700  0.929400  1.0  0.0699
  H  H100  1  0.654300  0.669200  0.820100  1.0  0.1184
  H  H101  1  0.491700  0.592400  0.606800  1.0  0.1186
  H  H102  1  0.514300  0.543700  0.723200  1.0  0.0651
  H  H103  1  0.716400  0.686500  0.693300  1.0  0.1016
  H  H104  1  0.559800  0.746600  0.443800  1.0  0.1024
  H  H105  1  0.412200  0.660600  0.533900  1.0  0.1049
  H  H106  1  0.832800  0.733800  0.728800  1.0  0.1044
  H  H107  1  0.986800  0.764400  0.743000  1.0  0.068
  H  H108  1  0.873400  0.790900  0.467700  1.0  0.074
  H  H109  1  0.714600  0.761000  0.445000  1.0  0.1171
  H  H110  1  0.422400  0.648100  0.337000  1.0  0.1132
  H  H111  1  0.124300  0.620500  0.159400  1.0  0.1063
  H  H112  1  0.184700  0.723300  0.318700  1.0  0.1215
  H  H113  1  0.468600  0.605300  0.244000  1.0  0.1097
  H  H114  1  0.513900  0.549000  0.178400  1.0  0.0733
  H  H115  1  0.227900  0.506700  0.092700  1.0  0.0822
  H  H116  1  0.014900  0.740200  0.162200  1.0  0.1055
  H  H117  1  0.835900  0.747700  0.112300  1.0  0.0601
  H  H118  1  0.803800  0.634700  0.169600  1.0  0.0678
  H  H119  1  0.979200  0.623200  0.214200  1.0  0.0867
  H  H120  1  0.969500  0.521800  0.150300  1.0  0.0992
  H  H121  1  0.127500  0.518600  0.285100  1.0  0.0968
  H  H122  1  0.991900  0.575300  0.443900  1.0  0.1023
  H  H123  1  0.832800  0.575200  0.312400  1.0  0.1007
  H  H124  1  0.247700  0.569100  0.666200  1.0  0.1096
  H  H125  1  0.252000  0.633000  0.732300  1.0  0.1012
  H  H126  1  0.166000  0.682700  0.467900  1.0  0.0929
  H  H127  1  0.160700  0.619700  0.400800  1.0  0.0965
  H  H128  1  0.177100  0.560800  0.157000  1.0  0.1016
  C  C129  1  0.134900  0.886840  0.363500  1.0  0.1506
  C  C130  1  0.125400  0.856220  0.298200  1.0  -0.2251
  C  C131  1  0.072400  0.863410  0.199300  1.0  0.0942
  C  C132  1  0.029500  0.901520  0.172200  1.0  -0.2154
  C  C133  1  0.043100  0.930650  0.243100  1.0  0.163
  C  C134  1  0.065500  0.831240  0.125700  1.0  0.0214
  C  C135  1  0.155400  0.808870  0.138500  1.0  -0.1126
  C  C136  1  0.155700  0.779690  0.070900  1.0  0.0227
  C  C137  1  0.062000  0.772760  0.989900  1.0  -0.1294
  C  C138  1  0.973100  0.794720  0.978600  1.0  0.2298
  C  C139  1  0.972500  0.824400  0.043900  1.0  -0.1644
  C  C140  1  0.254900  0.757470  0.084200  1.0  0.0555
  C  C141  1  0.339000  0.755160  0.173800  1.0  -0.2043
  C  C142  1  0.432000  0.736500  0.181900  1.0  0.1532
  C  C143  1  0.365400  0.721080  0.021000  1.0  0.1369
  C  C144  1  0.268900  0.739230  0.006400  1.0  -0.2036
  C  C145  1  0.814400  0.810940  0.837900  1.0  0.2574
  C  C146  1  0.851100  0.845700  0.810200  1.0  -0.1818
  C  C147  1  0.780100  0.871600  0.741200  1.0  -0.0128
  C  C148  1  0.672000  0.862000  0.704000  1.0  -0.1208
  C  C149  1  0.635400  0.827190  0.732500  1.0  0.0184
  C  C150  1  0.707500  0.800630  0.799800  1.0  -0.1322
  C  C151  1  0.815600  0.908740  0.706300  1.0  0.0597
  C  C152  1  0.917800  0.914130  0.712700  1.0  -0.1912
  C  C153  1  0.944800  0.948240  0.672900  1.0  0.1504
  C  C154  1  0.776700  0.973120  0.622800  1.0  0.1496
  C  C155  1  0.519700  0.819360  0.696700  1.0  0.0953
  C  C156  1  0.473900  0.781860  0.664400  1.0  -0.2042
  C  C157  1  0.365400  0.777550  0.635100  1.0  0.1625
  C  C158  1  0.346300  0.843650  0.667700  1.0  0.1652
  C  C159  1  0.452600  0.850790  0.695800  1.0  -0.2221
  C  C160  1  0.280600  0.951980  0.628500  1.0  0.6626
  C  C161  1  0.384000  0.951830  0.717100  1.0  -0.1113
  C  C162  1  0.473300  0.968130  0.709800  1.0  -0.0169
  C  C163  1  0.569000  0.969630  0.790800  1.0  -0.1462
  C  C164  1  0.577000  0.953570  0.879400  1.0  0.025
  C  C165  1  0.487400  0.936260  0.885400  1.0  -0.1274
  C  C166  1  0.391800  0.935830  0.806000  1.0  -0.093
  C  C167  1  0.679800  0.954510  0.973600  1.0  -0.2998
  C  C168  1  0.666800  0.989150  0.038200  1.0  0.6851
  C  C169  1  0.779100  0.964470  0.952600  1.0  0.6876
  C  C170  1  0.697800  0.912900  0.025000  1.0  0.0583
  C  C171  1  0.728800  0.908280  0.125700  1.0  -0.1633
  C  C172  1  0.731400  0.869890  0.165300  1.0  -0.0422
  C  C173  1  0.703700  0.835850  0.106200  1.0  -0.1529
  C  C174  1  0.680000  0.840230  0.007500  1.0  -0.075
  C  C175  1  0.676900  0.877950  0.967300  1.0  -0.1352
  C  C176  1  0.693000  0.795150  0.148100  1.0  0.69
  C  C177  1  0.745800  0.940470  0.661000  1.0  -0.1842
  C  C178  1  0.365100  0.386840  0.136500  1.0  0.15
  C  C179  1  0.374600  0.356220  0.201800  1.0  -0.2251
  C  C180  1  0.427600  0.363410  0.300700  1.0  0.0941
  C  C181  1  0.470500  0.401520  0.327800  1.0  -0.2161
  C  C182  1  0.456900  0.430650  0.256900  1.0  0.1639
  C  C183  1  0.434500  0.331240  0.374300  1.0  0.0218
  C  C184  1  0.344600  0.308870  0.361500  1.0  -0.1139
  C  C185  1  0.344300  0.279690  0.429100  1.0  0.0229
  C  C186  1  0.438000  0.272760  0.510100  1.0  -0.1294
  C  C187  1  0.526900  0.294720  0.521400  1.0  0.2302
  C  C188  1  0.527500  0.324400  0.456100  1.0  -0.1646
  C  C189  1  0.245100  0.257470  0.415800  1.0  0.0543
  C  C190  1  0.161000  0.255160  0.326200  1.0  -0.2044
  C  C191  1  0.068000  0.236500  0.318100  1.0  0.1522
  C  C192  1  0.134600  0.221080  0.479000  1.0  0.1368
  C  C193  1  0.231100  0.239230  0.493600  1.0  -0.2045
  C  C194  1  0.685600  0.310940  0.662100  1.0  0.2565
  C  C195  1  0.648900  0.345700  0.689800  1.0  -0.1805
  C  C196  1  0.719900  0.371600  0.758800  1.0  -0.0141
  C  C197  1  0.828000  0.362000  0.796000  1.0  -0.1222
  C  C198  1  0.864600  0.327190  0.767500  1.0  0.0195
  C  C199  1  0.792500  0.300630  0.700200  1.0  -0.1322
  C  C200  1  0.684400  0.408740  0.793700  1.0  0.0617
  C  C201  1  0.582200  0.414130  0.787300  1.0  -0.1909
  C  C202  1  0.555200  0.448240  0.827100  1.0  0.1482
  C  C203  1  0.723300  0.473120  0.877200  1.0  0.1491
  C  C204  1  0.980300  0.319360  0.803300  1.0  0.0964
  C  C205  1  0.026100  0.281860  0.835600  1.0  -0.2036
  C  C206  1  0.134600  0.277550  0.864900  1.0  0.1617
  C  C207  1  0.153700  0.343650  0.832300  1.0  0.166
  C  C208  1  0.047400  0.350790  0.804200  1.0  -0.2215
  C  C209  1  0.219400  0.451980  0.871500  1.0  0.6638
  C  C210  1  0.116000  0.451830  0.782900  1.0  -0.1097
  C  C211  1  0.026700  0.468130  0.790200  1.0  -0.0174
  C  C212  1  0.931000  0.469630  0.709200  1.0  -0.1444
  C  C213  1  0.923000  0.453570  0.620600  1.0  0.0257
  C  C214  1  0.012600  0.436260  0.614600  1.0  -0.1289
  C  C215  1  0.108200  0.435830  0.694000  1.0  -0.094
  C  C216  1  0.820200  0.454510  0.526400  1.0  -0.3007
  C  C217  1  0.833200  0.489150  0.461800  1.0  0.6843
  C  C218  1  0.720900  0.464470  0.547400  1.0  0.6888
  C  C219  1  0.802200  0.412900  0.475000  1.0  0.0587
  C  C220  1  0.771200  0.408280  0.374300  1.0  -0.1589
  C  C221  1  0.768600  0.369890  0.334700  1.0  -0.0407
  C  C222  1  0.796300  0.335850  0.393800  1.0  -0.152
  C  C223  1  0.820000  0.340230  0.492500  1.0  -0.0753
  C  C224  1  0.823100  0.377950  0.532700  1.0  -0.1386
  C  C225  1  0.807000  0.295150  0.351900  1.0  0.6915
  C  C226  1  0.754200  0.440470  0.839000  1.0  -0.1857
  C  C227  1  0.865100  0.113160  0.636500  1.0  0.15
  C  C228  1  0.874600  0.143780  0.701800  1.0  -0.2264
  C  C229  1  0.927600  0.136590  0.800700  1.0  0.0945
  C  C230  1  0.970500  0.098480  0.827800  1.0  -0.2157
  C  C231  1  0.956900  0.069350  0.756900  1.0  0.1637
  C  C232  1  0.934500  0.168760  0.874300  1.0  0.0219
  C  C233  1  0.844600  0.191130  0.861500  1.0  -0.114
  C  C234  1  0.844300  0.220310  0.929100  1.0  0.0227
  C  C235  1  0.938000  0.227240  0.010100  1.0  -0.1301
  C  C236  1  0.026900  0.205280  0.021400  1.0  0.23
  C  C237  1  0.027500  0.175600  0.956100  1.0  -0.1647
  C  C238  1  0.745100  0.242530  0.915800  1.0  0.0547
  C  C239  1  0.661000  0.244840  0.826200  1.0  -0.2041
  C  C240  1  0.568000  0.263500  0.818100  1.0  0.152
  C  C241  1  0.634600  0.278920  0.979000  1.0  0.1352
  C  C242  1  0.731100  0.260770  0.993600  1.0  -0.2048
  C  C243  1  0.185600  0.189060  0.162100  1.0  0.2568
  C  C244  1  0.148900  0.154300  0.189800  1.0  -0.181
  C  C245  1  0.219900  0.128400  0.258800  1.0  -0.0132
  C  C246  1  0.328000  0.138000  0.296000  1.0  -0.1215
  C  C247  1  0.364600  0.172810  0.267500  1.0  0.019
  C  C248  1  0.292500  0.199370  0.200200  1.0  -0.1324
  C  C249  1  0.184400  0.091260  0.293700  1.0  0.0618
  C  C250  1  0.082200  0.085870  0.287300  1.0  -0.1903
  C  C251  1  0.055200  0.051760  0.327100  1.0  0.1488
  C  C252  1  0.223300  0.026880  0.377200  1.0  0.1494
  C  C253  1  0.480300  0.180640  0.303300  1.0  0.0961
  C  C254  1  0.526100  0.218140  0.335600  1.0  -0.2032
  C  C255  1  0.634600  0.222450  0.364900  1.0  0.1614
  C  C256  1  0.653700  0.156350  0.332300  1.0  0.1658
  C  C257  1  0.547400  0.149210  0.304200  1.0  -0.2219
  C  C258  1  0.719400  0.048020  0.371500  1.0  0.6646
  C  C259  1  0.616000  0.048170  0.282900  1.0  -0.1095
  C  C260  1  0.526700  0.031870  0.290200  1.0  -0.0187
  C  C261  1  0.431000  0.030370  0.209200  1.0  -0.1435
  C  C262  1  0.423000  0.046430  0.120600  1.0  0.0253
  C  C263  1  0.512600  0.063740  0.114600  1.0  -0.1304
  C  C264  1  0.608200  0.064170  0.194000  1.0  -0.0936
  C  C265  1  0.320200  0.045490  0.026400  1.0  -0.3005
  C  C266  1  0.333200  0.010850  0.961800  1.0  0.6835
  C  C267  1  0.220900  0.035530  0.047400  1.0  0.6888
  C  C268  1  0.302200  0.087100  0.975000  1.0  0.0584
  C  C269  1  0.271200  0.091720  0.874300  1.0  -0.1594
  C  C270  1  0.268600  0.130110  0.834700  1.0  -0.0407
  C  C271  1  0.296300  0.164150  0.893800  1.0  -0.1503
  C  C272  1  0.320000  0.159770  0.992500  1.0  -0.0747
  C  C273  1  0.323100  0.122050  0.032700  1.0  -0.1368
  C  C274  1  0.307000  0.204850  0.851900  1.0  0.6917
  C  C275  1  0.254200  0.059530  0.339000  1.0  -0.1857
  C  C276  1  0.634900  0.613160  0.863500  1.0  0.1503
  C  C277  1  0.625400  0.643780  0.798200  1.0  -0.2262
  C  C278  1  0.572400  0.636590  0.699300  1.0  0.0944
  C  C279  1  0.529500  0.598480  0.672200  1.0  -0.2162
  C  C280  1  0.543100  0.569350  0.743100  1.0  0.1629
  C  C281  1  0.565500  0.668760  0.625700  1.0  0.022
  C  C282  1  0.655400  0.691130  0.638500  1.0  -0.1122
  C  C283  1  0.655700  0.720310  0.570900  1.0  0.0228
  C  C284  1  0.562000  0.727240  0.489900  1.0  -0.1305
  C  C285  1  0.473100  0.705280  0.478600  1.0  0.23
  C  C286  1  0.472500  0.675600  0.543900  1.0  -0.1641
  C  C287  1  0.754900  0.742530  0.584200  1.0  0.0551
  C  C288  1  0.839000  0.744840  0.673800  1.0  -0.2046
  C  C289  1  0.932000  0.763500  0.681900  1.0  0.1531
  C  C290  1  0.865400  0.778920  0.521000  1.0  0.137
  C  C291  1  0.768900  0.760770  0.506400  1.0  -0.2036
  C  C292  1  0.314400  0.689060  0.337900  1.0  0.2572
  C  C293  1  0.351100  0.654300  0.310200  1.0  -0.1814
  C  C294  1  0.280100  0.628400  0.241200  1.0  -0.0129
  C  C295  1  0.172000  0.638000  0.204000  1.0  -0.1206
  C  C296  1  0.135400  0.672810  0.232500  1.0  0.0193
  C  C297  1  0.207500  0.699370  0.299800  1.0  -0.1331
  C  C298  1  0.315600  0.591260  0.206300  1.0  0.0604
  C  C299  1  0.417800  0.585870  0.212700  1.0  -0.1899
  C  C300  1  0.444800  0.551760  0.172900  1.0  0.1499
  C  C301  1  0.276700  0.526880  0.122800  1.0  0.1493
  C  C302  1  0.019700  0.680640  0.196700  1.0  0.0947
  C  C303  1  0.973900  0.718140  0.164400  1.0  -0.2034
  C  C304  1  0.865400  0.722450  0.135100  1.0  0.1619
  C  C305  1  0.846300  0.656350  0.167700  1.0  0.1657
  C  C306  1  0.952600  0.649210  0.195800  1.0  -0.2215
  C  C307  1  0.780600  0.548020  0.128500  1.0  0.6628
  C  C308  1  0.884000  0.548170  0.217100  1.0  -0.1131
  C  C309  1  0.973300  0.531870  0.209800  1.0  -0.0159
  C  C310  1  0.069000  0.530370  0.290800  1.0  -0.1461
  C  C311  1  0.077000  0.546430  0.379400  1.0  0.0244
  C  C312  1  0.987400  0.563740  0.385400  1.0  -0.1283
  C  C313  1  0.891800  0.564170  0.306000  1.0  -0.0927
  C  C314  1  0.179800  0.545490  0.473600  1.0  -0.2995
  C  C315  1  0.166800  0.510850  0.538200  1.0  0.6857
  C  C316  1  0.279100  0.535530  0.452600  1.0  0.6877
  C  C317  1  0.197800  0.587100  0.525000  1.0  0.0586
  C  C318  1  0.228800  0.591720  0.625700  1.0  -0.1642
  C  C319  1  0.231400  0.630110  0.665300  1.0  -0.0412
  C  C320  1  0.203700  0.664150  0.606200  1.0  -0.1543
  C  C321  1  0.180000  0.659770  0.507500  1.0  -0.0741
  C  C322  1  0.176900  0.622050  0.467300  1.0  -0.1354
  C  C323  1  0.193000  0.704850  0.648100  1.0  0.6896
  C  C324  1  0.245800  0.559530  0.161000  1.0  -0.1841
  N  N325  1  0.095100  0.924190  0.338200  1.0  -0.3673
  N  N326  1  0.447100  0.719850  0.107200  1.0  -0.3453
  N  N327  1  0.875600  0.977330  0.626900  1.0  -0.3858
  N  N328  1  0.300900  0.807600  0.638000  1.0  -0.3671
  N  N329  1  0.404900  0.424190  0.161800  1.0  -0.3664
  N  N330  1  0.052900  0.219850  0.392800  1.0  -0.3435
  N  N331  1  0.624400  0.477330  0.873100  1.0  -0.3864
  N  N332  1  0.199100  0.307600  0.862000  1.0  -0.3694
  N  N333  1  0.904900  0.075810  0.661800  1.0  -0.3664
  N  N334  1  0.552900  0.280150  0.892800  1.0  -0.3434
  N  N335  1  0.124400  0.022670  0.373100  1.0  -0.387
  N  N336  1  0.699100  0.192400  0.362000  1.0  -0.3695
  N  N337  1  0.595100  0.575810  0.838200  1.0  -0.3668
  N  N338  1  0.947100  0.780150  0.607200  1.0  -0.3454
  N  N339  1  0.375600  0.522670  0.126900  1.0  -0.3867
  N  N340  1  0.800900  0.692400  0.138000  1.0  -0.3668
  O  O341  1  0.280700  0.967100  0.551800  1.0  -0.6109
  O  O342  1  0.199900  0.938610  0.634900  1.0  -0.6279
  O  O343  1  0.640500  0.768100  0.088900  1.0  -0.6538
  O  O344  1  0.736800  0.790850  0.237700  1.0  -0.5567
  O  O345  1  0.879700  0.782440  0.901300  1.0  -0.266
  O  O346  1  0.219300  0.467100  0.948200  1.0  -0.6106
  O  O347  1  0.300100  0.438610  0.865100  1.0  -0.6277
  O  O348  1  0.859500  0.268100  0.411100  1.0  -0.6529
  O  O349  1  0.763200  0.290850  0.262300  1.0  -0.5568
  O  O350  1  0.620300  0.282440  0.598700  1.0  -0.2662
  O  O351  1  0.719300  0.032900  0.448200  1.0  -0.6099
  O  O352  1  0.800100  0.061390  0.365100  1.0  -0.6279
  O  O353  1  0.359500  0.231900  0.911100  1.0  -0.653
  O  O354  1  0.263200  0.209150  0.762300  1.0  -0.5557
  O  O355  1  0.120300  0.217560  0.098700  1.0  -0.2655
  O  O356  1  0.780700  0.532900  0.051800  1.0  -0.6111
  O  O357  1  0.699900  0.561390  0.134900  1.0  -0.6282
  O  O358  1  0.140500  0.731900  0.588900  1.0  -0.654
  O  O359  1  0.236800  0.709150  0.737700  1.0  -0.5566
  O  O360  1  0.379700  0.717560  0.401300  1.0  -0.2653
  F  F361  1  0.634000  0.023440  0.987300  1.0  -0.2064
  F  F362  1  0.756100  0.998280  0.114600  1.0  -0.2146
  F  F363  1  0.595000  0.979310  0.074100  1.0  -0.2067
  F  F364  1  0.779300  0.001790  0.918900  1.0  -0.2104
  F  F365  1  0.867700  0.961110  0.033400  1.0  -0.2207
  F  F366  1  0.788400  0.938540  0.887900  1.0  -0.2073
  F  F367  1  0.866000  0.523440  0.512700  1.0  -0.2077
  F  F368  1  0.743900  0.498280  0.385400  1.0  -0.2129
  F  F369  1  0.905000  0.479310  0.425900  1.0  -0.2075
  F  F370  1  0.720700  0.501790  0.581100  1.0  -0.2125
  F  F371  1  0.632300  0.461110  0.466600  1.0  -0.2201
  F  F372  1  0.711600  0.438540  0.612100  1.0  -0.2063
  F  F373  1  0.366000  0.976560  0.012700  1.0  -0.2083
  F  F374  1  0.243900  0.001720  0.885400  1.0  -0.2132
  F  F375  1  0.405000  0.020690  0.925900  1.0  -0.2076
  F  F376  1  0.220700  0.998210  0.081100  1.0  -0.212
  F  F377  1  0.132300  0.038890  0.966600  1.0  -0.22
  F  F378  1  0.211600  0.061460  0.112100  1.0  -0.2068
  F  F379  1  0.134000  0.476560  0.487300  1.0  -0.2084
  F  F380  1  0.256100  0.501720  0.614600  1.0  -0.2152
  F  F381  1  0.095000  0.520690  0.574100  1.0  -0.207
  F  F382  1  0.279300  0.498210  0.418900  1.0  -0.2124
  F  F383  1  0.367700  0.538890  0.533400  1.0  -0.2216
  F  F384  1  0.288400  0.561460  0.387900  1.0  -0.2075
