# generated using pymatgen
data_MnRe3C3S4N3
_symmetry_space_group_name_H-M   'P 1'
_cell_length_a   16.50100000
_cell_length_b   16.63300000
_cell_length_c   17.20800000
_cell_angle_alpha   90.00000000
_cell_angle_beta   90.00000000
_cell_angle_gamma   90.00000000
_symmetry_Int_Tables_number   1
_chemical_formula_structural   MnRe3C3S4N3
_chemical_formula_sum   'Mn8 Re24 C24 S32 N24'
_cell_volume   4722.92717666
_cell_formula_units_Z   8
loop_
 _symmetry_equiv_pos_site_id
 _symmetry_equiv_pos_as_xyz
  1  'x, y, z'
loop_
 _atom_site_type_symbol
 _atom_site_label
 _atom_site_symmetry_multiplicity
 _atom_site_fract_x
 _atom_site_fract_y
 _atom_site_fract_z
 _atom_site_occupancy
 _atom_site_charge
  Mn  Mn1  1  0.414190  0.913390  0.601020  1.0  1.0533
  Mn  Mn2  1  0.085810  0.086610  0.101020  1.0  1.0531
  Mn  Mn3  1  0.585810  0.413390  0.898980  1.0  1.0529
  Mn  Mn4  1  0.914190  0.586610  0.398980  1.0  1.0526
  Mn  Mn5  1  0.585810  0.086610  0.398980  1.0  1.0526
  Mn  Mn6  1  0.914190  0.913390  0.898980  1.0  1.053
  Mn  Mn7  1  0.414190  0.586610  0.101020  1.0  1.053
  Mn  Mn8  1  0.085810  0.413390  0.601020  1.0  1.0533
  Re  Re9  1  0.102330  0.967040  0.527770  1.0  -0.0174
  Re  Re10  1  0.976630  0.897700  0.466110  1.0  -0.021
  Re  Re11  1  0.037160  0.026140  0.402500  1.0  -0.0214
  Re  Re12  1  0.397670  0.032960  0.027770  1.0  -0.0169
  Re  Re13  1  0.523370  0.102300  0.966110  1.0  -0.0216
  Re  Re14  1  0.462840  0.973860  0.902500  1.0  -0.0213
  Re  Re15  1  0.897670  0.467040  0.972230  1.0  -0.0173
  Re  Re16  1  0.023370  0.397700  0.033890  1.0  -0.0204
  Re  Re17  1  0.962840  0.526140  0.097500  1.0  -0.0214
  Re  Re18  1  0.602330  0.532960  0.472230  1.0  -0.0177
  Re  Re19  1  0.476630  0.602300  0.533890  1.0  -0.0219
  Re  Re20  1  0.537160  0.473860  0.597500  1.0  -0.0214
  Re  Re21  1  0.897670  0.032960  0.472230  1.0  -0.0172
  Re  Re22  1  0.023370  0.102300  0.533890  1.0  -0.0213
  Re  Re23  1  0.962840  0.973860  0.597500  1.0  -0.0213
  Re  Re24  1  0.602330  0.967040  0.972230  1.0  -0.0176
  Re  Re25  1  0.476630  0.897700  0.033890  1.0  -0.0208
  Re  Re26  1  0.537160  0.026140  0.097500  1.0  -0.0214
  Re  Re27  1  0.102330  0.532960  0.027770  1.0  -0.0175
  Re  Re28  1  0.976630  0.602300  0.966110  1.0  -0.0219
  Re  Re29  1  0.037160  0.473860  0.902500  1.0  -0.0216
  Re  Re30  1  0.397670  0.467040  0.527770  1.0  -0.017
  Re  Re31  1  0.523370  0.397700  0.466110  1.0  -0.0206
  Re  Re32  1  0.462840  0.526140  0.402500  1.0  -0.0212
  C  C33  1  0.220300  0.929900  0.560400  1.0  0.226
  C  C34  1  0.948500  0.780200  0.427200  1.0  0.2296
  C  C35  1  0.075900  0.056500  0.288900  1.0  0.2241
  C  C36  1  0.279700  0.070100  0.060400  1.0  0.2261
  C  C37  1  0.551500  0.219800  0.927200  1.0  0.2293
  C  C38  1  0.424100  0.943500  0.788900  1.0  0.224
  C  C39  1  0.779700  0.429900  0.939600  1.0  0.226
  C  C40  1  0.051500  0.280200  0.072800  1.0  0.2293
  C  C41  1  0.924100  0.556500  0.211100  1.0  0.2245
  C  C42  1  0.720300  0.570100  0.439600  1.0  0.2258
  C  C43  1  0.448500  0.719800  0.572800  1.0  0.229
  C  C44  1  0.575900  0.443500  0.711100  1.0  0.2251
  C  C45  1  0.779700  0.070100  0.439600  1.0  0.2261
  C  C46  1  0.051500  0.219800  0.572800  1.0  0.2289
  C  C47  1  0.924100  0.943500  0.711100  1.0  0.2246
  C  C48  1  0.720300  0.929900  0.939600  1.0  0.2258
  C  C49  1  0.448500  0.780200  0.072800  1.0  0.229
  C  C50  1  0.575900  0.056500  0.211100  1.0  0.225
  C  C51  1  0.220300  0.570100  0.060400  1.0  0.2262
  C  C52  1  0.948500  0.719800  0.927200  1.0  0.2291
  C  C53  1  0.075900  0.443500  0.788900  1.0  0.2242
  C  C54  1  0.279700  0.429900  0.560400  1.0  0.2259
  C  C55  1  0.551500  0.280200  0.427200  1.0  0.2294
  C  C56  1  0.424100  0.556500  0.288900  1.0  0.2239
  S  S57  1  0.107790  0.899250  0.404000  1.0  -0.0558
  S  S58  1  0.038360  0.851180  0.584470  1.0  -0.0536
  S  S59  1  0.150050  0.088260  0.466790  1.0  -0.0558
  S  S60  1  0.082000  0.040420  0.646670  1.0  -0.0548
  S  S61  1  0.392210  0.100750  0.904000  1.0  -0.0561
  S  S62  1  0.461640  0.148820  0.084470  1.0  -0.0533
  S  S63  1  0.349950  0.911740  0.966790  1.0  -0.0565
  S  S64  1  0.418000  0.959580  0.146670  1.0  -0.0558
  S  S65  1  0.892210  0.399250  0.096000  1.0  -0.056
  S  S66  1  0.961640  0.351180  0.915530  1.0  -0.0541
  S  S67  1  0.849950  0.588260  0.033210  1.0  -0.0568
  S  S68  1  0.918000  0.540420  0.853330  1.0  -0.0555
  S  S69  1  0.607790  0.600750  0.596000  1.0  -0.0555
  S  S70  1  0.538360  0.648820  0.415530  1.0  -0.0528
  S  S71  1  0.650050  0.411740  0.533210  1.0  -0.0557
  S  S72  1  0.582000  0.459580  0.353330  1.0  -0.0556
  S  S73  1  0.892210  0.100750  0.596000  1.0  -0.0561
  S  S74  1  0.961640  0.148820  0.415530  1.0  -0.0533
  S  S75  1  0.849950  0.911740  0.533210  1.0  -0.0563
  S  S76  1  0.918000  0.959580  0.353330  1.0  -0.0557
  S  S77  1  0.607790  0.899250  0.096000  1.0  -0.0554
  S  S78  1  0.538360  0.851180  0.915530  1.0  -0.054
  S  S79  1  0.650050  0.088260  0.033210  1.0  -0.056
  S  S80  1  0.582000  0.040420  0.853330  1.0  -0.0556
  S  S81  1  0.107790  0.600750  0.904000  1.0  -0.0559
  S  S82  1  0.038360  0.648820  0.084470  1.0  -0.0525
  S  S83  1  0.150050  0.411740  0.966790  1.0  -0.0558
  S  S84  1  0.082000  0.459580  0.146670  1.0  -0.0551
  S  S85  1  0.392210  0.399250  0.404000  1.0  -0.0563
  S  S86  1  0.461640  0.351180  0.584470  1.0  -0.0539
  S  S87  1  0.349950  0.588260  0.466790  1.0  -0.0568
  S  S88  1  0.418000  0.540420  0.646670  1.0  -0.0554
  N  N89  1  0.284900  0.912800  0.581000  1.0  -0.4852
  N  N90  1  0.933500  0.716700  0.407700  1.0  -0.4868
  N  N91  1  0.093600  0.073600  0.226900  1.0  -0.4787
  N  N92  1  0.215100  0.087200  0.081000  1.0  -0.4853
  N  N93  1  0.566500  0.283300  0.907700  1.0  -0.4879
  N  N94  1  0.406400  0.926400  0.726900  1.0  -0.4784
  N  N95  1  0.715100  0.412800  0.919000  1.0  -0.485
  N  N96  1  0.066500  0.216700  0.092300  1.0  -0.4871
  N  N97  1  0.906400  0.573600  0.273100  1.0  -0.4796
  N  N98  1  0.784900  0.587200  0.419000  1.0  -0.4852
  N  N99  1  0.433500  0.783300  0.592300  1.0  -0.4884
  N  N100  1  0.593600  0.426400  0.773100  1.0  -0.4792
  N  N101  1  0.715100  0.087200  0.419000  1.0  -0.4851
  N  N102  1  0.066500  0.283300  0.592300  1.0  -0.4882
  N  N103  1  0.906400  0.926400  0.773100  1.0  -0.4789
  N  N104  1  0.784900  0.912800  0.919000  1.0  -0.4851
  N  N105  1  0.433500  0.716700  0.092300  1.0  -0.4872
  N  N106  1  0.593600  0.073600  0.273100  1.0  -0.4796
  N  N107  1  0.284900  0.587200  0.081000  1.0  -0.4853
  N  N108  1  0.933500  0.783300  0.907700  1.0  -0.4879
  N  N109  1  0.093600  0.426400  0.726900  1.0  -0.4786
  N  N110  1  0.215100  0.412800  0.581000  1.0  -0.4852
  N  N111  1  0.566500  0.216700  0.407700  1.0  -0.4869
  N  N112  1  0.406400  0.573600  0.226900  1.0  -0.4788
