# generated using pymatgen
data_Zn3H26C38(NO3)3
_symmetry_space_group_name_H-M   'P 1'
_cell_length_a   12.88000000
_cell_length_b   16.86100000
_cell_length_c   17.32500000
_cell_angle_alpha   75.74000000
_cell_angle_beta   73.26000000
_cell_angle_gamma   68.59000000
_symmetry_Int_Tables_number   1
_chemical_formula_structural   Zn3H26C38(NO3)3
_chemical_formula_sum   'Zn6 H52 C76 N6 O18'
_cell_volume   3312.05567994
_cell_formula_units_Z   2
loop_
 _symmetry_equiv_pos_site_id
 _symmetry_equiv_pos_as_xyz
  1  'x, y, z'
loop_
 _atom_site_type_symbol
 _atom_site_label
 _atom_site_symmetry_multiplicity
 _atom_site_fract_x
 _atom_site_fract_y
 _atom_site_fract_z
 _atom_site_occupancy
 _atom_site_charge
  Zn  Zn1  1  0.530510  0.681920  0.950010  1.0  0.9561
  Zn  Zn2  1  0.649050  0.554940  0.822250  1.0  1.0111
  Zn  Zn3  1  0.384290  0.624910  0.861330  1.0  0.9066
  Zn  Zn4  1  0.469490  0.318080  0.049990  1.0  0.9559
  Zn  Zn5  1  0.350950  0.445060  0.177750  1.0  1.0147
  Zn  Zn6  1  0.615710  0.375090  0.138670  1.0  0.9066
  H  H7  1  0.360100  0.635400  0.620100  1.0  0.1113
  H  H8  1  0.363700  0.637700  0.483800  1.0  0.1237
  H  H9  1  0.708100  0.581800  0.428100  1.0  0.122
  H  H10  1  0.704500  0.579500  0.564500  1.0  0.1114
  H  H11  1  0.844600  0.300100  0.769600  1.0  0.102
  H  H12  1  0.990000  0.167400  0.762700  1.0  0.1177
  H  H13  1  0.962200  0.132800  0.006900  1.0  0.1097
  H  H14  1  0.816700  0.265600  0.013800  1.0  0.0987
  H  H15  1  0.033900  0.696100  0.761900  1.0  0.1145
  H  H16  1  0.218600  0.691700  0.758900  1.0  0.1085
  H  H17  1  0.193000  0.562700  0.990700  1.0  0.1021
  H  H18  1  0.008300  0.567000  0.993700  1.0  0.1074
  H  H19  1  0.691100  0.512000  0.200300  1.0  0.1063
  H  H20  1  0.689900  0.514400  0.335000  1.0  0.121
  H  H21  1  0.385700  0.705900  0.351300  1.0  0.1259
  H  H22  1  0.387000  0.703500  0.216500  1.0  0.1117
  H  H23  1  0.183200  0.878500  0.798200  1.0  0.1116
  H  H24  1  0.035200  0.010200  0.802400  1.0  0.1172
  H  H25  1  0.167000  0.073100  0.956300  1.0  0.1185
  H  H26  1  0.314900  0.941400  0.952200  1.0  0.1146
  H  H27  1  0.888100  0.530100  0.733000  1.0  0.1409
  H  H28  1  0.975000  0.583400  0.716200  1.0  0.1366
  H  H29  1  0.991800  0.494600  0.778700  1.0  0.1455
  H  H30  1  0.680700  0.731300  0.027200  1.0  0.1523
  H  H31  1  0.803100  0.669100  0.043100  1.0  0.1442
  H  H32  1  0.792100  0.760200  0.984700  1.0  0.138
  H  H33  1  0.639900  0.364600  0.379900  1.0  0.1108
  H  H34  1  0.636300  0.362300  0.516200  1.0  0.1242
  H  H35  1  0.291900  0.418200  0.571900  1.0  0.1222
  H  H36  1  0.295500  0.420500  0.435500  1.0  0.1116
  H  H37  1  0.155400  0.699900  0.230400  1.0  0.1023
  H  H38  1  0.010000  0.832600  0.237300  1.0  0.1185
  H  H39  1  0.037800  0.867200  0.993100  1.0  0.1096
  H  H40  1  0.183300  0.734400  0.986200  1.0  0.0981
  H  H41  1  0.966100  0.303900  0.238100  1.0  0.1153
  H  H42  1  0.781400  0.308300  0.241100  1.0  0.1083
  H  H43  1  0.807000  0.437300  0.009300  1.0  0.1017
  H  H44  1  0.991700  0.433000  0.006300  1.0  0.1072
  H  H45  1  0.308900  0.488000  0.799700  1.0  0.1059
  H  H46  1  0.310100  0.485600  0.665000  1.0  0.1206
  H  H47  1  0.614300  0.294100  0.648700  1.0  0.1263
  H  H48  1  0.613000  0.296500  0.783500  1.0  0.1112
  H  H49  1  0.816800  0.121500  0.201800  1.0  0.1121
  H  H50  1  0.964800  0.989800  0.197600  1.0  0.1175
  H  H51  1  0.833000  0.926900  0.043700  1.0  0.1188
  H  H52  1  0.685100  0.058600  0.047800  1.0  0.1147
  H  H53  1  0.111900  0.469900  0.267000  1.0  0.1428
  H  H54  1  0.025000  0.416600  0.283800  1.0  0.1368
  H  H55  1  0.008200  0.505400  0.221300  1.0  0.1457
  H  H56  1  0.319300  0.268700  0.972800  1.0  0.152
  H  H57  1  0.196900  0.330900  0.956900  1.0  0.1423
  H  H58  1  0.207900  0.239800  0.015300  1.0  0.1394
  C  C59  1  0.538200  0.605200  0.110300  1.0  0.674
  C  C60  1  0.532000  0.607200  0.605090  1.0  -0.1377
  C  C61  1  0.430800  0.624500  0.581120  1.0  -0.0156
  C  C62  1  0.432900  0.625900  0.500140  1.0  -0.1673
  C  C63  1  0.536300  0.609900  0.443120  1.0  0.0669
  C  C64  1  0.637500  0.592700  0.467090  1.0  -0.1018
  C  C65  1  0.635400  0.591300  0.548080  1.0  -0.048
  C  C66  1  0.817000  0.295330  0.892370  1.0  -0.118
  C  C67  1  0.868500  0.266200  0.817800  1.0  -0.0688
  C  C68  1  0.954900  0.187300  0.813700  1.0  -0.133
  C  C69  1  0.989800  0.137600  0.884170  1.0  0.0368
  C  C70  1  0.938300  0.166770  0.958740  1.0  -0.1275
  C  C71  1  0.851900  0.245600  0.962840  1.0  -0.0366
  C  C72  1  0.003690  0.632000  0.878050  1.0  -0.0213
  C  C73  1  0.066200  0.669000  0.808320  1.0  -0.121
  C  C74  1  0.175900  0.666400  0.806560  1.0  0.1358
  C  C75  1  0.160700  0.589800  0.944250  1.0  0.1454
  C  C76  1  0.051000  0.592400  0.946020  1.0  -0.1294
  C  C77  1  0.539200  0.607500  0.195740  1.0  -0.0791
  C  C78  1  0.629100  0.551320  0.230930  1.0  -0.0604
  C  C79  1  0.628400  0.552800  0.310970  1.0  -0.1388
  C  C80  1  0.537700  0.610400  0.355810  1.0  0.0554
  C  C81  1  0.447700  0.666500  0.320610  1.0  -0.1431
  C  C82  1  0.448500  0.665100  0.240580  1.0  -0.0726
  C  C83  1  0.179900  0.918030  0.830300  1.0  -0.0159
  C  C84  1  0.092000  0.996200  0.832800  1.0  -0.1371
  C  C85  1  0.087200  0.054030  0.879800  1.0  0.0644
  C  C86  1  0.170300  0.033600  0.924200  1.0  -0.1339
  C  C87  1  0.258200  0.955400  0.921800  1.0  -0.0472
  C  C88  1  0.263000  0.897590  0.874800  1.0  -0.157
  C  C89  1  0.528900  0.604600  0.692500  1.0  0.7165
  C  C90  1  0.351900  0.809500  0.878500  1.0  0.755
  C  C91  1  0.729500  0.382200  0.896100  1.0  0.6735
  C  C92  1  0.935400  0.546600  0.757600  1.0  -0.3715
  C  C93  1  0.859400  0.596000  0.827600  1.0  0.207
  C  C94  1  0.887000  0.631500  0.879100  1.0  -0.1882
  C  C95  1  0.781300  0.668900  0.929900  1.0  0.245
  C  C96  1  0.762700  0.711100  0.002700  1.0  -0.4089
  C  C97  1  0.461800  0.394800  0.889700  1.0  0.674
  C  C98  1  0.468000  0.392800  0.394910  1.0  -0.1372
  C  C99  1  0.569200  0.375500  0.418880  1.0  -0.014
  C  C100  1  0.567100  0.374100  0.499860  1.0  -0.1683
  C  C101  1  0.463700  0.390100  0.556880  1.0  0.0675
  C  C102  1  0.362500  0.407300  0.532910  1.0  -0.1002
  C  C103  1  0.364600  0.408700  0.451920  1.0  -0.0485
  C  C104  1  0.183000  0.704670  0.107630  1.0  -0.119
  C  C105  1  0.131500  0.733800  0.182200  1.0  -0.0713
  C  C106  1  0.045100  0.812700  0.186300  1.0  -0.1344
  C  C107  1  0.010200  0.862400  0.115830  1.0  0.0372
  C  C108  1  0.061700  0.833230  0.041260  1.0  -0.1271
  C  C109  1  0.148100  0.754400  0.037160  1.0  -0.0352
  C  C110  1  0.996310  0.368000  0.121950  1.0  -0.0214
  C  C111  1  0.933800  0.331000  0.191680  1.0  -0.1195
  C  C112  1  0.824100  0.333600  0.193440  1.0  0.1361
  C  C113  1  0.839300  0.410200  0.055750  1.0  0.1451
  C  C114  1  0.949000  0.407600  0.053980  1.0  -0.1306
  C  C115  1  0.460800  0.392500  0.804260  1.0  -0.0774
  C  C116  1  0.370900  0.448680  0.769070  1.0  -0.0598
  C  C117  1  0.371600  0.447200  0.689030  1.0  -0.1387
  C  C118  1  0.462300  0.389600  0.644190  1.0  0.0563
  C  C119  1  0.552300  0.333500  0.679390  1.0  -0.1425
  C  C120  1  0.551500  0.334900  0.759420  1.0  -0.0753
  C  C121  1  0.820100  0.081970  0.169700  1.0  -0.0164
  C  C122  1  0.908000  0.003800  0.167200  1.0  -0.1392
  C  C123  1  0.912800  0.945970  0.120200  1.0  0.0668
  C  C124  1  0.829700  0.966400  0.075800  1.0  -0.1334
  C  C125  1  0.741800  0.044600  0.078200  1.0  -0.0471
  C  C126  1  0.737000  0.102410  0.125200  1.0  -0.1572
  C  C127  1  0.471100  0.395400  0.307500  1.0  0.7151
  C  C128  1  0.648100  0.190500  0.121500  1.0  0.7556
  C  C129  1  0.270500  0.617800  0.103900  1.0  0.6726
  C  C130  1  0.064600  0.453400  0.242400  1.0  -0.3702
  C  C131  1  0.140600  0.404000  0.172400  1.0  0.2087
  C  C132  1  0.113000  0.368500  0.120900  1.0  -0.1886
  C  C133  1  0.218700  0.331100  0.070100  1.0  0.2448
  C  C134  1  0.237300  0.288900  0.997300  1.0  -0.4095
  N  N135  1  0.746400  0.610600  0.845500  1.0  -0.3496
  N  N136  1  0.702100  0.655700  0.908200  1.0  -0.2597
  N  N137  1  0.223210  0.626780  0.874530  1.0  -0.3099
  N  N138  1  0.253600  0.389400  0.154500  1.0  -0.3529
  N  N139  1  0.297900  0.344300  0.091800  1.0  -0.2581
  N  N140  1  0.776790  0.373220  0.125470  1.0  -0.3099
  O  O141  1  0.513900  0.590720  0.908190  1.0  -0.7707
  O  O142  1  0.577800  0.535500  0.082540  1.0  -0.638
  O  O143  1  0.493400  0.679900  0.068000  1.0  -0.596
  O  O144  1  0.435000  0.616500  0.742100  1.0  -0.6273
  O  O145  1  0.624500  0.587700  0.711000  1.0  -0.6363
  O  O146  1  0.428000  0.796500  0.915900  1.0  -0.6028
  O  O147  1  0.340800  0.756700  0.845000  1.0  -0.6548
  O  O148  1  0.718000  0.430700  0.826100  1.0  -0.5937
  O  O149  1  0.672300  0.403900  0.963680  1.0  -0.5469
  O  O150  1  0.486100  0.409280  0.091810  1.0  -0.7723
  O  O151  1  0.422200  0.464500  0.917460  1.0  -0.6383
  O  O152  1  0.506600  0.320100  0.932000  1.0  -0.5958
  O  O153  1  0.565000  0.383500  0.257900  1.0  -0.6267
  O  O154  1  0.375500  0.412300  0.289000  1.0  -0.6376
  O  O155  1  0.572000  0.203500  0.084100  1.0  -0.6028
  O  O156  1  0.659200  0.243300  0.155000  1.0  -0.6539
  O  O157  1  0.282000  0.569300  0.173900  1.0  -0.5943
  O  O158  1  0.327700  0.596100  0.036320  1.0  -0.5465
