# generated using pymatgen
data_Mn(C2N3)3
_symmetry_space_group_name_H-M   'P 1'
_cell_length_a   13.95930000
_cell_length_b   17.20000000
_cell_length_c   20.85870000
_cell_angle_alpha   90.00000000
_cell_angle_beta   90.00000000
_cell_angle_gamma   90.00000000
_symmetry_Int_Tables_number   1
_chemical_formula_structural   Mn(C2N3)3
_chemical_formula_sum   'Mn8 C48 N72'
_cell_volume   5008.17303565
_cell_formula_units_Z   8
loop_
 _symmetry_equiv_pos_site_id
 _symmetry_equiv_pos_as_xyz
  1  'x, y, z'
loop_
 _atom_site_type_symbol
 _atom_site_label
 _atom_site_symmetry_multiplicity
 _atom_site_fract_x
 _atom_site_fract_y
 _atom_site_fract_z
 _atom_site_occupancy
 _atom_site_charge
  Mn  Mn1  1  0.877450  0.199850  0.074200  1.0  0.9091
  Mn  Mn2  1  0.031900  0.199360  0.419410  1.0  0.8432
  Mn  Mn3  1  0.622550  0.800150  0.574200  1.0  0.9048
  Mn  Mn4  1  0.468100  0.800640  0.919410  1.0  0.8428
  Mn  Mn5  1  0.122550  0.699850  0.425800  1.0  0.9067
  Mn  Mn6  1  0.968100  0.699360  0.080590  1.0  0.8433
  Mn  Mn7  1  0.377450  0.300150  0.925800  1.0  0.9089
  Mn  Mn8  1  0.531900  0.300640  0.580590  1.0  0.8422
  C  C9  1  0.806770  0.209300  0.227770  1.0  0.5959
  C  C10  1  0.837210  0.213770  0.333620  1.0  0.5569
  C  C11  1  0.073000  0.182520  0.160520  1.0  0.5252
  C  C12  1  0.106830  0.185800  0.266580  1.0  0.5256
  C  C13  1  0.991580  0.233070  0.948230  1.0  0.6506
  C  C14  1  0.142340  0.277870  0.934520  1.0  0.5521
  C  C15  1  0.946590  0.381530  0.058270  1.0  0.5877
  C  C16  1  0.990960  0.509380  0.062460  1.0  0.6276
  C  C17  1  0.258700  0.183480  0.460380  1.0  0.6165
  C  C18  1  0.406280  0.237020  0.471850  1.0  0.6387
  C  C19  1  0.895180  0.879720  0.088420  1.0  0.5889
  C  C20  1  0.855910  0.008510  0.081090  1.0  0.6178
  C  C21  1  0.693230  0.790700  0.727770  1.0  0.5952
  C  C22  1  0.662790  0.786230  0.833620  1.0  0.556
  C  C23  1  0.427000  0.817480  0.660520  1.0  0.5251
  C  C24  1  0.393170  0.814200  0.766580  1.0  0.5255
  C  C25  1  0.508420  0.766930  0.448230  1.0  0.6503
  C  C26  1  0.357660  0.722130  0.434520  1.0  0.5509
  C  C27  1  0.553410  0.618470  0.558270  1.0  0.5879
  C  C28  1  0.509040  0.490620  0.562460  1.0  0.6273
  C  C29  1  0.241300  0.816520  0.960380  1.0  0.6175
  C  C30  1  0.093720  0.762980  0.971850  1.0  0.638
  C  C31  1  0.604820  0.120280  0.588420  1.0  0.5887
  C  C32  1  0.644090  0.991490  0.581090  1.0  0.618
  C  C33  1  0.193230  0.709300  0.272230  1.0  0.5947
  C  C34  1  0.162790  0.713770  0.166380  1.0  0.5554
  C  C35  1  0.927000  0.682520  0.339480  1.0  0.5258
  C  C36  1  0.893170  0.685800  0.233420  1.0  0.5254
  C  C37  1  0.008420  0.733070  0.551770  1.0  0.6509
  C  C38  1  0.857660  0.777870  0.565480  1.0  0.5516
  C  C39  1  0.053410  0.881530  0.441730  1.0  0.5874
  C  C40  1  0.009040  0.009380  0.437540  1.0  0.6274
  C  C41  1  0.741300  0.683480  0.039620  1.0  0.6175
  C  C42  1  0.593720  0.737020  0.028150  1.0  0.6391
  C  C43  1  0.104820  0.379720  0.411580  1.0  0.5886
  C  C44  1  0.144090  0.508510  0.418910  1.0  0.6183
  C  C45  1  0.306770  0.290700  0.772230  1.0  0.5954
  C  C46  1  0.337210  0.286230  0.666380  1.0  0.5561
  C  C47  1  0.573000  0.317480  0.839480  1.0  0.5252
  C  C48  1  0.606830  0.314200  0.733420  1.0  0.5247
  C  C49  1  0.491580  0.266930  0.051770  1.0  0.6498
  C  C50  1  0.642340  0.222130  0.065480  1.0  0.5523
  C  C51  1  0.446590  0.118470  0.941730  1.0  0.5881
  C  C52  1  0.490960  0.990620  0.937540  1.0  0.6276
  C  C53  1  0.758700  0.316520  0.539620  1.0  0.616
  C  C54  1  0.906280  0.262980  0.528150  1.0  0.6393
  C  C55  1  0.395180  0.620280  0.911580  1.0  0.589
  C  C56  1  0.355910  0.491490  0.918910  1.0  0.6182
  N  N57  1  0.827290  0.207060  0.174880  1.0  -0.4529
  N  N58  1  0.885550  0.217080  0.377840  1.0  -0.519
  N  N59  1  0.774030  0.209370  0.286710  1.0  -0.5237
  N  N60  1  0.024180  0.188380  0.116500  1.0  -0.4907
  N  N61  1  0.089270  0.191980  0.320350  1.0  -0.4504
  N  N62  1  0.135440  0.175960  0.207160  1.0  -0.5046
  N  N63  1  0.930330  0.200270  0.972710  1.0  -0.5482
  N  N64  1  0.222180  0.285330  0.947480  1.0  -0.5184
  N  N65  1  0.053700  0.273330  0.915730  1.0  -0.4912
  N  N66  1  0.902930  0.326440  0.069250  1.0  -0.5738
  N  N67  1  0.991420  0.573840  0.076030  1.0  -0.4455
  N  N68  1  0.002840  0.438730  0.041980  1.0  -0.4156
  N  N69  1  0.176260  0.181170  0.461710  1.0  -0.5141
  N  N70  1  0.463280  0.284840  0.482240  1.0  -0.4578
  N  N71  1  0.352180  0.178030  0.457210  1.0  -0.4699
  N  N72  1  0.940050  0.824560  0.082810  1.0  -0.4775
  N  N73  1  0.864130  0.073370  0.069680  1.0  -0.4989
  N  N74  1  0.835400  0.937010  0.096880  1.0  -0.4777
  N  N75  1  0.672710  0.792940  0.674880  1.0  -0.4534
  N  N76  1  0.614450  0.782920  0.877840  1.0  -0.519
  N  N77  1  0.725970  0.790630  0.786710  1.0  -0.5208
  N  N78  1  0.475820  0.811620  0.616500  1.0  -0.4915
  N  N79  1  0.410730  0.808020  0.820350  1.0  -0.4502
  N  N80  1  0.364560  0.824040  0.707160  1.0  -0.5087
  N  N81  1  0.569670  0.799730  0.472710  1.0  -0.5475
  N  N82  1  0.277820  0.714670  0.447480  1.0  -0.5187
  N  N83  1  0.446300  0.726670  0.415730  1.0  -0.4903
  N  N84  1  0.597070  0.673560  0.569250  1.0  -0.5743
  N  N85  1  0.508580  0.426160  0.576030  1.0  -0.4466
  N  N86  1  0.497160  0.561270  0.541980  1.0  -0.4135
  N  N87  1  0.323740  0.818830  0.961710  1.0  -0.5158
  N  N88  1  0.036720  0.715160  0.982240  1.0  -0.4583
  N  N89  1  0.147820  0.821970  0.957210  1.0  -0.4705
  N  N90  1  0.559950  0.175440  0.582810  1.0  -0.4792
  N  N91  1  0.635870  0.926630  0.569680  1.0  -0.4992
  N  N92  1  0.664600  0.062990  0.596880  1.0  -0.4783
  N  N93  1  0.172710  0.707060  0.325120  1.0  -0.4523
  N  N94  1  0.114450  0.717080  0.122160  1.0  -0.5191
  N  N95  1  0.225970  0.709370  0.213290  1.0  -0.5209
  N  N96  1  0.975820  0.688380  0.383500  1.0  -0.4921
  N  N97  1  0.910730  0.691980  0.179650  1.0  -0.4492
  N  N98  1  0.864560  0.675960  0.292840  1.0  -0.5093
  N  N99  1  0.069670  0.700270  0.527290  1.0  -0.5469
  N  N100  1  0.777820  0.785330  0.552520  1.0  -0.5184
  N  N101  1  0.946300  0.773330  0.584270  1.0  -0.4878
  N  N102  1  0.097070  0.826440  0.430750  1.0  -0.5724
  N  N103  1  0.008580  0.073840  0.423970  1.0  -0.4456
  N  N104  1  0.997160  0.938730  0.458020  1.0  -0.4139
  N  N105  1  0.823740  0.681170  0.038290  1.0  -0.5165
  N  N106  1  0.536720  0.784840  0.017760  1.0  -0.4601
  N  N107  1  0.647820  0.678030  0.042790  1.0  -0.4703
  N  N108  1  0.059950  0.324560  0.417190  1.0  -0.4786
  N  N109  1  0.135870  0.573370  0.430320  1.0  -0.498
  N  N110  1  0.164600  0.437010  0.403120  1.0  -0.4778
  N  N111  1  0.327290  0.292940  0.825120  1.0  -0.4519
  N  N112  1  0.385550  0.282920  0.622160  1.0  -0.5189
  N  N113  1  0.274030  0.290630  0.713290  1.0  -0.5242
  N  N114  1  0.524180  0.311620  0.883500  1.0  -0.4928
  N  N115  1  0.589270  0.308020  0.679650  1.0  -0.4499
  N  N116  1  0.635440  0.324040  0.792840  1.0  -0.5047
  N  N117  1  0.430330  0.299730  0.027290  1.0  -0.5485
  N  N118  1  0.722180  0.214670  0.052520  1.0  -0.5179
  N  N119  1  0.553700  0.226670  0.084270  1.0  -0.4889
  N  N120  1  0.402930  0.173560  0.930750  1.0  -0.5736
  N  N121  1  0.491420  0.926160  0.923970  1.0  -0.4469
  N  N122  1  0.502840  0.061270  0.958020  1.0  -0.4157
  N  N123  1  0.676260  0.318830  0.538290  1.0  -0.5176
  N  N124  1  0.963280  0.215160  0.517760  1.0  -0.458
  N  N125  1  0.852180  0.321970  0.542790  1.0  -0.469
  N  N126  1  0.440050  0.675440  0.917190  1.0  -0.4801
  N  N127  1  0.364130  0.426630  0.930320  1.0  -0.4991
  N  N128  1  0.335400  0.562990  0.903120  1.0  -0.4764
