# generated using pymatgen
data_MnH3(CO2)3
_symmetry_space_group_name_H-M   'P 1'
_cell_length_a   8.92600000
_cell_length_b   12.76700000
_cell_length_c   9.19600000
_cell_angle_alpha   90.00000000
_cell_angle_beta   90.00000000
_cell_angle_gamma   90.00000000
_symmetry_Int_Tables_number   1
_chemical_formula_structural   MnH3(CO2)3
_chemical_formula_sum   'Mn4 H12 C12 O24'
_cell_volume   1047.95999343
_cell_formula_units_Z   4
loop_
 _symmetry_equiv_pos_site_id
 _symmetry_equiv_pos_as_xyz
  1  'x, y, z'
loop_
 _atom_site_type_symbol
 _atom_site_label
 _atom_site_symmetry_multiplicity
 _atom_site_fract_x
 _atom_site_fract_y
 _atom_site_fract_z
 _atom_site_occupancy
 _atom_site_charge
  Mn  Mn1  1  0.500000  0.500000  0.500000  1.0  0.9046
  Mn  Mn2  1  0.000000  0.500000  0.000000  1.0  0.9046
  Mn  Mn3  1  0.500000  0.000000  0.500000  1.0  0.9046
  Mn  Mn4  1  0.000000  0.000000  0.000000  1.0  0.9046
  H  H5  1  0.319800  0.523400  0.196000  1.0  0.0822
  H  H6  1  0.180200  0.476600  0.696000  1.0  0.0801
  H  H7  1  0.680200  0.023400  0.804000  1.0  0.0814
  H  H8  1  0.819800  0.976600  0.304000  1.0  0.0815
  H  H9  1  0.680200  0.476600  0.804000  1.0  0.0805
  H  H10  1  0.819800  0.523400  0.304000  1.0  0.082
  H  H11  1  0.319800  0.976600  0.196000  1.0  0.0812
  H  H12  1  0.180200  0.023400  0.696000  1.0  0.0814
  H  H13  1  0.498300  0.750000  0.576100  1.0  0.0721
  H  H14  1  0.001700  0.250000  0.076100  1.0  0.0719
  H  H15  1  0.501700  0.250000  0.423900  1.0  0.0743
  H  H16  1  0.998300  0.750000  0.923900  1.0  0.0743
  C  C17  1  0.254850  0.482510  0.251120  1.0  0.732
  C  C18  1  0.245150  0.517490  0.751120  1.0  0.7308
  C  C19  1  0.745150  0.982510  0.748880  1.0  0.7332
  C  C20  1  0.754850  0.017490  0.248880  1.0  0.7313
  C  C21  1  0.745150  0.517490  0.748880  1.0  0.7303
  C  C22  1  0.754850  0.482510  0.248880  1.0  0.7326
  C  C23  1  0.254850  0.017490  0.251120  1.0  0.7296
  C  C24  1  0.245150  0.982510  0.751120  1.0  0.7322
  C  C25  1  0.488300  0.750000  0.475400  1.0  0.7098
  C  C26  1  0.011700  0.250000  0.975400  1.0  0.7107
  C  C27  1  0.511700  0.250000  0.524600  1.0  0.7091
  C  C28  1  0.988300  0.750000  0.024600  1.0  0.7085
  O  O29  1  0.482750  0.663300  0.419540  1.0  -0.5476
  O  O30  1  0.298500  0.458250  0.374820  1.0  -0.5455
  O  O31  1  0.134850  0.458490  0.192990  1.0  -0.5653
  O  O32  1  0.017250  0.336700  0.919540  1.0  -0.5469
  O  O33  1  0.201500  0.541750  0.874820  1.0  -0.5456
  O  O34  1  0.365150  0.541510  0.692990  1.0  -0.5647
  O  O35  1  0.517250  0.163300  0.580460  1.0  -0.5468
  O  O36  1  0.701500  0.958250  0.625180  1.0  -0.5437
  O  O37  1  0.865150  0.958490  0.807010  1.0  -0.564
  O  O38  1  0.982750  0.836700  0.080460  1.0  -0.547
  O  O39  1  0.798500  0.041750  0.125180  1.0  -0.5441
  O  O40  1  0.634850  0.041510  0.307010  1.0  -0.5647
  O  O41  1  0.517250  0.336700  0.580460  1.0  -0.5465
  O  O42  1  0.701500  0.541750  0.625180  1.0  -0.5435
  O  O43  1  0.865150  0.541510  0.807010  1.0  -0.5639
  O  O44  1  0.982750  0.663300  0.080460  1.0  -0.547
  O  O45  1  0.798500  0.458250  0.125180  1.0  -0.5443
  O  O46  1  0.634850  0.458490  0.307010  1.0  -0.5653
  O  O47  1  0.482750  0.836700  0.419540  1.0  -0.5476
  O  O48  1  0.298500  0.041750  0.374820  1.0  -0.5458
  O  O49  1  0.134850  0.041510  0.192990  1.0  -0.5651
  O  O50  1  0.017250  0.163300  0.919540  1.0  -0.5472
  O  O51  1  0.201500  0.958250  0.874820  1.0  -0.5451
  O  O52  1  0.365150  0.958490  0.692990  1.0  -0.5641
