# generated using pymatgen
data_CuH24C25(NO)4
_symmetry_space_group_name_H-M   'P 1'
_cell_length_a   9.52680000
_cell_length_b   9.52680000
_cell_length_c   23.40100000
_cell_angle_alpha   90.00000000
_cell_angle_beta   90.00000000
_cell_angle_gamma   90.00000000
_symmetry_Int_Tables_number   1
_chemical_formula_structural   CuH24C25(NO)4
_chemical_formula_sum   'Cu2 H48 C50 N8 O8'
_cell_volume   2123.87284673
_cell_formula_units_Z   2
loop_
 _symmetry_equiv_pos_site_id
 _symmetry_equiv_pos_as_xyz
  1  'x, y, z'
loop_
 _atom_site_type_symbol
 _atom_site_label
 _atom_site_symmetry_multiplicity
 _atom_site_fract_x
 _atom_site_fract_y
 _atom_site_fract_z
 _atom_site_occupancy
 _atom_site_charge
  Cu  Cu1  1  0.500000  0.000000  0.750000  1.0  0.338
  Cu  Cu2  1  0.000000  0.500000  0.250000  1.0  0.338
  H  H3  1  0.997400  0.835600  0.941300  1.0  0.0425
  H  H4  1  0.878900  0.820400  0.987900  1.0  0.04
  H  H5  1  0.799500  0.680100  0.917100  1.0  0.1052
  H  H6  1  0.668300  0.572400  0.847700  1.0  0.0773
  H  H7  1  0.542800  0.698500  0.783100  1.0  0.0871
  H  H8  1  0.682000  0.048200  0.850700  1.0  0.0633
  H  H9  1  0.002600  0.164400  0.941300  1.0  0.0438
  H  H10  1  0.121100  0.179600  0.987900  1.0  0.0393
  H  H11  1  0.200500  0.319900  0.917100  1.0  0.1048
  H  H12  1  0.331700  0.427600  0.847700  1.0  0.0788
  H  H13  1  0.457200  0.301500  0.783100  1.0  0.0871
  H  H14  1  0.318000  0.951800  0.850700  1.0  0.0632
  H  H15  1  0.835600  0.002600  0.058700  1.0  0.0451
  H  H16  1  0.820400  0.121100  0.012100  1.0  0.0413
  H  H17  1  0.680100  0.200500  0.082900  1.0  0.1039
  H  H18  1  0.572400  0.331700  0.152300  1.0  0.0793
  H  H19  1  0.698500  0.457200  0.216900  1.0  0.0867
  H  H20  1  0.048200  0.318000  0.149300  1.0  0.0617
  H  H21  1  0.164400  0.997400  0.058700  1.0  0.0441
  H  H22  1  0.179600  0.878900  0.012100  1.0  0.0408
  H  H23  1  0.319900  0.799500  0.082900  1.0  0.1047
  H  H24  1  0.427600  0.668300  0.152300  1.0  0.077
  H  H25  1  0.301500  0.542800  0.216900  1.0  0.0869
  H  H26  1  0.951800  0.682000  0.149300  1.0  0.0622
  H  H27  1  0.497400  0.664400  0.441300  1.0  0.0438
  H  H28  1  0.378900  0.679600  0.487900  1.0  0.04
  H  H29  1  0.299500  0.819900  0.417100  1.0  0.1049
  H  H30  1  0.168300  0.927600  0.347700  1.0  0.0789
  H  H31  1  0.042800  0.801500  0.283100  1.0  0.0865
  H  H32  1  0.182000  0.451800  0.350700  1.0  0.063
  H  H33  1  0.502600  0.335600  0.441300  1.0  0.0428
  H  H34  1  0.621100  0.320400  0.487900  1.0  0.0397
  H  H35  1  0.700500  0.180100  0.417100  1.0  0.1046
  H  H36  1  0.831700  0.072400  0.347700  1.0  0.0772
  H  H37  1  0.957200  0.198500  0.283100  1.0  0.0865
  H  H38  1  0.818000  0.548200  0.350700  1.0  0.0631
  H  H39  1  0.335600  0.497400  0.558700  1.0  0.0448
  H  H40  1  0.320400  0.378900  0.512100  1.0  0.0407
  H  H41  1  0.180100  0.299500  0.582900  1.0  0.104
  H  H42  1  0.072400  0.168300  0.652300  1.0  0.0795
  H  H43  1  0.198500  0.042800  0.716900  1.0  0.0863
  H  H44  1  0.548200  0.182000  0.649300  1.0  0.0616
  H  H45  1  0.664400  0.502600  0.558700  1.0  0.0441
  H  H46  1  0.679600  0.621100  0.512100  1.0  0.0416
  H  H47  1  0.819900  0.700500  0.582900  1.0  0.1048
  H  H48  1  0.927600  0.831700  0.652300  1.0  0.0769
  H  H49  1  0.801500  0.957200  0.716900  1.0  0.0861
  H  H50  1  0.451800  0.818000  0.649300  1.0  0.062
  C  C51  1  0.928300  0.886500  0.963610  1.0  0.0472
  C  C52  1  0.757100  0.876700  0.889780  1.0  0.2661
  C  C53  1  0.751200  0.732600  0.890000  1.0  -0.2112
  C  C54  1  0.671900  0.669900  0.849080  1.0  -0.1247
  C  C55  1  0.597500  0.744900  0.810070  1.0  0.0803
  C  C56  1  0.679800  0.950700  0.849800  1.0  0.0874
  C  C57  1  0.071700  0.113500  0.963610  1.0  0.0479
  C  C58  1  0.242900  0.123300  0.889780  1.0  0.2657
  C  C59  1  0.248800  0.267400  0.890000  1.0  -0.2118
  C  C60  1  0.328100  0.330100  0.849080  1.0  -0.1213
  C  C61  1  0.402500  0.255100  0.810070  1.0  0.0802
  C  C62  1  0.320200  0.049300  0.849800  1.0  0.0864
  C  C63  1  0.886500  0.071700  0.036390  1.0  0.0475
  C  C64  1  0.876700  0.242900  0.110220  1.0  0.2664
  C  C65  1  0.732600  0.248800  0.110000  1.0  -0.2117
  C  C66  1  0.669900  0.328100  0.150920  1.0  -0.12
  C  C67  1  0.744900  0.402500  0.189930  1.0  0.0825
  C  C68  1  0.950700  0.320200  0.150200  1.0  0.0853
  C  C69  1  0.113500  0.928300  0.036390  1.0  0.048
  C  C70  1  0.123300  0.757100  0.110220  1.0  0.2657
  C  C71  1  0.267400  0.751200  0.110000  1.0  -0.2102
  C  C72  1  0.330100  0.671900  0.150920  1.0  -0.1181
  C  C73  1  0.255100  0.597500  0.189930  1.0  0.0841
  C  C74  1  0.049300  0.679800  0.150200  1.0  0.0856
  C  C75  1  0.428300  0.613500  0.463610  1.0  0.0487
  C  C76  1  0.257100  0.623300  0.389780  1.0  0.2665
  C  C77  1  0.251200  0.767400  0.390000  1.0  -0.2109
  C  C78  1  0.171900  0.830100  0.349080  1.0  -0.1214
  C  C79  1  0.097500  0.755100  0.310070  1.0  0.0797
  C  C80  1  0.179800  0.549300  0.349800  1.0  0.0866
  C  C81  1  0.571700  0.386500  0.463610  1.0  0.0473
  C  C82  1  0.742900  0.376700  0.389780  1.0  0.2655
  C  C83  1  0.748800  0.232600  0.390000  1.0  -0.212
  C  C84  1  0.828100  0.169900  0.349080  1.0  -0.1249
  C  C85  1  0.902500  0.244900  0.310070  1.0  0.0809
  C  C86  1  0.820200  0.450700  0.349800  1.0  0.0873
  C  C87  1  0.386500  0.428300  0.536390  1.0  0.0481
  C  C88  1  0.376700  0.257100  0.610220  1.0  0.2662
  C  C89  1  0.232600  0.251200  0.610000  1.0  -0.2114
  C  C90  1  0.169900  0.171900  0.650920  1.0  -0.1201
  C  C91  1  0.244900  0.097500  0.689930  1.0  0.084
  C  C92  1  0.450700  0.179800  0.650200  1.0  0.0853
  C  C93  1  0.613500  0.571700  0.536390  1.0  0.0476
  C  C94  1  0.623300  0.742900  0.610220  1.0  0.2659
  C  C95  1  0.767400  0.748800  0.610000  1.0  -0.2108
  C  C96  1  0.830100  0.828100  0.650920  1.0  -0.1183
  C  C97  1  0.755100  0.902500  0.689930  1.0  0.0823
  C  C98  1  0.549300  0.820200  0.650200  1.0  0.0854
  C  C99  1  0.000000  0.000000  0.000000  1.0  -0.0737
  C  C100  1  0.500000  0.500000  0.500000  1.0  -0.0737
  N  N101  1  0.602600  0.887300  0.810270  1.0  -0.3366
  N  N102  1  0.397400  0.112700  0.810270  1.0  -0.3368
  N  N103  1  0.887300  0.397400  0.189730  1.0  -0.3385
  N  N104  1  0.112700  0.602600  0.189730  1.0  -0.3383
  N  N105  1  0.102600  0.612700  0.310270  1.0  -0.3373
  N  N106  1  0.897400  0.387300  0.310270  1.0  -0.3364
  N  N107  1  0.387300  0.102600  0.689730  1.0  -0.3389
  N  N108  1  0.612700  0.897400  0.689730  1.0  -0.3378
  O  O109  1  0.831700  0.957800  0.926720  1.0  -0.2923
  O  O110  1  0.168300  0.042200  0.926720  1.0  -0.2946
  O  O111  1  0.957800  0.168300  0.073280  1.0  -0.2951
  O  O112  1  0.042200  0.831700  0.073280  1.0  -0.2949
  O  O113  1  0.331700  0.542200  0.426720  1.0  -0.294
  O  O114  1  0.668300  0.457800  0.426720  1.0  -0.2924
  O  O115  1  0.457800  0.331700  0.573280  1.0  -0.295
  O  O116  1  0.542200  0.668300  0.573280  1.0  -0.2942
