# generated using pymatgen
data_Ni3H40C55(NO3)5
_symmetry_space_group_name_H-M   'P 1'
_cell_length_a   13.14400000
_cell_length_b   16.13950000
_cell_length_c   17.36530000
_cell_angle_alpha   112.25800000
_cell_angle_beta   104.01300000
_cell_angle_gamma   96.65000000
_symmetry_Int_Tables_number   1
_chemical_formula_structural   Ni3H40C55(NO3)5
_chemical_formula_sum   'Ni6 H80 C110 N10 O30'
_cell_volume   3218.33221210
_cell_formula_units_Z   2
loop_
 _symmetry_equiv_pos_site_id
 _symmetry_equiv_pos_as_xyz
  1  'x, y, z'
loop_
 _atom_site_type_symbol
 _atom_site_label
 _atom_site_symmetry_multiplicity
 _atom_site_fract_x
 _atom_site_fract_y
 _atom_site_fract_z
 _atom_site_occupancy
 _atom_site_charge
  Ni  Ni1  1  0.327170  0.727330  0.322220  1.0  0.7363
  Ni  Ni2  1  0.672830  0.272670  0.677780  1.0  0.7334
  Ni  Ni3  1  0.919300  0.271950  0.301790  1.0  0.8416
  Ni  Ni4  1  0.877030  0.727150  0.770350  1.0  0.7773
  Ni  Ni5  1  0.122970  0.272850  0.229650  1.0  0.7686
  Ni  Ni6  1  0.080700  0.728050  0.698210  1.0  0.8412
  H  H7  1  0.337900  0.377200  0.589700  1.0  0.1179
  H  H8  1  0.572400  0.036600  0.910000  1.0  0.108
  H  H9  1  0.528600  0.263400  0.791900  1.0  0.0863
  H  H10  1  0.603200  0.836100  0.202200  1.0  0.1288
  H  H11  1  0.112800  0.413200  0.894500  1.0  0.1088
  H  H12  1  0.571800  0.581800  0.789100  1.0  0.1292
  H  H13  1  0.762500  0.092600  0.446600  1.0  0.1288
  H  H14  1  0.305500  0.039300  0.297600  1.0  0.1182
  H  H15  1  0.200000  0.807900  0.277600  1.0  0.3812
  H  H16  1  0.938700  0.056100  0.974800  1.0  0.1145
  H  H17  1  0.155700  0.373300  0.154800  1.0  0.438
  H  H18  1  0.379900  0.771400  0.668800  1.0  0.0902
  H  H19  1  0.547400  0.716800  0.413000  1.0  0.0849
  H  H20  1  0.425900  0.123600  0.433400  1.0  0.1135
  H  H21  1  0.347000  0.262800  0.317600  1.0  0.0753
  H  H22  1  0.502400  0.353800  0.424700  1.0  0.1141
  H  H23  1  0.826400  0.695500  0.377200  1.0  0.1229
  H  H24  1  0.132400  0.791300  0.562500  1.0  0.078
  H  H25  1  0.428200  0.418200  0.210900  1.0  0.1295
  H  H26  1  0.620100  0.228600  0.331200  1.0  0.0904
  H  H27  1  0.978700  0.467400  0.578600  1.0  0.1106
  H  H28  1  0.685800  0.136800  0.045900  1.0  0.1181
  H  H29  1  0.452600  0.283200  0.587000  1.0  0.0848
  H  H30  1  0.061300  0.943900  0.025200  1.0  0.117
  H  H31  1  0.502100  0.138300  0.191800  1.0  0.1174
  H  H32  1  0.396800  0.163900  0.797800  1.0  0.129
  H  H33  1  0.199600  0.377900  0.768900  1.0  0.1163
  H  H34  1  0.399400  0.979500  0.567000  1.0  0.1188
  H  H35  1  0.093800  0.231400  0.353300  1.0  0.4107
  H  H36  1  0.699900  0.268600  0.182600  1.0  0.0841
  H  H37  1  0.181300  0.728400  0.009500  1.0  0.0895
  H  H38  1  0.818700  0.271600  0.990500  1.0  0.0903
  H  H39  1  0.662100  0.622800  0.410300  1.0  0.1182
  H  H40  1  0.207300  0.467500  0.372200  1.0  0.0843
  H  H41  1  0.800400  0.622100  0.231100  1.0  0.1163
  H  H42  1  0.465500  0.913600  0.429500  1.0  0.0871
  H  H43  1  0.126300  0.288400  0.143300  1.0  0.3004
  H  H44  1  0.426200  0.646400  0.818900  1.0  0.1298
  H  H45  1  0.471400  0.736600  0.208100  1.0  0.087
  H  H46  1  0.497900  0.861700  0.808200  1.0  0.1154
  H  H47  1  0.867600  0.208700  0.437500  1.0  0.0785
  H  H48  1  0.638200  0.436400  0.524900  1.0  0.1157
  H  H49  1  0.326400  0.039700  0.814800  1.0  0.1284
  H  H50  1  0.320900  0.521600  0.218600  1.0  0.0798
  H  H51  1  0.716100  0.180800  0.632800  1.0  0.2939
  H  H52  1  0.679100  0.478400  0.781400  1.0  0.0811
  H  H53  1  0.792700  0.532500  0.627800  1.0  0.0852
  H  H54  1  0.300100  0.731400  0.817400  1.0  0.085
  H  H55  1  0.974400  0.840500  0.731700  1.0  0.4103
  H  H56  1  0.361800  0.563600  0.475100  1.0  0.1161
  H  H57  1  0.147300  0.647700  0.862600  1.0  0.1099
  H  H58  1  0.154700  0.580700  0.571400  1.0  0.0768
  H  H59  1  0.427600  0.963400  0.090000  1.0  0.109
  H  H60  1  0.653000  0.737200  0.682400  1.0  0.0748
  H  H61  1  0.887200  0.586800  0.105500  1.0  0.1082
  H  H62  1  0.155900  0.497700  0.043500  1.0  0.1113
  H  H63  1  0.800000  0.192100  0.722400  1.0  0.3832
  H  H64  1  0.021300  0.532600  0.421400  1.0  0.1105
  H  H65  1  0.573800  0.353600  0.181100  1.0  0.1297
  H  H66  1  0.025600  0.159500  0.268300  1.0  0.4088
  H  H67  1  0.216600  0.921400  0.814100  1.0  0.0753
  H  H68  1  0.534500  0.086400  0.570500  1.0  0.0861
  H  H69  1  0.873700  0.711600  0.856700  1.0  0.2934
  H  H70  1  0.845300  0.419300  0.428600  1.0  0.0777
  H  H71  1  0.237500  0.907400  0.553400  1.0  0.1283
  H  H72  1  0.906200  0.768600  0.646700  1.0  0.4118
  H  H73  1  0.283900  0.819200  0.367200  1.0  0.2942
  H  H74  1  0.844100  0.502300  0.956500  1.0  0.1114
  H  H75  1  0.844300  0.626700  0.845200  1.0  0.4367
  H  H76  1  0.173600  0.304500  0.622800  1.0  0.1219
  H  H77  1  0.694500  0.960700  0.702400  1.0  0.1187
  H  H78  1  0.574100  0.876400  0.566600  1.0  0.114
  H  H79  1  0.497600  0.646200  0.575300  1.0  0.1138
  H  H80  1  0.314200  0.863200  0.954100  1.0  0.1185
  H  H81  1  0.673600  0.960300  0.185200  1.0  0.1289
  H  H82  1  0.728700  0.512500  0.435000  1.0  0.1207
  H  H83  1  0.783400  0.078600  0.185900  1.0  0.0751
  H  H84  1  0.852700  0.352300  0.137400  1.0  0.1111
  H  H85  1  0.600600  0.020500  0.433000  1.0  0.1184
  H  H86  1  0.271300  0.487500  0.565000  1.0  0.1193
  C  C87  1  0.828100  0.376700  0.957900  1.0  -0.0699
  C  C88  1  0.493300  0.898000  0.382800  1.0  0.1706
  C  C89  1  0.223000  0.917600  0.760700  1.0  0.1697
  C  C90  1  0.101000  0.824300  0.888000  1.0  0.6616
  C  C91  1  0.389500  0.077500  0.228800  1.0  0.0484
  C  C92  1  0.379800  0.058000  0.681900  1.0  0.0976
  C  C93  1  0.871100  0.522900  0.082600  1.0  -0.1299
  C  C94  1  0.864800  0.051400  0.962500  1.0  -0.0095
  C  C95  1  0.205100  0.013500  0.118500  1.0  -0.0776
  C  C96  1  0.799300  0.318200  0.861500  1.0  0.7061
  C  C97  1  0.407000  0.400100  0.629600  1.0  -0.1855
  C  C98  1  0.577300  0.854300  0.250000  1.0  -0.2183
  C  C99  1  0.128900  0.477100  0.917400  1.0  -0.1277
  C  C100  1  0.826800  0.158500  0.385800  1.0  0.1857
  C  C101  1  0.860400  0.648000  0.356600  1.0  -0.072
  C  C102  1  0.496800  0.795200  0.253700  1.0  0.1783
  C  C103  1  0.315800  0.017200  0.141200  1.0  0.0241
  C  C104  1  0.792000  0.407900  0.377200  1.0  0.1675
  C  C105  1  0.148300  0.616400  0.898000  1.0  -0.157
  C  C106  1  0.635600  0.446300  0.307200  1.0  0.0803
  C  C107  1  0.422700  0.145700  0.750000  1.0  -0.2191
  C  C108  1  0.894000  0.532100  0.234400  1.0  0.0391
  C  C109  1  0.354000  0.960300  0.077300  1.0  -0.1206
  C  C110  1  0.441500  0.126600  0.384900  1.0  -0.0508
  C  C111  1  0.486200  0.135500  0.240300  1.0  -0.1051
  C  C112  1  0.831100  0.335400  0.013600  1.0  -0.027
  C  C113  1  0.706500  0.319500  0.233800  1.0  0.1837
  C  C114  1  0.523600  0.656000  0.371300  1.0  0.172
  C  C115  1  0.369500  0.075800  0.303400  1.0  -0.07
  C  C116  1  0.714100  0.100700  0.004200  1.0  -0.0698
  C  C117  1  0.651400  0.676000  0.649500  1.0  0.1863
  C  C118  1  0.841200  0.913600  0.824800  1.0  0.684
  C  C119  1  0.629900  0.370300  0.232400  1.0  -0.1758
  C  C120  1  0.442100  0.811400  0.676000  1.0  -0.0806
  C  C121  1  0.825600  0.108600  0.024500  1.0  -0.0937
  C  C122  1  0.557200  0.621300  0.585200  1.0  -0.1874
  C  C123  1  0.550400  0.529800  0.535100  1.0  0.0608
  C  C124  1  0.171900  0.623300  0.042100  1.0  -0.0697
  C  C125  1  0.851700  0.383600  0.102000  1.0  -0.1596
  C  C126  1  0.442800  0.378700  0.414800  1.0  -0.1888
  C  C127  1  0.424300  0.037000  0.614300  1.0  -0.2006
  C  C128  1  0.639700  0.498300  0.554700  1.0  -0.166
  C  C129  1  0.152700  0.527700  0.006900  1.0  -0.0928
  C  C130  1  0.593000  0.599900  0.370400  1.0  -0.1869
  C  C131  1  0.288700  0.989400  0.762300  1.0  -0.1888
  C  C132  1  0.732100  0.556200  0.617900  1.0  0.1644
  C  C133  1  0.438800  0.491600  0.690000  1.0  0.1086
  C  C134  1  0.871400  0.480400  0.139200  1.0  0.0873
  C  C135  1  0.506700  0.102000  0.617200  1.0  0.1691
  C  C136  1  0.967600  0.557500  0.737300  1.0  0.674
  C  C137  1  0.158800  0.086400  0.175200  1.0  0.6835
  C  C138  1  0.763500  0.089000  0.392000  1.0  -0.2285
  C  C139  1  0.847300  0.472300  0.993100  1.0  -0.0945
  C  C140  1  0.390400  0.541900  0.257700  1.0  0.1839
  C  C141  1  0.646000  0.039700  0.922700  1.0  -0.1242
  C  C142  1  0.513800  0.864500  0.759700  1.0  -0.102
  C  C143  1  0.701400  0.013800  0.317000  1.0  0.1117
  C  C144  1  0.348600  0.324000  0.350500  1.0  0.1866
  C  C145  1  0.630500  0.924200  0.696600  1.0  -0.0791
  C  C146  1  0.139600  0.352000  0.643400  1.0  -0.0716
  C  C147  1  0.684200  0.982800  0.858800  1.0  0.025
  C  C148  1  0.173200  0.841500  0.614200  1.0  0.1865
  C  C149  1  0.720800  0.463500  0.382100  1.0  -0.209
  C  C150  1  0.777000  0.082400  0.239300  1.0  0.1712
  C  C151  1  0.926500  0.622700  0.415400  1.0  -0.1389
  C  C152  1  0.293500  0.680500  0.766200  1.0  0.184
  C  C153  1  0.135200  0.948600  0.037500  1.0  -0.0103
  C  C154  1  0.899000  0.175700  0.112000  1.0  0.6619
  C  C155  1  0.168900  0.664600  0.986400  1.0  -0.0261
  C  C156  1  0.364400  0.553700  0.692800  1.0  0.0819
  C  C157  1  0.022300  0.448900  0.616900  1.0  -0.0582
  C  C158  1  0.454700  0.479000  0.252100  1.0  -0.1835
  C  C159  1  0.174400  0.891400  0.975500  1.0  -0.0941
  C  C160  1  0.106000  0.467900  0.765600  1.0  0.0413
  C  C161  1  0.236500  0.911000  0.608000  1.0  -0.2287
  C  C162  1  0.128600  0.519600  0.860800  1.0  0.0877
  C  C163  1  0.032400  0.442500  0.262700  1.0  0.6758
  C  C164  1  0.476400  0.344000  0.628700  1.0  0.171
  C  C165  1  0.061600  0.331100  0.487800  1.0  0.646
  C  C166  1  0.575700  0.963000  0.385700  1.0  -0.2014
  C  C167  1  0.963300  0.508300  0.294500  1.0  -0.0983
  C  C168  1  0.208000  0.592100  0.622800  1.0  0.1682
  C  C169  1  0.298600  0.986200  0.683000  1.0  0.114
  C  C170  1  0.279200  0.536500  0.617900  1.0  -0.2097
  C  C171  1  0.360300  0.501700  0.445300  1.0  -0.1616
  C  C172  1  0.711300  0.010600  0.237700  1.0  -0.1849
  C  C173  1  0.200700  0.681800  0.138500  1.0  0.7073
  C  C174  1  0.285900  0.899300  0.995800  1.0  -0.0689
  C  C175  1  0.977700  0.551100  0.383100  1.0  -0.0585
  C  C176  1  0.794900  0.986500  0.881500  1.0  -0.0778
  C  C177  1  0.381300  0.765200  0.514800  1.0  0.6739
  C  C178  1  0.537400  0.182500  0.396600  1.0  -0.0872
  C  C179  1  0.073500  0.377300  0.584600  1.0  -0.1381
  C  C180  1  0.618700  0.234800  0.485200  1.0  0.6744
  C  C181  1  0.462600  0.817500  0.603400  1.0  -0.0861
  C  C182  1  0.267900  0.443800  0.382100  1.0  0.1639
  C  C183  1  0.610500  0.922500  0.771200  1.0  0.0486
  C  C184  1  0.545300  0.521000  0.747900  1.0  -0.1873
  C  C185  1  0.370100  0.629700  0.767600  1.0  -0.1762
  C  C186  1  0.561200  0.508400  0.310000  1.0  0.1027
  C  C187  1  0.036700  0.491700  0.705500  1.0  -0.0989
  C  C188  1  0.557900  0.188600  0.324000  1.0  -0.0812
  C  C189  1  0.558500  0.873400  0.615100  1.0  -0.0507
  C  C190  1  0.620200  0.942000  0.318100  1.0  0.0973
  C  C191  1  0.845100  0.603800  0.269000  1.0  -0.0962
  C  C192  1  0.938400  0.668900  0.512200  1.0  0.6458
  C  C193  1  0.449600  0.470200  0.464900  1.0  0.0613
  C  C194  1  0.609600  0.458100  0.742300  1.0  0.1836
  C  C195  1  0.154900  0.396200  0.731000  1.0  -0.098
  C  C196  1  0.503200  0.204800  0.746300  1.0  0.1785
  N  N197  1  0.421800  0.629400  0.315400  1.0  -0.3122
  N  N198  1  0.739900  0.646000  0.666800  1.0  -0.3095
  N  N199  1  0.578200  0.370600  0.684600  1.0  -0.3108
  N  N200  1  0.790700  0.339200  0.304800  1.0  -0.3079
  N  N201  1  0.452800  0.815900  0.317600  1.0  -0.2873
  N  N202  1  0.260100  0.354000  0.333200  1.0  -0.3109
  N  N203  1  0.547200  0.184100  0.682400  1.0  -0.2895
  N  N204  1  0.166300  0.841500  0.689100  1.0  -0.3061
  N  N205  1  0.833700  0.158500  0.310900  1.0  -0.3053
  N  N206  1  0.209300  0.660800  0.695200  1.0  -0.3099
  O  O207  1  0.014300  0.656100  0.564300  1.0  -0.5699
  O  O208  1  0.181300  0.329000  0.153600  1.0  -0.7242
  O  O209  1  0.818700  0.671000  0.846400  1.0  -0.737
  O  O210  1  0.832400  0.247500  0.838700  1.0  -0.576
  O  O211  1  0.945400  0.783400  0.700100  1.0  -0.807
  O  O212  1  0.002600  0.807100  0.879700  1.0  -0.5899
  O  O213  1  0.028700  0.369900  0.275400  1.0  -0.667
  O  O214  1  0.197900  0.167700  0.191100  1.0  -0.5559
  O  O215  1  0.692600  0.299300  0.497000  1.0  -0.6075
  O  O216  1  0.997400  0.192900  0.120300  1.0  -0.5909
  O  O217  1  0.856100  0.208100  0.171100  1.0  -0.5798
  O  O218  1  0.971300  0.630100  0.724600  1.0  -0.6669
  O  O219  1  0.760300  0.168700  0.669400  1.0  -0.7803
  O  O220  1  0.607100  0.209500  0.543900  1.0  -0.6221
  O  O221  1  0.143900  0.791900  0.828900  1.0  -0.5803
  O  O222  1  0.167600  0.752500  0.161300  1.0  -0.5757
  O  O223  1  0.097700  0.468400  0.230300  1.0  -0.5853
  O  O224  1  0.084100  0.059700  0.201700  1.0  -0.6051
  O  O225  1  0.802100  0.832300  0.808900  1.0  -0.5565
  O  O226  1  0.902300  0.531600  0.769700  1.0  -0.5835
  O  O227  1  0.261700  0.658100  0.189800  1.0  -0.5813
  O  O228  1  0.307400  0.700700  0.503000  1.0  -0.6076
  O  O229  1  0.873400  0.716900  0.533900  1.0  -0.6079
  O  O230  1  0.738300  0.341900  0.810200  1.0  -0.5814
  O  O231  1  0.054600  0.216600  0.299900  1.0  -0.8083
  O  O232  1  0.915900  0.940300  0.798300  1.0  -0.605
  O  O233  1  0.126600  0.283100  0.466100  1.0  -0.6084
  O  O234  1  0.392900  0.790500  0.456100  1.0  -0.6196
  O  O235  1  0.985700  0.343900  0.435700  1.0  -0.5698
  O  O236  1  0.239700  0.831300  0.330600  1.0  -0.7808
