# generated using pymatgen
data_Cd3H16C30O13
_symmetry_space_group_name_H-M   'P 1'
_cell_length_a   10.79900000
_cell_length_b   18.16080000
_cell_length_c   19.68260000
_cell_angle_alpha   82.79460000
_cell_angle_beta   74.07800000
_cell_angle_gamma   72.70350000
_symmetry_Int_Tables_number   1
_chemical_formula_structural   Cd3H16C30O13
_chemical_formula_sum   'Cd12 H64 C120 O52'
_cell_volume   3540.12315653
_cell_formula_units_Z   4
loop_
 _symmetry_equiv_pos_site_id
 _symmetry_equiv_pos_as_xyz
  1  'x, y, z'
loop_
 _atom_site_type_symbol
 _atom_site_label
 _atom_site_symmetry_multiplicity
 _atom_site_fract_x
 _atom_site_fract_y
 _atom_site_fract_z
 _atom_site_occupancy
 _atom_site_charge
  Cd  Cd1  1  0.249150  0.750000  0.750000  1.0  0.7288
  Cd  Cd2  1  0.057020  0.633690  0.598550  1.0  1.0855
  Cd  Cd3  1  0.942980  0.366310  0.401450  1.0  1.0866
  Cd  Cd4  1  0.379260  0.939530  0.516680  1.0  1.0405
  Cd  Cd5  1  0.789260  0.866310  0.901450  1.0  1.0849
  Cd  Cd6  1  0.335470  0.560470  0.983320  1.0  1.0406
  Cd  Cd7  1  0.000000  0.500000  0.500000  1.0  1.2081
  Cd  Cd8  1  0.664530  0.439530  0.016680  1.0  1.0418
  Cd  Cd9  1  0.750850  0.250000  0.250000  1.0  0.7335
  Cd  Cd10  1  0.620740  0.060470  0.483320  1.0  1.0419
  Cd  Cd11  1  0.210740  0.133690  0.098550  1.0  1.086
  Cd  Cd12  1  0.500000  0.000000  0.000000  1.0  1.2081
  H  H13  1  0.435400  0.389200  0.822200  1.0  0.1205
  H  H14  1  0.171200  0.851600  0.235600  1.0  0.1126
  H  H15  1  0.690400  0.587700  0.394500  1.0  0.1101
  H  H16  1  0.544200  0.942200  0.723000  1.0  0.1278
  H  H17  1  0.853200  0.889200  0.322200  1.0  0.1214
  H  H18  1  0.728900  0.155900  0.673700  1.0  0.1293
  H  H19  1  0.357300  0.200600  0.768000  1.0  0.1155
  H  H20  1  0.487100  0.122000  0.837600  1.0  0.1144
  H  H21  1  0.512900  0.878000  0.162400  1.0  0.115
  H  H22  1  0.360700  0.826100  0.056300  1.0  0.1197
  H  H23  1  0.172500  0.979500  0.763900  1.0  0.1186
  H  H24  1  0.487600  0.596000  0.474800  1.0  0.1159
  H  H25  1  0.564600  0.610800  0.177800  1.0  0.1207
  H  H26  1  0.946700  0.378000  0.662400  1.0  0.1139
  H  H27  1  0.146800  0.110800  0.677800  1.0  0.1211
  H  H28  1  0.765700  0.249000  0.870600  1.0  0.1272
  H  H29  1  0.415900  0.520500  0.736100  1.0  0.1183
  H  H30  1  0.616300  0.515000  0.654600  1.0  0.1083
  H  H31  1  0.882300  0.927900  0.653700  1.0  0.1202
  H  H32  1  0.036100  0.427900  0.153700  1.0  0.1215
  H  H33  1  0.827400  0.087700  0.894500  1.0  0.1114
  H  H34  1  0.285900  0.985000  0.845400  1.0  0.1085
  H  H35  1  0.290600  0.442200  0.223000  1.0  0.1281
  H  H36  1  0.827500  0.020500  0.236100  1.0  0.1181
  H  H37  1  0.614700  0.749000  0.370600  1.0  0.1276
  H  H38  1  0.234300  0.751000  0.129400  1.0  0.1281
  H  H39  1  0.174100  0.700600  0.268000  1.0  0.1159
  H  H40  1  0.053300  0.622000  0.337600  1.0  0.1138
  H  H41  1  0.941500  0.655900  0.173700  1.0  0.1296
  H  H42  1  0.383700  0.485000  0.345400  1.0  0.1086
  H  H43  1  0.714100  0.015000  0.154600  1.0  0.1085
  H  H44  1  0.642700  0.799400  0.232000  1.0  0.1161
  H  H45  1  0.032300  0.253800  0.388000  1.0  0.3916
  H  H46  1  0.828800  0.148400  0.764400  1.0  0.1132
  H  H47  1  0.709400  0.557800  0.777000  1.0  0.1295
  H  H48  1  0.309600  0.412300  0.605500  1.0  0.1098
  H  H49  1  0.011100  0.219900  0.329500  1.0  0.4607
  H  H50  1  0.058500  0.344100  0.826300  1.0  0.1303
  H  H51  1  0.692000  0.684300  0.103100  1.0  0.1221
  H  H52  1  0.455800  0.057800  0.277000  1.0  0.1283
  H  H53  1  0.963900  0.572100  0.846300  1.0  0.1219
  H  H54  1  0.941600  0.096000  0.974800  1.0  0.1167
  H  H55  1  0.639300  0.173900  0.943700  1.0  0.1203
  H  H56  1  0.241600  0.351600  0.735600  1.0  0.113
  H  H57  1  0.385300  0.251000  0.629400  1.0  0.1275
  H  H58  1  0.117700  0.072100  0.346300  1.0  0.1212
  H  H59  1  0.743100  0.673900  0.443700  1.0  0.1198
  H  H60  1  0.271100  0.844100  0.326300  1.0  0.1298
  H  H61  1  0.172600  0.912300  0.105500  1.0  0.1112
  H  H62  1  0.308000  0.315700  0.896900  1.0  0.1229
  H  H63  1  0.979400  0.815700  0.396900  1.0  0.1209
  H  H64  1  0.988900  0.780100  0.670500  1.0  0.4612
  H  H65  1  0.825900  0.299400  0.732000  1.0  0.1162
  H  H66  1  0.825900  0.753800  0.888000  1.0  0.3893
  H  H67  1  0.512400  0.404000  0.525200  1.0  0.1161
  H  H68  1  0.256900  0.326100  0.556300  1.0  0.1196
  H  H69  1  0.758400  0.648400  0.264400  1.0  0.1127
  H  H70  1  0.939500  0.719900  0.829500  1.0  0.4617
  H  H71  1  0.060500  0.280100  0.170500  1.0  0.4619
  H  H72  1  0.967700  0.746200  0.612000  1.0  0.3905
  H  H73  1  0.584100  0.479500  0.263900  1.0  0.1197
  H  H74  1  0.058400  0.904000  0.025200  1.0  0.1168
  H  H75  1  0.020600  0.184300  0.603100  1.0  0.1202
  H  H76  1  0.174100  0.246200  0.112000  1.0  0.3891
  C  C77  1  0.129270  0.261160  0.569500  1.0  -0.1374
  C  C78  1  0.280360  0.546810  0.470670  1.0  0.7336
  C  C79  1  0.988390  0.072180  0.932440  1.0  0.0019
  C  C80  1  0.717070  0.828830  0.341030  1.0  0.0338
  C  C81  1  0.920010  0.067650  0.884130  1.0  -0.114
  C  C82  1  0.527860  0.898470  0.199410  1.0  -0.0277
  C  C83  1  0.828940  0.846810  0.347910  1.0  -0.0791
  C  C84  1  0.847690  0.388780  0.255440  1.0  0.7109
  C  C85  1  0.780300  0.108530  0.687670  1.0  -0.0346
  C  C86  1  0.506430  0.994320  0.731820  1.0  -0.0573
  C  C87  1  0.493010  0.427820  0.567560  1.0  -0.002
  C  C88  1  0.545200  0.494650  0.871150  1.0  0.6963
  C  C89  1  0.687020  0.763120  0.376440  1.0  -0.1053
  C  C90  1  0.125480  0.002780  0.806460  1.0  -0.0891
  C  C91  1  0.874040  0.451400  0.905720  1.0  0.6893
  C  C92  1  0.597380  0.218260  0.920580  1.0  -0.0667
  C  C93  1  0.079990  0.932350  0.115870  1.0  -0.1146
  C  C94  1  0.125960  0.548600  0.094280  1.0  0.6909
  C  C95  1  0.399750  0.302660  0.892440  1.0  -0.0403
  C  C96  1  0.312980  0.236880  0.623560  1.0  -0.1062
  C  C97  1  0.007260  0.542450  0.153430  1.0  -0.1493
  C  C98  1  0.186020  0.396250  0.757710  1.0  -0.0806
  C  C99  1  0.203140  0.957550  0.346570  1.0  -0.1471
  C  C100  1  0.236220  0.281740  0.579420  1.0  -0.0714
  C  C101  1  0.193620  0.006410  0.855150  1.0  0.0034
  C  C102  1  0.083040  0.966580  0.234740  1.0  0.036
  C  C103  1  0.918660  0.527720  0.666760  1.0  0.6675
  C  C104  1  0.870590  0.466910  0.231510  1.0  -0.0673
  C  C105  1  0.402620  0.781740  0.079420  1.0  -0.0647
  C  C106  1  0.198300  0.648620  0.258580  1.0  -0.1055
  C  C107  1  0.267430  0.494320  0.231820  1.0  -0.0572
  C  C108  1  0.129410  0.533090  0.768490  1.0  -0.0669
  C  C109  1  0.202160  0.046810  0.970670  1.0  0.7187
  C  C110  1  0.011610  0.927820  0.067560  1.0  -0.0003
  C  C111  1  0.980120  0.472340  0.176020  1.0  -0.0248
  C  C112  1  0.813980  0.603750  0.242290  1.0  -0.0839
  C  C113  1  0.600250  0.697340  0.107560  1.0  -0.0382
  C  C114  1  0.658850  0.533470  0.320030  1.0  0.0474
  C  C115  1  0.930990  0.966910  0.731510  1.0  -0.0654
  C  C116  1  0.375840  0.196570  0.984550  1.0  0.7001
  C  C117  1  0.493570  0.005680  0.268180  1.0  -0.0553
  C  C118  1  0.326580  0.736880  0.123560  1.0  -0.1059
  C  C119  1  0.797840  0.953190  0.029330  1.0  0.7187
  C  C120  1  0.840080  0.476270  0.711970  1.0  -0.1376
  C  C121  1  0.570850  0.958750  0.311350  1.0  -0.1035
  C  C122  1  0.692370  0.379960  0.797900  1.0  0.0474
  C  C123  1  0.268840  0.951400  0.405720  1.0  0.6938
  C  C124  1  0.160020  0.896250  0.257710  1.0  -0.0764
  C  C125  1  0.528320  0.023730  0.788030  1.0  -0.14
  C  C126  1  0.394500  0.148620  0.758580  1.0  -0.101
  C  C127  1  0.012350  0.966530  0.179970  1.0  0.0468
  C  C128  1  0.472140  0.101530  0.800590  1.0  -0.0268
  C  C129  1  0.340950  0.541250  0.188650  1.0  -0.1046
  C  C130  1  0.806380  0.993590  0.144850  1.0  0.0055
  C  C131  1  0.429150  0.041250  0.688650  1.0  -0.1042
  C  C132  1  0.923500  0.608530  0.187670  1.0  -0.0345
  C  C133  1  0.839980  0.103750  0.742290  1.0  -0.0795
  C  C134  1  0.673420  0.263120  0.876440  1.0  -0.1077
  C  C135  1  0.874020  0.958310  0.081450  1.0  -0.1514
  C  C136  1  0.128480  0.027660  0.323980  1.0  -0.0258
  C  C137  1  0.386860  0.027720  0.166760  1.0  0.6689
  C  C138  1  0.454800  0.505350  0.128850  1.0  0.6941
  C  C139  1  0.459930  0.238840  0.930500  1.0  -0.1412
  C  C140  1  0.094850  0.197340  0.607560  1.0  -0.0385
  C  C141  1  0.870730  0.738840  0.430500  1.0  -0.1365
  C  C142  1  0.624160  0.803430  0.015450  1.0  0.7002
  C  C143  1  0.874260  0.398470  0.699410  1.0  -0.0265
  C  C144  1  0.282930  0.171170  0.658970  1.0  0.0335
  C  C145  1  0.628210  0.567650  0.384130  1.0  -0.1162
  C  C146  1  0.992740  0.457550  0.846570  1.0  -0.1452
  C  C147  1  0.386930  0.671170  0.158970  1.0  0.0338
  C  C148  1  0.943040  0.696570  0.484550  1.0  0.7037
  C  C149  1  0.523660  0.653190  0.152090  1.0  -0.0792
  C  C150  1  0.784360  0.533420  0.265260  1.0  0.0382
  C  C151  1  0.444820  0.506410  0.355150  1.0  0.0054
  C  C152  1  0.613140  0.972280  0.833240  1.0  0.6673
  C  C153  1  0.215640  0.466580  0.734740  1.0  0.0394
  C  C154  1  0.019880  0.527660  0.823980  1.0  -0.0285
  C  C155  1  0.219700  0.891470  0.312330  1.0  -0.0319
  C  C156  1  0.307630  0.620040  0.202100  1.0  0.0466
  C  C157  1  0.471680  0.976270  0.211970  1.0  -0.1364
  C  C158  1  0.413780  0.541690  0.418550  1.0  -0.15
  C  C159  1  0.565280  0.502780  0.306460  1.0  -0.0864
  C  C160  1  0.411000  0.005350  0.628850  1.0  0.7001
  C  C161  1  0.341150  0.466530  0.679970  1.0  0.0472
  C  C162  1  0.125980  0.041690  0.918550  1.0  -0.1504
  C  C163  1  0.125740  0.601530  0.300590  1.0  -0.0356
  C  C164  1  0.008090  0.888780  0.755440  1.0  0.7117
  C  C165  1  0.506990  0.572180  0.432440  1.0  -0.0019
  C  C166  1  0.801700  0.351380  0.741420  1.0  -0.0964
  C  C167  1  0.916960  0.033420  0.765260  1.0  0.038
  C  C168  1  0.371790  0.432350  0.615870  1.0  -0.1136
  C  C169  1  0.586220  0.458310  0.581450  1.0  -0.151
  C  C170  1  0.555180  0.493590  0.644850  1.0  0.0052
  C  C171  1  0.370230  0.120040  0.702100  1.0  0.0474
  C  C172  1  0.874520  0.997220  0.193540  1.0  -0.0854
  C  C173  1  0.540070  0.761160  0.069500  1.0  -0.1403
  C  C174  1  0.605500  0.851380  0.241420  1.0  -0.0959
  C  C175  1  0.871520  0.972340  0.676020  1.0  -0.0238
  C  C176  1  0.991910  0.111220  0.244560  1.0  0.7032
  C  C177  1  0.659050  0.458750  0.811350  1.0  -0.1046
  C  C178  1  0.056960  0.303430  0.515450  1.0  0.7048
  C  C179  1  0.987650  0.033470  0.820030  1.0  0.0478
  C  C180  1  0.152310  0.611220  0.744560  1.0  0.7107
  C  C181  1  0.589000  0.994650  0.371150  1.0  0.7007
  C  C182  1  0.171060  0.153190  0.652090  1.0  -0.0782
  C  C183  1  0.905150  0.802660  0.392440  1.0  -0.0417
  C  C184  1  0.069010  0.033090  0.268490  1.0  -0.0661
  C  C185  1  0.732570  0.505680  0.768180  1.0  -0.0553
  C  C186  1  0.796860  0.042450  0.653430  1.0  -0.1477
  C  C187  1  0.476340  0.346810  0.847910  1.0  -0.0778
  C  C188  1  0.763780  0.718260  0.420580  1.0  -0.0722
  C  C189  1  0.434720  0.497220  0.693540  1.0  -0.0858
  C  C190  1  0.081340  0.472280  0.333240  1.0  0.6665
  C  C191  1  0.629770  0.879960  0.297900  1.0  0.0481
  C  C192  1  0.719640  0.453190  0.529330  1.0  0.7353
  C  C193  1  0.731160  0.048600  0.594280  1.0  0.6936
  C  C194  1  0.159920  0.523730  0.288030  1.0  -0.1378
  C  C195  1  0.076500  0.391470  0.812330  1.0  -0.0337
  C  C196  1  0.613070  0.328830  0.841030  1.0  0.0335
  O  O197  1  0.247450  0.592040  0.519660  1.0  -0.6125
  O  O198  1  0.985860  0.499780  0.385340  1.0  -0.6658
  O  O199  1  0.017610  0.725830  0.504150  1.0  -0.5756
  O  O200  1  0.078590  0.366790  0.487630  1.0  -0.7045
  O  O201  1  0.620330  0.056510  0.358830  1.0  -0.6182
  O  O202  1  0.140850  0.092040  0.019660  1.0  -0.6117
  O  O203  1  0.984080  0.867500  0.819120  1.0  -0.6406
  O  O204  1  0.566990  0.866790  0.987630  1.0  -0.7043
  O  O205  1  0.331340  0.097170  0.182150  1.0  -0.5741
  O  O206  1  0.052010  0.245550  0.344230  1.0  -0.777
  O  O207  1  0.015920  0.132500  0.180880  1.0  -0.6402
  O  O208  1  0.665910  0.113160  0.574780  1.0  -0.5648
  O  O209  1  0.743790  0.987550  0.564070  1.0  -0.6132
  O  O210  1  0.535670  0.443490  0.141170  1.0  -0.6172
  O  O211  1  0.982390  0.274170  0.495850  1.0  -0.5746
  O  O212  1  0.752550  0.407960  0.480340  1.0  -0.6127
  O  O213  1  0.464330  0.556510  0.858830  1.0  -0.618
  O  O214  1  0.014140  0.500220  0.614660  1.0  -0.6655
  O  O215  1  0.829300  0.367500  0.319120  1.0  -0.6418
  O  O216  1  0.334090  0.886840  0.425220  1.0  -0.5689
  O  O217  1  0.902710  0.152550  0.291430  1.0  -0.6473
  O  O218  1  0.141790  0.254450  0.155770  1.0  -0.7744
  O  O219  1  0.426510  0.037040  0.567000  1.0  -0.7504
  O  O220  1  0.211290  0.505390  0.460630  1.0  -0.6727
  O  O221  1  0.921410  0.633210  0.512370  1.0  -0.7056
  O  O222  1  0.668660  0.902830  0.817850  1.0  -0.572
  O  O223  1  0.530550  0.462960  0.933000  1.0  -0.7492
  O  O224  1  0.947990  0.754450  0.655770  1.0  -0.7761
  O  O225  1  0.858210  0.745550  0.844230  1.0  -0.7753
  O  O226  1  0.747590  0.774170  0.995850  1.0  -0.576
  O  O227  1  0.859150  0.907960  0.980340  1.0  -0.6113
  O  O228  1  0.629020  0.999780  0.885340  1.0  -0.6681
  O  O229  1  0.853850  0.386840  0.925220  1.0  -0.5638
  O  O230  1  0.573490  0.962960  0.433000  1.0  -0.7499
  O  O231  1  0.433010  0.133210  0.012370  1.0  -0.7059
  O  O232  1  0.110660  0.402830  0.317850  1.0  -0.5732
  O  O233  1  0.846690  0.347450  0.208570  1.0  -0.6487
  O  O234  1  0.322690  0.005390  0.960630  1.0  -0.6721
  O  O235  1  0.170700  0.632500  0.680880  1.0  -0.6414
  O  O236  1  0.097290  0.847450  0.708570  1.0  -0.6473
  O  O237  1  0.256210  0.012450  0.435930  1.0  -0.6137
  O  O238  1  0.146150  0.613160  0.074780  1.0  -0.5623
  O  O239  1  0.788710  0.494610  0.539370  1.0  -0.6738
  O  O240  1  0.153310  0.652550  0.791430  1.0  -0.651
  O  O241  1  0.379670  0.943490  0.641170  1.0  -0.6165
  O  O242  1  0.252410  0.225830  0.004150  1.0  -0.5743
  O  O243  1  0.795410  0.512450  0.935930  1.0  -0.612
  O  O244  1  0.204590  0.487550  0.064070  1.0  -0.6117
  O  O245  1  0.889340  0.597170  0.682150  1.0  -0.5748
  O  O246  1  0.370980  0.000220  0.114660  1.0  -0.6671
  O  O247  1  0.677310  0.994610  0.039370  1.0  -0.6739
  O  O248  1  0.469450  0.537040  0.067000  1.0  -0.7487
