# generated using pymatgen
data_Cu4H7C11S3N2O15
_symmetry_space_group_name_H-M   'P 1'
_cell_length_a   13.65420000
_cell_length_b   13.65420000
_cell_length_c   42.16000000
_cell_angle_alpha   90.00000000
_cell_angle_beta   90.00000000
_cell_angle_gamma   90.00000000
_symmetry_Int_Tables_number   1
_chemical_formula_structural   Cu4H7C11S3N2O15
_chemical_formula_sum   'Cu32 H56 C88 S24 N16 O120'
_cell_volume   7860.19140930
_cell_formula_units_Z   8
loop_
 _symmetry_equiv_pos_site_id
 _symmetry_equiv_pos_as_xyz
  1  'x, y, z'
loop_
 _atom_site_type_symbol
 _atom_site_label
 _atom_site_symmetry_multiplicity
 _atom_site_fract_x
 _atom_site_fract_y
 _atom_site_fract_z
 _atom_site_occupancy
 _atom_site_charge
  Cu  Cu1  1  0.557670  0.512790  0.279280  1.0  0.9893
  Cu  Cu2  1  0.723940  0.421800  0.236330  1.0  0.847
  Cu  Cu3  1  0.327720  0.541820  0.270360  1.0  0.9793
  Cu  Cu4  1  0.632340  0.848170  0.253980  1.0  0.9266
  Cu  Cu5  1  0.442330  0.487210  0.779280  1.0  0.9904
  Cu  Cu6  1  0.276060  0.578200  0.736330  1.0  0.8468
  Cu  Cu7  1  0.672280  0.458180  0.770360  1.0  0.979
  Cu  Cu8  1  0.367660  0.151830  0.753980  1.0  0.9241
  Cu  Cu9  1  0.987210  0.057670  0.029280  1.0  0.9903
  Cu  Cu10  1  0.078200  0.223940  0.986330  1.0  0.8474
  Cu  Cu11  1  0.958180  0.827720  0.020360  1.0  0.9786
  Cu  Cu12  1  0.651830  0.132340  0.003980  1.0  0.9222
  Cu  Cu13  1  0.012790  0.942330  0.529280  1.0  0.9896
  Cu  Cu14  1  0.921800  0.776060  0.486330  1.0  0.8474
  Cu  Cu15  1  0.041820  0.172280  0.520360  1.0  0.9798
  Cu  Cu16  1  0.348170  0.867660  0.503980  1.0  0.9217
  Cu  Cu17  1  0.942330  0.012790  0.470720  1.0  0.9914
  Cu  Cu18  1  0.776060  0.921800  0.513670  1.0  0.8471
  Cu  Cu19  1  0.172280  0.041820  0.479640  1.0  0.9797
  Cu  Cu20  1  0.867660  0.348170  0.496020  1.0  0.9219
  Cu  Cu21  1  0.057670  0.987210  0.970720  1.0  0.9897
  Cu  Cu22  1  0.223940  0.078200  0.013670  1.0  0.8467
  Cu  Cu23  1  0.827720  0.958180  0.979640  1.0  0.9791
  Cu  Cu24  1  0.132340  0.651830  0.996020  1.0  0.9239
  Cu  Cu25  1  0.512790  0.557670  0.720720  1.0  0.9899
  Cu  Cu26  1  0.421800  0.723940  0.763670  1.0  0.8476
  Cu  Cu27  1  0.541820  0.327720  0.729640  1.0  0.9796
  Cu  Cu28  1  0.848170  0.632340  0.746020  1.0  0.9246
  Cu  Cu29  1  0.487210  0.442330  0.220720  1.0  0.9915
  Cu  Cu30  1  0.578200  0.276060  0.263670  1.0  0.8471
  Cu  Cu31  1  0.458180  0.672280  0.229640  1.0  0.9799
  Cu  Cu32  1  0.151830  0.367660  0.246020  1.0  0.9261
  H  H33  1  0.891200  0.563600  0.505900  1.0  0.0585
  H  H34  1  0.976400  0.687400  0.427600  1.0  0.135
  H  H35  1  0.944800  0.398800  0.433000  1.0  0.1107
  H  H36  1  0.107900  0.639600  0.395200  1.0  0.1484
  H  H37  1  0.170200  0.623700  0.345600  1.0  0.1382
  H  H38  1  0.986400  0.402400  0.327600  1.0  0.139
  H  H39  1  0.920800  0.421300  0.377800  1.0  0.138
  H  H40  1  0.108800  0.436400  0.005900  1.0  0.0581
  H  H41  1  0.023600  0.312600  0.927600  1.0  0.1347
  H  H42  1  0.055200  0.601200  0.933000  1.0  0.1118
  H  H43  1  0.892100  0.360400  0.895200  1.0  0.148
  H  H44  1  0.829800  0.376300  0.845600  1.0  0.1378
  H  H45  1  0.013600  0.597600  0.827600  1.0  0.1393
  H  H46  1  0.079200  0.578700  0.877800  1.0  0.1385
  H  H47  1  0.936400  0.391200  0.255900  1.0  0.0582
  H  H48  1  0.812600  0.476400  0.177600  1.0  0.1341
  H  H49  1  0.101200  0.444800  0.183000  1.0  0.1104
  H  H50  1  0.860400  0.607900  0.145200  1.0  0.1483
  H  H51  1  0.876300  0.670200  0.095600  1.0  0.1382
  H  H52  1  0.097600  0.486400  0.077600  1.0  0.1397
  H  H53  1  0.078700  0.420800  0.127800  1.0  0.138
  H  H54  1  0.063600  0.608800  0.755900  1.0  0.0581
  H  H55  1  0.187400  0.523600  0.677600  1.0  0.1338
  H  H56  1  0.898800  0.555200  0.683000  1.0  0.1104
  H  H57  1  0.139600  0.392100  0.645200  1.0  0.1485
  H  H58  1  0.123700  0.329800  0.595600  1.0  0.1378
  H  H59  1  0.902400  0.513600  0.577600  1.0  0.1395
  H  H60  1  0.921300  0.579200  0.627800  1.0  0.138
  H  H61  1  0.608800  0.063600  0.244100  1.0  0.0589
  H  H62  1  0.523600  0.187400  0.322400  1.0  0.1347
  H  H63  1  0.555200  0.898800  0.317000  1.0  0.1112
  H  H64  1  0.392100  0.139600  0.354800  1.0  0.1483
  H  H65  1  0.329800  0.123700  0.404400  1.0  0.1383
  H  H66  1  0.513600  0.902400  0.422400  1.0  0.1393
  H  H67  1  0.579200  0.921300  0.372200  1.0  0.1384
  H  H68  1  0.391200  0.936400  0.744100  1.0  0.0595
  H  H69  1  0.476400  0.812600  0.822400  1.0  0.1346
  H  H70  1  0.444800  0.101200  0.817000  1.0  0.1111
  H  H71  1  0.607900  0.860400  0.854800  1.0  0.1485
  H  H72  1  0.670200  0.876300  0.904400  1.0  0.1378
  H  H73  1  0.486400  0.097600  0.922400  1.0  0.1388
  H  H74  1  0.420800  0.078700  0.872200  1.0  0.1379
  H  H75  1  0.563600  0.891200  0.494100  1.0  0.0586
  H  H76  1  0.687400  0.976400  0.572400  1.0  0.134
  H  H77  1  0.398800  0.944800  0.567000  1.0  0.1099
  H  H78  1  0.639600  0.107900  0.604800  1.0  0.1487
  H  H79  1  0.623700  0.170200  0.654400  1.0  0.1379
  H  H80  1  0.402400  0.986400  0.672400  1.0  0.1396
  H  H81  1  0.421300  0.920800  0.622200  1.0  0.1377
  H  H82  1  0.436400  0.108800  0.994100  1.0  0.0588
  H  H83  1  0.312600  0.023600  0.072400  1.0  0.1338
  H  H84  1  0.601200  0.055200  0.067000  1.0  0.1099
  H  H85  1  0.360400  0.892100  0.104800  1.0  0.1482
  H  H86  1  0.376300  0.829800  0.154400  1.0  0.1375
  H  H87  1  0.597600  0.013600  0.172400  1.0  0.1393
  H  H88  1  0.578700  0.079200  0.122200  1.0  0.1379
  C  C89  1  0.910000  0.557800  0.484760  1.0  0.3576
  C  C90  1  0.961600  0.630900  0.438970  1.0  0.1703
  C  C91  1  0.969700  0.540800  0.424450  1.0  0.1163
  C  C92  1  0.942300  0.460600  0.442180  1.0  0.1095
  C  C93  1  0.008700  0.530500  0.392050  1.0  0.1023
  C  C94  1  0.083400  0.591500  0.381710  1.0  -0.1243
  C  C95  1  0.120700  0.581600  0.352210  1.0  0.0007
  C  C96  1  0.086700  0.509800  0.331390  1.0  -0.1316
  C  C97  1  0.011200  0.450000  0.341200  1.0  -0.0227
  C  C98  1  0.972300  0.461200  0.371360  1.0  -0.0897
  C  C99  1  0.135000  0.494900  0.300460  1.0  0.7509
  C  C100  1  0.090000  0.442200  0.984760  1.0  0.3575
  C  C101  1  0.038400  0.369100  0.938970  1.0  0.1697
  C  C102  1  0.030300  0.459200  0.924450  1.0  0.1165
  C  C103  1  0.057700  0.539400  0.942180  1.0  0.1091
  C  C104  1  0.991300  0.469500  0.892050  1.0  0.1023
  C  C105  1  0.916600  0.408500  0.881710  1.0  -0.1237
  C  C106  1  0.879300  0.418400  0.852210  1.0  0.0007
  C  C107  1  0.913300  0.490200  0.831390  1.0  -0.1324
  C  C108  1  0.988800  0.550000  0.841200  1.0  -0.0225
  C  C109  1  0.027700  0.538800  0.871360  1.0  -0.0892
  C  C110  1  0.865000  0.505100  0.800460  1.0  0.7509
  C  C111  1  0.942200  0.410000  0.234760  1.0  0.3556
  C  C112  1  0.869100  0.461600  0.188970  1.0  0.1706
  C  C113  1  0.959200  0.469700  0.174450  1.0  0.1189
  C  C114  1  0.039400  0.442300  0.192180  1.0  0.11
  C  C115  1  0.969500  0.508700  0.142050  1.0  0.1021
  C  C116  1  0.908500  0.583400  0.131710  1.0  -0.1249
  C  C117  1  0.918400  0.620700  0.102210  1.0  0.0014
  C  C118  1  0.990200  0.586700  0.081390  1.0  -0.1337
  C  C119  1  0.050000  0.511200  0.091200  1.0  -0.0225
  C  C120  1  0.038800  0.472300  0.121360  1.0  -0.0913
  C  C121  1  0.005100  0.635000  0.050460  1.0  0.75
  C  C122  1  0.057800  0.590000  0.734760  1.0  0.3553
  C  C123  1  0.130900  0.538400  0.688970  1.0  0.1702
  C  C124  1  0.040800  0.530300  0.674450  1.0  0.1183
  C  C125  1  0.960600  0.557700  0.692180  1.0  0.109
  C  C126  1  0.030500  0.491300  0.642050  1.0  0.1024
  C  C127  1  0.091500  0.416600  0.631710  1.0  -0.1238
  C  C128  1  0.081600  0.379300  0.602210  1.0  0.0021
  C  C129  1  0.009800  0.413300  0.581390  1.0  -0.1341
  C  C130  1  0.950000  0.488800  0.591200  1.0  -0.0223
  C  C131  1  0.961200  0.527700  0.621360  1.0  -0.0914
  C  C132  1  0.994900  0.365000  0.550460  1.0  0.7501
  C  C133  1  0.590000  0.057800  0.265240  1.0  0.359
  C  C134  1  0.538400  0.130900  0.311030  1.0  0.1697
  C  C135  1  0.530300  0.040800  0.325550  1.0  0.1163
  C  C136  1  0.557700  0.960600  0.307820  1.0  0.1099
  C  C137  1  0.491300  0.030500  0.357950  1.0  0.1028
  C  C138  1  0.416600  0.091500  0.368290  1.0  -0.1243
  C  C139  1  0.379300  0.081600  0.397790  1.0  0.0004
  C  C140  1  0.413300  0.009800  0.418610  1.0  -0.132
  C  C141  1  0.488800  0.950000  0.408800  1.0  -0.0228
  C  C142  1  0.527700  0.961200  0.378640  1.0  -0.0894
  C  C143  1  0.365000  0.994900  0.449540  1.0  0.7517
  C  C144  1  0.410000  0.942200  0.765240  1.0  0.3595
  C  C145  1  0.461600  0.869100  0.811030  1.0  0.1705
  C  C146  1  0.469700  0.959200  0.825550  1.0  0.1161
  C  C147  1  0.442300  0.039400  0.807820  1.0  0.1088
  C  C148  1  0.508700  0.969500  0.857950  1.0  0.1028
  C  C149  1  0.583400  0.908500  0.868290  1.0  -0.1242
  C  C150  1  0.620700  0.918400  0.897790  1.0  0.0008
  C  C151  1  0.586700  0.990200  0.918610  1.0  -0.1311
  C  C152  1  0.511200  0.050000  0.908800  1.0  -0.0239
  C  C153  1  0.472300  0.038800  0.878640  1.0  -0.0889
  C  C154  1  0.635000  0.005100  0.949540  1.0  0.7512
  C  C155  1  0.557800  0.910000  0.515240  1.0  0.3558
  C  C156  1  0.630900  0.961600  0.561030  1.0  0.1709
  C  C157  1  0.540800  0.969700  0.575550  1.0  0.1181
  C  C158  1  0.460600  0.942300  0.557820  1.0  0.1093
  C  C159  1  0.530500  0.008700  0.607950  1.0  0.1028
  C  C160  1  0.591500  0.083400  0.618290  1.0  -0.1241
  C  C161  1  0.581600  0.120700  0.647790  1.0  0.0015
  C  C162  1  0.509800  0.086700  0.668610  1.0  -0.1339
  C  C163  1  0.450000  0.011200  0.658800  1.0  -0.022
  C  C164  1  0.461200  0.972300  0.628640  1.0  -0.0902
  C  C165  1  0.494900  0.135000  0.699540  1.0  0.7512
  C  C166  1  0.442200  0.090000  0.015240  1.0  0.3582
  C  C167  1  0.369100  0.038400  0.061030  1.0  0.1703
  C  C168  1  0.459200  0.030300  0.075550  1.0  0.1187
  C  C169  1  0.539400  0.057700  0.057820  1.0  0.1101
  C  C170  1  0.469500  0.991300  0.107950  1.0  0.1027
  C  C171  1  0.408500  0.916600  0.118290  1.0  -0.1238
  C  C172  1  0.418400  0.879300  0.147790  1.0  0.0026
  C  C173  1  0.490200  0.913300  0.168610  1.0  -0.1337
  C  C174  1  0.550000  0.988800  0.158800  1.0  -0.0232
  C  C175  1  0.538800  0.027700  0.128640  1.0  -0.0911
  C  C176  1  0.505100  0.865000  0.199540  1.0  0.7503
  S  S177  1  0.715540  0.386350  0.308210  1.0  1.6628
  S  S178  1  0.460420  0.699800  0.300740  1.0  1.6205
  S  S179  1  0.686420  0.648600  0.215500  1.0  1.7039
  S  S180  1  0.284460  0.613650  0.808210  1.0  1.6647
  S  S181  1  0.539580  0.300200  0.800740  1.0  1.6218
  S  S182  1  0.313580  0.351400  0.715500  1.0  1.7038
  S  S183  1  0.113650  0.215540  0.058210  1.0  1.6653
  S  S184  1  0.800200  0.960420  0.050740  1.0  1.621
  S  S185  1  0.851400  0.186420  0.965500  1.0  1.7039
  S  S186  1  0.886350  0.784460  0.558210  1.0  1.6638
  S  S187  1  0.199800  0.039580  0.550740  1.0  1.6218
  S  S188  1  0.148600  0.813580  0.465500  1.0  1.7043
  S  S189  1  0.784460  0.886350  0.441790  1.0  1.664
  S  S190  1  0.039580  0.199800  0.449260  1.0  1.6227
  S  S191  1  0.813580  0.148600  0.534500  1.0  1.7034
  S  S192  1  0.215540  0.113650  0.941790  1.0  1.6617
  S  S193  1  0.960420  0.800200  0.949260  1.0  1.6225
  S  S194  1  0.186420  0.851400  0.034500  1.0  1.7036
  S  S195  1  0.386350  0.715540  0.691790  1.0  1.6646
  S  S196  1  0.699800  0.460420  0.699260  1.0  1.6232
  S  S197  1  0.648600  0.686420  0.784500  1.0  1.7037
  S  S198  1  0.613650  0.284460  0.191790  1.0  1.663
  S  S199  1  0.300200  0.539580  0.199260  1.0  1.6222
  S  S200  1  0.351400  0.313580  0.284500  1.0  1.7035
  N  N201  1  0.932740  0.638290  0.469260  1.0  -0.2802
  N  N202  1  0.912300  0.469120  0.472130  1.0  -0.3179
  N  N203  1  0.067260  0.361710  0.969260  1.0  -0.2801
  N  N204  1  0.087700  0.530880  0.972130  1.0  -0.3191
  N  N205  1  0.861710  0.432740  0.219260  1.0  -0.2788
  N  N206  1  0.030880  0.412300  0.222130  1.0  -0.3244
  N  N207  1  0.138290  0.567260  0.719260  1.0  -0.2808
  N  N208  1  0.969120  0.587700  0.722130  1.0  -0.321
  N  N209  1  0.567260  0.138290  0.280740  1.0  -0.28
  N  N210  1  0.587700  0.969120  0.277870  1.0  -0.3171
  N  N211  1  0.432740  0.861710  0.780740  1.0  -0.2806
  N  N212  1  0.412300  0.030880  0.777870  1.0  -0.3156
  N  N213  1  0.638290  0.932740  0.530740  1.0  -0.2809
  N  N214  1  0.469120  0.912300  0.527870  1.0  -0.3237
  N  N215  1  0.361710  0.067260  0.030740  1.0  -0.2782
  N  N216  1  0.530880  0.087700  0.027870  1.0  -0.3255
  O  O217  1  0.207800  0.548600  0.294460  1.0  -0.5876
  O  O218  1  0.100410  0.431100  0.283020  1.0  -0.5647
  O  O219  1  0.654000  0.474700  0.310650  1.0  -0.6861
  O  O220  1  0.778480  0.396700  0.280240  1.0  -0.7091
  O  O221  1  0.649500  0.301700  0.303910  1.0  -0.7068
  O  O222  1  0.773200  0.374000  0.336460  1.0  -0.5239
  O  O223  1  0.528300  0.618370  0.308320  1.0  -0.6841
  O  O224  1  0.360700  0.660300  0.296330  1.0  -0.6956
  O  O225  1  0.492600  0.745100  0.270590  1.0  -0.7882
  O  O226  1  0.461200  0.770300  0.325940  1.0  -0.5027
  O  O227  1  0.710000  0.578590  0.240870  1.0  -0.7217
  O  O228  1  0.696400  0.747900  0.229120  1.0  -0.7469
  O  O229  1  0.586100  0.633000  0.204830  1.0  -0.6799
  O  O230  1  0.753300  0.640300  0.188810  1.0  -0.6243
  O  O231  1  0.792200  0.451400  0.794460  1.0  -0.5881
  O  O232  1  0.899590  0.568900  0.783020  1.0  -0.5641
  O  O233  1  0.346000  0.525300  0.810650  1.0  -0.6882
  O  O234  1  0.221520  0.603300  0.780240  1.0  -0.7092
  O  O235  1  0.350500  0.698300  0.803910  1.0  -0.7091
  O  O236  1  0.226800  0.626000  0.836460  1.0  -0.5247
  O  O237  1  0.471700  0.381630  0.808320  1.0  -0.6834
  O  O238  1  0.639300  0.339700  0.796330  1.0  -0.6939
  O  O239  1  0.507400  0.254900  0.770590  1.0  -0.7877
  O  O240  1  0.538800  0.229700  0.825940  1.0  -0.5022
  O  O241  1  0.290000  0.421410  0.740870  1.0  -0.7218
  O  O242  1  0.303600  0.252100  0.729120  1.0  -0.7456
  O  O243  1  0.413900  0.367000  0.704830  1.0  -0.6794
  O  O244  1  0.246700  0.359700  0.688810  1.0  -0.623
  O  O245  1  0.951400  0.707800  0.044460  1.0  -0.5928
  O  O246  1  0.068900  0.600410  0.033020  1.0  -0.5644
  O  O247  1  0.025300  0.154000  0.060650  1.0  -0.6843
  O  O248  1  0.103300  0.278480  0.030240  1.0  -0.7098
  O  O249  1  0.198300  0.149500  0.053910  1.0  -0.7064
  O  O250  1  0.126000  0.273200  0.086460  1.0  -0.5242
  O  O251  1  0.881630  0.028300  0.058320  1.0  -0.6832
  O  O252  1  0.839700  0.860700  0.046330  1.0  -0.6988
  O  O253  1  0.754900  0.992600  0.020590  1.0  -0.7844
  O  O254  1  0.729700  0.961200  0.075940  1.0  -0.5033
  O  O255  1  0.921410  0.210000  0.990870  1.0  -0.7257
  O  O256  1  0.752100  0.196400  0.979120  1.0  -0.745
  O  O257  1  0.867000  0.086100  0.954830  1.0  -0.6823
  O  O258  1  0.859700  0.253300  0.938810  1.0  -0.6231
  O  O259  1  0.048600  0.292200  0.544460  1.0  -0.5907
  O  O260  1  0.931100  0.399590  0.533020  1.0  -0.5642
  O  O261  1  0.974700  0.846000  0.560650  1.0  -0.6824
  O  O262  1  0.896700  0.721520  0.530240  1.0  -0.7097
  O  O263  1  0.801700  0.850500  0.553910  1.0  -0.7056
  O  O264  1  0.874000  0.726800  0.586460  1.0  -0.5254
  O  O265  1  0.118370  0.971700  0.558320  1.0  -0.6862
  O  O266  1  0.160300  0.139300  0.546330  1.0  -0.6996
  O  O267  1  0.245100  0.007400  0.520590  1.0  -0.7855
  O  O268  1  0.270300  0.038800  0.575940  1.0  -0.5023
  O  O269  1  0.078590  0.790000  0.490870  1.0  -0.7238
  O  O270  1  0.247900  0.803600  0.479120  1.0  -0.7481
  O  O271  1  0.133000  0.913900  0.454830  1.0  -0.6815
  O  O272  1  0.140300  0.746700  0.438810  1.0  -0.6228
  O  O273  1  0.292200  0.048600  0.455540  1.0  -0.5878
  O  O274  1  0.399590  0.931100  0.466980  1.0  -0.5643
  O  O275  1  0.846000  0.974700  0.439350  1.0  -0.6895
  O  O276  1  0.721520  0.896700  0.469760  1.0  -0.7062
  O  O277  1  0.850500  0.801700  0.446090  1.0  -0.7084
  O  O278  1  0.726800  0.874000  0.413540  1.0  -0.5281
  O  O279  1  0.971700  0.118370  0.441680  1.0  -0.6819
  O  O280  1  0.139300  0.160300  0.453670  1.0  -0.6939
  O  O281  1  0.007400  0.245100  0.479410  1.0  -0.7876
  O  O282  1  0.038800  0.270300  0.424060  1.0  -0.5037
  O  O283  1  0.790000  0.078590  0.509130  1.0  -0.723
  O  O284  1  0.803600  0.247900  0.520880  1.0  -0.7457
  O  O285  1  0.913900  0.133000  0.545170  1.0  -0.6789
  O  O286  1  0.746700  0.140300  0.561190  1.0  -0.6245
  O  O287  1  0.707800  0.951400  0.955540  1.0  -0.587
  O  O288  1  0.600410  0.068900  0.966980  1.0  -0.5644
  O  O289  1  0.154000  0.025300  0.939350  1.0  -0.6862
  O  O290  1  0.278480  0.103300  0.969760  1.0  -0.707
  O  O291  1  0.149500  0.198300  0.946090  1.0  -0.7101
  O  O292  1  0.273200  0.126000  0.913540  1.0  -0.5274
  O  O293  1  0.028300  0.881630  0.941680  1.0  -0.6828
  O  O294  1  0.860700  0.839700  0.953670  1.0  -0.6946
  O  O295  1  0.992600  0.754900  0.979410  1.0  -0.7875
  O  O296  1  0.961200  0.729700  0.924060  1.0  -0.5048
  O  O297  1  0.210000  0.921410  0.009130  1.0  -0.7217
  O  O298  1  0.196400  0.752100  0.020880  1.0  -0.7452
  O  O299  1  0.086100  0.867000  0.045170  1.0  -0.6772
  O  O300  1  0.253300  0.859700  0.061190  1.0  -0.6236
  O  O301  1  0.548600  0.207800  0.705540  1.0  -0.5907
  O  O302  1  0.431100  0.100410  0.716980  1.0  -0.5642
  O  O303  1  0.474700  0.654000  0.689350  1.0  -0.6845
  O  O304  1  0.396700  0.778480  0.719760  1.0  -0.7071
  O  O305  1  0.301700  0.649500  0.696090  1.0  -0.7076
  O  O306  1  0.374000  0.773200  0.663540  1.0  -0.5286
  O  O307  1  0.618370  0.528300  0.691680  1.0  -0.6842
  O  O308  1  0.660300  0.360700  0.703670  1.0  -0.6989
  O  O309  1  0.745100  0.492600  0.729410  1.0  -0.7849
  O  O310  1  0.770300  0.461200  0.674060  1.0  -0.5042
  O  O311  1  0.578590  0.710000  0.759130  1.0  -0.7249
  O  O312  1  0.747900  0.696400  0.770880  1.0  -0.7462
  O  O313  1  0.633000  0.586100  0.795170  1.0  -0.6807
  O  O314  1  0.640300  0.753300  0.811190  1.0  -0.6239
  O  O315  1  0.451400  0.792200  0.205540  1.0  -0.592
  O  O316  1  0.568900  0.899590  0.216980  1.0  -0.5646
  O  O317  1  0.525300  0.346000  0.189350  1.0  -0.683
  O  O318  1  0.603300  0.221520  0.219760  1.0  -0.7077
  O  O319  1  0.698300  0.350500  0.196090  1.0  -0.7075
  O  O320  1  0.626000  0.226800  0.163540  1.0  -0.5285
  O  O321  1  0.381630  0.471700  0.191680  1.0  -0.682
  O  O322  1  0.339700  0.639300  0.203670  1.0  -0.7007
  O  O323  1  0.254900  0.507400  0.229410  1.0  -0.7837
  O  O324  1  0.229700  0.538800  0.174060  1.0  -0.5058
  O  O325  1  0.421410  0.290000  0.259130  1.0  -0.7257
  O  O326  1  0.252100  0.303600  0.270880  1.0  -0.7479
  O  O327  1  0.367000  0.413900  0.295170  1.0  -0.6808
  O  O328  1  0.359700  0.246700  0.311190  1.0  -0.6233
  O  O329  1  0.591060  0.408940  0.250000  1.0  -0.9974
  O  O330  1  0.453890  0.546110  0.250000  1.0  -1.0235
  O  O331  1  0.408940  0.591060  0.750000  1.0  -0.9968
  O  O332  1  0.546110  0.453890  0.750000  1.0  -1.0241
  O  O333  1  0.091060  0.091060  0.000000  1.0  -0.9971
  O  O334  1  0.953890  0.953890  0.000000  1.0  -1.0236
  O  O335  1  0.908940  0.908940  0.500000  1.0  -0.9971
  O  O336  1  0.046110  0.046110  0.500000  1.0  -1.024
