# generated using pymatgen
data_Cu5H8C20(N2O3)4
_symmetry_space_group_name_H-M   'P 1'
_cell_length_a   14.74500000
_cell_length_b   11.02400000
_cell_length_c   13.28700000
_cell_angle_alpha   90.00000000
_cell_angle_beta   97.27000000
_cell_angle_gamma   90.00000000
_symmetry_Int_Tables_number   1
_chemical_formula_structural   Cu5H8C20(N2O3)4
_chemical_formula_sum   'Cu10 H16 C40 N16 O24'
_cell_volume   2142.42409014
_cell_formula_units_Z   2
loop_
 _symmetry_equiv_pos_site_id
 _symmetry_equiv_pos_as_xyz
  1  'x, y, z'
loop_
 _atom_site_type_symbol
 _atom_site_label
 _atom_site_symmetry_multiplicity
 _atom_site_fract_x
 _atom_site_fract_y
 _atom_site_fract_z
 _atom_site_occupancy
 _atom_site_charge
  Cu  Cu1  1  0.014700  0.287420  0.233140  1.0  0.7461
  Cu  Cu2  1  0.314410  0.197300  0.236520  1.0  0.7778
  Cu  Cu3  1  0.985300  0.787420  0.266860  1.0  0.7455
  Cu  Cu4  1  0.685590  0.697300  0.263480  1.0  0.7785
  Cu  Cu5  1  0.985300  0.712580  0.766860  1.0  0.7456
  Cu  Cu6  1  0.685590  0.802700  0.763480  1.0  0.7783
  Cu  Cu7  1  0.014700  0.212580  0.733140  1.0  0.7461
  Cu  Cu8  1  0.314410  0.302700  0.736520  1.0  0.7776
  Cu  Cu9  1  0.500000  0.500000  0.000000  1.0  0.8777
  Cu  Cu10  1  0.500000  0.000000  0.500000  1.0  0.8777
  H  H11  1  0.198400  0.774600  0.287300  1.0  0.0766
  H  H12  1  0.312200  0.916300  0.268700  1.0  0.0635
  H  H13  1  0.217700  0.080500  0.032100  1.0  0.069
  H  H14  1  0.221700  0.123000  0.861900  1.0  0.0539
  H  H15  1  0.801600  0.274600  0.212700  1.0  0.0765
  H  H16  1  0.687800  0.416300  0.231300  1.0  0.0648
  H  H17  1  0.782300  0.580500  0.467900  1.0  0.0695
  H  H18  1  0.778300  0.623000  0.638100  1.0  0.0541
  H  H19  1  0.801600  0.225400  0.712700  1.0  0.077
  H  H20  1  0.687800  0.083700  0.731300  1.0  0.0647
  H  H21  1  0.782300  0.919500  0.967900  1.0  0.0694
  H  H22  1  0.778300  0.877000  0.138100  1.0  0.054
  H  H23  1  0.198400  0.725400  0.787300  1.0  0.0769
  H  H24  1  0.312200  0.583700  0.768700  1.0  0.064
  H  H25  1  0.217700  0.419500  0.532100  1.0  0.0696
  H  H26  1  0.221700  0.377000  0.361900  1.0  0.0544
  C  C27  1  0.141000  0.096100  0.233900  1.0  0.5347
  C  C28  1  0.073200  0.006900  0.242800  1.0  0.0521
  C  C29  1  0.973100  0.033500  0.230900  1.0  0.6601
  C  C30  1  0.182500  0.856800  0.272600  1.0  0.0826
  C  C31  1  0.250100  0.941500  0.261800  1.0  0.0989
  C  C32  1  0.353800  0.335800  0.952300  1.0  0.5421
  C  C33  1  0.350500  0.308100  0.056600  1.0  0.0503
  C  C34  1  0.399200  0.378800  0.143100  1.0  0.646
  C  C35  1  0.253200  0.146500  0.012900  1.0  0.066
  C  C36  1  0.255800  0.172200  0.911800  1.0  0.131
  C  C37  1  0.859000  0.596100  0.266100  1.0  0.5348
  C  C38  1  0.926800  0.506900  0.257200  1.0  0.0529
  C  C39  1  0.026900  0.533500  0.269100  1.0  0.6613
  C  C40  1  0.817500  0.356800  0.227400  1.0  0.0831
  C  C41  1  0.749900  0.441500  0.238200  1.0  0.0993
  C  C42  1  0.646200  0.835800  0.547700  1.0  0.5417
  C  C43  1  0.649500  0.808100  0.443400  1.0  0.0509
  C  C44  1  0.600800  0.878800  0.356900  1.0  0.6461
  C  C45  1  0.746800  0.646500  0.487100  1.0  0.0668
  C  C46  1  0.744200  0.672200  0.588200  1.0  0.1299
  C  C47  1  0.859000  0.903900  0.766100  1.0  0.5348
  C  C48  1  0.926800  0.993100  0.757200  1.0  0.0534
  C  C49  1  0.026900  0.966500  0.769100  1.0  0.6616
  C  C50  1  0.817500  0.143200  0.727400  1.0  0.0831
  C  C51  1  0.749900  0.058500  0.738200  1.0  0.0989
  C  C52  1  0.646200  0.664200  0.047700  1.0  0.5416
  C  C53  1  0.649500  0.691900  0.943400  1.0  0.0503
  C  C54  1  0.600800  0.621200  0.856900  1.0  0.6455
  C  C55  1  0.746800  0.853500  0.987100  1.0  0.0672
  C  C56  1  0.744200  0.827800  0.088200  1.0  0.1294
  C  C57  1  0.141000  0.403900  0.733900  1.0  0.5346
  C  C58  1  0.073200  0.493100  0.742800  1.0  0.0526
  C  C59  1  0.973100  0.466500  0.730900  1.0  0.6602
  C  C60  1  0.182500  0.643200  0.772600  1.0  0.0833
  C  C61  1  0.250100  0.558500  0.761800  1.0  0.099
  C  C62  1  0.353800  0.164200  0.452300  1.0  0.5421
  C  C63  1  0.350500  0.191900  0.556600  1.0  0.0504
  C  C64  1  0.399200  0.121200  0.643100  1.0  0.6465
  C  C65  1  0.253200  0.353500  0.512900  1.0  0.0657
  C  C66  1  0.255800  0.327800  0.411800  1.0  0.1307
  N  N67  1  0.229800  0.057800  0.242000  1.0  -0.3449
  N  N68  1  0.094900  0.891300  0.262200  1.0  -0.3665
  N  N69  1  0.301000  0.215000  0.083600  1.0  -0.3273
  N  N70  1  0.304900  0.264500  0.881800  1.0  -0.3238
  N  N71  1  0.770200  0.557800  0.258000  1.0  -0.3457
  N  N72  1  0.905100  0.391300  0.237800  1.0  -0.368
  N  N73  1  0.699000  0.715000  0.416400  1.0  -0.329
  N  N74  1  0.695100  0.764500  0.618200  1.0  -0.3253
  N  N75  1  0.770200  0.942200  0.758000  1.0  -0.346
  N  N76  1  0.905100  0.108700  0.737800  1.0  -0.3699
  N  N77  1  0.699000  0.785000  0.916400  1.0  -0.329
  N  N78  1  0.695100  0.735500  0.118200  1.0  -0.325
  N  N79  1  0.229800  0.442200  0.742000  1.0  -0.3454
  N  N80  1  0.094900  0.608700  0.762200  1.0  -0.3681
  N  N81  1  0.301000  0.285000  0.583600  1.0  -0.3281
  N  N82  1  0.304900  0.235500  0.381800  1.0  -0.3238
  O  O83  1  0.943000  0.138700  0.211900  1.0  -0.6277
  O  O84  1  0.920910  0.943300  0.239200  1.0  -0.5936
  O  O85  1  0.127900  0.209700  0.219900  1.0  -0.6737
  O  O86  1  0.386200  0.346100  0.230800  1.0  -0.5987
  O  O87  1  0.450200  0.465900  0.127300  1.0  -0.6195
  O  O88  1  0.398900  0.422500  0.919800  1.0  -0.6147
  O  O89  1  0.057000  0.638700  0.288100  1.0  -0.6262
  O  O90  1  0.079090  0.443300  0.260800  1.0  -0.5928
  O  O91  1  0.872100  0.709700  0.280100  1.0  -0.6744
  O  O92  1  0.613800  0.846100  0.269200  1.0  -0.5994
  O  O93  1  0.549800  0.965900  0.372700  1.0  -0.6183
  O  O94  1  0.601100  0.922500  0.580200  1.0  -0.6151
  O  O95  1  0.057000  0.861300  0.788100  1.0  -0.6271
  O  O96  1  0.079090  0.056700  0.760800  1.0  -0.5924
  O  O97  1  0.872100  0.790300  0.780100  1.0  -0.6736
  O  O98  1  0.613800  0.653900  0.769200  1.0  -0.5989
  O  O99  1  0.549800  0.534100  0.872700  1.0  -0.6179
  O  O100  1  0.601100  0.577500  0.080200  1.0  -0.6137
  O  O101  1  0.943000  0.361300  0.711900  1.0  -0.6282
  O  O102  1  0.920910  0.556700  0.739200  1.0  -0.5932
  O  O103  1  0.127900  0.290300  0.719900  1.0  -0.6742
  O  O104  1  0.386200  0.153900  0.730800  1.0  -0.5988
  O  O105  1  0.450200  0.034100  0.627300  1.0  -0.619
  O  O106  1  0.398900  0.077500  0.419800  1.0  -0.6135
