# generated using pymatgen
data_Co3H7C14(NO5)2
_symmetry_space_group_name_H-M   'P 1'
_cell_length_a   11.11930000
_cell_length_b   11.24730000
_cell_length_c   11.36200000
_cell_angle_alpha   75.65100000
_cell_angle_beta   66.11900000
_cell_angle_gamma   76.99100000
_symmetry_Int_Tables_number   1
_chemical_formula_structural   Co3H7C14(NO5)2
_chemical_formula_sum   'Co6 H14 C28 N4 O20'
_cell_volume   1246.22338893
_cell_formula_units_Z   2
loop_
 _symmetry_equiv_pos_site_id
 _symmetry_equiv_pos_as_xyz
  1  'x, y, z'
loop_
 _atom_site_type_symbol
 _atom_site_label
 _atom_site_symmetry_multiplicity
 _atom_site_fract_x
 _atom_site_fract_y
 _atom_site_fract_z
 _atom_site_occupancy
 _atom_site_charge
  Co  Co1  1  0.891060  0.611390  0.501230  1.0  0.819
  Co  Co2  1  0.971090  0.431270  0.289950  1.0  1.1793
  Co  Co3  1  0.999170  0.642260  0.991090  1.0  1.1249
  Co  Co4  1  0.108940  0.388610  0.498770  1.0  0.8195
  Co  Co5  1  0.028910  0.568730  0.710050  1.0  1.1794
  Co  Co6  1  0.000830  0.357740  0.008910  1.0  1.1238
  H  H7  1  0.126800  0.476100  0.078100  1.0  0.4426
  H  H8  1  0.027800  0.967500  0.142700  1.0  0.1298
  H  H9  1  0.858200  0.074500  0.497000  1.0  0.1305
  H  H10  1  0.815000  0.873300  0.592000  1.0  0.0953
  H  H11  1  0.451900  0.580400  0.861700  1.0  0.1294
  H  H12  1  0.419200  0.651100  0.506700  1.0  0.1308
  H  H13  1  0.644000  0.673500  0.409800  1.0  0.0969
  H  H14  1  0.873200  0.523900  0.921900  1.0  0.4433
  H  H15  1  0.972200  0.032500  0.857300  1.0  0.1296
  H  H16  1  0.141800  0.925500  0.503000  1.0  0.1299
  H  H17  1  0.185000  0.126700  0.408000  1.0  0.0953
  H  H18  1  0.548100  0.419600  0.138300  1.0  0.1289
  H  H19  1  0.580800  0.348900  0.493300  1.0  0.1314
  H  H20  1  0.356000  0.326500  0.590200  1.0  0.0965
  C  C21  1  0.985000  0.726500  0.226600  1.0  0.6651
  C  C22  1  0.955000  0.832300  0.298700  1.0  0.103
  C  C23  1  0.985300  0.949800  0.235100  1.0  -0.0845
  C  C24  1  0.951900  0.041600  0.310000  1.0  -0.051
  C  C25  1  0.885500  0.012600  0.444200  1.0  -0.1359
  C  C26  1  0.859700  0.892800  0.500000  1.0  0.1563
  C  C27  1  0.987800  0.170700  0.246300  1.0  0.6784
  C  C28  1  0.718200  0.586200  0.775600  1.0  0.69
  C  C29  1  0.623200  0.606800  0.704500  1.0  0.0975
  C  C30  1  0.489700  0.597400  0.768900  1.0  -0.0855
  C  C31  1  0.411700  0.613300  0.695000  1.0  -0.0538
  C  C32  1  0.470300  0.640400  0.559300  1.0  -0.154
  C  C33  1  0.604800  0.651600  0.502200  1.0  0.1395
  C  C34  1  0.267000  0.597800  0.759600  1.0  0.6815
  C  C35  1  0.015000  0.273500  0.773400  1.0  0.6681
  C  C36  1  0.045000  0.167700  0.701300  1.0  0.1032
  C  C37  1  0.014700  0.050200  0.764900  1.0  -0.0834
  C  C38  1  0.048100  0.958400  0.690000  1.0  -0.0538
  C  C39  1  0.114500  0.987400  0.555800  1.0  -0.1364
  C  C40  1  0.140300  0.107200  0.500000  1.0  0.1566
  C  C41  1  0.012200  0.829300  0.753700  1.0  0.6791
  C  C42  1  0.281800  0.413800  0.224400  1.0  0.6914
  C  C43  1  0.376800  0.393200  0.295500  1.0  0.0964
  C  C44  1  0.510300  0.402600  0.231100  1.0  -0.0826
  C  C45  1  0.588300  0.386700  0.305000  1.0  -0.0461
  C  C46  1  0.529700  0.359600  0.440700  1.0  -0.1543
  C  C47  1  0.395200  0.348400  0.497800  1.0  0.1387
  C  C48  1  0.733000  0.402200  0.240400  1.0  0.6817
  N  N49  1  0.895200  0.803300  0.429300  1.0  -0.2786
  N  N50  1  0.680900  0.632600  0.572800  1.0  -0.2809
  N  N51  1  0.104800  0.196700  0.570700  1.0  -0.2773
  N  N52  1  0.319100  0.367400  0.427200  1.0  -0.2799
  O  O53  1  0.951100  0.624500  0.299700  1.0  -0.5781
  O  O54  1  0.035300  0.746000  0.104300  1.0  -0.546
  O  O55  1  0.963500  0.244000  0.322400  1.0  -0.6047
  O  O56  1  0.039300  0.191600  0.123600  1.0  -0.6308
  O  O57  1  0.838400  0.594400  0.699600  1.0  -0.6186
  O  O58  1  0.676800  0.564800  0.896200  1.0  -0.501
  O  O59  1  0.201900  0.641100  0.862500  1.0  -0.5824
  O  O60  1  0.225200  0.542000  0.702800  1.0  -0.6161
  O  O61  1  0.050600  0.471100  0.094100  1.0  -1.0313
  O  O62  1  0.081700  0.574300  0.509700  1.0  -0.6655
  O  O63  1  0.048900  0.375500  0.700300  1.0  -0.5784
  O  O64  1  0.964700  0.254000  0.895700  1.0  -0.5465
  O  O65  1  0.036500  0.756000  0.677600  1.0  -0.605
  O  O66  1  0.960700  0.808400  0.876400  1.0  -0.6315
  O  O67  1  0.161600  0.405600  0.300400  1.0  -0.6109
  O  O68  1  0.323200  0.435200  0.103800  1.0  -0.5012
  O  O69  1  0.798100  0.358900  0.137500  1.0  -0.5837
  O  O70  1  0.774800  0.458000  0.297200  1.0  -0.6156
  O  O71  1  0.949400  0.528900  0.905900  1.0  -1.0311
  O  O72  1  0.918300  0.425700  0.490300  1.0  -0.6661
