# generated using pymatgen
data_K2CuH17C17NO9
_symmetry_space_group_name_H-M   'P 1'
_cell_length_a   8.75780000
_cell_length_b   11.14300000
_cell_length_c   12.52900000
_cell_angle_alpha   84.47900000
_cell_angle_beta   81.50100000
_cell_angle_gamma   71.64800000
_symmetry_Int_Tables_number   1
_chemical_formula_structural   K2CuH17C17NO9
_chemical_formula_sum   'K4 Cu2 H34 C34 N2 O18'
_cell_volume   1146.14426407
_cell_formula_units_Z   2
loop_
 _symmetry_equiv_pos_site_id
 _symmetry_equiv_pos_as_xyz
  1  'x, y, z'
loop_
 _atom_site_type_symbol
 _atom_site_label
 _atom_site_symmetry_multiplicity
 _atom_site_fract_x
 _atom_site_fract_y
 _atom_site_fract_z
 _atom_site_occupancy
 _atom_site_charge
  K  K1  1  0.319300  0.640050  0.953100  1.0  0.9196
  K  K2  1  0.944350  0.585400  0.150320  1.0  0.935
  K  K3  1  0.680700  0.359950  0.046900  1.0  0.9189
  K  K4  1  0.055650  0.414600  0.849680  1.0  0.9356
  Cu  Cu5  1  0.679670  0.977190  0.968040  1.0  0.8349
  Cu  Cu6  1  0.320330  0.022810  0.031960  1.0  0.8351
  H  H7  1  0.207800  0.124100  0.828200  1.0  0.087
  H  H8  1  0.177900  0.218900  0.659900  1.0  0.0944
  H  H9  1  0.298600  0.276000  0.478800  1.0  0.1062
  H  H10  1  0.770400  0.117100  0.384800  1.0  0.087
  H  H11  1  0.800500  0.999400  0.544200  1.0  0.1091
  H  H12  1  0.810800  0.890100  0.680400  1.0  0.0808
  H  H13  1  0.713400  0.832400  0.775400  1.0  0.0967
  H  H14  1  0.024700  0.809300  0.785000  1.0  0.1032
  H  H15  1  0.035200  0.880300  0.884700  1.0  0.1157
  H  H16  1  0.970200  0.046800  0.752200  1.0  0.1064
  H  H17  1  0.787100  0.117700  0.740300  1.0  0.0995
  H  H18  1  0.340000  0.405000  0.135000  1.0  0.4517
  H  H19  1  0.319000  0.367000  0.049000  1.0  0.4549
  H  H20  1  0.653200  0.489300  0.242800  1.0  0.4126
  H  H21  1  0.483800  0.668200  0.290100  1.0  0.0701
  H  H22  1  0.413600  0.607900  0.208500  1.0  0.0811
  H  H23  1  0.495300  0.713200  0.167600  1.0  0.0714
  H  H24  1  0.792200  0.875900  0.171800  1.0  0.0876
  H  H25  1  0.822100  0.781100  0.340100  1.0  0.0946
  H  H26  1  0.701400  0.724000  0.521200  1.0  0.1059
  H  H27  1  0.229600  0.882900  0.615200  1.0  0.0871
  H  H28  1  0.199500  0.000600  0.455800  1.0  0.1113
  H  H29  1  0.189200  0.109900  0.319600  1.0  0.0804
  H  H30  1  0.286600  0.167600  0.224600  1.0  0.0964
  H  H31  1  0.975300  0.190700  0.215000  1.0  0.1027
  H  H32  1  0.964800  0.119700  0.115300  1.0  0.1137
  H  H33  1  0.029800  0.953200  0.247800  1.0  0.1058
  H  H34  1  0.212900  0.882300  0.259700  1.0  0.0994
  H  H35  1  0.660000  0.595000  0.865000  1.0  0.4491
  H  H36  1  0.681000  0.633000  0.951000  1.0  0.4567
  H  H37  1  0.346800  0.510700  0.757200  1.0  0.4157
  H  H38  1  0.516200  0.331800  0.709900  1.0  0.0717
  H  H39  1  0.586400  0.392100  0.791500  1.0  0.0664
  H  H40  1  0.504700  0.286800  0.832400  1.0  0.0723
  C  C41  1  0.451400  0.034300  0.801210  1.0  0.317
  C  C42  1  0.297600  0.112000  0.775890  1.0  -0.2195
  C  C43  1  0.280100  0.169200  0.675540  1.0  -0.126
  C  C44  1  0.414100  0.154500  0.594920  1.0  0.0061
  C  C45  1  0.399600  0.222700  0.493520  1.0  -0.1001
  C  C46  1  0.531300  0.211800  0.416760  1.0  -0.1376
  C  C47  1  0.681300  0.126400  0.437510  1.0  -0.0287
  C  C48  1  0.700000  0.056600  0.533410  1.0  -0.1563
  C  C49  1  0.567300  0.070400  0.616720  1.0  0.0499
  C  C50  1  0.583200  0.007000  0.721300  1.0  -0.1749
  C  C51  1  0.737300  0.909400  0.746760  1.0  -0.024
  C  C52  1  0.965100  0.846800  0.851460  1.0  -0.2583
  C  C53  1  0.918500  0.745700  0.927360  1.0  0.704
  C  C54  1  0.861000  0.068000  0.790100  1.0  -0.2432
  C  C55  1  0.849400  0.145500  0.886190  1.0  0.7016
  C  C56  1  0.520500  0.292900  0.313700  1.0  0.7082
  C  C57  1  0.498600  0.641800  0.217600  1.0  0.0463
  C  C58  1  0.548600  0.965700  0.198790  1.0  0.316
  C  C59  1  0.702400  0.888000  0.224110  1.0  -0.2189
  C  C60  1  0.719900  0.830800  0.324460  1.0  -0.1231
  C  C61  1  0.585900  0.845500  0.405080  1.0  0.0068
  C  C62  1  0.600400  0.777300  0.506480  1.0  -0.0968
  C  C63  1  0.468700  0.788200  0.583240  1.0  -0.1375
  C  C64  1  0.318700  0.873600  0.562490  1.0  -0.0279
  C  C65  1  0.300000  0.943400  0.466590  1.0  -0.1564
  C  C66  1  0.432700  0.929600  0.383280  1.0  0.0462
  C  C67  1  0.416800  0.993000  0.278700  1.0  -0.1778
  C  C68  1  0.262700  0.090600  0.253240  1.0  -0.0233
  C  C69  1  0.034900  0.153200  0.148540  1.0  -0.2589
  C  C70  1  0.081500  0.254300  0.072640  1.0  0.7046
  C  C71  1  0.139000  0.932000  0.209900  1.0  -0.2506
  C  C72  1  0.150600  0.854500  0.113810  1.0  0.7025
  C  C73  1  0.479500  0.707100  0.686300  1.0  0.7071
  C  C74  1  0.501400  0.358200  0.782400  1.0  0.0523
  N  N75  1  0.819800  0.950620  0.826440  1.0  -0.0676
  N  N76  1  0.180200  0.049380  0.173560  1.0  -0.0685
  O  O77  1  0.470450  0.985620  0.902400  1.0  -0.5932
  O  O78  1  0.782330  0.781110  0.986780  1.0  -0.6513
  O  O79  1  0.014800  0.637760  0.929530  1.0  -0.7622
  O  O80  1  0.775000  0.114690  0.975410  1.0  -0.6655
  O  O81  1  0.905600  0.234670  0.873710  1.0  -0.6784
  O  O82  1  0.384900  0.342600  0.281950  1.0  -0.6642
  O  O83  1  0.649800  0.307900  0.266080  1.0  -0.6489
  O  O84  1  0.343500  0.420900  0.073910  1.0  -0.9634
  O  O85  1  0.648800  0.548800  0.198200  1.0  -0.6871
  O  O86  1  0.529550  0.014380  0.097600  1.0  -0.5902
  O  O87  1  0.217670  0.218890  0.013220  1.0  -0.6528
  O  O88  1  0.985200  0.362240  0.070470  1.0  -0.7624
  O  O89  1  0.225000  0.885310  0.024590  1.0  -0.6648
  O  O90  1  0.094400  0.765330  0.126290  1.0  -0.678
  O  O91  1  0.615100  0.657400  0.718050  1.0  -0.666
  O  O92  1  0.350200  0.692100  0.733920  1.0  -0.6383
  O  O93  1  0.656500  0.579100  0.926090  1.0  -0.9618
  O  O94  1  0.351200  0.451200  0.801800  1.0  -0.6876
