# generated using pymatgen
data_Cd2H3C9ClO6
_symmetry_space_group_name_H-M   'P 1'
_cell_length_a   12.77920000
_cell_length_b   14.81750000
_cell_length_c   15.47370000
_cell_angle_alpha   90.00000000
_cell_angle_beta   90.00000000
_cell_angle_gamma   90.00000000
_symmetry_Int_Tables_number   1
_chemical_formula_structural   Cd2H3C9ClO6
_chemical_formula_sum   'Cd8 H12 C36 Cl4 O24'
_cell_volume   2930.03478057
_cell_formula_units_Z   4
loop_
 _symmetry_equiv_pos_site_id
 _symmetry_equiv_pos_as_xyz
  1  'x, y, z'
loop_
 _atom_site_type_symbol
 _atom_site_label
 _atom_site_symmetry_multiplicity
 _atom_site_fract_x
 _atom_site_fract_y
 _atom_site_fract_z
 _atom_site_occupancy
 _atom_site_charge
  Cd  Cd1  1  0.235070  0.719830  0.272480  1.0  0.9595
  Cd  Cd2  1  0.433400  0.592610  0.408750  1.0  0.9255
  Cd  Cd3  1  0.264930  0.280170  0.772480  1.0  0.9591
  Cd  Cd4  1  0.066600  0.407390  0.908750  1.0  0.9247
  Cd  Cd5  1  0.764930  0.219830  0.227520  1.0  0.9589
  Cd  Cd6  1  0.566600  0.092610  0.091250  1.0  0.9262
  Cd  Cd7  1  0.735070  0.780170  0.727520  1.0  0.9601
  Cd  Cd8  1  0.933400  0.907390  0.591250  1.0  0.9251
  H  H9  1  0.028200  0.701700  0.509500  1.0  0.1217
  H  H10  1  0.992000  0.552600  0.724200  1.0  0.1185
  H  H11  1  0.209900  0.485900  0.552000  1.0  0.1227
  H  H12  1  0.471800  0.298300  0.009500  1.0  0.1212
  H  H13  1  0.508000  0.447400  0.224200  1.0  0.1186
  H  H14  1  0.290100  0.514100  0.052000  1.0  0.1235
  H  H15  1  0.971800  0.201700  0.990500  1.0  0.1214
  H  H16  1  0.008000  0.052600  0.775800  1.0  0.1188
  H  H17  1  0.790100  0.985900  0.948000  1.0  0.1225
  H  H18  1  0.528200  0.798300  0.490500  1.0  0.1215
  H  H19  1  0.492000  0.947400  0.275800  1.0  0.1189
  H  H20  1  0.709900  0.014100  0.448000  1.0  0.1229
  C  C21  1  0.182200  0.610600  0.431600  1.0  0.7347
  C  C22  1  0.908900  0.697200  0.650500  1.0  0.7395
  C  C23  1  0.137900  0.428400  0.702300  1.0  0.7249
  C  C24  1  0.126700  0.594400  0.514500  1.0  -0.163
  C  C25  1  0.047100  0.652300  0.543200  1.0  0.0535
  C  C26  1  0.996100  0.636900  0.620900  1.0  -0.1604
  C  C27  1  0.026100  0.563600  0.672200  1.0  0.0512
  C  C28  1  0.106300  0.507600  0.645600  1.0  -0.154
  C  C29  1  0.155400  0.523600  0.568800  1.0  0.0341
  C  C30  1  0.317800  0.389400  0.931600  1.0  0.7351
  C  C31  1  0.591100  0.302800  0.150500  1.0  0.7395
  C  C32  1  0.362100  0.571600  0.202300  1.0  0.724
  C  C33  1  0.373300  0.405600  0.014500  1.0  -0.1632
  C  C34  1  0.452900  0.347700  0.043200  1.0  0.053
  C  C35  1  0.503900  0.363100  0.120900  1.0  -0.1609
  C  C36  1  0.473900  0.436400  0.172200  1.0  0.0522
  C  C37  1  0.393700  0.492400  0.145600  1.0  -0.1531
  C  C38  1  0.344600  0.476400  0.068800  1.0  0.0336
  C  C39  1  0.817800  0.110600  0.068400  1.0  0.7373
  C  C40  1  0.091100  0.197200  0.849500  1.0  0.7397
  C  C41  1  0.862100  0.928400  0.797700  1.0  0.7253
  C  C42  1  0.873300  0.094400  0.985500  1.0  -0.1625
  C  C43  1  0.952900  0.152300  0.956800  1.0  0.0543
  C  C44  1  0.003900  0.136900  0.879100  1.0  -0.1607
  C  C45  1  0.973900  0.063600  0.827800  1.0  0.0506
  C  C46  1  0.893700  0.007600  0.854400  1.0  -0.1535
  C  C47  1  0.844600  0.023600  0.931200  1.0  0.0344
  C  C48  1  0.682200  0.889400  0.568400  1.0  0.7371
  C  C49  1  0.408900  0.802800  0.349500  1.0  0.7389
  C  C50  1  0.637900  0.071600  0.297700  1.0  0.7239
  C  C51  1  0.626700  0.905600  0.485500  1.0  -0.1627
  C  C52  1  0.547100  0.847700  0.456800  1.0  0.0535
  C  C53  1  0.496100  0.863100  0.379100  1.0  -0.1609
  C  C54  1  0.526100  0.936400  0.327800  1.0  0.0507
  C  C55  1  0.606300  0.992400  0.354400  1.0  -0.153
  C  C56  1  0.655400  0.976400  0.431200  1.0  0.0336
  Cl  Cl57  1  0.100300  0.799200  0.193240  1.0  -0.4823
  Cl  Cl58  1  0.399700  0.200800  0.693240  1.0  -0.4816
  Cl  Cl59  1  0.899700  0.299200  0.306760  1.0  -0.4808
  Cl  Cl60  1  0.600300  0.700800  0.806760  1.0  -0.4816
  O  O61  1  0.259900  0.562500  0.414300  1.0  -0.6233
  O  O62  1  0.145500  0.670800  0.382300  1.0  -0.5762
  O  O63  1  0.881300  0.760100  0.601800  1.0  -0.6506
  O  O64  1  0.864100  0.678600  0.718900  1.0  -0.537
  O  O65  1  0.078900  0.408900  0.764300  1.0  -0.6738
  O  O66  1  0.218600  0.387000  0.682700  1.0  -0.5684
  O  O67  1  0.240100  0.437500  0.914300  1.0  -0.6216
  O  O68  1  0.354500  0.329200  0.882300  1.0  -0.5745
  O  O69  1  0.618700  0.239900  0.101800  1.0  -0.6501
  O  O70  1  0.635900  0.321400  0.218900  1.0  -0.5358
  O  O71  1  0.421100  0.591100  0.264300  1.0  -0.6736
  O  O72  1  0.281400  0.613000  0.182700  1.0  -0.5703
  O  O73  1  0.740100  0.062500  0.085700  1.0  -0.6265
  O  O74  1  0.854500  0.170800  0.117700  1.0  -0.5742
  O  O75  1  0.118700  0.260100  0.898200  1.0  -0.6466
  O  O76  1  0.135900  0.178600  0.781100  1.0  -0.536
  O  O77  1  0.921100  0.908900  0.735700  1.0  -0.6747
  O  O78  1  0.781400  0.887000  0.817300  1.0  -0.5705
  O  O79  1  0.759900  0.937500  0.585700  1.0  -0.6259
  O  O80  1  0.645500  0.829200  0.617700  1.0  -0.5734
  O  O81  1  0.381300  0.739900  0.398200  1.0  -0.6474
  O  O82  1  0.364100  0.821400  0.281100  1.0  -0.5365
  O  O83  1  0.578900  0.091100  0.235700  1.0  -0.675
  O  O84  1  0.718600  0.113000  0.317300  1.0  -0.5696
