# generated using pymatgen
data_Cd2H3C9BrO6
_symmetry_space_group_name_H-M   'P 1'
_cell_length_a   12.81740000
_cell_length_b   15.03180000
_cell_length_c   15.44480000
_cell_angle_alpha   90.00000000
_cell_angle_beta   90.00000000
_cell_angle_gamma   90.00000000
_symmetry_Int_Tables_number   1
_chemical_formula_structural   Cd2H3C9BrO6
_chemical_formula_sum   'Cd8 H12 C36 Br4 O24'
_cell_volume   2975.72789011
_cell_formula_units_Z   4
loop_
 _symmetry_equiv_pos_site_id
 _symmetry_equiv_pos_as_xyz
  1  'x, y, z'
loop_
 _atom_site_type_symbol
 _atom_site_label
 _atom_site_symmetry_multiplicity
 _atom_site_fract_x
 _atom_site_fract_y
 _atom_site_fract_z
 _atom_site_occupancy
 _atom_site_charge
  Cd  Cd1  1  0.237750  0.216340  0.226310  1.0  0.9025
  Cd  Cd2  1  0.435570  0.093030  0.087850  1.0  0.8844
  Cd  Cd3  1  0.262250  0.783660  0.726310  1.0  0.9015
  Cd  Cd4  1  0.064430  0.906970  0.587850  1.0  0.8833
  Cd  Cd5  1  0.762250  0.716340  0.273690  1.0  0.9024
  Cd  Cd6  1  0.564430  0.593030  0.412150  1.0  0.884
  Cd  Cd7  1  0.737750  0.283660  0.773690  1.0  0.9033
  Cd  Cd8  1  0.935570  0.406970  0.912150  1.0  0.8818
  H  H9  1  0.211300  0.988200  0.944500  1.0  0.1164
  H  H10  1  0.991400  0.056900  0.772700  1.0  0.1249
  H  H11  1  0.030000  0.201500  0.989600  1.0  0.117
  H  H12  1  0.288700  0.011800  0.444500  1.0  0.1168
  H  H13  1  0.508600  0.943100  0.272700  1.0  0.1247
  H  H14  1  0.470000  0.798500  0.489600  1.0  0.1171
  H  H15  1  0.788700  0.488200  0.555500  1.0  0.1166
  H  H16  1  0.008600  0.556900  0.727300  1.0  0.1245
  H  H17  1  0.970000  0.701500  0.510400  1.0  0.1172
  H  H18  1  0.711300  0.511800  0.055500  1.0  0.1171
  H  H19  1  0.491400  0.443100  0.227300  1.0  0.1245
  H  H20  1  0.530000  0.298500  0.010400  1.0  0.117
  C  C21  1  0.184100  0.110900  0.066600  1.0  0.7014
  C  C22  1  0.126900  0.095700  0.982500  1.0  -0.1599
  C  C23  1  0.156100  0.024900  0.928500  1.0  0.0523
  C  C24  1  0.104200  0.009100  0.852700  1.0  -0.1392
  C  C25  1  0.025200  0.066200  0.825200  1.0  0.05
  C  C26  1  0.997700  0.138600  0.879000  1.0  -0.1625
  C  C27  1  0.048200  0.153000  0.955400  1.0  0.0478
  C  C28  1  0.910500  0.200000  0.849100  1.0  0.7231
  C  C29  1  0.133000  0.932100  0.793900  1.0  0.7144
  C  C30  1  0.315900  0.889100  0.566600  1.0  0.701
  C  C31  1  0.373100  0.904300  0.482500  1.0  -0.1597
  C  C32  1  0.343900  0.975100  0.428500  1.0  0.0516
  C  C33  1  0.395800  0.990900  0.352700  1.0  -0.1385
  C  C34  1  0.474800  0.933800  0.325200  1.0  0.0494
  C  C35  1  0.502300  0.861400  0.379000  1.0  -0.1619
  C  C36  1  0.451800  0.847000  0.455400  1.0  0.0485
  C  C37  1  0.589500  0.800000  0.349100  1.0  0.7228
  C  C38  1  0.367000  0.067900  0.293900  1.0  0.7128
  C  C39  1  0.815900  0.610900  0.433400  1.0  0.7002
  C  C40  1  0.873100  0.595700  0.517500  1.0  -0.1603
  C  C41  1  0.843900  0.524900  0.571500  1.0  0.0516
  C  C42  1  0.895800  0.509100  0.647300  1.0  -0.139
  C  C43  1  0.974800  0.566200  0.674800  1.0  0.0503
  C  C44  1  0.002300  0.638600  0.621000  1.0  -0.1624
  C  C45  1  0.951800  0.653000  0.544600  1.0  0.0486
  C  C46  1  0.089500  0.700000  0.650900  1.0  0.7241
  C  C47  1  0.867000  0.432100  0.706100  1.0  0.7138
  C  C48  1  0.684100  0.389100  0.933400  1.0  0.6999
  C  C49  1  0.626900  0.404300  0.017500  1.0  -0.1601
  C  C50  1  0.656100  0.475100  0.071500  1.0  0.0511
  C  C51  1  0.604200  0.490900  0.147300  1.0  -0.1386
  C  C52  1  0.525200  0.433800  0.174800  1.0  0.0497
  C  C53  1  0.497700  0.361400  0.121000  1.0  -0.1624
  C  C54  1  0.548200  0.347000  0.044600  1.0  0.0478
  C  C55  1  0.410500  0.300000  0.150900  1.0  0.723
  C  C56  1  0.633000  0.567900  0.206100  1.0  0.7123
  Br  Br57  1  0.094430  0.294510  0.311830  1.0  -0.3409
  Br  Br58  1  0.405570  0.705490  0.811830  1.0  -0.3419
  Br  Br59  1  0.905570  0.794510  0.188170  1.0  -0.3423
  Br  Br60  1  0.594430  0.205490  0.688170  1.0  -0.3411
  O  O61  1  0.148600  0.170100  0.114300  1.0  -0.5861
  O  O62  1  0.261800  0.063000  0.081200  1.0  -0.6401
  O  O63  1  0.884300  0.261900  0.898200  1.0  -0.6355
  O  O64  1  0.865100  0.182600  0.778400  1.0  -0.5456
  O  O65  1  0.073900  0.914000  0.732900  1.0  -0.6575
  O  O66  1  0.214400  0.890600  0.814000  1.0  -0.562
  O  O67  1  0.351400  0.829900  0.614300  1.0  -0.5863
  O  O68  1  0.238200  0.937000  0.581200  1.0  -0.6387
  O  O69  1  0.615700  0.738100  0.398200  1.0  -0.6345
  O  O70  1  0.634900  0.817400  0.278400  1.0  -0.5462
  O  O71  1  0.426100  0.086000  0.232900  1.0  -0.6567
  O  O72  1  0.285600  0.109400  0.314000  1.0  -0.5634
  O  O73  1  0.851400  0.670100  0.385700  1.0  -0.589
  O  O74  1  0.738200  0.563000  0.418800  1.0  -0.6427
  O  O75  1  0.115700  0.761900  0.601800  1.0  -0.6365
  O  O76  1  0.134900  0.682600  0.721600  1.0  -0.5453
  O  O77  1  0.926100  0.414000  0.767100  1.0  -0.6565
  O  O78  1  0.785600  0.390600  0.686000  1.0  -0.563
  O  O79  1  0.648600  0.329900  0.885700  1.0  -0.5852
  O  O80  1  0.761800  0.437000  0.918800  1.0  -0.6414
  O  O81  1  0.384300  0.238100  0.101800  1.0  -0.638
  O  O82  1  0.365100  0.317400  0.221600  1.0  -0.5452
  O  O83  1  0.573900  0.586000  0.267100  1.0  -0.657
  O  O84  1  0.714400  0.609400  0.186000  1.0  -0.5614
