# generated using pymatgen
data_Cd2H3C9IO6
_symmetry_space_group_name_H-M   'P 1'
_cell_length_a   12.91790000
_cell_length_b   15.28390000
_cell_length_c   15.42660000
_cell_angle_alpha   90.00000000
_cell_angle_beta   90.00000000
_cell_angle_gamma   90.00000000
_symmetry_Int_Tables_number   1
_chemical_formula_structural   Cd2H3C9IO6
_chemical_formula_sum   'Cd8 H12 C36 I4 O24'
_cell_volume   3045.76452860
_cell_formula_units_Z   4
loop_
 _symmetry_equiv_pos_site_id
 _symmetry_equiv_pos_as_xyz
  1  'x, y, z'
loop_
 _atom_site_type_symbol
 _atom_site_label
 _atom_site_symmetry_multiplicity
 _atom_site_fract_x
 _atom_site_fract_y
 _atom_site_fract_z
 _atom_site_occupancy
 _atom_site_charge
  Cd  Cd1  1  0.258990  0.711150  0.724760  1.0  0.9074
  Cd  Cd2  1  0.063130  0.592980  0.582380  1.0  0.8254
  Cd  Cd3  1  0.241010  0.288850  0.224760  1.0  0.9079
  Cd  Cd4  1  0.436870  0.407020  0.082380  1.0  0.822
  Cd  Cd5  1  0.741010  0.211150  0.775240  1.0  0.9073
  Cd  Cd6  1  0.936870  0.092980  0.917620  1.0  0.8214
  Cd  Cd7  1  0.758990  0.788850  0.275240  1.0  0.9082
  Cd  Cd8  1  0.563130  0.907020  0.417620  1.0  0.8216
  H  H9  1  0.295900  0.487600  0.440800  1.0  0.1191
  H  H10  1  0.512800  0.561100  0.270200  1.0  0.1271
  H  H11  1  0.467500  0.701000  0.489600  1.0  0.1141
  H  H12  1  0.204100  0.512400  0.940800  1.0  0.119
  H  H13  1  0.987200  0.438900  0.770200  1.0  0.1271
  H  H14  1  0.032500  0.299000  0.989600  1.0  0.1142
  H  H15  1  0.704100  0.987600  0.059200  1.0  0.1187
  H  H16  1  0.487200  0.061100  0.229800  1.0  0.1267
  H  H17  1  0.532500  0.201000  0.010400  1.0  0.1143
  H  H18  1  0.795900  0.012400  0.559200  1.0  0.1192
  H  H19  1  0.012800  0.938900  0.729800  1.0  0.127
  H  H20  1  0.967500  0.799000  0.510400  1.0  0.1144
  C  C21  1  0.313300  0.612200  0.561100  1.0  0.7081
  C  C22  1  0.373300  0.438800  0.288200  1.0  0.7207
  C  C23  1  0.585800  0.704100  0.348600  1.0  0.7017
  C  C24  1  0.371600  0.597400  0.477100  1.0  -0.1487
  C  C25  1  0.347400  0.526600  0.424100  1.0  0.0511
  C  C26  1  0.397700  0.514200  0.348800  1.0  -0.1409
  C  C27  1  0.477300  0.570900  0.321700  1.0  0.0305
  C  C28  1  0.502000  0.644100  0.375800  1.0  -0.1234
  C  C29  1  0.449900  0.654800  0.453200  1.0  0.0418
  C  C30  1  0.186700  0.387800  0.061100  1.0  0.708
  C  C31  1  0.126700  0.561200  0.788200  1.0  0.7196
  C  C32  1  0.914200  0.295900  0.848600  1.0  0.6992
  C  C33  1  0.128400  0.402600  0.977100  1.0  -0.1486
  C  C34  1  0.152600  0.473400  0.924100  1.0  0.0496
  C  C35  1  0.102300  0.485800  0.848800  1.0  -0.1408
  C  C36  1  0.022700  0.429100  0.821700  1.0  0.0307
  C  C37  1  0.998000  0.355900  0.875800  1.0  -0.1241
  C  C38  1  0.050100  0.345200  0.953200  1.0  0.0419
  C  C39  1  0.686700  0.112200  0.938900  1.0  0.7068
  C  C40  1  0.626700  0.938800  0.211800  1.0  0.7208
  C  C41  1  0.414200  0.204100  0.151400  1.0  0.6991
  C  C42  1  0.628400  0.097400  0.022900  1.0  -0.1476
  C  C43  1  0.652600  0.026600  0.075900  1.0  0.051
  C  C44  1  0.602300  0.014200  0.151200  1.0  -0.1406
  C  C45  1  0.522700  0.070900  0.178300  1.0  0.0287
  C  C46  1  0.498000  0.144100  0.124200  1.0  -0.124
  C  C47  1  0.550100  0.154800  0.046800  1.0  0.0415
  C  C48  1  0.813300  0.887800  0.438900  1.0  0.707
  C  C49  1  0.873300  0.061200  0.711800  1.0  0.7193
  C  C50  1  0.085800  0.795900  0.651400  1.0  0.7018
  C  C51  1  0.871600  0.902600  0.522900  1.0  -0.148
  C  C52  1  0.847400  0.973400  0.575900  1.0  0.0491
  C  C53  1  0.897700  0.985800  0.651200  1.0  -0.1408
  C  C54  1  0.977300  0.929100  0.678300  1.0  0.0306
  C  C55  1  0.002000  0.855900  0.624200  1.0  -0.1234
  C  C56  1  0.949900  0.845200  0.546800  1.0  0.0412
  I  I57  1  0.411480  0.786460  0.822480  1.0  -0.2841
  I  I58  1  0.088520  0.213540  0.322480  1.0  -0.2838
  I  I59  1  0.588520  0.286460  0.677520  1.0  -0.2831
  I  I60  1  0.911480  0.713540  0.177520  1.0  -0.2838
  O  O61  1  0.347200  0.669200  0.611000  1.0  -0.596
  O  O62  1  0.235300  0.565000  0.575900  1.0  -0.6482
  O  O63  1  0.293000  0.395400  0.307500  1.0  -0.6143
  O  O64  1  0.431300  0.423500  0.227300  1.0  -0.5995
  O  O65  1  0.631700  0.688800  0.277000  1.0  -0.5435
  O  O66  1  0.613400  0.765300  0.398700  1.0  -0.6417
  O  O67  1  0.152800  0.330800  0.111000  1.0  -0.5948
  O  O68  1  0.264700  0.435000  0.075900  1.0  -0.6474
  O  O69  1  0.207000  0.604600  0.807500  1.0  -0.6156
  O  O70  1  0.068700  0.576500  0.727300  1.0  -0.5985
  O  O71  1  0.868300  0.311200  0.777000  1.0  -0.5427
  O  O72  1  0.886600  0.234700  0.898700  1.0  -0.6439
  O  O73  1  0.652800  0.169200  0.889000  1.0  -0.5975
  O  O74  1  0.764700  0.065000  0.924100  1.0  -0.648
  O  O75  1  0.707000  0.895400  0.192500  1.0  -0.615
  O  O76  1  0.568700  0.923500  0.272700  1.0  -0.599
  O  O77  1  0.368300  0.188800  0.223000  1.0  -0.5434
  O  O78  1  0.386600  0.265300  0.101300  1.0  -0.6443
  O  O79  1  0.847200  0.830800  0.389000  1.0  -0.5951
  O  O80  1  0.735300  0.935000  0.424100  1.0  -0.6475
  O  O81  1  0.793000  0.104600  0.692500  1.0  -0.6147
  O  O82  1  0.931300  0.076500  0.772700  1.0  -0.5995
  O  O83  1  0.131700  0.811200  0.723000  1.0  -0.5419
  O  O84  1  0.113400  0.734700  0.601300  1.0  -0.6441
