# generated using pymatgen
data_MoH48Rh4C24(N2O3)4
_symmetry_space_group_name_H-M   'P 1'
_cell_length_a   12.95200000
_cell_length_b   13.84900000
_cell_length_c   14.67900000
_cell_angle_alpha   112.46000000
_cell_angle_beta   99.57400000
_cell_angle_gamma   108.47200000
_symmetry_Int_Tables_number   1
_chemical_formula_structural   MoH48Rh4C24(N2O3)4
_chemical_formula_sum   'Mo2 H96 Rh8 C48 N16 O24'
_cell_volume   2180.36157957
_cell_formula_units_Z   2
loop_
 _symmetry_equiv_pos_site_id
 _symmetry_equiv_pos_as_xyz
  1  'x, y, z'
loop_
 _atom_site_type_symbol
 _atom_site_label
 _atom_site_symmetry_multiplicity
 _atom_site_fract_x
 _atom_site_fract_y
 _atom_site_fract_z
 _atom_site_occupancy
 _atom_site_charge
  Mo  Mo1  1  0.230580  0.889650  0.669890  1.0  2.1205
  Mo  Mo2  1  0.769420  0.110350  0.330110  1.0  2.1212
  H  H3  1  0.238900  0.112600  0.655200  1.0  0.3396
  H  H4  1  0.100500  0.822400  0.454300  1.0  0.3088
  H  H5  1  0.182800  0.676500  0.707200  1.0  0.333
  H  H6  1  0.961800  0.717400  0.570800  1.0  0.3362
  H  H7  1  0.457100  0.786700  0.802600  1.0  0.3515
  H  H8  1  0.486000  0.052400  0.817300  1.0  0.3129
  H  H9  1  0.285500  0.043700  0.483600  1.0  0.3231
  H  H10  1  0.301300  0.796000  0.476100  1.0  0.3002
  H  H11  1  0.338800  0.296300  0.568500  1.0  0.0879
  H  H12  1  0.366500  0.276500  0.667600  1.0  0.0973
  H  H13  1  0.232500  0.396900  0.643400  1.0  0.103
  H  H14  1  0.269500  0.382600  0.744300  1.0  0.1027
  H  H15  1  0.363800  0.458000  0.713800  1.0  0.1058
  H  H16  1  0.145200  0.807700  0.261900  1.0  0.0977
  H  H17  1  0.063300  0.708900  0.279500  1.0  0.0916
  H  H18  1  0.903900  0.691500  0.159400  1.0  0.0994
  H  H19  1  0.988600  0.786700  0.139500  1.0  0.1049
  H  H20  1  0.995900  0.666667  0.106300  1.0  0.1079
  H  H21  1  0.186500  0.639200  0.843900  1.0  0.0913
  H  H22  1  0.135600  0.506300  0.812000  1.0  0.0951
  H  H23  1  0.015600  0.646600  0.859600  1.0  0.1099
  H  H24  1  0.955600  0.511600  0.816000  1.0  0.1015
  H  H25  1  0.052900  0.589400  0.926600  1.0  0.0984
  H  H26  1  0.791000  0.707000  0.597500  1.0  0.0999
  H  H27  1  0.789400  0.650800  0.673000  1.0  0.1108
  H  H28  1  0.625800  0.487100  0.542000  1.0  0.1015
  H  H29  1  0.603700  0.599900  0.584900  1.0  0.0879
  H  H30  1  0.624500  0.554500  0.475900  1.0  0.0939
  H  H31  1  0.709900  0.793700  0.884800  1.0  0.0995
  H  H32  1  0.584000  0.706400  0.806500  1.0  0.091
  H  H33  1  0.651700  0.743200  0.011700  1.0  0.1187
  H  H34  1  0.540600  0.641200  0.918900  1.0  0.0948
  H  H35  1  0.664400  0.645700  0.919200  1.0  0.0873
  H  H36  1  0.653800  0.193200  0.829100  1.0  0.0974
  H  H37  1  0.761000  0.252600  0.931800  1.0  0.0923
  H  H38  1  0.570900  0.309700  0.912500  1.0  0.1063
  H  H39  1  0.667900  0.362100  0.020800  1.0  0.1018
  H  H40  1  0.699000  0.389700  0.931100  1.0  0.0995
  H  H41  1  0.336500  0.170900  0.351300  1.0  0.1075
  H  H42  1  0.224100  0.084600  0.354000  1.0  0.1066
  H  H43  1  0.319200  0.027000  0.191400  1.0  0.1011
  H  H44  1  0.206400  0.940900  0.194000  1.0  0.1007
  H  H45  1  0.206800  0.050400  0.182900  1.0  0.1062
  H  H46  1  0.249300  0.643700  0.242100  1.0  0.0958
  H  H47  1  0.251400  0.623300  0.341200  1.0  0.1086
  H  H48  1  0.411800  0.607500  0.233600  1.0  0.1006
  H  H49  1  0.419000  0.592000  0.335600  1.0  0.1022
  H  H50  1  0.314700  0.501900  0.231400  1.0  0.1053
  H  H51  1  0.761100  0.887400  0.344800  1.0  0.3382
  H  H52  1  0.899500  0.177600  0.545700  1.0  0.3061
  H  H53  1  0.817200  0.323500  0.292800  1.0  0.3334
  H  H54  1  0.038200  0.282600  0.429200  1.0  0.3367
  H  H55  1  0.542900  0.213300  0.197400  1.0  0.3522
  H  H56  1  0.514000  0.947600  0.182700  1.0  0.3116
  H  H57  1  0.714500  0.956300  0.516400  1.0  0.3228
  H  H58  1  0.698700  0.204000  0.523900  1.0  0.3044
  H  H59  1  0.661200  0.703700  0.431500  1.0  0.0872
  H  H60  1  0.633500  0.723500  0.332400  1.0  0.1003
  H  H61  1  0.767500  0.603100  0.356600  1.0  0.1056
  H  H62  1  0.730500  0.617400  0.255700  1.0  0.1017
  H  H63  1  0.636200  0.542000  0.286200  1.0  0.1052
  H  H64  1  0.854800  0.192300  0.738100  1.0  0.0976
  H  H65  1  0.936700  0.291100  0.720500  1.0  0.0929
  H  H66  1  0.096100  0.308500  0.840600  1.0  0.1004
  H  H67  1  0.011400  0.213300  0.860500  1.0  0.106
  H  H68  1  0.004100  0.333400  0.893700  1.0  0.1081
  H  H69  1  0.813500  0.360800  0.156100  1.0  0.0887
  H  H70  1  0.864400  0.493700  0.188000  1.0  0.0948
  H  H71  1  0.984400  0.353400  0.140400  1.0  0.1102
  H  H72  1  0.044400  0.488400  0.184000  1.0  0.102
  H  H73  1  0.947100  0.410600  0.073400  1.0  0.0985
  H  H74  1  0.209000  0.293000  0.402500  1.0  0.1008
  H  H75  1  0.210600  0.349200  0.327000  1.0  0.1099
  H  H76  1  0.374200  0.512900  0.458000  1.0  0.1018
  H  H77  1  0.396300  0.400100  0.415100  1.0  0.0883
  H  H78  1  0.375500  0.445500  0.524100  1.0  0.0922
  H  H79  1  0.290100  0.206300  0.115200  1.0  0.0997
  H  H80  1  0.416000  0.293600  0.193500  1.0  0.0923
  H  H81  1  0.348300  0.256800  0.988300  1.0  0.1164
  H  H82  1  0.459400  0.358800  0.081100  1.0  0.0944
  H  H83  1  0.335600  0.354300  0.080800  1.0  0.0885
  H  H84  1  0.346200  0.806800  0.170900  1.0  0.0961
  H  H85  1  0.239000  0.747400  0.068200  1.0  0.0933
  H  H86  1  0.429100  0.690300  0.087500  1.0  0.1066
  H  H87  1  0.332100  0.637900  0.979200  1.0  0.1024
  H  H88  1  0.301000  0.610300  0.068900  1.0  0.1005
  H  H89  1  0.663500  0.829100  0.648700  1.0  0.1073
  H  H90  1  0.775900  0.915400  0.646000  1.0  0.1061
  H  H91  1  0.680800  0.973000  0.808600  1.0  0.1014
  H  H92  1  0.793600  0.059100  0.806000  1.0  0.0991
  H  H93  1  0.793200  0.949600  0.817100  1.0  0.1075
  H  H94  1  0.750700  0.356300  0.757900  1.0  0.0956
  H  H95  1  0.748600  0.376700  0.658800  1.0  0.1092
  H  H96  1  0.588200  0.392500  0.766400  1.0  0.0984
  H  H97  1  0.581000  0.408000  0.664400  1.0  0.1016
  H  H98  1  0.685300  0.498100  0.768600  1.0  0.1058
  Rh  Rh99  1  0.034640  0.968220  0.559780  1.0  0.8197
  Rh  Rh100  1  0.067870  0.593360  0.519250  1.0  0.8391
  Rh  Rh101  1  0.420300  0.951280  0.920250  1.0  0.8548
  Rh  Rh102  1  0.443450  0.000100  0.557630  1.0  0.838
  Rh  Rh103  1  0.965360  0.031780  0.440220  1.0  0.8157
  Rh  Rh104  1  0.932130  0.406640  0.480750  1.0  0.8396
  Rh  Rh105  1  0.579700  0.048720  0.079750  1.0  0.8581
  Rh  Rh106  1  0.556550  0.999900  0.442370  1.0  0.837
  C  C107  1  0.197900  0.178400  0.572500  1.0  0.5802
  C  C108  1  0.309200  0.285600  0.622800  1.0  -0.2062
  C  C109  1  0.292300  0.390000  0.686700  1.0  -0.273
  C  C110  1  0.048800  0.860900  0.350900  1.0  0.5886
  C  C111  1  0.067500  0.772600  0.264000  1.0  -0.2319
  C  C112  1  0.981300  0.725100  0.157800  1.0  -0.2698
  C  C113  1  0.077400  0.538900  0.693300  1.0  0.5946
  C  C114  1  0.116500  0.567300  0.806400  1.0  -0.23
  C  C115  1  0.027400  0.579800  0.856500  1.0  -0.2631
  C  C116  1  0.851000  0.582900  0.556800  1.0  0.5871
  C  C117  1  0.772200  0.633700  0.599500  1.0  -0.218
  C  C118  1  0.645400  0.562500  0.545900  1.0  -0.2711
  C  C119  1  0.587000  0.852000  0.921400  1.0  0.5762
  C  C120  1  0.629300  0.758300  0.880200  1.0  -0.2106
  C  C121  1  0.620800  0.691500  0.937300  1.0  -0.2688
  C  C122  1  0.616800  0.141000  0.937700  1.0  0.6023
  C  C123  1  0.677700  0.228500  0.905400  1.0  -0.2088
  C  C124  1  0.651600  0.331500  0.946000  1.0  -0.2729
  C  C125  1  0.364800  0.051900  0.389600  1.0  0.5853
  C  C126  1  0.292100  0.089900  0.331700  1.0  -0.2401
  C  C127  1  0.252600  0.020900  0.214600  1.0  -0.2617
  C  C128  1  0.375800  0.779600  0.375500  1.0  0.5743
  C  C129  1  0.300100  0.652800  0.305100  1.0  -0.2334
  C  C130  1  0.367300  0.582300  0.273700  1.0  -0.2668
  C  C131  1  0.802100  0.821600  0.427500  1.0  0.5802
  C  C132  1  0.690800  0.714400  0.377200  1.0  -0.2158
  C  C133  1  0.707700  0.610000  0.313300  1.0  -0.274
  C  C134  1  0.951200  0.139100  0.649100  1.0  0.5901
  C  C135  1  0.932500  0.227400  0.736000  1.0  -0.2333
  C  C136  1  0.018700  0.274900  0.842200  1.0  -0.2684
  C  C137  1  0.922600  0.461100  0.306700  1.0  0.5942
  C  C138  1  0.883500  0.432700  0.193600  1.0  -0.2316
  C  C139  1  0.972600  0.420200  0.143500  1.0  -0.2621
  C  C140  1  0.149000  0.417100  0.443200  1.0  0.5885
  C  C141  1  0.227800  0.366300  0.400500  1.0  -0.2144
  C  C142  1  0.354600  0.437500  0.454100  1.0  -0.2716
  C  C143  1  0.413000  0.148000  0.078600  1.0  0.5748
  C  C144  1  0.370700  0.241700  0.119800  1.0  -0.2053
  C  C145  1  0.379200  0.308500  0.062700  1.0  -0.2668
  C  C146  1  0.383200  0.859000  0.062300  1.0  0.6022
  C  C147  1  0.322300  0.771500  0.094600  1.0  -0.2117
  C  C148  1  0.348400  0.668500  0.054000  1.0  -0.2731
  C  C149  1  0.635200  0.948100  0.610400  1.0  0.5849
  C  C150  1  0.707900  0.910100  0.668300  1.0  -0.2405
  C  C151  1  0.747400  0.979100  0.785400  1.0  -0.2619
  C  C152  1  0.624200  0.220400  0.624500  1.0  0.5728
  C  C153  1  0.699900  0.347200  0.694900  1.0  -0.2313
  C  C154  1  0.632700  0.417700  0.726300  1.0  -0.2664
  N  N155  1  0.181200  0.102800  0.607500  1.0  -0.6971
  N  N156  1  0.069700  0.866000  0.443300  1.0  -0.6991
  N  N157  1  0.123400  0.613300  0.662100  1.0  -0.6968
  N  N158  1  0.948300  0.646300  0.555000  1.0  -0.6981
  N  N159  1  0.491300  0.842700  0.865900  1.0  -0.6944
  N  N160  1  0.514400  0.059500  0.878700  1.0  -0.6985
  N  N161  1  0.345900  0.037000  0.468600  1.0  -0.7042
  N  N162  1  0.356700  0.835200  0.460900  1.0  -0.6854
  N  N163  1  0.818800  0.897200  0.392500  1.0  -0.6975
  N  N164  1  0.930300  0.134000  0.556700  1.0  -0.6985
  N  N165  1  0.876600  0.386700  0.337900  1.0  -0.6987
  N  N166  1  0.051700  0.353700  0.445000  1.0  -0.6992
  N  N167  1  0.508700  0.157300  0.134100  1.0  -0.6932
  N  N168  1  0.485600  0.940500  0.121300  1.0  -0.7004
  N  N169  1  0.654100  0.963000  0.531400  1.0  -0.7018
  N  N170  1  0.643300  0.164800  0.539100  1.0  -0.6859
  O  O171  1  0.122500  0.165500  0.495100  1.0  -0.5014
  O  O172  1  0.014100  0.930000  0.330800  1.0  -0.508
  O  O173  1  0.995000  0.439800  0.630800  1.0  -0.5062
  O  O174  1  0.818600  0.473400  0.524700  1.0  -0.5177
  O  O175  1  0.644700  0.934400  0.013900  1.0  -0.5243
  O  O176  1  0.667400  0.153500  0.026400  1.0  -0.5175
  O  O177  1  0.449900  0.039400  0.359300  1.0  -0.515
  O  O178  1  0.456600  0.829200  0.347100  1.0  -0.5269
  O  O179  1  0.107200  0.917700  0.674300  1.0  -0.7799
  O  O180  1  0.192000  0.764500  0.551400  1.0  -0.8231
  O  O181  1  0.273000  0.863900  0.774800  1.0  -0.7974
  O  O182  1  0.343200  0.004300  0.671600  1.0  -0.7459
  O  O183  1  0.877500  0.834500  0.504900  1.0  -0.5018
  O  O184  1  0.985900  0.070000  0.669200  1.0  -0.508
  O  O185  1  0.005000  0.560200  0.369200  1.0  -0.5072
  O  O186  1  0.181400  0.526600  0.475300  1.0  -0.5178
  O  O187  1  0.355300  0.065600  0.986100  1.0  -0.5226
  O  O188  1  0.332600  0.846500  0.973600  1.0  -0.5207
  O  O189  1  0.550100  0.960600  0.640700  1.0  -0.5165
  O  O190  1  0.543400  0.170800  0.652900  1.0  -0.5354
  O  O191  1  0.892800  0.082300  0.325700  1.0  -0.7817
  O  O192  1  0.808000  0.235500  0.448600  1.0  -0.8232
  O  O193  1  0.727000  0.136100  0.225200  1.0  -0.7963
  O  O194  1  0.656800  0.995700  0.328400  1.0  -0.7592
