# generated using pymatgen
data_Cu3H12C40N3(Cl3O4)3
_symmetry_space_group_name_H-M   'P 1'
_cell_length_a   18.83270000
_cell_length_b   18.83270000
_cell_length_c   18.83270000
_cell_angle_alpha   72.80770000
_cell_angle_beta   72.80770000
_cell_angle_gamma   72.80770000
_symmetry_Int_Tables_number   1
_chemical_formula_structural   Cu3H12C40N3(Cl3O4)3
_chemical_formula_sum   'Cu12 H48 C160 N12 Cl36 O48'
_cell_volume   5935.07871791
_cell_formula_units_Z   4
loop_
 _symmetry_equiv_pos_site_id
 _symmetry_equiv_pos_as_xyz
  1  'x, y, z'
loop_
 _atom_site_type_symbol
 _atom_site_label
 _atom_site_symmetry_multiplicity
 _atom_site_fract_x
 _atom_site_fract_y
 _atom_site_fract_z
 _atom_site_occupancy
 _atom_site_charge
  Cu  Cu1  1  0.412820  0.268270  0.850360  1.0  0.8905
  Cu  Cu2  1  0.850360  0.412820  0.268270  1.0  0.8898
  Cu  Cu3  1  0.268270  0.850360  0.412820  1.0  0.8888
  Cu  Cu4  1  0.231730  0.087190  0.649640  1.0  0.8947
  Cu  Cu5  1  0.087180  0.649640  0.231730  1.0  0.8906
  Cu  Cu6  1  0.649640  0.231730  0.087180  1.0  0.888
  Cu  Cu7  1  0.587180  0.731730  0.149640  1.0  0.8894
  Cu  Cu8  1  0.149640  0.587180  0.731730  1.0  0.8915
  Cu  Cu9  1  0.731730  0.149640  0.587180  1.0  0.8898
  Cu  Cu10  1  0.768270  0.912820  0.350360  1.0  0.8897
  Cu  Cu11  1  0.912820  0.350360  0.768270  1.0  0.8909
  Cu  Cu12  1  0.350360  0.768270  0.912820  1.0  0.8877
  H  H13  1  0.439600  0.305000  0.981800  1.0  0.1035
  H  H14  1  0.373200  0.375100  0.074100  1.0  0.1337
  H  H15  1  0.184600  0.413900  0.995900  1.0  0.1417
  H  H16  1  0.255900  0.342000  0.908000  1.0  0.1045
  H  H17  1  0.981800  0.439600  0.305000  1.0  0.1037
  H  H18  1  0.074100  0.373200  0.375100  1.0  0.1319
  H  H19  1  0.995900  0.184600  0.413900  1.0  0.1404
  H  H20  1  0.908000  0.255900  0.342000  1.0  0.1044
  H  H21  1  0.305000  0.981800  0.439600  1.0  0.1039
  H  H22  1  0.375100  0.074100  0.373200  1.0  0.1337
  H  H23  1  0.413900  0.995900  0.184600  1.0  0.1402
  H  H24  1  0.342000  0.908000  0.255900  1.0  0.104
  H  H25  1  0.195000  0.060400  0.518200  1.0  0.1039
  H  H26  1  0.124900  0.126800  0.425900  1.0  0.1333
  H  H27  1  0.086100  0.315400  0.504100  1.0  0.1405
  H  H28  1  0.158000  0.244100  0.592000  1.0  0.1045
  H  H29  1  0.060400  0.518200  0.195000  1.0  0.1054
  H  H30  1  0.126800  0.425900  0.124900  1.0  0.1306
  H  H31  1  0.315400  0.504100  0.086100  1.0  0.1421
  H  H32  1  0.244100  0.592000  0.158000  1.0  0.104
  H  H33  1  0.518200  0.195000  0.060400  1.0  0.1034
  H  H34  1  0.425900  0.124900  0.126800  1.0  0.1333
  H  H35  1  0.504100  0.086100  0.315400  1.0  0.1398
  H  H36  1  0.592000  0.158000  0.244100  1.0  0.1036
  H  H37  1  0.560400  0.695000  0.018200  1.0  0.1033
  H  H38  1  0.626800  0.624900  0.925900  1.0  0.1332
  H  H39  1  0.815400  0.586100  0.004100  1.0  0.1415
  H  H40  1  0.744100  0.658000  0.092000  1.0  0.1032
  H  H41  1  0.018200  0.560400  0.695000  1.0  0.104
  H  H42  1  0.925900  0.626800  0.624900  1.0  0.1317
  H  H43  1  0.004100  0.815400  0.586100  1.0  0.1404
  H  H44  1  0.092000  0.744100  0.658000  1.0  0.1047
  H  H45  1  0.695000  0.018200  0.560400  1.0  0.1033
  H  H46  1  0.624900  0.925900  0.626800  1.0  0.1332
  H  H47  1  0.586100  0.004100  0.815400  1.0  0.1399
  H  H48  1  0.658000  0.092000  0.744100  1.0  0.1042
  H  H49  1  0.805000  0.939600  0.481800  1.0  0.1041
  H  H50  1  0.875100  0.873200  0.574100  1.0  0.1331
  H  H51  1  0.913900  0.684600  0.495900  1.0  0.1412
  H  H52  1  0.842000  0.755900  0.408000  1.0  0.1045
  H  H53  1  0.939600  0.481800  0.805000  1.0  0.1046
  H  H54  1  0.873200  0.574100  0.875100  1.0  0.1312
  H  H55  1  0.684600  0.495900  0.913900  1.0  0.1431
  H  H56  1  0.755900  0.408000  0.842000  1.0  0.1037
  H  H57  1  0.481800  0.805000  0.939600  1.0  0.104
  H  H58  1  0.574100  0.875100  0.873200  1.0  0.1341
  H  H59  1  0.495900  0.913900  0.684600  1.0  0.1399
  H  H60  1  0.408000  0.842000  0.755900  1.0  0.1044
  C  C61  1  0.276910  0.913910  0.922110  1.0  0.713
  C  C62  1  0.254200  0.984800  0.954000  1.0  -0.1445
  C  C63  1  0.185860  0.001460  0.007060  1.0  0.0819
  C  C64  1  0.161300  0.069000  0.033200  1.0  -0.0972
  C  C65  1  0.387390  0.327490  0.985090  1.0  0.1643
  C  C66  1  0.348040  0.369940  0.040340  1.0  -0.2067
  C  C67  1  0.271510  0.404310  0.044310  1.0  0.0972
  C  C68  1  0.236780  0.392580  0.994080  1.0  -0.1817
  C  C69  1  0.279640  0.349440  0.941740  1.0  0.1632
  C  C70  1  0.343680  0.147080  0.941580  1.0  0.6757
  C  C71  1  0.284930  0.100430  0.959230  1.0  -0.1677
  C  C72  1  0.303600  0.034500  0.932000  1.0  0.1394
  C  C73  1  0.214170  0.116370  0.009370  1.0  0.0872
  C  C74  1  0.922110  0.276910  0.913910  1.0  0.7132
  C  C75  1  0.954000  0.254200  0.984800  1.0  -0.1447
  C  C76  1  0.007060  0.185860  0.001460  1.0  0.0798
  C  C77  1  0.033200  0.161300  0.069000  1.0  -0.0968
  C  C78  1  0.985090  0.387390  0.327490  1.0  0.1648
  C  C79  1  0.040340  0.348040  0.369940  1.0  -0.2095
  C  C80  1  0.044310  0.271510  0.404310  1.0  0.0956
  C  C81  1  0.994080  0.236780  0.392580  1.0  -0.1843
  C  C82  1  0.941740  0.279640  0.349440  1.0  0.1616
  C  C83  1  0.941580  0.343680  0.147080  1.0  0.6774
  C  C84  1  0.959230  0.284930  0.100430  1.0  -0.1665
  C  C85  1  0.932000  0.303600  0.034500  1.0  0.1383
  C  C86  1  0.009370  0.214170  0.116370  1.0  0.0894
  C  C87  1  0.913910  0.922110  0.276910  1.0  0.7112
  C  C88  1  0.984800  0.954000  0.254200  1.0  -0.1428
  C  C89  1  0.001460  0.007060  0.185860  1.0  0.0814
  C  C90  1  0.069000  0.033200  0.161300  1.0  -0.0973
  C  C91  1  0.327490  0.985090  0.387390  1.0  0.1641
  C  C92  1  0.369940  0.040340  0.348040  1.0  -0.2084
  C  C93  1  0.404310  0.044310  0.271510  1.0  0.0974
  C  C94  1  0.392580  0.994080  0.236780  1.0  -0.1819
  C  C95  1  0.349440  0.941740  0.279640  1.0  0.1616
  C  C96  1  0.147080  0.941580  0.343680  1.0  0.6769
  C  C97  1  0.100430  0.959230  0.284930  1.0  -0.1683
  C  C98  1  0.034500  0.932000  0.303600  1.0  0.1381
  C  C99  1  0.116370  0.009370  0.214170  1.0  0.0881
  C  C100  1  0.586090  0.223090  0.577890  1.0  0.7109
  C  C101  1  0.515200  0.245800  0.546000  1.0  -0.1438
  C  C102  1  0.498540  0.314140  0.492940  1.0  0.0797
  C  C103  1  0.431000  0.338700  0.466800  1.0  -0.0969
  C  C104  1  0.172510  0.112610  0.514910  1.0  0.1618
  C  C105  1  0.130060  0.151960  0.459660  1.0  -0.2077
  C  C106  1  0.095690  0.228490  0.455690  1.0  0.0964
  C  C107  1  0.107420  0.263220  0.505920  1.0  -0.1837
  C  C108  1  0.150560  0.220360  0.558260  1.0  0.1616
  C  C109  1  0.352920  0.156320  0.558420  1.0  0.6761
  C  C110  1  0.399570  0.215070  0.540770  1.0  -0.1662
  C  C111  1  0.465500  0.196400  0.568000  1.0  0.1398
  C  C112  1  0.383630  0.285830  0.490630  1.0  0.0888
  C  C113  1  0.223090  0.577890  0.586090  1.0  0.7132
  C  C114  1  0.245800  0.546000  0.515200  1.0  -0.145
  C  C115  1  0.314140  0.492940  0.498540  1.0  0.0824
  C  C116  1  0.338700  0.466800  0.431000  1.0  -0.097
  C  C117  1  0.112610  0.514910  0.172510  1.0  0.1637
  C  C118  1  0.151960  0.459660  0.130060  1.0  -0.2108
  C  C119  1  0.228490  0.455690  0.095690  1.0  0.0974
  C  C120  1  0.263220  0.505920  0.107420  1.0  -0.1844
  C  C121  1  0.220360  0.558260  0.150560  1.0  0.1627
  C  C122  1  0.156320  0.558420  0.352920  1.0  0.6777
  C  C123  1  0.215070  0.540770  0.399570  1.0  -0.1683
  C  C124  1  0.196400  0.568000  0.465500  1.0  0.1383
  C  C125  1  0.285830  0.490630  0.383630  1.0  0.0866
  C  C126  1  0.577890  0.586090  0.223090  1.0  0.7119
  C  C127  1  0.546000  0.515200  0.245800  1.0  -0.1446
  C  C128  1  0.492940  0.498540  0.314140  1.0  0.0783
  C  C129  1  0.466800  0.431000  0.338700  1.0  -0.0976
  C  C130  1  0.514910  0.172510  0.112610  1.0  0.1637
  C  C131  1  0.459660  0.130060  0.151960  1.0  -0.2091
  C  C132  1  0.455690  0.095690  0.228490  1.0  0.0947
  C  C133  1  0.505920  0.107420  0.263220  1.0  -0.1836
  C  C134  1  0.558260  0.150560  0.220360  1.0  0.1606
  C  C135  1  0.558420  0.352920  0.156320  1.0  0.6767
  C  C136  1  0.540770  0.399570  0.215070  1.0  -0.1678
  C  C137  1  0.568000  0.465500  0.196400  1.0  0.1404
  C  C138  1  0.490630  0.383630  0.285830  1.0  0.0873
  C  C139  1  0.723090  0.086090  0.077890  1.0  0.7124
  C  C140  1  0.745800  0.015200  0.046000  1.0  -0.1446
  C  C141  1  0.814140  0.998540  0.992940  1.0  0.0811
  C  C142  1  0.838700  0.931000  0.966800  1.0  -0.0971
  C  C143  1  0.612610  0.672510  0.014910  1.0  0.1629
  C  C144  1  0.651960  0.630060  0.959660  1.0  -0.2066
  C  C145  1  0.728490  0.595690  0.955690  1.0  0.0969
  C  C146  1  0.763220  0.607420  0.005920  1.0  -0.1817
  C  C147  1  0.720360  0.650560  0.058260  1.0  0.1624
  C  C148  1  0.656320  0.852920  0.058420  1.0  0.6766
  C  C149  1  0.715070  0.899570  0.040770  1.0  -0.1671
  C  C150  1  0.696400  0.965500  0.068000  1.0  0.1395
  C  C151  1  0.785830  0.883630  0.990630  1.0  0.0885
  C  C152  1  0.077890  0.723090  0.086090  1.0  0.7137
  C  C153  1  0.046000  0.745800  0.015200  1.0  -0.1447
  C  C154  1  0.992940  0.814140  0.998540  1.0  0.0818
  C  C155  1  0.966800  0.838700  0.931000  1.0  -0.0963
  C  C156  1  0.014910  0.612610  0.672510  1.0  0.1629
  C  C157  1  0.959660  0.651960  0.630060  1.0  -0.2108
  C  C158  1  0.955690  0.728490  0.595690  1.0  0.0945
  C  C159  1  0.005920  0.763220  0.607420  1.0  -0.1841
  C  C160  1  0.058260  0.720360  0.650560  1.0  0.1614
  C  C161  1  0.058420  0.656320  0.852920  1.0  0.6764
  C  C162  1  0.040770  0.715070  0.899570  1.0  -0.1666
  C  C163  1  0.068000  0.696400  0.965500  1.0  0.1394
  C  C164  1  0.990630  0.785830  0.883630  1.0  0.0881
  C  C165  1  0.086090  0.077890  0.723090  1.0  0.7108
  C  C166  1  0.015200  0.046000  0.745800  1.0  -0.1435
  C  C167  1  0.998540  0.992940  0.814140  1.0  0.0796
  C  C168  1  0.931000  0.966800  0.838700  1.0  -0.0975
  C  C169  1  0.672510  0.014910  0.612610  1.0  0.1633
  C  C170  1  0.630060  0.959660  0.651960  1.0  -0.209
  C  C171  1  0.595690  0.955690  0.728490  1.0  0.0971
  C  C172  1  0.607420  0.005920  0.763220  1.0  -0.1843
  C  C173  1  0.650560  0.058260  0.720360  1.0  0.161
  C  C174  1  0.852920  0.058420  0.656320  1.0  0.6761
  C  C175  1  0.899570  0.040770  0.715070  1.0  -0.1687
  C  C176  1  0.965500  0.068000  0.696400  1.0  0.1386
  C  C177  1  0.883630  0.990630  0.785830  1.0  0.0877
  C  C178  1  0.413910  0.776910  0.422110  1.0  0.7116
  C  C179  1  0.484800  0.754200  0.454000  1.0  -0.1427
  C  C180  1  0.501460  0.685860  0.507060  1.0  0.081
  C  C181  1  0.569000  0.661300  0.533200  1.0  -0.0975
  C  C182  1  0.827490  0.887390  0.485090  1.0  0.1623
  C  C183  1  0.869940  0.848040  0.540340  1.0  -0.2058
  C  C184  1  0.904310  0.771510  0.544310  1.0  0.0953
  C  C185  1  0.892580  0.736780  0.494080  1.0  -0.184
  C  C186  1  0.849440  0.779640  0.441740  1.0  0.163
  C  C187  1  0.647080  0.843680  0.441580  1.0  0.6759
  C  C188  1  0.600430  0.784930  0.459230  1.0  -0.167
  C  C189  1  0.534500  0.803600  0.432000  1.0  0.1382
  C  C190  1  0.616370  0.714170  0.509370  1.0  0.0885
  C  C191  1  0.776910  0.422110  0.413910  1.0  0.7129
  C  C192  1  0.754200  0.454000  0.484800  1.0  -0.1445
  C  C193  1  0.685860  0.507060  0.501460  1.0  0.0805
  C  C194  1  0.661300  0.533200  0.569000  1.0  -0.0964
  C  C195  1  0.887390  0.485090  0.827490  1.0  0.1645
  C  C196  1  0.848040  0.540340  0.869940  1.0  -0.2106
  C  C197  1  0.771510  0.544310  0.904310  1.0  0.0977
  C  C198  1  0.736780  0.494080  0.892580  1.0  -0.1842
  C  C199  1  0.779640  0.441740  0.849440  1.0  0.162
  C  C200  1  0.843680  0.441580  0.647080  1.0  0.6767
  C  C201  1  0.784930  0.459230  0.600430  1.0  -0.168
  C  C202  1  0.803600  0.432000  0.534500  1.0  0.1398
  C  C203  1  0.714170  0.509370  0.616370  1.0  0.0899
  C  C204  1  0.422110  0.413910  0.776910  1.0  0.7131
  C  C205  1  0.454000  0.484800  0.754200  1.0  -0.144
  C  C206  1  0.507060  0.501460  0.685860  1.0  0.0805
  C  C207  1  0.533200  0.569000  0.661300  1.0  -0.0974
  C  C208  1  0.485090  0.827490  0.887390  1.0  0.1647
  C  C209  1  0.540340  0.869940  0.848040  1.0  -0.2086
  C  C210  1  0.544310  0.904310  0.771510  1.0  0.0965
  C  C211  1  0.494080  0.892580  0.736780  1.0  -0.1827
  C  C212  1  0.441740  0.849440  0.779640  1.0  0.1618
  C  C213  1  0.441580  0.647080  0.843680  1.0  0.6775
  C  C214  1  0.459230  0.600430  0.784930  1.0  -0.1677
  C  C215  1  0.432000  0.534500  0.803600  1.0  0.1396
  C  C216  1  0.509370  0.616370  0.714170  1.0  0.0878
  C  C217  1  0.086530  0.086530  0.086530  1.0  -0.0627
  C  C218  1  0.413470  0.413470  0.413470  1.0  -0.0628
  C  C219  1  0.913470  0.913470  0.913470  1.0  -0.0628
  C  C220  1  0.586530  0.586530  0.586530  1.0  -0.0627
  N  N221  1  0.353710  0.317710  0.937410  1.0  -0.2926
  N  N222  1  0.937410  0.353710  0.317710  1.0  -0.2913
  N  N223  1  0.317710  0.937410  0.353710  1.0  -0.2915
  N  N224  1  0.182290  0.146290  0.562590  1.0  -0.2918
  N  N225  1  0.146290  0.562590  0.182290  1.0  -0.2929
  N  N226  1  0.562590  0.182290  0.146290  1.0  -0.2906
  N  N227  1  0.646290  0.682290  0.062590  1.0  -0.2935
  N  N228  1  0.062590  0.646290  0.682290  1.0  -0.2908
  N  N229  1  0.682290  0.062590  0.646290  1.0  -0.2912
  N  N230  1  0.817710  0.853710  0.437410  1.0  -0.2914
  N  N231  1  0.853710  0.437410  0.817710  1.0  -0.2932
  N  N232  1  0.437410  0.817710  0.853710  1.0  -0.2896
  Cl  Cl233  1  0.388910  0.015730  0.866360  1.0  -0.101
  Cl  Cl234  1  0.127730  0.937660  0.033590  1.0  -0.0563
  Cl  Cl235  1  0.191700  0.200050  0.040350  1.0  -0.067
  Cl  Cl236  1  0.866360  0.388910  0.015730  1.0  -0.1001
  Cl  Cl237  1  0.033590  0.127730  0.937660  1.0  -0.0597
  Cl  Cl238  1  0.040350  0.191700  0.200050  1.0  -0.0674
  Cl  Cl239  1  0.015730  0.866360  0.388910  1.0  -0.102
  Cl  Cl240  1  0.937660  0.033590  0.127730  1.0  -0.0563
  Cl  Cl241  1  0.200050  0.040350  0.191700  1.0  -0.0671
  Cl  Cl242  1  0.484270  0.111090  0.633640  1.0  -0.1011
  Cl  Cl243  1  0.562340  0.372270  0.466410  1.0  -0.0566
  Cl  Cl244  1  0.299950  0.308300  0.459650  1.0  -0.0661
  Cl  Cl245  1  0.111090  0.633640  0.484270  1.0  -0.1015
  Cl  Cl246  1  0.372270  0.466410  0.562340  1.0  -0.0592
  Cl  Cl247  1  0.308300  0.459650  0.299950  1.0  -0.0684
  Cl  Cl248  1  0.633640  0.484270  0.111090  1.0  -0.1014
  Cl  Cl249  1  0.466410  0.562340  0.372270  1.0  -0.0582
  Cl  Cl250  1  0.459650  0.299950  0.308300  1.0  -0.0658
  Cl  Cl251  1  0.611090  0.984270  0.133640  1.0  -0.1008
  Cl  Cl252  1  0.872270  0.062340  0.966410  1.0  -0.0559
  Cl  Cl253  1  0.808300  0.799950  0.959650  1.0  -0.0671
  Cl  Cl254  1  0.133640  0.611090  0.984270  1.0  -0.1023
  Cl  Cl255  1  0.966410  0.872270  0.062340  1.0  -0.0593
  Cl  Cl256  1  0.959650  0.808300  0.799950  1.0  -0.0676
  Cl  Cl257  1  0.984270  0.133640  0.611090  1.0  -0.1022
  Cl  Cl258  1  0.062340  0.966410  0.872270  1.0  -0.0571
  Cl  Cl259  1  0.799950  0.959650  0.808300  1.0  -0.0667
  Cl  Cl260  1  0.515730  0.888910  0.366360  1.0  -0.1018
  Cl  Cl261  1  0.437660  0.627730  0.533590  1.0  -0.0572
  Cl  Cl262  1  0.700050  0.691700  0.540350  1.0  -0.067
  Cl  Cl263  1  0.888910  0.366360  0.515730  1.0  -0.1015
  Cl  Cl264  1  0.627730  0.533590  0.437660  1.0  -0.0586
  Cl  Cl265  1  0.691700  0.540350  0.700050  1.0  -0.0676
  Cl  Cl266  1  0.366360  0.515730  0.888910  1.0  -0.1011
  Cl  Cl267  1  0.533590  0.437660  0.627730  1.0  -0.0576
  Cl  Cl268  1  0.540350  0.700050  0.691700  1.0  -0.0663
  O  O269  1  0.347470  0.195970  0.884370  1.0  -0.5504
  O  O270  1  0.306390  0.853490  0.963460  1.0  -0.5687
  O  O271  1  0.266480  0.920680  0.858180  1.0  -0.4993
  O  O272  1  0.384790  0.129090  0.988390  1.0  -0.5417
  O  O273  1  0.884370  0.347470  0.195970  1.0  -0.5497
  O  O274  1  0.963460  0.306390  0.853490  1.0  -0.567
  O  O275  1  0.858180  0.266480  0.920680  1.0  -0.5017
  O  O276  1  0.988390  0.384790  0.129090  1.0  -0.5341
  O  O277  1  0.195970  0.884370  0.347470  1.0  -0.5471
  O  O278  1  0.853490  0.963460  0.306390  1.0  -0.566
  O  O279  1  0.920680  0.858180  0.266480  1.0  -0.4956
  O  O280  1  0.129090  0.988390  0.384790  1.0  -0.5376
  O  O281  1  0.304030  0.152530  0.615630  1.0  -0.5497
  O  O282  1  0.646510  0.193610  0.536540  1.0  -0.5669
  O  O283  1  0.579320  0.233520  0.641820  1.0  -0.4984
  O  O284  1  0.370910  0.115210  0.511610  1.0  -0.5387
  O  O285  1  0.152530  0.615630  0.304030  1.0  -0.5462
  O  O286  1  0.193610  0.536540  0.646510  1.0  -0.5645
  O  O287  1  0.233520  0.641820  0.579320  1.0  -0.4957
  O  O288  1  0.115210  0.511610  0.370910  1.0  -0.5337
  O  O289  1  0.615630  0.304030  0.152530  1.0  -0.5494
  O  O290  1  0.536540  0.646510  0.193610  1.0  -0.568
  O  O291  1  0.641820  0.579320  0.233520  1.0  -0.4992
  O  O292  1  0.511610  0.370910  0.115210  1.0  -0.5402
  O  O293  1  0.652530  0.804030  0.115630  1.0  -0.5504
  O  O294  1  0.693610  0.146510  0.036540  1.0  -0.566
  O  O295  1  0.733520  0.079320  0.141820  1.0  -0.497
  O  O296  1  0.615210  0.870910  0.011610  1.0  -0.5396
  O  O297  1  0.115630  0.652530  0.804030  1.0  -0.5492
  O  O298  1  0.036540  0.693610  0.146510  1.0  -0.567
  O  O299  1  0.141820  0.733520  0.079320  1.0  -0.5005
  O  O300  1  0.011610  0.615210  0.870910  1.0  -0.5347
  O  O301  1  0.804030  0.115630  0.652530  1.0  -0.5469
  O  O302  1  0.146510  0.036540  0.693610  1.0  -0.5669
  O  O303  1  0.079320  0.141820  0.733520  1.0  -0.4954
  O  O304  1  0.870910  0.011610  0.615210  1.0  -0.5396
  O  O305  1  0.695970  0.847470  0.384370  1.0  -0.5487
  O  O306  1  0.353490  0.806390  0.463460  1.0  -0.5677
  O  O307  1  0.420680  0.766480  0.358180  1.0  -0.4986
  O  O308  1  0.629090  0.884790  0.488390  1.0  -0.538
  O  O309  1  0.847470  0.384370  0.695970  1.0  -0.5475
  O  O310  1  0.806390  0.463460  0.353490  1.0  -0.5642
  O  O311  1  0.766480  0.358180  0.420680  1.0  -0.4967
  O  O312  1  0.884790  0.488390  0.629090  1.0  -0.5341
  O  O313  1  0.384370  0.695970  0.847470  1.0  -0.5496
  O  O314  1  0.463460  0.353490  0.806390  1.0  -0.5679
  O  O315  1  0.358180  0.420680  0.766480  1.0  -0.4993
  O  O316  1  0.488390  0.629090  0.884790  1.0  -0.5401
