# generated using pymatgen
data_Cu3H13C40N3(Cl3O4)3
_symmetry_space_group_name_H-M   'P 1'
_cell_length_a   18.87640000
_cell_length_b   18.87640000
_cell_length_c   18.87640000
_cell_angle_alpha   72.96870000
_cell_angle_beta   72.96870000
_cell_angle_gamma   72.96870000
_symmetry_Int_Tables_number   1
_chemical_formula_structural   Cu3H13C40N3(Cl3O4)3
_chemical_formula_sum   'Cu12 H52 C160 N12 Cl36 O48'
_cell_volume   5989.14150305
_cell_formula_units_Z   4
loop_
 _symmetry_equiv_pos_site_id
 _symmetry_equiv_pos_as_xyz
  1  'x, y, z'
loop_
 _atom_site_type_symbol
 _atom_site_label
 _atom_site_symmetry_multiplicity
 _atom_site_fract_x
 _atom_site_fract_y
 _atom_site_fract_z
 _atom_site_occupancy
 _atom_site_charge
  Cu  Cu1  1  0.410570  0.268590  0.851910  1.0  0.8557
  Cu  Cu2  1  0.851910  0.410570  0.268590  1.0  0.8541
  Cu  Cu3  1  0.268590  0.851910  0.410570  1.0  0.854
  Cu  Cu4  1  0.231410  0.089430  0.648090  1.0  0.8558
  Cu  Cu5  1  0.089430  0.648090  0.231410  1.0  0.855
  Cu  Cu6  1  0.648090  0.231410  0.089430  1.0  0.8524
  Cu  Cu7  1  0.589430  0.731410  0.148090  1.0  0.8542
  Cu  Cu8  1  0.148090  0.589430  0.731410  1.0  0.8557
  Cu  Cu9  1  0.731410  0.148090  0.589430  1.0  0.8538
  Cu  Cu10  1  0.768590  0.910570  0.351910  1.0  0.8548
  Cu  Cu11  1  0.910570  0.351910  0.768590  1.0  0.8548
  Cu  Cu12  1  0.351910  0.768590  0.910570  1.0  0.854
  H  H13  1  0.440200  0.304200  0.983800  1.0  0.0904
  H  H14  1  0.374800  0.370400  0.078100  1.0  0.1426
  H  H15  1  0.184000  0.403200  0.006900  1.0  0.1387
  H  H16  1  0.255000  0.335600  0.915900  1.0  0.0967
  H  H17  1  0.983800  0.440200  0.304200  1.0  0.0903
  H  H18  1  0.078100  0.374800  0.370400  1.0  0.1408
  H  H19  1  0.006900  0.184000  0.403200  1.0  0.1389
  H  H20  1  0.915900  0.255000  0.335600  1.0  0.0971
  H  H21  1  0.304200  0.983800  0.440200  1.0  0.0907
  H  H22  1  0.370400  0.078100  0.374800  1.0  0.1419
  H  H23  1  0.403200  0.006900  0.184000  1.0  0.1396
  H  H24  1  0.335600  0.915900  0.255000  1.0  0.0977
  H  H25  1  0.195800  0.059800  0.516200  1.0  0.0906
  H  H26  1  0.129600  0.125200  0.421900  1.0  0.1417
  H  H27  1  0.096800  0.316000  0.493100  1.0  0.139
  H  H28  1  0.164400  0.245000  0.584100  1.0  0.0978
  H  H29  1  0.059800  0.516200  0.195800  1.0  0.0925
  H  H30  1  0.125200  0.421900  0.129600  1.0  0.1395
  H  H31  1  0.316000  0.493100  0.096800  1.0  0.1403
  H  H32  1  0.245000  0.584100  0.164400  1.0  0.0974
  H  H33  1  0.516200  0.195800  0.059800  1.0  0.0901
  H  H34  1  0.421900  0.129600  0.125200  1.0  0.1412
  H  H35  1  0.493100  0.096800  0.316000  1.0  0.1383
  H  H36  1  0.584100  0.164400  0.245000  1.0  0.0972
  H  H37  1  0.559800  0.695800  0.016200  1.0  0.0903
  H  H38  1  0.625200  0.629600  0.921900  1.0  0.1418
  H  H39  1  0.816000  0.596800  0.993100  1.0  0.1393
  H  H40  1  0.745000  0.664400  0.084100  1.0  0.0967
  H  H41  1  0.016200  0.559800  0.695800  1.0  0.0906
  H  H42  1  0.921900  0.625200  0.629600  1.0  0.1403
  H  H43  1  0.993100  0.816000  0.596800  1.0  0.1392
  H  H44  1  0.084100  0.745000  0.664400  1.0  0.0979
  H  H45  1  0.695800  0.016200  0.559800  1.0  0.0898
  H  H46  1  0.629600  0.921900  0.625200  1.0  0.1409
  H  H47  1  0.596800  0.993100  0.816000  1.0  0.1385
  H  H48  1  0.664400  0.084100  0.745000  1.0  0.0981
  H  H49  1  0.804200  0.940200  0.483800  1.0  0.0906
  H  H50  1  0.870400  0.874800  0.578100  1.0  0.1427
  H  H51  1  0.903200  0.684000  0.506900  1.0  0.1397
  H  H52  1  0.835600  0.755000  0.415900  1.0  0.0977
  H  H53  1  0.940200  0.483800  0.804200  1.0  0.0912
  H  H54  1  0.874800  0.578100  0.870400  1.0  0.1402
  H  H55  1  0.684000  0.506900  0.903200  1.0  0.1415
  H  H56  1  0.755000  0.415900  0.835600  1.0  0.0968
  H  H57  1  0.483800  0.804200  0.940200  1.0  0.0909
  H  H58  1  0.578100  0.870400  0.874800  1.0  0.142
  H  H59  1  0.506900  0.903200  0.684000  1.0  0.139
  H  H60  1  0.415900  0.835600  0.755000  1.0  0.0967
  H  H61  1  0.056430  0.056430  0.056430  1.0  0.0439
  H  H62  1  0.443570  0.443570  0.443570  1.0  0.0364
  H  H63  1  0.943570  0.943570  0.943570  1.0  0.0364
  H  H64  1  0.556430  0.556430  0.556430  1.0  0.0439
  C  C65  1  0.342610  0.145310  0.946610  1.0  0.6685
  C  C66  1  0.280170  0.913970  0.919270  1.0  0.6607
  C  C67  1  0.284870  0.097570  0.962270  1.0  -0.1588
  C  C68  1  0.304300  0.033400  0.933000  1.0  0.1732
  C  C69  1  0.256710  0.984010  0.952910  1.0  -0.1595
  C  C70  1  0.187260  0.000160  0.004860  1.0  0.1227
  C  C71  1  0.162050  0.066450  0.033050  1.0  -0.1023
  C  C72  1  0.212900  0.114000  0.009500  1.0  0.1331
  C  C73  1  0.387810  0.325210  0.988510  1.0  0.1613
  C  C74  1  0.349300  0.365000  0.044800  1.0  -0.192
  C  C75  1  0.271560  0.397060  0.050760  1.0  0.1054
  C  C76  1  0.236600  0.384300  0.002900  1.0  -0.1837
  C  C77  1  0.279440  0.343640  0.948640  1.0  0.1744
  C  C78  1  0.946610  0.342610  0.145310  1.0  0.6685
  C  C79  1  0.919270  0.280170  0.913970  1.0  0.6598
  C  C80  1  0.962270  0.284870  0.097570  1.0  -0.1583
  C  C81  1  0.933000  0.304300  0.033400  1.0  0.1719
  C  C82  1  0.952910  0.256710  0.984010  1.0  -0.1598
  C  C83  1  0.004860  0.187260  0.000160  1.0  0.1236
  C  C84  1  0.033050  0.162050  0.066450  1.0  -0.0987
  C  C85  1  0.009500  0.212900  0.114000  1.0  0.1358
  C  C86  1  0.988510  0.387810  0.325210  1.0  0.161
  C  C87  1  0.044800  0.349300  0.365000  1.0  -0.1944
  C  C88  1  0.050760  0.271560  0.397060  1.0  0.1041
  C  C89  1  0.002900  0.236600  0.384300  1.0  -0.1867
  C  C90  1  0.948640  0.279440  0.343640  1.0  0.1723
  C  C91  1  0.145310  0.946610  0.342610  1.0  0.67
  C  C92  1  0.913970  0.919270  0.280170  1.0  0.6582
  C  C93  1  0.097570  0.962270  0.284870  1.0  -0.1587
  C  C94  1  0.033400  0.933000  0.304300  1.0  0.1717
  C  C95  1  0.984010  0.952910  0.256710  1.0  -0.1582
  C  C96  1  0.000160  0.004860  0.187260  1.0  0.1243
  C  C97  1  0.066450  0.033050  0.162050  1.0  -0.0967
  C  C98  1  0.114000  0.009500  0.212900  1.0  0.1322
  C  C99  1  0.325210  0.988510  0.387810  1.0  0.1607
  C  C100  1  0.365000  0.044800  0.349300  1.0  -0.1933
  C  C101  1  0.397060  0.050760  0.271560  1.0  0.1056
  C  C102  1  0.384300  0.002900  0.236600  1.0  -0.1839
  C  C103  1  0.343640  0.948640  0.279440  1.0  0.1718
  C  C104  1  0.354690  0.157390  0.553390  1.0  0.6684
  C  C105  1  0.586030  0.219830  0.580730  1.0  0.6583
  C  C106  1  0.402430  0.215130  0.537730  1.0  -0.1585
  C  C107  1  0.466600  0.195700  0.567000  1.0  0.1723
  C  C108  1  0.515990  0.243290  0.547090  1.0  -0.1586
  C  C109  1  0.499840  0.312740  0.495140  1.0  0.1228
  C  C110  1  0.433550  0.337950  0.466950  1.0  -0.1026
  C  C111  1  0.386000  0.287100  0.490500  1.0  0.1337
  C  C112  1  0.174790  0.112190  0.511490  1.0  0.159
  C  C113  1  0.135000  0.150700  0.455200  1.0  -0.193
  C  C114  1  0.102940  0.228440  0.449240  1.0  0.105
  C  C115  1  0.115700  0.263400  0.497100  1.0  -0.1862
  C  C116  1  0.156360  0.220560  0.551360  1.0  0.1735
  C  C117  1  0.157390  0.553390  0.354690  1.0  0.6696
  C  C118  1  0.219830  0.580730  0.586030  1.0  0.6608
  C  C119  1  0.215130  0.537730  0.402430  1.0  -0.1587
  C  C120  1  0.195700  0.567000  0.466600  1.0  0.1715
  C  C121  1  0.243290  0.547090  0.515990  1.0  -0.1599
  C  C122  1  0.312740  0.495140  0.499840  1.0  0.1262
  C  C123  1  0.337950  0.466950  0.433550  1.0  -0.0979
  C  C124  1  0.287100  0.490500  0.386000  1.0  0.1337
  C  C125  1  0.112190  0.511490  0.174790  1.0  0.1597
  C  C126  1  0.150700  0.455200  0.135000  1.0  -0.1945
  C  C127  1  0.228440  0.449240  0.102940  1.0  0.1055
  C  C128  1  0.263400  0.497100  0.115700  1.0  -0.1853
  C  C129  1  0.220560  0.551360  0.156360  1.0  0.1727
  C  C130  1  0.553390  0.354690  0.157390  1.0  0.6697
  C  C131  1  0.580730  0.586030  0.219830  1.0  0.6585
  C  C132  1  0.537730  0.402430  0.215130  1.0  -0.1598
  C  C133  1  0.567000  0.466600  0.195700  1.0  0.173
  C  C134  1  0.547090  0.515990  0.243290  1.0  -0.1594
  C  C135  1  0.495140  0.499840  0.312740  1.0  0.1222
  C  C136  1  0.466950  0.433550  0.337950  1.0  -0.0957
  C  C137  1  0.490500  0.386000  0.287100  1.0  0.1332
  C  C138  1  0.511490  0.174790  0.112190  1.0  0.1593
  C  C139  1  0.455200  0.135000  0.150700  1.0  -0.1959
  C  C140  1  0.449240  0.102940  0.228440  1.0  0.104
  C  C141  1  0.497100  0.115700  0.263400  1.0  -0.1847
  C  C142  1  0.551360  0.156360  0.220560  1.0  0.1705
  C  C143  1  0.657390  0.854690  0.053390  1.0  0.6694
  C  C144  1  0.719830  0.086030  0.080730  1.0  0.6603
  C  C145  1  0.715130  0.902430  0.037730  1.0  -0.1583
  C  C146  1  0.695700  0.966600  0.067000  1.0  0.1726
  C  C147  1  0.743290  0.015990  0.047090  1.0  -0.1597
  C  C148  1  0.812740  0.999840  0.995140  1.0  0.1222
  C  C149  1  0.837950  0.933550  0.966950  1.0  -0.1021
  C  C150  1  0.787100  0.886000  0.990500  1.0  0.1335
  C  C151  1  0.612190  0.674790  0.011490  1.0  0.1602
  C  C152  1  0.650700  0.635000  0.955200  1.0  -0.1927
  C  C153  1  0.728440  0.602940  0.949240  1.0  0.105
  C  C154  1  0.763400  0.615700  0.997100  1.0  -0.1839
  C  C155  1  0.720560  0.656360  0.051360  1.0  0.1722
  C  C156  1  0.053390  0.657390  0.854690  1.0  0.6687
  C  C157  1  0.080730  0.719830  0.086030  1.0  0.6596
  C  C158  1  0.037730  0.715130  0.902430  1.0  -0.1588
  C  C159  1  0.067000  0.695700  0.966600  1.0  0.1732
  C  C160  1  0.047090  0.743290  0.015990  1.0  -0.1592
  C  C161  1  0.995140  0.812740  0.999840  1.0  0.1269
  C  C162  1  0.966950  0.837950  0.933550  1.0  -0.0982
  C  C163  1  0.990500  0.787100  0.886000  1.0  0.134
  C  C164  1  0.011490  0.612190  0.674790  1.0  0.1603
  C  C165  1  0.955200  0.650700  0.635000  1.0  -0.1959
  C  C166  1  0.949240  0.728440  0.602940  1.0  0.1038
  C  C167  1  0.997100  0.763400  0.615700  1.0  -0.1867
  C  C168  1  0.051360  0.720560  0.656360  1.0  0.1714
  C  C169  1  0.854690  0.053390  0.657390  1.0  0.67
  C  C170  1  0.086030  0.080730  0.719830  1.0  0.6589
  C  C171  1  0.902430  0.037730  0.715130  1.0  -0.1594
  C  C172  1  0.966600  0.067000  0.695700  1.0  0.1707
  C  C173  1  0.015990  0.047090  0.743290  1.0  -0.1586
  C  C174  1  0.999840  0.995140  0.812740  1.0  0.1233
  C  C175  1  0.933550  0.966950  0.837950  1.0  -0.0952
  C  C176  1  0.886000  0.990500  0.787100  1.0  0.1322
  C  C177  1  0.674790  0.011490  0.612190  1.0  0.16
  C  C178  1  0.635000  0.955200  0.650700  1.0  -0.1952
  C  C179  1  0.602940  0.949240  0.728440  1.0  0.1056
  C  C180  1  0.615700  0.997100  0.763400  1.0  -0.1844
  C  C181  1  0.656360  0.051360  0.720560  1.0  0.1726
  C  C182  1  0.645310  0.842610  0.446610  1.0  0.6679
  C  C183  1  0.413970  0.780170  0.419270  1.0  0.6581
  C  C184  1  0.597570  0.784870  0.462270  1.0  -0.1591
  C  C185  1  0.533400  0.804300  0.433000  1.0  0.1716
  C  C186  1  0.484010  0.756710  0.452910  1.0  -0.1577
  C  C187  1  0.500160  0.687260  0.504860  1.0  0.1243
  C  C188  1  0.566450  0.662050  0.533050  1.0  -0.1026
  C  C189  1  0.614000  0.712900  0.509500  1.0  0.1334
  C  C190  1  0.825210  0.887810  0.488510  1.0  0.16
  C  C191  1  0.865000  0.849300  0.544800  1.0  -0.1911
  C  C192  1  0.897060  0.771560  0.550760  1.0  0.105
  C  C193  1  0.884300  0.736600  0.502900  1.0  -0.1864
  C  C194  1  0.843640  0.779440  0.448640  1.0  0.1733
  C  C195  1  0.842610  0.446610  0.645310  1.0  0.6687
  C  C196  1  0.780170  0.419270  0.413970  1.0  0.6605
  C  C197  1  0.784870  0.462270  0.597570  1.0  -0.1586
  C  C198  1  0.804300  0.433000  0.533400  1.0  0.173
  C  C199  1  0.756710  0.452910  0.484010  1.0  -0.16
  C  C200  1  0.687260  0.504860  0.500160  1.0  0.1223
  C  C201  1  0.662050  0.533050  0.566450  1.0  -0.0983
  C  C202  1  0.712900  0.509500  0.614000  1.0  0.1355
  C  C203  1  0.887810  0.488510  0.825210  1.0  0.1604
  C  C204  1  0.849300  0.544800  0.865000  1.0  -0.1947
  C  C205  1  0.771560  0.550760  0.897060  1.0  0.1054
  C  C206  1  0.736600  0.502900  0.884300  1.0  -0.1869
  C  C207  1  0.779440  0.448640  0.843640  1.0  0.1723
  C  C208  1  0.446610  0.645310  0.842610  1.0  0.6703
  C  C209  1  0.419270  0.413970  0.780170  1.0  0.6585
  C  C210  1  0.462270  0.597570  0.784870  1.0  -0.1591
  C  C211  1  0.433000  0.533400  0.804300  1.0  0.1726
  C  C212  1  0.452910  0.484010  0.756710  1.0  -0.1588
  C  C213  1  0.504860  0.500160  0.687260  1.0  0.1234
  C  C214  1  0.533050  0.566450  0.662050  1.0  -0.0966
  C  C215  1  0.509500  0.614000  0.712900  1.0  0.1323
  C  C216  1  0.488510  0.825210  0.887810  1.0  0.1601
  C  C217  1  0.544800  0.865000  0.849300  1.0  -0.1938
  C  C218  1  0.550760  0.897060  0.771560  1.0  0.1047
  C  C219  1  0.502900  0.884300  0.736600  1.0  -0.1849
  C  C220  1  0.448640  0.843640  0.779440  1.0  0.1725
  C  C221  1  0.080430  0.080430  0.080430  1.0  0.0479
  C  C222  1  0.419570  0.419570  0.419570  1.0  0.0505
  C  C223  1  0.919570  0.919570  0.919570  1.0  0.0505
  C  C224  1  0.580430  0.580430  0.580430  1.0  0.0479
  N  N225  1  0.353560  0.315560  0.940760  1.0  -0.3092
  N  N226  1  0.940760  0.353560  0.315560  1.0  -0.3091
  N  N227  1  0.315560  0.940760  0.353560  1.0  -0.3088
  N  N228  1  0.184440  0.146440  0.559240  1.0  -0.3094
  N  N229  1  0.146440  0.559240  0.184440  1.0  -0.3108
  N  N230  1  0.559240  0.184440  0.146440  1.0  -0.3079
  N  N231  1  0.646440  0.684440  0.059240  1.0  -0.3102
  N  N232  1  0.059240  0.646440  0.684440  1.0  -0.3083
  N  N233  1  0.684440  0.059240  0.646440  1.0  -0.3089
  N  N234  1  0.815560  0.853560  0.440760  1.0  -0.3105
  N  N235  1  0.853560  0.440760  0.815560  1.0  -0.31
  N  N236  1  0.440760  0.815560  0.853560  1.0  -0.3081
  Cl  Cl237  1  0.391440  0.014990  0.869700  1.0  -0.0779
  Cl  Cl238  1  0.131400  0.934510  0.031690  1.0  -0.011
  Cl  Cl239  1  0.189980  0.197820  0.039890  1.0  -0.0667
  Cl  Cl240  1  0.869700  0.391440  0.014990  1.0  -0.0768
  Cl  Cl241  1  0.031690  0.131400  0.934510  1.0  -0.0077
  Cl  Cl242  1  0.039890  0.189980  0.197820  1.0  -0.0665
  Cl  Cl243  1  0.014990  0.869700  0.391440  1.0  -0.0789
  Cl  Cl244  1  0.934510  0.031690  0.131400  1.0  -0.0098
  Cl  Cl245  1  0.197820  0.039890  0.189980  1.0  -0.0673
  Cl  Cl246  1  0.485010  0.108560  0.630300  1.0  -0.0779
  Cl  Cl247  1  0.565490  0.368600  0.468310  1.0  -0.0095
  Cl  Cl248  1  0.302180  0.310020  0.460110  1.0  -0.0661
  Cl  Cl249  1  0.108560  0.630300  0.485010  1.0  -0.0778
  Cl  Cl250  1  0.368600  0.468310  0.565490  1.0  -0.0083
  Cl  Cl251  1  0.310020  0.460110  0.302180  1.0  -0.0654
  Cl  Cl252  1  0.630300  0.485010  0.108560  1.0  -0.0794
  Cl  Cl253  1  0.468310  0.565490  0.368600  1.0  -0.0105
  Cl  Cl254  1  0.460110  0.302180  0.310020  1.0  -0.0654
  Cl  Cl255  1  0.608560  0.985010  0.130300  1.0  -0.0776
  Cl  Cl256  1  0.868600  0.065490  0.968310  1.0  -0.0095
  Cl  Cl257  1  0.810020  0.802180  0.960110  1.0  -0.0655
  Cl  Cl258  1  0.130300  0.608560  0.985010  1.0  -0.0774
  Cl  Cl259  1  0.968310  0.868600  0.065490  1.0  -0.0089
  Cl  Cl260  1  0.960110  0.810020  0.802180  1.0  -0.0655
  Cl  Cl261  1  0.985010  0.130300  0.608560  1.0  -0.0799
  Cl  Cl262  1  0.065490  0.968310  0.868600  1.0  -0.0101
  Cl  Cl263  1  0.802180  0.960110  0.810020  1.0  -0.0663
  Cl  Cl264  1  0.514990  0.891440  0.369700  1.0  -0.0784
  Cl  Cl265  1  0.434510  0.631400  0.531690  1.0  -0.0096
  Cl  Cl266  1  0.697820  0.689980  0.539890  1.0  -0.0668
  Cl  Cl267  1  0.891440  0.369700  0.514990  1.0  -0.0782
  Cl  Cl268  1  0.631400  0.531690  0.434510  1.0  -0.0082
  Cl  Cl269  1  0.689980  0.539890  0.697820  1.0  -0.0664
  Cl  Cl270  1  0.369700  0.514990  0.891440  1.0  -0.0787
  Cl  Cl271  1  0.531690  0.434510  0.631400  1.0  -0.0095
  Cl  Cl272  1  0.539890  0.697820  0.689980  1.0  -0.0662
  O  O273  1  0.344100  0.196740  0.886790  1.0  -0.5857
  O  O274  1  0.382630  0.129230  0.992630  1.0  -0.5705
  O  O275  1  0.307400  0.852760  0.961410  1.0  -0.5751
  O  O276  1  0.272730  0.922310  0.854050  1.0  -0.5634
  O  O277  1  0.886790  0.344100  0.196740  1.0  -0.5835
  O  O278  1  0.992630  0.382630  0.129230  1.0  -0.5681
  O  O279  1  0.961410  0.307400  0.852760  1.0  -0.5718
  O  O280  1  0.854050  0.272730  0.922310  1.0  -0.5687
  O  O281  1  0.196740  0.886790  0.344100  1.0  -0.5837
  O  O282  1  0.129230  0.992630  0.382630  1.0  -0.5703
  O  O283  1  0.852760  0.961410  0.307400  1.0  -0.5713
  O  O284  1  0.922310  0.854050  0.272730  1.0  -0.5606
  O  O285  1  0.303260  0.155900  0.613210  1.0  -0.5855
  O  O286  1  0.370770  0.117370  0.507370  1.0  -0.5702
  O  O287  1  0.647240  0.192600  0.538590  1.0  -0.5722
  O  O288  1  0.577690  0.227270  0.645950  1.0  -0.5637
  O  O289  1  0.155900  0.613210  0.303260  1.0  -0.5817
  O  O290  1  0.117370  0.507370  0.370770  1.0  -0.5676
  O  O291  1  0.192600  0.538590  0.647240  1.0  -0.5705
  O  O292  1  0.227270  0.645950  0.577690  1.0  -0.5616
  O  O293  1  0.613210  0.303260  0.155900  1.0  -0.5836
  O  O294  1  0.507370  0.370770  0.117370  1.0  -0.5712
  O  O295  1  0.538590  0.647240  0.192600  1.0  -0.5722
  O  O296  1  0.645950  0.577690  0.227270  1.0  -0.5655
  O  O297  1  0.655900  0.803260  0.113210  1.0  -0.5865
  O  O298  1  0.617370  0.870770  0.007370  1.0  -0.5702
  O  O299  1  0.692600  0.147240  0.038590  1.0  -0.572
  O  O300  1  0.727270  0.077690  0.145950  1.0  -0.5629
  O  O301  1  0.113210  0.655900  0.803260  1.0  -0.5834
  O  O302  1  0.007370  0.617370  0.870770  1.0  -0.5673
  O  O303  1  0.038590  0.692600  0.147240  1.0  -0.5723
  O  O304  1  0.145950  0.727270  0.077690  1.0  -0.5668
  O  O305  1  0.803260  0.113210  0.655900  1.0  -0.5839
  O  O306  1  0.870770  0.007370  0.617370  1.0  -0.5714
  O  O307  1  0.147240  0.038590  0.692600  1.0  -0.5722
  O  O308  1  0.077690  0.145950  0.727270  1.0  -0.5601
  O  O309  1  0.696740  0.844100  0.386790  1.0  -0.5836
  O  O310  1  0.629230  0.882630  0.492630  1.0  -0.5689
  O  O311  1  0.352760  0.807400  0.461410  1.0  -0.5733
  O  O312  1  0.422310  0.772730  0.354050  1.0  -0.5625
  O  O313  1  0.844100  0.386790  0.696740  1.0  -0.5829
  O  O314  1  0.882630  0.492630  0.629230  1.0  -0.5703
  O  O315  1  0.807400  0.461410  0.352760  1.0  -0.5707
  O  O316  1  0.772730  0.354050  0.422310  1.0  -0.5616
  O  O317  1  0.386790  0.696740  0.844100  1.0  -0.583
  O  O318  1  0.492630  0.629230  0.882630  1.0  -0.5701
  O  O319  1  0.461410  0.352760  0.807400  1.0  -0.5722
  O  O320  1  0.354050  0.422310  0.772730  1.0  -0.5658
