# generated using pymatgen
data_Mn2H28C37S4(N2O3)3
_symmetry_space_group_name_H-M   'P 1'
_cell_length_a   16.13690000
_cell_length_b   12.88090000
_cell_length_c   22.40440000
_cell_angle_alpha   90.00000000
_cell_angle_beta   106.29400000
_cell_angle_gamma   90.00000000
_symmetry_Int_Tables_number   1
_chemical_formula_structural   Mn2H28C37S4(N2O3)3
_chemical_formula_sum   'Mn8 H112 C148 S16 N24 O36'
_cell_volume   4469.88212696
_cell_formula_units_Z   4
loop_
 _symmetry_equiv_pos_site_id
 _symmetry_equiv_pos_as_xyz
  1  'x, y, z'
loop_
 _atom_site_type_symbol
 _atom_site_label
 _atom_site_symmetry_multiplicity
 _atom_site_fract_x
 _atom_site_fract_y
 _atom_site_fract_z
 _atom_site_occupancy
 _atom_site_charge
  Mn  Mn1  1  0.800050  0.850220  0.359100  1.0  1.1615
  Mn  Mn2  1  0.578170  0.934680  0.286640  1.0  1.1058
  Mn  Mn3  1  0.199950  0.350220  0.140900  1.0  1.1621
  Mn  Mn4  1  0.421830  0.434680  0.213360  1.0  1.1041
  Mn  Mn5  1  0.199950  0.149780  0.640900  1.0  1.1608
  Mn  Mn6  1  0.421830  0.065320  0.713360  1.0  1.1041
  Mn  Mn7  1  0.800050  0.649780  0.859100  1.0  1.1599
  Mn  Mn8  1  0.578170  0.565320  0.786640  1.0  1.1057
  H  H9  1  0.734900  0.776600  0.595400  1.0  0.1157
  H  H10  1  0.823500  0.779200  0.697100  1.0  0.1081
  H  H11  1  0.092400  0.431400  0.690000  1.0  0.092
  H  H12  1  0.037600  0.591700  0.705300  1.0  0.108
  H  H13  1  0.329000  0.549700  0.745800  1.0  0.0573
  H  H14  1  0.882000  0.160700  0.411700  1.0  0.1004
  H  H15  1  0.919000  0.332800  0.435200  1.0  0.1068
  H  H16  1  0.654500  0.503000  0.603200  1.0  0.1128
  H  H17  1  0.721200  0.485900  0.523900  1.0  0.1119
  H  H18  1  0.962200  0.717900  0.412600  1.0  0.0698
  H  H19  1  0.108500  0.714400  0.433900  1.0  0.1108
  H  H20  1  0.099500  0.998700  0.363500  1.0  0.1033
  H  H21  1  0.953200  0.995800  0.344400  1.0  0.0679
  H  H22  1  0.238700  0.861200  0.382500  1.0  0.0944
  H  H23  1  0.242500  0.796500  0.442500  1.0  0.0951
  H  H24  1  0.227900  0.958800  0.492500  1.0  0.0805
  H  H25  1  0.243000  0.014700  0.434500  1.0  0.0796
  H  H26  1  0.370800  0.009900  0.516300  1.0  0.0978
  H  H27  1  0.367600  0.888200  0.516300  1.0  0.092
  H  H28  1  0.426900  0.793100  0.445000  1.0  0.1285
  H  H29  1  0.499700  0.791600  0.370700  1.0  0.0718
  H  H30  1  0.475600  0.089800  0.350900  1.0  0.08
  H  H31  1  0.400800  0.099000  0.423400  1.0  0.1311
  H  H32  1  0.946400  0.791300  0.537600  1.0  0.0584
  H  H33  1  0.634800  0.240100  0.376400  1.0  0.071
  H  H34  1  0.886500  0.542300  0.722100  1.0  0.0693
  H  H35  1  0.652200  0.811100  0.385500  1.0  0.4261
  H  H36  1  0.652000  0.754500  0.332500  1.0  0.4158
  H  H37  1  0.265100  0.276600  0.904600  1.0  0.1148
  H  H38  1  0.176500  0.279200  0.802900  1.0  0.1076
  H  H39  1  0.907600  0.931400  0.810000  1.0  0.0923
  H  H40  1  0.962400  0.091700  0.794700  1.0  0.1087
  H  H41  1  0.671000  0.049700  0.754200  1.0  0.0587
  H  H42  1  0.118000  0.660700  0.088300  1.0  0.1002
  H  H43  1  0.081000  0.832800  0.064800  1.0  0.1074
  H  H44  1  0.345500  0.003000  0.896800  1.0  0.1119
  H  H45  1  0.278800  0.985900  0.976100  1.0  0.113
  H  H46  1  0.037800  0.217900  0.087400  1.0  0.0698
  H  H47  1  0.891500  0.214400  0.066100  1.0  0.1107
  H  H48  1  0.900500  0.498700  0.136500  1.0  0.1027
  H  H49  1  0.046800  0.495800  0.155600  1.0  0.0676
  H  H50  1  0.761300  0.361200  0.117500  1.0  0.0945
  H  H51  1  0.757500  0.296500  0.057500  1.0  0.0933
  H  H52  1  0.772100  0.458800  0.007500  1.0  0.081
  H  H53  1  0.757000  0.514700  0.065500  1.0  0.0781
  H  H54  1  0.629200  0.509900  0.983700  1.0  0.0986
  H  H55  1  0.632400  0.388200  0.983700  1.0  0.0905
  H  H56  1  0.573100  0.293100  0.055000  1.0  0.1288
  H  H57  1  0.500300  0.291600  0.129300  1.0  0.0716
  H  H58  1  0.524400  0.589800  0.149100  1.0  0.0803
  H  H59  1  0.599200  0.599000  0.076600  1.0  0.1313
  H  H60  1  0.053600  0.291300  0.962400  1.0  0.0584
  H  H61  1  0.365200  0.740100  0.123600  1.0  0.0713
  H  H62  1  0.113500  0.042300  0.777900  1.0  0.0692
  H  H63  1  0.347800  0.311100  0.114500  1.0  0.4227
  H  H64  1  0.348000  0.254500  0.167500  1.0  0.4161
  H  H65  1  0.265100  0.223400  0.404600  1.0  0.1151
  H  H66  1  0.176500  0.220800  0.302900  1.0  0.1078
  H  H67  1  0.907600  0.568600  0.310000  1.0  0.0921
  H  H68  1  0.962400  0.408300  0.294700  1.0  0.1089
  H  H69  1  0.671000  0.450300  0.254200  1.0  0.0586
  H  H70  1  0.118000  0.839300  0.588300  1.0  0.1004
  H  H71  1  0.081000  0.667200  0.564800  1.0  0.1074
  H  H72  1  0.345500  0.497000  0.396800  1.0  0.1118
  H  H73  1  0.278800  0.514100  0.476100  1.0  0.113
  H  H74  1  0.037800  0.282100  0.587400  1.0  0.0701
  H  H75  1  0.891500  0.285600  0.566100  1.0  0.1109
  H  H76  1  0.900500  0.001300  0.636500  1.0  0.1029
  H  H77  1  0.046800  0.004200  0.655600  1.0  0.0678
  H  H78  1  0.761300  0.138800  0.617500  1.0  0.0938
  H  H79  1  0.757500  0.203500  0.557500  1.0  0.0927
  H  H80  1  0.772100  0.041200  0.507500  1.0  0.081
  H  H81  1  0.757000  0.985300  0.565500  1.0  0.0798
  H  H82  1  0.629200  0.990100  0.483700  1.0  0.0977
  H  H83  1  0.632400  0.111800  0.483700  1.0  0.0914
  H  H84  1  0.573100  0.206900  0.555000  1.0  0.1286
  H  H85  1  0.500300  0.208400  0.629300  1.0  0.0716
  H  H86  1  0.524400  0.910200  0.649100  1.0  0.0805
  H  H87  1  0.599200  0.901000  0.576600  1.0  0.1315
  H  H88  1  0.053600  0.208700  0.462400  1.0  0.0585
  H  H89  1  0.365200  0.759900  0.623600  1.0  0.0712
  H  H90  1  0.113500  0.457700  0.277900  1.0  0.0697
  H  H91  1  0.347800  0.188900  0.614500  1.0  0.4226
  H  H92  1  0.348000  0.245500  0.667500  1.0  0.4158
  H  H93  1  0.734900  0.723400  0.095400  1.0  0.1157
  H  H94  1  0.823500  0.720800  0.197100  1.0  0.1082
  H  H95  1  0.092400  0.068600  0.190000  1.0  0.0923
  H  H96  1  0.037600  0.908300  0.205300  1.0  0.1081
  H  H97  1  0.329000  0.950300  0.245800  1.0  0.057
  H  H98  1  0.882000  0.339300  0.911700  1.0  0.1005
  H  H99  1  0.919000  0.167200  0.935200  1.0  0.1069
  H  H100  1  0.654500  0.997000  0.103200  1.0  0.1129
  H  H101  1  0.721200  0.014100  0.023900  1.0  0.1119
  H  H102  1  0.962200  0.782100  0.912600  1.0  0.0698
  H  H103  1  0.108500  0.785600  0.933900  1.0  0.1108
  H  H104  1  0.099500  0.501300  0.863500  1.0  0.1029
  H  H105  1  0.953200  0.504200  0.844400  1.0  0.0678
  H  H106  1  0.238700  0.638800  0.882500  1.0  0.0944
  H  H107  1  0.242500  0.703500  0.942500  1.0  0.0926
  H  H108  1  0.227900  0.541200  0.992500  1.0  0.0804
  H  H109  1  0.243000  0.485300  0.934500  1.0  0.0809
  H  H110  1  0.370800  0.490100  0.016300  1.0  0.0985
  H  H111  1  0.367600  0.611800  0.016300  1.0  0.0894
  H  H112  1  0.426900  0.706900  0.945000  1.0  0.128
  H  H113  1  0.499700  0.708400  0.870700  1.0  0.0715
  H  H114  1  0.475600  0.410200  0.850900  1.0  0.0794
  H  H115  1  0.400800  0.401000  0.923400  1.0  0.1313
  H  H116  1  0.946400  0.708700  0.037600  1.0  0.0586
  H  H117  1  0.634800  0.259900  0.876400  1.0  0.0706
  H  H118  1  0.886500  0.957700  0.222100  1.0  0.0692
  H  H119  1  0.652200  0.688900  0.885500  1.0  0.4257
  H  H120  1  0.652000  0.745500  0.832500  1.0  0.4168
  C  C121  1  0.780420  0.786210  0.487240  1.0  0.6868
  C  C122  1  0.832440  0.783630  0.554700  1.0  -0.2166
  C  C123  1  0.794640  0.779780  0.603430  1.0  0.0149
  C  C124  1  0.847140  0.780830  0.663730  1.0  -0.1231
  C  C125  1  0.935620  0.784290  0.673530  1.0  0.1874
  C  C126  1  0.253900  0.370230  0.704030  1.0  0.6846
  C  C127  1  0.218000  0.472570  0.717020  1.0  -0.2297
  C  C128  1  0.129620  0.486630  0.704620  1.0  0.0525
  C  C129  1  0.096860  0.581400  0.713840  1.0  -0.1143
  C  C130  1  0.154310  0.661370  0.736110  1.0  0.2189
  C  C131  1  0.269630  0.557700  0.738090  1.0  0.1927
  C  C132  1  0.726620  0.071800  0.372410  1.0  0.7178
  C  C133  1  0.753340  0.181570  0.391400  1.0  -0.188
  C  C134  1  0.839290  0.210100  0.409600  1.0  0.0409
  C  C135  1  0.861520  0.311900  0.424560  1.0  -0.1212
  C  C136  1  0.796870  0.382150  0.423390  1.0  0.2323
  C  C137  1  0.727390  0.554510  0.724640  1.0  0.7406
  C  C138  1  0.763890  0.529650  0.671340  1.0  -0.2387
  C  C139  1  0.714110  0.509600  0.611690  1.0  -0.0048
  C  C140  1  0.753500  0.499500  0.564550  1.0  -0.127
  C  C141  1  0.841500  0.510040  0.579460  1.0  0.2109
  C  C142  1  0.990160  0.775900  0.402890  1.0  0.1732
  C  C143  1  0.078410  0.773400  0.415960  1.0  -0.2371
  C  C144  1  0.122630  0.857700  0.402680  1.0  0.1381
  C  C145  1  0.073080  0.940600  0.374630  1.0  -0.2212
  C  C146  1  0.984810  0.938200  0.362940  1.0  0.1831
  C  C147  1  0.220050  0.859500  0.420050  1.0  -0.208
  C  C148  1  0.256580  0.952800  0.459970  1.0  -0.0974
  C  C149  1  0.353730  0.949200  0.490010  1.0  -0.1962
  C  C150  1  0.404510  0.946300  0.442890  1.0  0.149
  C  C151  1  0.435520  0.854900  0.426180  1.0  -0.2347
  C  C152  1  0.479610  0.854600  0.381340  1.0  0.1639
  C  C153  1  0.465230  0.028700  0.369750  1.0  0.1752
  C  C154  1  0.420340  0.035100  0.413600  1.0  -0.232
  C  C155  1  0.921150  0.787900  0.570060  1.0  0.2026
  C  C156  1  0.692930  0.258100  0.389800  1.0  0.2034
  C  C157  1  0.852340  0.532560  0.681510  1.0  0.1902
  C  C158  1  0.219580  0.286210  0.012760  1.0  0.6873
  C  C159  1  0.167560  0.283630  0.945300  1.0  -0.2165
  C  C160  1  0.205360  0.279780  0.896570  1.0  0.0151
  C  C161  1  0.152860  0.280830  0.836270  1.0  -0.1222
  C  C162  1  0.064380  0.284290  0.826470  1.0  0.1892
  C  C163  1  0.746100  0.870230  0.795970  1.0  0.6846
  C  C164  1  0.782000  0.972570  0.782980  1.0  -0.2315
  C  C165  1  0.870380  0.986630  0.795380  1.0  0.0523
  C  C166  1  0.903140  0.081400  0.786160  1.0  -0.1155
  C  C167  1  0.845690  0.161370  0.763890  1.0  0.2204
  C  C168  1  0.730370  0.057700  0.761910  1.0  0.1911
  C  C169  1  0.273380  0.571800  0.127590  1.0  0.7175
  C  C170  1  0.246660  0.681570  0.108600  1.0  -0.1883
  C  C171  1  0.160710  0.710100  0.090400  1.0  0.0408
  C  C172  1  0.138480  0.811900  0.075440  1.0  -0.1201
  C  C173  1  0.203130  0.882150  0.076610  1.0  0.2323
  C  C174  1  0.272610  0.054510  0.775360  1.0  0.7383
  C  C175  1  0.236110  0.029650  0.828660  1.0  -0.2383
  C  C176  1  0.285890  0.009600  0.888310  1.0  -0.0016
  C  C177  1  0.246500  0.999500  0.935450  1.0  -0.1258
  C  C178  1  0.158500  0.010040  0.920540  1.0  0.2129
  C  C179  1  0.009840  0.275900  0.097110  1.0  0.1742
  C  C180  1  0.921590  0.273400  0.084040  1.0  -0.2377
  C  C181  1  0.877370  0.357700  0.097320  1.0  0.1371
  C  C182  1  0.926920  0.440600  0.125370  1.0  -0.2225
  C  C183  1  0.015190  0.438200  0.137060  1.0  0.1833
  C  C184  1  0.779950  0.359500  0.079950  1.0  -0.2085
  C  C185  1  0.743420  0.452800  0.040030  1.0  -0.0965
  C  C186  1  0.646270  0.449200  0.009990  1.0  -0.1947
  C  C187  1  0.595490  0.446300  0.057110  1.0  0.1487
  C  C188  1  0.564480  0.354900  0.073820  1.0  -0.2331
  C  C189  1  0.520390  0.354600  0.118660  1.0  0.1625
  C  C190  1  0.534770  0.528700  0.130250  1.0  0.1743
  C  C191  1  0.579660  0.535100  0.086400  1.0  -0.2315
  C  C192  1  0.078850  0.287900  0.929940  1.0  0.2039
  C  C193  1  0.307070  0.758100  0.110200  1.0  0.2046
  C  C194  1  0.147660  0.032560  0.818490  1.0  0.19
  C  C195  1  0.219580  0.213790  0.512760  1.0  0.6869
  C  C196  1  0.167560  0.216370  0.445300  1.0  -0.2167
  C  C197  1  0.205360  0.220220  0.396570  1.0  0.015
  C  C198  1  0.152860  0.219170  0.336270  1.0  -0.1225
  C  C199  1  0.064380  0.215710  0.326470  1.0  0.189
  C  C200  1  0.746100  0.629770  0.295970  1.0  0.6845
  C  C201  1  0.782000  0.527430  0.282980  1.0  -0.2307
  C  C202  1  0.870380  0.513370  0.295380  1.0  0.0526
  C  C203  1  0.903140  0.418600  0.286160  1.0  -0.116
  C  C204  1  0.845690  0.338630  0.263890  1.0  0.2189
  C  C205  1  0.730370  0.442300  0.261910  1.0  0.1923
  C  C206  1  0.273380  0.928200  0.627590  1.0  0.7173
  C  C207  1  0.246660  0.818430  0.608600  1.0  -0.1875
  C  C208  1  0.160710  0.789900  0.590400  1.0  0.0405
  C  C209  1  0.138480  0.688100  0.575440  1.0  -0.1197
  C  C210  1  0.203130  0.617850  0.576610  1.0  0.2333
  C  C211  1  0.272610  0.445490  0.275360  1.0  0.7377
  C  C212  1  0.236110  0.470350  0.328660  1.0  -0.2382
  C  C213  1  0.285890  0.490400  0.388310  1.0  -0.0019
  C  C214  1  0.246500  0.500500  0.435450  1.0  -0.1258
  C  C215  1  0.158500  0.489960  0.420540  1.0  0.2128
  C  C216  1  0.009840  0.224100  0.597110  1.0  0.1735
  C  C217  1  0.921590  0.226600  0.584040  1.0  -0.2382
  C  C218  1  0.877370  0.142300  0.597320  1.0  0.1374
  C  C219  1  0.926920  0.059400  0.625370  1.0  -0.2224
  C  C220  1  0.015190  0.061800  0.637060  1.0  0.1834
  C  C221  1  0.779950  0.140500  0.579950  1.0  -0.2086
  C  C222  1  0.743420  0.047200  0.540030  1.0  -0.0977
  C  C223  1  0.646270  0.050800  0.509990  1.0  -0.1949
  C  C224  1  0.595490  0.053700  0.557110  1.0  0.1491
  C  C225  1  0.564480  0.145100  0.573820  1.0  -0.2302
  C  C226  1  0.520390  0.145400  0.618660  1.0  0.1628
  C  C227  1  0.534770  0.971300  0.630250  1.0  0.1748
  C  C228  1  0.579660  0.964900  0.586400  1.0  -0.2285
  C  C229  1  0.078850  0.212100  0.429940  1.0  0.204
  C  C230  1  0.307070  0.741900  0.610200  1.0  0.2042
  C  C231  1  0.147660  0.467440  0.318490  1.0  0.1903
  C  C232  1  0.780420  0.713790  0.987240  1.0  0.6871
  C  C233  1  0.832440  0.716370  0.054700  1.0  -0.2158
  C  C234  1  0.794640  0.720220  0.103430  1.0  0.0146
  C  C235  1  0.847140  0.719170  0.163730  1.0  -0.1231
  C  C236  1  0.935620  0.715710  0.173530  1.0  0.1873
  C  C237  1  0.253900  0.129770  0.204030  1.0  0.6841
  C  C238  1  0.218000  0.027430  0.217020  1.0  -0.23
  C  C239  1  0.129620  0.013370  0.204620  1.0  0.0526
  C  C240  1  0.096860  0.918600  0.213840  1.0  -0.1142
  C  C241  1  0.154310  0.838630  0.236110  1.0  0.2179
  C  C242  1  0.269630  0.942300  0.238090  1.0  0.1928
  C  C243  1  0.726620  0.428200  0.872410  1.0  0.7179
  C  C244  1  0.753340  0.318430  0.891400  1.0  -0.1868
  C  C245  1  0.839290  0.289900  0.909600  1.0  0.0407
  C  C246  1  0.861520  0.188100  0.924560  1.0  -0.1208
  C  C247  1  0.796870  0.117850  0.923390  1.0  0.2326
  C  C248  1  0.727390  0.945490  0.224640  1.0  0.74
  C  C249  1  0.763890  0.970350  0.171340  1.0  -0.2384
  C  C250  1  0.714110  0.990400  0.111690  1.0  -0.0053
  C  C251  1  0.753500  0.000500  0.064550  1.0  -0.1261
  C  C252  1  0.841500  0.989960  0.079460  1.0  0.2108
  C  C253  1  0.990160  0.724100  0.902890  1.0  0.1725
  C  C254  1  0.078410  0.726600  0.915960  1.0  -0.2381
  C  C255  1  0.122630  0.642300  0.902680  1.0  0.1384
  C  C256  1  0.073080  0.559400  0.874630  1.0  -0.2213
  C  C257  1  0.984810  0.561800  0.862940  1.0  0.1828
  C  C258  1  0.220050  0.640500  0.920050  1.0  -0.2063
  C  C259  1  0.256580  0.547200  0.959970  1.0  -0.0984
  C  C260  1  0.353730  0.550800  0.990010  1.0  -0.1967
  C  C261  1  0.404510  0.553700  0.942890  1.0  0.149
  C  C262  1  0.435520  0.645100  0.926180  1.0  -0.2323
  C  C263  1  0.479610  0.645400  0.881340  1.0  0.1644
  C  C264  1  0.465230  0.471300  0.869750  1.0  0.1744
  C  C265  1  0.420340  0.464900  0.913600  1.0  -0.2301
  C  C266  1  0.921150  0.712100  0.070060  1.0  0.2023
  C  C267  1  0.692930  0.241900  0.889800  1.0  0.204
  C  C268  1  0.852340  0.967440  0.181510  1.0  0.1908
  S  S269  1  0.000870  0.779860  0.752210  1.0  -0.036
  S  S270  1  0.124680  0.790480  0.748950  1.0  -0.0088
  S  S271  1  0.818910  0.516570  0.440700  1.0  -0.0089
  S  S272  1  0.905590  0.510930  0.526140  1.0  -0.035
  S  S273  1  0.999130  0.279860  0.747790  1.0  -0.0362
  S  S274  1  0.875320  0.290480  0.751050  1.0  -0.0097
  S  S275  1  0.181090  0.016570  0.059300  1.0  -0.0086
  S  S276  1  0.094410  0.010930  0.973860  1.0  -0.0341
  S  S277  1  0.999130  0.220140  0.247790  1.0  -0.0367
  S  S278  1  0.875320  0.209520  0.251050  1.0  -0.0092
  S  S279  1  0.181090  0.483430  0.559300  1.0  -0.0089
  S  S280  1  0.094410  0.489070  0.473860  1.0  -0.0348
  S  S281  1  0.000870  0.720140  0.252210  1.0  -0.0364
  S  S282  1  0.124680  0.709520  0.248950  1.0  -0.0078
  S  S283  1  0.818910  0.983430  0.940700  1.0  -0.01
  S  S284  1  0.905590  0.989070  0.026140  1.0  -0.0357
  N  N285  1  0.973910  0.787650  0.627940  1.0  -0.4269
  N  N286  1  0.712990  0.357250  0.406470  1.0  -0.4115
  N  N287  1  0.892190  0.522380  0.637110  1.0  -0.3854
  N  N288  1  0.942440  0.857180  0.377020  1.0  -0.3564
  N  N289  1  0.494650  0.940150  0.352790  1.0  -0.3642
  N  N290  1  0.239960  0.651550  0.748210  1.0  -0.4251
  N  N291  1  0.026090  0.287650  0.872060  1.0  -0.4278
  N  N292  1  0.287010  0.857250  0.093530  1.0  -0.4157
  N  N293  1  0.107810  0.022380  0.862890  1.0  -0.387
  N  N294  1  0.057560  0.357180  0.122980  1.0  -0.3548
  N  N295  1  0.505350  0.440150  0.147210  1.0  -0.3728
  N  N296  1  0.760040  0.151550  0.751790  1.0  -0.4226
  N  N297  1  0.026090  0.212350  0.372060  1.0  -0.4278
  N  N298  1  0.287010  0.642750  0.593530  1.0  -0.415
  N  N299  1  0.107810  0.477620  0.362890  1.0  -0.3867
  N  N300  1  0.057560  0.142820  0.622980  1.0  -0.355
  N  N301  1  0.505350  0.059850  0.647210  1.0  -0.3732
  N  N302  1  0.760040  0.348450  0.251790  1.0  -0.4222
  N  N303  1  0.973910  0.712350  0.127940  1.0  -0.4268
  N  N304  1  0.712990  0.142750  0.906470  1.0  -0.4124
  N  N305  1  0.892190  0.977620  0.137110  1.0  -0.3859
  N  N306  1  0.942440  0.642820  0.877020  1.0  -0.3565
  N  N307  1  0.494650  0.559850  0.852790  1.0  -0.3645
  N  N308  1  0.239960  0.848450  0.248210  1.0  -0.4244
  O  O309  1  0.700090  0.791410  0.473790  1.0  -0.6026
  O  O310  1  0.823760  0.783440  0.448630  1.0  -0.5923
  O  O311  1  0.779780  0.001900  0.394380  1.0  -0.6074
  O  O312  1  0.652140  0.059900  0.336100  1.0  -0.6353
  O  O313  1  0.201440  0.297160  0.688400  1.0  -0.6004
  O  O314  1  0.333260  0.363770  0.709110  1.0  -0.6355
  O  O315  1  0.781160  0.569000  0.775230  1.0  -0.6148
  O  O316  1  0.647590  0.560800  0.715010  1.0  -0.6234
  O  O317  1  0.657530  0.814550  0.348870  1.0  -0.9197
  O  O318  1  0.299910  0.291410  0.026210  1.0  -0.6036
  O  O319  1  0.176240  0.283440  0.051370  1.0  -0.5908
  O  O320  1  0.220220  0.501900  0.105620  1.0  -0.6073
  O  O321  1  0.347860  0.559900  0.163900  1.0  -0.6356
  O  O322  1  0.798560  0.797160  0.811600  1.0  -0.6008
  O  O323  1  0.666740  0.863770  0.790890  1.0  -0.632
  O  O324  1  0.218840  0.069000  0.724770  1.0  -0.6159
  O  O325  1  0.352410  0.060800  0.784990  1.0  -0.6224
  O  O326  1  0.342470  0.314550  0.151130  1.0  -0.9175
  O  O327  1  0.299910  0.208590  0.526210  1.0  -0.6033
  O  O328  1  0.176240  0.216560  0.551370  1.0  -0.5905
  O  O329  1  0.220220  0.998100  0.605620  1.0  -0.6069
  O  O330  1  0.347860  0.940100  0.663900  1.0  -0.6366
  O  O331  1  0.798560  0.702840  0.311600  1.0  -0.6013
  O  O332  1  0.666740  0.636230  0.290890  1.0  -0.6315
  O  O333  1  0.218840  0.431000  0.224770  1.0  -0.616
  O  O334  1  0.352410  0.439200  0.284990  1.0  -0.6227
  O  O335  1  0.342470  0.185450  0.651130  1.0  -0.9187
  O  O336  1  0.700090  0.708590  0.973790  1.0  -0.6039
  O  O337  1  0.823760  0.716560  0.948630  1.0  -0.5918
  O  O338  1  0.779780  0.498100  0.894380  1.0  -0.6074
  O  O339  1  0.652140  0.440100  0.836100  1.0  -0.636
  O  O340  1  0.201440  0.202840  0.188400  1.0  -0.6012
  O  O341  1  0.333260  0.136230  0.209110  1.0  -0.6348
  O  O342  1  0.781160  0.931000  0.275230  1.0  -0.6155
  O  O343  1  0.647590  0.939200  0.215010  1.0  -0.6237
  O  O344  1  0.657530  0.685450  0.848870  1.0  -0.9197
