# generated using pymatgen
data_Cd2H52C41(N3O4)2
_symmetry_space_group_name_H-M   'P 1'
_cell_length_a   12.38250000
_cell_length_b   13.01280000
_cell_length_c   15.37290000
_cell_angle_alpha   91.35100000
_cell_angle_beta   94.86400000
_cell_angle_gamma   98.73000000
_symmetry_Int_Tables_number   1
_chemical_formula_structural   Cd2H52C41(N3O4)2
_chemical_formula_sum   'Cd4 H104 C82 N12 O16'
_cell_volume   2437.86478300
_cell_formula_units_Z   2
loop_
 _symmetry_equiv_pos_site_id
 _symmetry_equiv_pos_as_xyz
  1  'x, y, z'
loop_
 _atom_site_type_symbol
 _atom_site_label
 _atom_site_symmetry_multiplicity
 _atom_site_fract_x
 _atom_site_fract_y
 _atom_site_fract_z
 _atom_site_occupancy
 _atom_site_charge
  Cd  Cd1  1  0.508310  0.614940  0.423380  1.0  1.0286
  Cd  Cd2  1  0.823840  0.192770  0.149490  1.0  0.9859
  Cd  Cd3  1  0.491690  0.385060  0.576620  1.0  1.0294
  Cd  Cd4  1  0.176160  0.807230  0.850510  1.0  0.9859
  H  H5  1  0.413000  0.759200  0.788100  1.0  0.1082
  H  H6  1  0.647100  0.211000  0.619000  1.0  0.1194
  H  H7  1  0.567900  0.463600  0.924500  1.0  0.1167
  H  H8  1  0.171600  0.232800  0.427600  1.0  0.1173
  H  H9  1  0.782100  0.406000  0.629600  1.0  0.071
  H  H10  1  0.116200  0.833300  0.453800  1.0  0.114
  H  H11  1  0.561600  0.869300  0.021300  1.0  0.0827
  H  H12  1  0.598300  0.796500  0.729300  1.0  0.0806
  H  H13  1  0.438000  0.146500  0.803400  1.0  0.0824
  H  H14  1  0.645400  0.368100  0.406500  1.0  0.1038
  H  H15  1  0.911500  0.823700  0.052800  1.0  0.1746
  H  H16  1  0.429300  0.347400  0.865000  1.0  0.0964
  H  H17  1  0.830000  0.539000  0.551000  1.0  0.1026
  H  H18  1  0.649600  0.815800  0.140100  1.0  0.0906
  H  H19  1  0.088500  0.176300  0.947200  1.0  0.1729
  H  H20  1  0.570700  0.652600  0.135000  1.0  0.097
  H  H21  1  0.088700  0.556900  0.260300  1.0  0.0672
  H  H22  1  0.721100  0.994300  0.280900  1.0  0.1165
  H  H23  1  0.335300  0.536400  0.135000  1.0  0.1121
  H  H24  1  0.516200  0.722100  0.916700  1.0  0.1164
  H  H25  1  0.252800  0.371100  0.253100  1.0  0.1943
  H  H26  1  0.926900  0.256400  0.695500  1.0  0.1318
  H  H27  1  0.848200  0.525300  0.782100  1.0  0.078
  H  H28  1  0.810000  0.076200  0.490600  1.0  0.1053
  H  H29  1  0.987200  0.172300  0.654100  1.0  0.1461
  H  H30  1  0.943000  0.908500  0.824000  1.0  0.1079
  H  H31  1  0.992300  0.415000  0.433500  1.0  0.1129
  H  H32  1  0.883800  0.166700  0.546200  1.0  0.1143
  H  H33  1  0.782300  0.251500  0.390500  1.0  0.135
  H  H34  1  0.217900  0.594000  0.370400  1.0  0.0697
  H  H35  1  0.685300  0.976900  0.901300  1.0  0.1061
  H  H36  1  0.170000  0.461000  0.449000  1.0  0.1037
  H  H37  1  0.110800  0.822300  0.137600  1.0  0.0998
  H  H38  1  0.691900  0.323500  0.790500  1.0  0.1165
  H  H39  1  0.012800  0.827700  0.345900  1.0  0.1435
  H  H40  1  0.720700  0.713300  0.680400  1.0  0.1349
  H  H41  1  0.564900  0.819500  0.631800  1.0  0.0821
  H  H42  1  0.027900  0.526300  0.399000  1.0  0.1155
  H  H43  1  0.935000  0.791700  0.636700  1.0  0.1133
  H  H44  1  0.819300  0.739400  0.752000  1.0  0.0939
  H  H45  1  0.151800  0.474700  0.217900  1.0  0.0785
  H  H46  1  0.829500  0.082500  0.910000  1.0  0.1036
  H  H47  1  0.073100  0.743600  0.304500  1.0  0.1292
  H  H48  1  0.541300  0.643600  0.988700  1.0  0.1106
  H  H49  1  0.331800  0.011900  0.517100  1.0  0.1171
  H  H50  1  0.180700  0.260600  0.248000  1.0  0.0949
  H  H51  1  0.745200  0.883500  0.877700  1.0  0.1158
  H  H52  1  0.432100  0.536400  0.075500  1.0  0.118
  H  H53  1  0.747200  0.628900  0.746900  1.0  0.1936
  H  H54  1  0.681200  0.437600  0.963800  1.0  0.113
  H  H55  1  0.707800  0.464200  0.685700  1.0  0.0776
  H  H56  1  0.083100  0.540500  0.638700  1.0  0.1231
  H  H57  1  0.562000  0.853500  0.196600  1.0  0.0827
  H  H58  1  0.436800  0.057900  0.472300  1.0  0.1152
  H  H59  1  0.649400  0.208700  0.814200  1.0  0.0975
  H  H60  1  0.742500  0.276900  0.875000  1.0  0.112
  H  H61  1  0.350600  0.791300  0.185800  1.0  0.0988
  H  H62  1  0.563200  0.942100  0.527700  1.0  0.115
  H  H63  1  0.007700  0.585000  0.566500  1.0  0.1121
  H  H64  1  0.428100  0.625900  0.932100  1.0  0.109
  H  H65  1  0.571900  0.374100  0.067900  1.0  0.1081
  H  H66  1  0.784000  0.955800  0.060300  1.0  0.1012
  H  H67  1  0.668200  0.988100  0.482900  1.0  0.1178
  H  H68  1  0.462800  0.019100  0.654600  1.0  0.1655
  H  H69  1  0.468200  0.898400  0.076900  1.0  0.0874
  H  H70  1  0.656700  0.875000  0.517600  1.0  0.1199
  H  H71  1  0.279300  0.286700  0.319600  1.0  0.1379
  H  H72  1  0.314700  0.023100  0.098700  1.0  0.1069
  H  H73  1  0.621700  0.881700  0.844300  1.0  0.1071
  H  H74  1  0.587000  0.240800  0.211900  1.0  0.1078
  H  H75  1  0.354600  0.631900  0.593500  1.0  0.1035
  H  H76  1  0.972100  0.473700  0.601000  1.0  0.1169
  H  H77  1  0.057000  0.091500  0.176000  1.0  0.1083
  H  H78  1  0.458700  0.356400  0.011300  1.0  0.1097
  H  H79  1  0.010800  0.815000  0.244100  1.0  0.1108
  H  H80  1  0.308100  0.676500  0.209500  1.0  0.1156
  H  H81  1  0.343300  0.125000  0.482400  1.0  0.1207
  H  H82  1  0.401700  0.203500  0.270700  1.0  0.0807
  H  H83  1  0.537200  0.980900  0.345400  1.0  0.1652
  H  H84  1  0.257500  0.723100  0.125000  1.0  0.1117
  H  H85  1  0.278900  0.005700  0.719100  1.0  0.1174
  H  H86  1  0.170500  0.917500  0.090000  1.0  0.104
  H  H87  1  0.916900  0.459500  0.361300  1.0  0.1228
  H  H88  1  0.318800  0.562400  0.036200  1.0  0.1152
  H  H89  1  0.350400  0.184200  0.859900  1.0  0.0931
  H  H90  1  0.989200  0.185000  0.755900  1.0  0.1105
  H  H91  1  0.435100  0.180500  0.368200  1.0  0.0817
  H  H92  1  0.066700  0.280300  0.446700  1.0  0.1163
  H  H93  1  0.438400  0.130700  0.978700  1.0  0.0835
  H  H94  1  0.065000  0.208300  0.363300  1.0  0.1114
  H  H95  1  0.911300  0.443100  0.739700  1.0  0.0679
  H  H96  1  0.190000  0.923800  0.509400  1.0  0.1032
  H  H97  1  0.292200  0.535800  0.314300  1.0  0.0801
  H  H98  1  0.828400  0.767200  0.572400  1.0  0.1163
  H  H99  1  0.378300  0.118300  0.155700  1.0  0.1071
  H  H100  1  0.664700  0.463600  0.865000  1.0  0.1133
  H  H101  1  0.217700  0.748500  0.609500  1.0  0.1356
  H  H102  1  0.889200  0.177700  0.862400  1.0  0.0953
  H  H103  1  0.352900  0.789000  0.381000  1.0  0.1189
  H  H104  1  0.216000  0.044200  0.939700  1.0  0.1015
  H  H105  1  0.531800  0.101600  0.923100  1.0  0.0878
  H  H106  1  0.483800  0.277900  0.083300  1.0  0.1177
  H  H107  1  0.254800  0.116500  0.122300  1.0  0.1148
  H  H108  1  0.933300  0.719700  0.553300  1.0  0.1141
  C  C109  1  0.109300  0.260400  0.401700  1.0  -0.374
  C  C110  1  0.215000  0.930200  0.378100  1.0  -0.0837
  C  C111  1  0.302700  0.012700  0.382500  1.0  0.0359
  C  C112  1  0.629800  0.430800  0.912800  1.0  -0.3715
  C  C113  1  0.143500  0.033900  0.915700  1.0  0.1128
  C  C114  1  0.321900  0.422100  0.467600  1.0  0.6594
  C  C115  1  0.485200  0.677300  0.959900  1.0  -0.3654
  C  C116  1  0.785000  0.069800  0.621900  1.0  -0.0833
  C  C117  1  0.273700  0.021300  0.225700  1.0  0.0154
  C  C118  1  0.773500  0.683000  0.712700  1.0  -0.26
  C  C119  1  0.125900  0.897600  0.137600  1.0  -0.1389
  C  C120  1  0.332100  0.060200  0.305000  1.0  -0.0646
  C  C121  1  0.591400  0.315700  0.889300  1.0  0.1556
  C  C122  1  0.945800  0.188000  0.701500  1.0  -0.3486
  C  C123  1  0.262100  0.745400  0.564000  1.0  -0.1204
  C  C124  1  0.514800  0.322700  0.040100  1.0  -0.3661
  C  C125  1  0.189600  0.872500  0.462600  1.0  -0.1472
  C  C126  1  0.672200  0.041900  0.274900  1.0  -0.009
  C  C127  1  0.510700  0.844200  0.063400  1.0  -0.157
  C  C128  1  0.667900  0.939800  0.695000  1.0  -0.0662
  C  C129  1  0.840400  0.107800  0.699700  1.0  0.0629
  C  C130  1  0.359000  0.056000  0.472000  1.0  -0.3585
  C  C131  1  0.856500  0.966100  0.084300  1.0  0.1142
  C  C132  1  0.019900  0.673400  0.747000  1.0  0.2178
  C  C133  1  0.423200  0.150600  0.309100  1.0  -0.0255
  C  C134  1  0.813200  0.059900  0.775900  1.0  -0.0521
  C  C135  1  0.776400  0.471700  0.658700  1.0  -0.153
  C  C136  1  0.890700  0.739600  0.598300  1.0  -0.3724
  C  C137  1  0.641000  0.944000  0.528000  1.0  -0.3571
  C  C138  1  0.126800  0.498200  0.272000  1.0  -0.1534
  C  C139  1  0.051400  0.409600  0.311400  1.0  -0.0175
  C  C140  1  0.564300  0.256000  0.970800  1.0  0.0154
  C  C141  1  0.571700  0.809500  0.147000  1.0  -0.1746
  C  C142  1  0.576800  0.849400  0.690900  1.0  -0.0266
  C  C143  1  0.402700  0.821800  0.763300  1.0  0.1797
  C  C144  1  0.850700  0.642700  0.651300  1.0  0.1119
  C  C145  1  0.074800  0.110200  0.920700  1.0  -0.035
  C  C146  1  0.159600  0.892200  0.300300  1.0  0.0603
  C  C147  1  0.597300  0.178200  0.236700  1.0  0.179
  C  C148  1  0.697300  0.987300  0.617500  1.0  0.0364
  C  C149  1  0.925200  0.889800  0.079300  1.0  -0.0337
  C  C150  1  0.568500  0.033400  0.311300  1.0  -0.0859
  C  C151  1  0.308600  0.074800  0.142900  1.0  -0.3685
  C  C152  1  0.220300  0.441800  0.407700  1.0  -0.1629
  C  C153  1  0.008600  0.542900  0.616900  1.0  -0.3403
  C  C154  1  0.991400  0.457100  0.383100  1.0  -0.343
  C  C155  1  0.186800  0.940100  0.224100  1.0  -0.0539
  C  C156  1  0.810400  0.127500  0.537400  1.0  -0.1472
  C  C157  1  0.526300  0.698200  0.162500  1.0  -0.1842
  C  C158  1  0.873200  0.501800  0.728000  1.0  -0.1551
  C  C159  1  0.980100  0.326600  0.253000  1.0  0.218
  C  C160  1  0.431500  0.966600  0.688700  1.0  -0.0865
  C  C161  1  0.726300  0.978700  0.774300  1.0  0.0128
  C  C162  1  0.341200  0.682800  0.554200  1.0  0.1142
  C  C163  1  0.996500  0.959400  0.851800  1.0  0.1633
  C  C164  1  0.948600  0.590400  0.688600  1.0  -0.0154
  C  C165  1  0.370200  0.569200  0.087200  1.0  -0.3716
  C  C166  1  0.435700  0.744000  0.029200  1.0  0.013
  C  C167  1  0.476800  0.326400  0.742600  1.0  0.655
  C  C168  1  0.408600  0.684300  0.110700  1.0  0.1556
  C  C169  1  0.737900  0.254600  0.436000  1.0  -0.1194
  C  C170  1  0.658800  0.317200  0.445800  1.0  0.1119
  C  C171  1  0.523200  0.673600  0.257400  1.0  0.6536
  C  C172  1  0.665800  0.237600  0.028600  1.0  0.6221
  C  C173  1  0.658900  0.231200  0.562500  1.0  0.1504
  C  C174  1  0.323500  0.722200  0.162500  1.0  -0.3466
  C  C175  1  0.678100  0.577900  0.532400  1.0  0.6589
  C  C176  1  0.489300  0.155800  0.936600  1.0  -0.1561
  C  C177  1  0.334200  0.762400  0.971400  1.0  0.6159
  C  C178  1  0.779700  0.558200  0.592300  1.0  -0.1653
  C  C179  1  0.874100  0.102400  0.862400  1.0  -0.1388
  C  C180  1  0.428300  0.190500  0.853000  1.0  -0.1776
  C  C181  1  0.003500  0.040600  0.148200  1.0  0.1637
  C  C182  1  0.226500  0.317000  0.287300  1.0  -0.2594
  C  C183  1  0.691400  0.925200  0.857100  1.0  -0.3683
  C  C184  1  0.676500  0.277800  0.837500  1.0  -0.3438
  C  C185  1  0.327800  0.958100  0.725100  1.0  -0.0108
  C  C186  1  0.054200  0.812000  0.298500  1.0  -0.3474
  C  C187  1  0.473700  0.301800  0.837500  1.0  -0.1833
  C  C188  1  0.149300  0.357300  0.348700  1.0  0.1113
  C  C189  1  0.223600  0.528300  0.341300  1.0  -0.1547
  C  C190  1  0.341100  0.768800  0.437500  1.0  0.1495
  N  N191  1  0.903100  0.052500  0.125300  1.0  -0.3289
  N  N192  1  0.019000  0.941800  0.125300  1.0  -0.1021
  N  N193  1  0.395600  0.700400  0.485900  1.0  -0.4046
  N  N194  1  0.604400  0.299600  0.514100  1.0  -0.4073
  N  N195  1  0.312800  0.868200  0.770200  1.0  -0.3837
  N  N196  1  0.687200  0.131800  0.229800  1.0  -0.3826
  N  N197  1  0.475100  0.878300  0.716000  1.0  0.0491
  N  N198  1  0.096900  0.947500  0.874700  1.0  -0.3263
  N  N199  1  0.524900  0.121700  0.284000  1.0  0.0498
  N  N200  1  0.981000  0.058200  0.874700  1.0  -0.102
  N  N201  1  0.265200  0.801600  0.490300  1.0  -0.0396
  N  N202  1  0.734800  0.198400  0.509700  1.0  -0.0403
  O  O203  1  0.985600  0.305200  0.172100  1.0  -0.6476
  O  O204  1  0.470600  0.254400  0.688200  1.0  -0.5932
  O  O205  1  0.014400  0.694800  0.827900  1.0  -0.6474
  O  O206  1  0.299400  0.847600  0.980100  1.0  -0.6129
  O  O207  1  0.585700  0.550700  0.555700  1.0  -0.6681
  O  O208  1  0.310800  0.372400  0.533900  1.0  -0.5964
  O  O209  1  0.497300  0.416600  0.717600  1.0  -0.5953
  O  O210  1  0.414300  0.449300  0.444300  1.0  -0.6655
  O  O211  1  0.529400  0.745600  0.311800  1.0  -0.594
  O  O212  1  0.502700  0.583400  0.282400  1.0  -0.5971
  O  O213  1  0.907500  0.273200  0.276800  1.0  -0.5915
  O  O214  1  0.689200  0.627600  0.466100  1.0  -0.6007
  O  O215  1  0.700600  0.152400  0.019900  1.0  -0.6116
  O  O216  1  0.092500  0.726800  0.723200  1.0  -0.5924
  O  O217  1  0.715800  0.303800  0.081600  1.0  -0.6083
  O  O218  1  0.284200  0.696200  0.918400  1.0  -0.6096
