# generated using pymatgen
data_EuH3C9(NO2)3
_symmetry_space_group_name_H-M   'P 1'
_cell_length_a   10.37490000
_cell_length_b   13.89830000
_cell_length_c   17.94600000
_cell_angle_alpha   99.71700000
_cell_angle_beta   90.00000000
_cell_angle_gamma   90.00000000
_symmetry_Int_Tables_number   1
_chemical_formula_structural   EuH3C9(NO2)3
_chemical_formula_sum   'Eu8 H24 C72 N24 O48'
_cell_volume   2550.57150795
_cell_formula_units_Z   8
loop_
 _symmetry_equiv_pos_site_id
 _symmetry_equiv_pos_as_xyz
  1  'x, y, z'
loop_
 _atom_site_type_symbol
 _atom_site_label
 _atom_site_symmetry_multiplicity
 _atom_site_fract_x
 _atom_site_fract_y
 _atom_site_fract_z
 _atom_site_occupancy
 _atom_site_charge
  Eu  Eu1  1  0.750990  0.398010  0.708510  1.0  2.1305
  Eu  Eu2  1  0.729980  0.348170  0.344130  1.0  2.1625
  Eu  Eu3  1  0.250990  0.101990  0.791490  1.0  2.1284
  Eu  Eu4  1  0.229980  0.151830  0.155870  1.0  2.162
  Eu  Eu5  1  0.249010  0.601990  0.291490  1.0  2.1287
  Eu  Eu6  1  0.270020  0.651830  0.655870  1.0  2.1626
  Eu  Eu7  1  0.749010  0.898010  0.208510  1.0  2.1306
  Eu  Eu8  1  0.770020  0.848170  0.844130  1.0  2.1634
  H  H9  1  0.606800  0.636000  0.509300  1.0  0.0985
  H  H10  1  0.981500  0.631100  0.531900  1.0  0.1069
  H  H11  1  0.486800  0.638100  0.926800  1.0  0.0906
  H  H12  1  0.345900  0.374300  0.898100  1.0  0.0991
  H  H13  1  0.551000  0.170000  0.568800  1.0  0.0945
  H  H14  1  0.355200  0.093200  0.382600  1.0  0.0845
  H  H15  1  0.106800  0.864000  0.990700  1.0  0.0982
  H  H16  1  0.481500  0.868900  0.968100  1.0  0.1072
  H  H17  1  0.986800  0.861900  0.573200  1.0  0.0913
  H  H18  1  0.845900  0.125700  0.601900  1.0  0.0991
  H  H19  1  0.051000  0.330000  0.931200  1.0  0.0947
  H  H20  1  0.855200  0.406800  0.117400  1.0  0.0839
  H  H21  1  0.393200  0.364000  0.490700  1.0  0.098
  H  H22  1  0.018500  0.368900  0.468100  1.0  0.1073
  H  H23  1  0.513200  0.361900  0.073200  1.0  0.0909
  H  H24  1  0.654100  0.625700  0.101900  1.0  0.0989
  H  H25  1  0.449000  0.830000  0.431200  1.0  0.0941
  H  H26  1  0.644800  0.906800  0.617400  1.0  0.0838
  H  H27  1  0.893200  0.136000  0.009300  1.0  0.0981
  H  H28  1  0.518500  0.131100  0.031900  1.0  0.107
  H  H29  1  0.013200  0.138100  0.426800  1.0  0.0902
  H  H30  1  0.154100  0.874300  0.398100  1.0  0.0991
  H  H31  1  0.949000  0.670000  0.068800  1.0  0.0941
  H  H32  1  0.144800  0.593200  0.882600  1.0  0.0845
  C  C33  1  0.668000  0.550400  0.582100  1.0  0.1235
  C  C34  1  0.680600  0.614300  0.530800  1.0  0.172
  C  C35  1  0.899500  0.611800  0.544400  1.0  0.1577
  C  C36  1  0.885500  0.549300  0.596200  1.0  0.1491
  C  C37  1  0.540400  0.514300  0.608900  1.0  0.6882
  C  C38  1  0.996600  0.509600  0.636000  1.0  0.7035
  C  C39  1  0.575000  0.545700  0.845100  1.0  0.1104
  C  C40  1  0.487500  0.573600  0.902300  1.0  0.1592
  C  C41  1  0.404200  0.419600  0.885200  1.0  0.1641
  C  C42  1  0.490100  0.391200  0.826800  1.0  0.1095
  C  C43  1  0.673900  0.609900  0.818800  1.0  0.6904
  C  C44  1  0.493700  0.291500  0.778600  1.0  0.6759
  C  C45  1  0.610600  0.234700  0.483500  1.0  0.0854
  C  C46  1  0.535800  0.173500  0.518200  1.0  0.19
  C  C47  1  0.420200  0.129600  0.409700  1.0  0.1803
  C  C48  1  0.490400  0.192300  0.374900  1.0  0.0751
  C  C49  1  0.719000  0.298500  0.520200  1.0  0.6978
  C  C50  1  0.468600  0.213600  0.296400  1.0  0.6748
  C  C51  1  0.168000  0.949600  0.917900  1.0  0.123
  C  C52  1  0.180600  0.885700  0.969200  1.0  0.1722
  C  C53  1  0.399500  0.888200  0.955600  1.0  0.1569
  C  C54  1  0.385500  0.950700  0.903800  1.0  0.1504
  C  C55  1  0.040400  0.985700  0.891100  1.0  0.6877
  C  C56  1  0.496600  0.990400  0.864000  1.0  0.704
  C  C57  1  0.075000  0.954300  0.654900  1.0  0.1103
  C  C58  1  0.987500  0.926400  0.597700  1.0  0.1589
  C  C59  1  0.904200  0.080400  0.614800  1.0  0.163
  C  C60  1  0.990100  0.108800  0.673200  1.0  0.1093
  C  C61  1  0.173900  0.890100  0.681200  1.0  0.6907
  C  C62  1  0.993700  0.208500  0.721400  1.0  0.6778
  C  C63  1  0.110600  0.265300  0.016500  1.0  0.0854
  C  C64  1  0.035800  0.326500  0.981800  1.0  0.1913
  C  C65  1  0.920200  0.370400  0.090300  1.0  0.1797
  C  C66  1  0.990400  0.307700  0.125100  1.0  0.073
  C  C67  1  0.219000  0.201500  0.979800  1.0  0.6973
  C  C68  1  0.968600  0.286400  0.203600  1.0  0.6719
  C  C69  1  0.332000  0.449600  0.417900  1.0  0.1246
  C  C70  1  0.319400  0.385700  0.469200  1.0  0.1724
  C  C71  1  0.100500  0.388200  0.455600  1.0  0.157
  C  C72  1  0.114500  0.450700  0.403800  1.0  0.1503
  C  C73  1  0.459600  0.485700  0.391100  1.0  0.6877
  C  C74  1  0.003400  0.490400  0.364000  1.0  0.704
  C  C75  1  0.425000  0.454300  0.154900  1.0  0.1103
  C  C76  1  0.512500  0.426400  0.097700  1.0  0.158
  C  C77  1  0.595800  0.580400  0.114800  1.0  0.1627
  C  C78  1  0.509900  0.608800  0.173200  1.0  0.1092
  C  C79  1  0.326100  0.390100  0.181200  1.0  0.6914
  C  C80  1  0.506300  0.708500  0.221400  1.0  0.6776
  C  C81  1  0.389400  0.765300  0.516500  1.0  0.0845
  C  C82  1  0.464200  0.826500  0.481800  1.0  0.1906
  C  C83  1  0.579800  0.870400  0.590300  1.0  0.1791
  C  C84  1  0.509600  0.807700  0.625100  1.0  0.0733
  C  C85  1  0.281000  0.701500  0.479800  1.0  0.6981
  C  C86  1  0.531400  0.786400  0.703600  1.0  0.6709
  C  C87  1  0.832000  0.050400  0.082100  1.0  0.1249
  C  C88  1  0.819400  0.114300  0.030800  1.0  0.1727
  C  C89  1  0.600500  0.111800  0.044400  1.0  0.1567
  C  C90  1  0.614500  0.049300  0.096200  1.0  0.1496
  C  C91  1  0.959600  0.014300  0.108900  1.0  0.6889
  C  C92  1  0.503400  0.009600  0.136000  1.0  0.702
  C  C93  1  0.925000  0.045700  0.345100  1.0  0.1104
  C  C94  1  0.012500  0.073600  0.402300  1.0  0.1586
  C  C95  1  0.095800  0.919600  0.385200  1.0  0.1637
  C  C96  1  0.009900  0.891200  0.326800  1.0  0.1093
  C  C97  1  0.826100  0.109900  0.318800  1.0  0.6909
  C  C98  1  0.006300  0.791500  0.278600  1.0  0.6756
  C  C99  1  0.889400  0.734700  0.983500  1.0  0.0837
  C  C100  1  0.964200  0.673500  0.018200  1.0  0.1895
  C  C101  1  0.079800  0.629600  0.909700  1.0  0.1778
  C  C102  1  0.009600  0.692300  0.874900  1.0  0.0748
  C  C103  1  0.781000  0.798500  0.020200  1.0  0.6984
  C  C104  1  0.031400  0.713600  0.796400  1.0  0.6738
  N  N105  1  0.770400  0.516400  0.613700  1.0  -0.3922
  N  N106  1  0.794800  0.645300  0.511700  1.0  -0.3826
  N  N107  1  0.576500  0.453900  0.807300  1.0  -0.4122
  N  N108  1  0.403200  0.510500  0.923500  1.0  -0.395
  N  N109  1  0.587800  0.243200  0.411700  1.0  -0.4138
  N  N110  1  0.441400  0.118800  0.481400  1.0  -0.3656
  N  N111  1  0.270400  0.983600  0.886300  1.0  -0.3927
  N  N112  1  0.294800  0.854700  0.988300  1.0  -0.3832
  N  N113  1  0.076500  0.046100  0.692700  1.0  -0.4122
  N  N114  1  0.903200  0.989500  0.576500  1.0  -0.3959
  N  N115  1  0.087800  0.256800  0.088300  1.0  -0.4131
  N  N116  1  0.941400  0.381200  0.018600  1.0  -0.3674
  N  N117  1  0.229600  0.483600  0.386300  1.0  -0.3927
  N  N118  1  0.205200  0.354700  0.488300  1.0  -0.3825
  N  N119  1  0.423500  0.546100  0.192700  1.0  -0.412
  N  N120  1  0.596800  0.489500  0.076500  1.0  -0.3977
  N  N121  1  0.412200  0.756800  0.588300  1.0  -0.414
  N  N122  1  0.558600  0.881200  0.518600  1.0  -0.3681
  N  N123  1  0.729600  0.016400  0.113700  1.0  -0.3928
  N  N124  1  0.705200  0.145300  0.011700  1.0  -0.3815
  N  N125  1  0.923500  0.953900  0.307300  1.0  -0.4131
  N  N126  1  0.096800  0.010500  0.423500  1.0  -0.3948
  N  N127  1  0.912200  0.743200  0.911700  1.0  -0.4149
  N  N128  1  0.058600  0.618800  0.981400  1.0  -0.3641
  O  O129  1  0.546500  0.451000  0.650500  1.0  -0.654
  O  O130  1  0.439100  0.552600  0.588100  1.0  -0.7043
  O  O131  1  0.967100  0.454700  0.681000  1.0  -0.6708
  O  O132  1  0.107300  0.535500  0.621500  1.0  -0.7195
  O  O133  1  0.752300  0.571000  0.770500  1.0  -0.6511
  O  O134  1  0.670400  0.698600  0.848100  1.0  -0.71
  O  O135  1  0.588200  0.275600  0.733100  1.0  -0.6703
  O  O136  1  0.403800  0.234600  0.788200  1.0  -0.7339
  O  O137  1  0.777700  0.347500  0.478500  1.0  -0.6637
  O  O138  1  0.741100  0.297700  0.588500  1.0  -0.7067
  O  O139  1  0.547800  0.270300  0.273000  1.0  -0.6813
  O  O140  1  0.372500  0.173100  0.261300  1.0  -0.7421
  O  O141  1  0.046500  0.049000  0.849500  1.0  -0.6552
  O  O142  1  0.939100  0.947400  0.911900  1.0  -0.7026
  O  O143  1  0.467100  0.045300  0.819000  1.0  -0.6684
  O  O144  1  0.607300  0.964500  0.878500  1.0  -0.719
  O  O145  1  0.252300  0.929000  0.729500  1.0  -0.6509
  O  O146  1  0.170400  0.801400  0.651900  1.0  -0.7094
  O  O147  1  0.088200  0.224400  0.766900  1.0  -0.6701
  O  O148  1  0.903800  0.265400  0.711800  1.0  -0.7334
  O  O149  1  0.277700  0.152500  0.021500  1.0  -0.6634
  O  O150  1  0.241100  0.202300  0.911500  1.0  -0.7061
  O  O151  1  0.047800  0.229700  0.227000  1.0  -0.6824
  O  O152  1  0.872500  0.326900  0.238700  1.0  -0.7425
  O  O153  1  0.453500  0.549000  0.349500  1.0  -0.6555
  O  O154  1  0.560900  0.447400  0.411900  1.0  -0.7025
  O  O155  1  0.032900  0.545300  0.319000  1.0  -0.6686
  O  O156  1  0.892700  0.464500  0.378500  1.0  -0.7207
  O  O157  1  0.247700  0.429000  0.229500  1.0  -0.6499
  O  O158  1  0.329600  0.301400  0.151900  1.0  -0.7087
  O  O159  1  0.411800  0.724400  0.266900  1.0  -0.6702
  O  O160  1  0.596200  0.765400  0.211800  1.0  -0.7349
  O  O161  1  0.222300  0.652500  0.521500  1.0  -0.6629
  O  O162  1  0.258900  0.702300  0.411500  1.0  -0.7064
  O  O163  1  0.452200  0.729700  0.727000  1.0  -0.6821
  O  O164  1  0.627500  0.826900  0.738700  1.0  -0.7418
  O  O165  1  0.953500  0.951000  0.150500  1.0  -0.6547
  O  O166  1  0.060900  0.052600  0.088100  1.0  -0.7034
  O  O167  1  0.532900  0.954700  0.181000  1.0  -0.6706
  O  O168  1  0.392700  0.035500  0.121500  1.0  -0.7203
  O  O169  1  0.747700  0.071000  0.270500  1.0  -0.6502
  O  O170  1  0.829600  0.198600  0.348100  1.0  -0.7095
  O  O171  1  0.911800  0.775600  0.233100  1.0  -0.6705
  O  O172  1  0.096200  0.734600  0.288200  1.0  -0.7338
  O  O173  1  0.722300  0.847500  0.978500  1.0  -0.6635
  O  O174  1  0.758900  0.797700  0.088500  1.0  -0.7065
  O  O175  1  0.952200  0.770300  0.773000  1.0  -0.6818
  O  O176  1  0.127500  0.673100  0.761300  1.0  -0.7419
