# generated using pymatgen
data_NdH3C9(NO2)3
_symmetry_space_group_name_H-M   'P 1'
_cell_length_a   10.48310000
_cell_length_b   14.02800000
_cell_length_c   18.14400000
_cell_angle_alpha   100.02800000
_cell_angle_beta   90.00000000
_cell_angle_gamma   90.00000000
_symmetry_Int_Tables_number   1
_chemical_formula_structural   NdH3C9(NO2)3
_chemical_formula_sum   'Nd8 H24 C72 N24 O48'
_cell_volume   2627.43817444
_cell_formula_units_Z   8
loop_
 _symmetry_equiv_pos_site_id
 _symmetry_equiv_pos_as_xyz
  1  'x, y, z'
loop_
 _atom_site_type_symbol
 _atom_site_label
 _atom_site_symmetry_multiplicity
 _atom_site_fract_x
 _atom_site_fract_y
 _atom_site_fract_z
 _atom_site_occupancy
 _atom_site_charge
  Nd  Nd1  1  0.751390  0.396490  0.707690  1.0  2.2262
  Nd  Nd2  1  0.730270  0.348430  0.344310  1.0  2.2816
  Nd  Nd3  1  0.251390  0.103510  0.792310  1.0  2.2229
  Nd  Nd4  1  0.230270  0.151570  0.155690  1.0  2.2807
  Nd  Nd5  1  0.248610  0.603510  0.292310  1.0  2.2229
  Nd  Nd6  1  0.269730  0.651570  0.655690  1.0  2.2815
  Nd  Nd7  1  0.748610  0.896490  0.207690  1.0  2.2261
  Nd  Nd8  1  0.769730  0.848430  0.844310  1.0  2.2825
  H  H9  1  0.608000  0.634500  0.510300  1.0  0.0808
  H  H10  1  0.977100  0.632400  0.532600  1.0  0.0873
  H  H11  1  0.487400  0.636800  0.927100  1.0  0.095
  H  H12  1  0.348300  0.376200  0.897400  1.0  0.092
  H  H13  1  0.551800  0.167600  0.565700  1.0  0.0937
  H  H14  1  0.356900  0.091300  0.381900  1.0  0.0795
  H  H15  1  0.108000  0.865500  0.989700  1.0  0.0804
  H  H16  1  0.477100  0.867600  0.967400  1.0  0.0878
  H  H17  1  0.987400  0.863200  0.572900  1.0  0.0949
  H  H18  1  0.848300  0.123800  0.602600  1.0  0.0923
  H  H19  1  0.051800  0.332400  0.934300  1.0  0.094
  H  H20  1  0.856900  0.408700  0.118100  1.0  0.0796
  H  H21  1  0.392000  0.365500  0.489700  1.0  0.0796
  H  H22  1  0.022900  0.367600  0.467400  1.0  0.0877
  H  H23  1  0.512600  0.363200  0.072900  1.0  0.0947
  H  H24  1  0.651700  0.623800  0.102600  1.0  0.0923
  H  H25  1  0.448200  0.832400  0.434300  1.0  0.0935
  H  H26  1  0.643100  0.908700  0.618100  1.0  0.0796
  H  H27  1  0.892000  0.134500  0.010300  1.0  0.0795
  H  H28  1  0.522900  0.132400  0.032600  1.0  0.0875
  H  H29  1  0.012600  0.136800  0.427100  1.0  0.0947
  H  H30  1  0.151700  0.876200  0.397400  1.0  0.0926
  H  H31  1  0.948200  0.667600  0.065700  1.0  0.0934
  H  H32  1  0.143100  0.591300  0.881900  1.0  0.0797
  C  C33  1  0.668100  0.550900  0.581500  1.0  0.062
  C  C34  1  0.681200  0.613400  0.531600  1.0  0.1751
  C  C35  1  0.896400  0.612300  0.544600  1.0  0.1777
  C  C36  1  0.885900  0.549700  0.595000  1.0  0.0573
  C  C37  1  0.541300  0.513600  0.607800  1.0  0.6954
  C  C38  1  0.995000  0.508800  0.635100  1.0  0.732
  C  C39  1  0.573900  0.545000  0.844100  1.0  0.0699
  C  C40  1  0.487400  0.573000  0.902200  1.0  0.1561
  C  C41  1  0.405700  0.421200  0.884600  1.0  0.1703
  C  C42  1  0.489800  0.392300  0.825900  1.0  0.0769
  C  C43  1  0.672400  0.609200  0.818800  1.0  0.7164
  C  C44  1  0.493400  0.291100  0.779700  1.0  0.717
  C  C45  1  0.609100  0.232700  0.482000  1.0  0.0674
  C  C46  1  0.536100  0.171600  0.515800  1.0  0.1757
  C  C47  1  0.421300  0.127700  0.408600  1.0  0.1802
  C  C48  1  0.491500  0.190600  0.373500  1.0  0.0406
  C  C49  1  0.716700  0.295800  0.519200  1.0  0.6997
  C  C50  1  0.469800  0.211600  0.297000  1.0  0.7497
  C  C51  1  0.168100  0.949100  0.918500  1.0  0.0621
  C  C52  1  0.181200  0.886600  0.968400  1.0  0.1753
  C  C53  1  0.396400  0.887700  0.955400  1.0  0.1783
  C  C54  1  0.385900  0.950300  0.905000  1.0  0.0579
  C  C55  1  0.041300  0.986400  0.892200  1.0  0.6953
  C  C56  1  0.495000  0.991200  0.864900  1.0  0.732
  C  C57  1  0.073900  0.955000  0.655900  1.0  0.0705
  C  C58  1  0.987400  0.927000  0.597800  1.0  0.1562
  C  C59  1  0.905700  0.078800  0.615400  1.0  0.1693
  C  C60  1  0.989800  0.107700  0.674100  1.0  0.077
  C  C61  1  0.172400  0.890800  0.681200  1.0  0.7164
  C  C62  1  0.993400  0.208900  0.720300  1.0  0.7184
  C  C63  1  0.109100  0.267300  0.018000  1.0  0.0672
  C  C64  1  0.036100  0.328400  0.984200  1.0  0.1765
  C  C65  1  0.921300  0.372300  0.091400  1.0  0.1793
  C  C66  1  0.991500  0.309400  0.126500  1.0  0.0407
  C  C67  1  0.216700  0.204200  0.980800  1.0  0.6988
  C  C68  1  0.969800  0.288400  0.203000  1.0  0.7478
  C  C69  1  0.331900  0.449100  0.418500  1.0  0.0625
  C  C70  1  0.318800  0.386600  0.468400  1.0  0.175
  C  C71  1  0.103600  0.387700  0.455400  1.0  0.1795
  C  C72  1  0.114100  0.450300  0.405000  1.0  0.0575
  C  C73  1  0.458700  0.486400  0.392200  1.0  0.6946
  C  C74  1  0.005000  0.491200  0.364900  1.0  0.7309
  C  C75  1  0.426100  0.455000  0.155900  1.0  0.0698
  C  C76  1  0.512600  0.427000  0.097800  1.0  0.1554
  C  C77  1  0.594300  0.578800  0.115400  1.0  0.1682
  C  C78  1  0.510200  0.607700  0.174100  1.0  0.0773
  C  C79  1  0.327600  0.390800  0.181200  1.0  0.7162
  C  C80  1  0.506600  0.708900  0.220300  1.0  0.7192
  C  C81  1  0.390900  0.767300  0.518000  1.0  0.0665
  C  C82  1  0.463900  0.828400  0.484200  1.0  0.1761
  C  C83  1  0.578700  0.872300  0.591400  1.0  0.1799
  C  C84  1  0.508500  0.809400  0.626500  1.0  0.0412
  C  C85  1  0.283300  0.704200  0.480800  1.0  0.6994
  C  C86  1  0.530200  0.788400  0.703000  1.0  0.7461
  C  C87  1  0.831900  0.050900  0.081500  1.0  0.0619
  C  C88  1  0.818800  0.113400  0.031600  1.0  0.1753
  C  C89  1  0.603600  0.112300  0.044600  1.0  0.1781
  C  C90  1  0.614100  0.049700  0.095000  1.0  0.0571
  C  C91  1  0.958700  0.013600  0.107800  1.0  0.6953
  C  C92  1  0.505000  0.008800  0.135100  1.0  0.7279
  C  C93  1  0.926100  0.045000  0.344100  1.0  0.0691
  C  C94  1  0.012600  0.073000  0.402200  1.0  0.1557
  C  C95  1  0.094300  0.921200  0.384600  1.0  0.1692
  C  C96  1  0.010200  0.892300  0.325900  1.0  0.0772
  C  C97  1  0.827600  0.109200  0.318800  1.0  0.7159
  C  C98  1  0.006600  0.791100  0.279700  1.0  0.7178
  C  C99  1  0.890900  0.732700  0.982000  1.0  0.0663
  C  C100  1  0.963900  0.671600  0.015800  1.0  0.1753
  C  C101  1  0.078700  0.627700  0.908600  1.0  0.1791
  C  C102  1  0.008500  0.690600  0.873500  1.0  0.0405
  C  C103  1  0.783300  0.795800  0.019200  1.0  0.6998
  C  C104  1  0.030200  0.711600  0.797000  1.0  0.7478
  N  N105  1  0.771100  0.516700  0.613100  1.0  -0.3991
  N  N106  1  0.794100  0.645400  0.512200  1.0  -0.349
  N  N107  1  0.574100  0.453800  0.807700  1.0  -0.4219
  N  N108  1  0.404600  0.510300  0.922900  1.0  -0.3575
  N  N109  1  0.586600  0.241600  0.411600  1.0  -0.4105
  N  N110  1  0.442500  0.117200  0.479100  1.0  -0.3572
  N  N111  1  0.271100  0.983300  0.886900  1.0  -0.4022
  N  N112  1  0.294100  0.854600  0.987800  1.0  -0.3503
  N  N113  1  0.074100  0.046200  0.692300  1.0  -0.4228
  N  N114  1  0.904600  0.989700  0.577100  1.0  -0.3575
  N  N115  1  0.086600  0.258400  0.088400  1.0  -0.4074
  N  N116  1  0.942500  0.382800  0.020900  1.0  -0.3574
  N  N117  1  0.228900  0.483300  0.386900  1.0  -0.4021
  N  N118  1  0.205900  0.354600  0.487800  1.0  -0.3502
  N  N119  1  0.425900  0.546200  0.192300  1.0  -0.4221
  N  N120  1  0.595400  0.489700  0.077100  1.0  -0.3588
  N  N121  1  0.413400  0.758400  0.588400  1.0  -0.4082
  N  N122  1  0.557500  0.882800  0.520900  1.0  -0.3576
  N  N123  1  0.728900  0.016700  0.113100  1.0  -0.3994
  N  N124  1  0.705900  0.145400  0.012200  1.0  -0.3483
  N  N125  1  0.925900  0.953800  0.307700  1.0  -0.4222
  N  N126  1  0.095400  0.010300  0.422900  1.0  -0.3576
  N  N127  1  0.913400  0.741600  0.911600  1.0  -0.4111
  N  N128  1  0.057500  0.617200  0.979100  1.0  -0.3551
  O  O129  1  0.547300  0.451400  0.648300  1.0  -0.6551
  O  O130  1  0.441900  0.552100  0.587400  1.0  -0.7394
  O  O131  1  0.967400  0.455300  0.679300  1.0  -0.6478
  O  O132  1  0.104500  0.535800  0.618900  1.0  -0.7677
  O  O133  1  0.751000  0.570700  0.771700  1.0  -0.6823
  O  O134  1  0.668900  0.697300  0.848000  1.0  -0.7227
  O  O135  1  0.585300  0.274200  0.733700  1.0  -0.6942
  O  O136  1  0.405300  0.235600  0.789300  1.0  -0.7192
  O  O137  1  0.774800  0.345600  0.479300  1.0  -0.6465
  O  O138  1  0.738300  0.292600  0.586800  1.0  -0.7191
  O  O139  1  0.547100  0.268400  0.273500  1.0  -0.7121
  O  O140  1  0.373700  0.171100  0.262000  1.0  -0.749
  O  O141  1  0.047300  0.048600  0.851700  1.0  -0.6563
  O  O142  1  0.941900  0.947900  0.912600  1.0  -0.7373
  O  O143  1  0.467400  0.044700  0.820700  1.0  -0.6453
  O  O144  1  0.604500  0.964200  0.881100  1.0  -0.7674
  O  O145  1  0.251000  0.929300  0.728300  1.0  -0.6815
  O  O146  1  0.168900  0.802700  0.652000  1.0  -0.7223
  O  O147  1  0.085300  0.225800  0.766300  1.0  -0.6945
  O  O148  1  0.905300  0.264400  0.710700  1.0  -0.7196
  O  O149  1  0.274800  0.154400  0.020700  1.0  -0.6457
  O  O150  1  0.238300  0.207400  0.913200  1.0  -0.7212
  O  O151  1  0.047100  0.231600  0.226500  1.0  -0.7119
  O  O152  1  0.873700  0.328900  0.238000  1.0  -0.7486
  O  O153  1  0.452700  0.548600  0.351700  1.0  -0.6554
  O  O154  1  0.558100  0.447900  0.412600  1.0  -0.7384
  O  O155  1  0.032600  0.544700  0.320700  1.0  -0.645
  O  O156  1  0.895500  0.464200  0.381100  1.0  -0.768
  O  O157  1  0.249000  0.429300  0.228300  1.0  -0.6811
  O  O158  1  0.331100  0.302700  0.152000  1.0  -0.7217
  O  O159  1  0.414700  0.725800  0.266300  1.0  -0.6948
  O  O160  1  0.594700  0.764400  0.210700  1.0  -0.7193
  O  O161  1  0.225200  0.654400  0.520700  1.0  -0.6453
  O  O162  1  0.261700  0.707400  0.413200  1.0  -0.722
  O  O163  1  0.452900  0.731600  0.726500  1.0  -0.7124
  O  O164  1  0.626300  0.828900  0.738000  1.0  -0.7486
  O  O165  1  0.952700  0.951400  0.148300  1.0  -0.6549
  O  O166  1  0.058100  0.052100  0.087400  1.0  -0.7396
  O  O167  1  0.532600  0.955300  0.179300  1.0  -0.6478
  O  O168  1  0.395500  0.035800  0.118900  1.0  -0.7679
  O  O169  1  0.749000  0.070700  0.271700  1.0  -0.6818
  O  O170  1  0.831100  0.197300  0.348000  1.0  -0.7223
  O  O171  1  0.914700  0.774200  0.233700  1.0  -0.6948
  O  O172  1  0.094700  0.735600  0.289300  1.0  -0.7188
  O  O173  1  0.725200  0.845600  0.979300  1.0  -0.6463
  O  O174  1  0.761700  0.792600  0.086800  1.0  -0.7194
  O  O175  1  0.952900  0.768400  0.773500  1.0  -0.7133
  O  O176  1  0.126300  0.671100  0.762000  1.0  -0.7486
