# generated using pymatgen
data_ZnH23C24SN6O7
_symmetry_space_group_name_H-M   'P 1'
_cell_length_a   9.69100000
_cell_length_b   14.15700000
_cell_length_c   16.05500000
_cell_angle_alpha   107.40800000
_cell_angle_beta   99.93700000
_cell_angle_gamma   104.26400000
_symmetry_Int_Tables_number   1
_chemical_formula_structural   ZnH23C24SN6O7
_chemical_formula_sum   'Zn2 H46 C48 S2 N12 O14'
_cell_volume   1963.43023098
_cell_formula_units_Z   2
loop_
 _symmetry_equiv_pos_site_id
 _symmetry_equiv_pos_as_xyz
  1  'x, y, z'
loop_
 _atom_site_type_symbol
 _atom_site_label
 _atom_site_symmetry_multiplicity
 _atom_site_fract_x
 _atom_site_fract_y
 _atom_site_fract_z
 _atom_site_occupancy
 _atom_site_charge
  Zn  Zn1  1  0.808000  0.908970  0.939760  1.0  0.9406
  Zn  Zn2  1  0.192000  0.091030  0.060240  1.0  0.9413
  H  H3  1  0.981400  0.669500  0.189400  1.0  0.093
  H  H4  1  0.130400  0.727400  0.174800  1.0  0.0898
  H  H5  1  0.327500  0.685500  0.122000  1.0  0.123
  H  H6  1  0.247100  0.739200  0.065900  1.0  0.1233
  H  H7  1  0.330500  0.664600  0.020900  1.0  0.1203
  H  H8  1  0.298700  0.540500  0.921100  1.0  0.112
  H  H9  1  0.220600  0.419700  0.874800  1.0  0.1247
  H  H10  1  0.319900  0.466800  0.974800  1.0  0.1359
  H  H11  1  0.826000  0.931100  0.149000  1.0  0.084
  H  H12  1  0.956800  0.733700  0.986200  1.0  0.1053
  H  H13  1  0.807500  0.975000  0.605700  1.0  0.0985
  H  H14  1  0.831300  0.094600  0.649100  1.0  0.1151
  H  H15  1  0.500100  0.802600  0.573700  1.0  0.1328
  H  H16  1  0.656000  0.831800  0.555400  1.0  0.1041
  H  H17  1  0.516800  0.759300  0.475200  1.0  0.102
  H  H18  1  0.355700  0.760500  0.341400  1.0  0.1281
  H  H19  1  0.214500  0.791300  0.355800  1.0  0.12
  H  H20  1  0.292500  0.747000  0.422200  1.0  0.1083
  H  H21  1  0.628000  0.058200  0.883300  1.0  0.0905
  H  H22  1  0.855800  0.921700  0.743200  1.0  0.1105
  H  H23  1  0.362100  0.877900  0.907900  1.0  0.1119
  H  H24  1  0.299200  0.583000  0.751800  1.0  0.1214
  H  H25  1  0.952000  0.676400  0.797000  1.0  0.118
  H  H26  1  0.018600  0.330500  0.810600  1.0  0.094
  H  H27  1  0.869600  0.272600  0.825200  1.0  0.0908
  H  H28  1  0.672500  0.314500  0.878000  1.0  0.1229
  H  H29  1  0.752900  0.260800  0.934100  1.0  0.1227
  H  H30  1  0.669500  0.335400  0.979100  1.0  0.12
  H  H31  1  0.701300  0.459500  0.078900  1.0  0.1097
  H  H32  1  0.779400  0.580300  0.125200  1.0  0.1251
  H  H33  1  0.680100  0.533200  0.025200  1.0  0.1354
  H  H34  1  0.174000  0.068900  0.851000  1.0  0.0835
  H  H35  1  0.043200  0.266300  0.013800  1.0  0.106
  H  H36  1  0.192500  0.025000  0.394300  1.0  0.0991
  H  H37  1  0.168700  0.905400  0.350900  1.0  0.1161
  H  H38  1  0.499900  0.197400  0.426300  1.0  0.1328
  H  H39  1  0.344000  0.168200  0.444600  1.0  0.102
  H  H40  1  0.483200  0.240700  0.524800  1.0  0.1011
  H  H41  1  0.644300  0.239500  0.658600  1.0  0.1281
  H  H42  1  0.785500  0.208700  0.644200  1.0  0.1221
  H  H43  1  0.707500  0.253000  0.577800  1.0  0.1075
  H  H44  1  0.372000  0.941800  0.116700  1.0  0.0927
  H  H45  1  0.144200  0.078300  0.256800  1.0  0.1094
  H  H46  1  0.637900  0.122100  0.092100  1.0  0.1125
  H  H47  1  0.700800  0.417000  0.248200  1.0  0.1223
  H  H48  1  0.048000  0.323600  0.203000  1.0  0.1177
  C  C49  1  0.012500  0.592200  0.067300  1.0  -0.0628
  C  C50  1  0.131500  0.584800  0.032400  1.0  0.0924
  C  C51  1  0.118600  0.489600  0.965000  1.0  0.0858
  C  C52  1  0.026600  0.689700  0.145300  1.0  -0.0665
  C  C53  1  0.272100  0.677000  0.063100  1.0  -0.3608
  C  C54  1  0.251600  0.478100  0.930800  1.0  -0.348
  C  C55  1  0.864200  0.877700  0.125800  1.0  0.2599
  C  C56  1  0.933600  0.771800  0.036900  1.0  0.1842
  C  C57  1  0.623100  0.013200  0.566800  1.0  0.0151
  C  C58  1  0.527100  0.912900  0.514300  1.0  0.0684
  C  C59  1  0.404700  0.899400  0.445800  1.0  0.0597
  C  C60  1  0.762300  0.025600  0.634000  1.0  -0.0579
  C  C61  1  0.552300  0.818000  0.531200  1.0  -0.3604
  C  C62  1  0.308000  0.789500  0.385800  1.0  -0.3438
  C  C63  1  0.672700  0.036000  0.837500  1.0  0.2818
  C  C64  1  0.796100  0.961300  0.762900  1.0  0.1462
  C  C65  1  0.147300  0.790500  0.859200  1.0  -0.1622
  C  C66  1  0.298600  0.811400  0.872000  1.0  0.0055
  C  C67  1  0.355900  0.734700  0.832100  1.0  -0.1467
  C  C68  1  0.261600  0.635000  0.779600  1.0  -0.0062
  C  C69  1  0.111400  0.613700  0.769000  1.0  -0.2248
  C  C70  1  0.053700  0.691100  0.806800  1.0  0.018
  C  C71  1  0.085900  0.874400  0.903600  1.0  0.674
  C  C72  1  0.520800  0.759400  0.845400  1.0  0.6849
  C  C73  1  0.987500  0.407800  0.932700  1.0  -0.0633
  C  C74  1  0.868500  0.415200  0.967600  1.0  0.0916
  C  C75  1  0.881400  0.510400  0.035000  1.0  0.0854
  C  C76  1  0.973400  0.310300  0.854700  1.0  -0.064
  C  C77  1  0.727900  0.323000  0.936900  1.0  -0.3598
  C  C78  1  0.748400  0.521900  0.069200  1.0  -0.3452
  C  C79  1  0.135800  0.122300  0.874200  1.0  0.2598
  C  C80  1  0.066400  0.228200  0.963100  1.0  0.186
  C  C81  1  0.376900  0.986800  0.433200  1.0  0.0153
  C  C82  1  0.472900  0.087100  0.485700  1.0  0.0682
  C  C83  1  0.595300  0.100600  0.554200  1.0  0.0571
  C  C84  1  0.237700  0.974400  0.366000  1.0  -0.0596
  C  C85  1  0.447700  0.182000  0.468800  1.0  -0.3596
  C  C86  1  0.692000  0.210500  0.614200  1.0  -0.3409
  C  C87  1  0.327300  0.964000  0.162500  1.0  0.2817
  C  C88  1  0.203900  0.038700  0.237100  1.0  0.1457
  C  C89  1  0.852700  0.209500  0.140800  1.0  -0.1609
  C  C90  1  0.701400  0.188600  0.128000  1.0  0.0064
  C  C91  1  0.644100  0.265300  0.167900  1.0  -0.1474
  C  C92  1  0.738400  0.365000  0.220400  1.0  -0.0059
  C  C93  1  0.888600  0.386300  0.231000  1.0  -0.223
  C  C94  1  0.946300  0.308900  0.193200  1.0  0.0181
  C  C95  1  0.914100  0.125600  0.096400  1.0  0.673
  C  C96  1  0.479200  0.240600  0.154600  1.0  0.6853
  S  S97  1  0.988700  0.485820  0.702390  1.0  1.3853
  S  S98  1  0.011300  0.514180  0.297610  1.0  1.386
  N  N99  1  0.956300  0.758600  0.115200  1.0  0.1671
  N  N100  1  0.913400  0.827400  0.174500  1.0  -0.3947
  N  N101  1  0.873100  0.846600  0.040100  1.0  -0.4162
  N  N102  1  0.737300  0.012000  0.718000  1.0  0.1812
  N  N103  1  0.657700  0.061600  0.766000  1.0  -0.3695
  N  N104  1  0.758900  0.974400  0.839800  1.0  -0.4047
  N  N105  1  0.043700  0.241400  0.884800  1.0  0.1659
  N  N106  1  0.086600  0.172600  0.825500  1.0  -0.3932
  N  N107  1  0.126900  0.153400  0.959900  1.0  -0.4126
  N  N108  1  0.262700  0.988000  0.282000  1.0  0.1819
  N  N109  1  0.342300  0.938400  0.234000  1.0  -0.3697
  N  N110  1  0.241100  0.025600  0.160200  1.0  -0.4072
  O  O111  1  0.948700  0.855800  0.876500  1.0  -0.6026
  O  O112  1  0.174500  0.955600  0.964400  1.0  -0.6037
  O  O113  1  0.597500  0.835000  0.916600  1.0  -0.585
  O  O114  1  0.570700  0.707600  0.788700  1.0  -0.517
  O  O115  1  0.076100  0.417100  0.693700  1.0  -0.5438
  O  O116  1  0.879200  0.462600  0.750600  1.0  -0.6333
  O  O117  1  0.924700  0.494600  0.617500  1.0  -0.6164
  O  O118  1  0.051300  0.144200  0.123500  1.0  -0.6031
  O  O119  1  0.825500  0.044400  0.035600  1.0  -0.6038
  O  O120  1  0.402500  0.165000  0.083400  1.0  -0.5862
  O  O121  1  0.429300  0.292400  0.211300  1.0  -0.5197
  O  O122  1  0.923900  0.582900  0.306300  1.0  -0.544
  O  O123  1  0.120800  0.537400  0.249400  1.0  -0.6359
  O  O124  1  0.075300  0.505400  0.382500  1.0  -0.6129
