# generated using pymatgen
data_PrH12(C3O2)3
_symmetry_space_group_name_H-M   'P 1'
_cell_length_a   7.85380000
_cell_length_b   11.02190000
_cell_length_c   11.66930000
_cell_angle_alpha   108.67400000
_cell_angle_beta   105.81200000
_cell_angle_gamma   104.10800000
_symmetry_Int_Tables_number   1
_chemical_formula_structural   PrH12(C3O2)3
_chemical_formula_sum   'Pr2 H24 C18 O12'
_cell_volume   857.89917923
_cell_formula_units_Z   2
loop_
 _symmetry_equiv_pos_site_id
 _symmetry_equiv_pos_as_xyz
  1  'x, y, z'
loop_
 _atom_site_type_symbol
 _atom_site_label
 _atom_site_symmetry_multiplicity
 _atom_site_fract_x
 _atom_site_fract_y
 _atom_site_fract_z
 _atom_site_occupancy
 _atom_site_charge
  Pr  Pr1  1  0.725380  0.978920  0.934580  1.0  2.2257
  Pr  Pr2  1  0.274620  0.021080  0.065420  1.0  2.225
  H  H3  1  0.769200  0.594800  0.948600  1.0  0.1277
  H  H4  1  0.737800  0.697300  0.062100  1.0  0.1282
  H  H5  1  0.012100  0.577200  0.117600  1.0  0.073
  H  H6  1  0.933400  0.654100  0.217100  1.0  0.0731
  H  H7  1  0.154300  0.182700  0.464200  1.0  0.1186
  H  H8  1  0.935700  0.154500  0.417500  1.0  0.1203
  H  H9  1  0.896700  0.353200  0.166100  1.0  0.0981
  H  H10  1  0.832200  0.443500  0.267900  1.0  0.1186
  H  H11  1  0.873000  0.918700  0.369800  1.0  0.0744
  H  H12  1  0.091600  0.948000  0.418600  1.0  0.0715
  H  H13  1  0.716100  0.396900  0.000800  1.0  0.082
  H  H14  1  0.630500  0.474600  0.093800  1.0  0.0705
  H  H15  1  0.230800  0.405200  0.051400  1.0  0.1277
  H  H16  1  0.262200  0.302700  0.937900  1.0  0.1271
  H  H17  1  0.987900  0.422800  0.882400  1.0  0.076
  H  H18  1  0.066600  0.345900  0.782900  1.0  0.0725
  H  H19  1  0.845700  0.817300  0.535800  1.0  0.1191
  H  H20  1  0.064300  0.845500  0.582500  1.0  0.1194
  H  H21  1  0.103300  0.646800  0.833900  1.0  0.101
  H  H22  1  0.167800  0.556500  0.732100  1.0  0.1184
  H  H23  1  0.127000  0.081300  0.630200  1.0  0.0743
  H  H24  1  0.908400  0.052000  0.581400  1.0  0.0708
  H  H25  1  0.283900  0.603100  0.999200  1.0  0.0814
  H  H26  1  0.369500  0.525400  0.906200  1.0  0.0686
  C  C27  1  0.018000  0.081100  0.265600  1.0  0.8043
  C  C28  1  0.831800  0.663400  0.038300  1.0  -0.3612
  C  C29  1  0.899600  0.593800  0.126500  1.0  -0.0815
  C  C30  1  0.029900  0.114900  0.403800  1.0  -0.3339
  C  C31  1  0.793000  0.382500  0.176700  1.0  -0.3164
  C  C32  1  0.985600  0.781400  0.044100  1.0  0.7521
  C  C33  1  0.996300  0.986600  0.432000  1.0  -0.0699
  C  C34  1  0.744700  0.457300  0.090500  1.0  -0.0741
  C  C35  1  0.619000  0.259000  0.137500  1.0  0.777
  C  C36  1  0.982000  0.918900  0.734400  1.0  0.8061
  C  C37  1  0.168200  0.336600  0.961700  1.0  -0.3593
  C  C38  1  0.100400  0.406200  0.873500  1.0  -0.0846
  C  C39  1  0.970100  0.885100  0.596200  1.0  -0.3327
  C  C40  1  0.207000  0.617500  0.823300  1.0  -0.3187
  C  C41  1  0.014400  0.218600  0.955900  1.0  0.754
  C  C42  1  0.003700  0.013400  0.568000  1.0  -0.0697
  C  C43  1  0.255300  0.542700  0.909500  1.0  -0.0736
  C  C44  1  0.381000  0.741000  0.862500  1.0  0.7791
  O  O45  1  0.931800  0.850700  0.981700  1.0  -0.8407
  O  O46  1  0.853200  0.039900  0.176500  1.0  -0.7413
  O  O47  1  0.589900  0.144000  0.047800  1.0  -0.8496
  O  O48  1  0.165400  0.089500  0.243100  1.0  -0.7258
  O  O49  1  0.500100  0.271600  0.188800  1.0  -0.6717
  O  O50  1  0.156100  0.808500  0.104400  1.0  -0.6515
  O  O51  1  0.068200  0.149300  0.018300  1.0  -0.8413
  O  O52  1  0.146800  0.960100  0.823500  1.0  -0.7408
  O  O53  1  0.410100  0.856000  0.952200  1.0  -0.8497
  O  O54  1  0.834600  0.910500  0.756900  1.0  -0.7262
  O  O55  1  0.499900  0.728400  0.811200  1.0  -0.6685
  O  O56  1  0.843900  0.191500  0.895600  1.0  -0.6531
