# generated using pymatgen
data_NiH20C30N2O5
_symmetry_space_group_name_H-M   'P 1'
_cell_length_a   11.62400000
_cell_length_b   13.39500000
_cell_length_c   21.37800000
_cell_angle_alpha   108.23000000
_cell_angle_beta   96.32000000
_cell_angle_gamma   103.03000000
_symmetry_Int_Tables_number   1
_chemical_formula_structural   NiH20C30N2O5
_chemical_formula_sum   'Ni4 H80 C120 N8 O20'
_cell_volume   3020.91543975
_cell_formula_units_Z   4
loop_
 _symmetry_equiv_pos_site_id
 _symmetry_equiv_pos_as_xyz
  1  'x, y, z'
loop_
 _atom_site_type_symbol
 _atom_site_label
 _atom_site_symmetry_multiplicity
 _atom_site_fract_x
 _atom_site_fract_y
 _atom_site_fract_z
 _atom_site_occupancy
 _atom_site_charge
  Ni  Ni1  1  0.517390  0.363180  0.915360  1.0  0.8379
  Ni  Ni2  1  0.904260  0.300280  0.612120  1.0  0.6411
  Ni  Ni3  1  0.482610  0.636820  0.084640  1.0  0.8365
  Ni  Ni4  1  0.095740  0.699720  0.387880  1.0  0.6462
  H  H5  1  0.381100  0.234800  0.296600  1.0  0.1145
  H  H6  1  0.425200  0.924500  0.632000  1.0  0.1031
  H  H7  1  0.319200  0.978400  0.348200  1.0  0.1109
  H  H8  1  0.864100  0.402100  0.044200  1.0  0.0998
  H  H9  1  0.825900  0.673200  0.348100  1.0  0.086
  H  H10  1  0.680800  0.021600  0.651800  1.0  0.1116
  H  H11  1  0.626700  0.388100  0.485200  1.0  0.1056
  H  H12  1  0.064100  0.372100  0.355200  1.0  0.0929
  H  H13  1  0.709500  0.565500  0.010000  1.0  0.077
  H  H14  1  0.782400  0.952700  0.811300  1.0  0.1112
  H  H15  1  0.144400  0.656800  0.069300  1.0  0.1091
  H  H16  1  0.618900  0.765200  0.703400  1.0  0.1148
  H  H17  1  0.596300  0.151000  0.715300  1.0  0.1092
  H  H18  1  0.551500  0.067800  0.256500  1.0  0.1099
  H  H19  1  0.008400  0.820600  0.003900  1.0  0.1041
  H  H20  1  0.135700  0.707900  0.700800  1.0  0.1244
  H  H21  1  0.925700  0.262400  0.837200  1.0  0.1031
  H  H22  1  0.403700  0.849000  0.284700  1.0  0.1097
  H  H23  1  0.649200  0.614400  0.380200  1.0  0.1187
  H  H24  1  0.116700  0.070600  0.827200  1.0  0.129
  H  H25  1  0.260200  0.228800  0.836800  1.0  0.0844
  H  H26  1  0.007100  0.444400  0.536700  1.0  0.0822
  H  H27  1  0.883000  0.300700  0.411000  1.0  0.0765
  H  H28  1  0.373300  0.611900  0.514800  1.0  0.1059
  H  H29  1  0.883200  0.745900  0.810400  1.0  0.1034
  H  H30  1  0.293900  0.836300  0.911900  1.0  0.0949
  H  H31  1  0.135900  0.597900  0.955800  1.0  0.0999
  H  H32  1  0.609000  0.584400  0.688400  1.0  0.0978
  H  H33  1  0.902800  0.208400  0.724200  1.0  0.0776
  H  H34  1  0.117000  0.699300  0.589000  1.0  0.0773
  H  H35  1  0.946400  0.805400  0.656900  1.0  0.1239
  H  H36  1  0.459800  0.348100  0.531400  1.0  0.1154
  H  H37  1  0.174100  0.326800  0.651900  1.0  0.086
  H  H38  1  0.647000  0.440000  0.815800  1.0  0.0804
  H  H39  1  0.289800  0.913900  0.123500  1.0  0.0991
  H  H40  1  0.097200  0.791600  0.275800  1.0  0.0775
  H  H41  1  0.649400  0.350500  0.259500  1.0  0.1085
  H  H42  1  0.350600  0.649500  0.740500  1.0  0.1088
  H  H43  1  0.821600  0.498100  0.498800  1.0  0.1082
  H  H44  1  0.353000  0.560000  0.184200  1.0  0.0804
  H  H45  1  0.785300  0.586700  0.809100  1.0  0.1174
  H  H46  1  0.849600  0.714300  0.009200  1.0  0.1069
  H  H47  1  0.217600  0.047300  0.188700  1.0  0.1115
  H  H48  1  0.935900  0.627900  0.644800  1.0  0.093
  H  H49  1  0.148200  0.969700  0.005300  1.0  0.118
  H  H50  1  0.540200  0.651900  0.468600  1.0  0.1151
  H  H51  1  0.855600  0.343200  0.930700  1.0  0.1094
  H  H52  1  0.391000  0.415600  0.311600  1.0  0.0983
  H  H53  1  0.962400  0.491600  0.266300  1.0  0.0883
  H  H54  1  0.391700  0.525800  0.791400  1.0  0.1047
  H  H55  1  0.864300  0.292100  0.299200  1.0  0.1244
  H  H56  1  0.551600  0.782600  0.007400  1.0  0.0734
  H  H57  1  0.659800  0.278400  0.034600  1.0  0.1105
  H  H58  1  0.116800  0.254100  0.189600  1.0  0.1036
  H  H59  1  0.340200  0.721600  0.965400  1.0  0.1098
  H  H60  1  0.689700  0.938400  0.010800  1.0  0.1228
  H  H61  1  0.608300  0.474200  0.208600  1.0  0.105
  H  H62  1  0.883300  0.929400  0.172800  1.0  0.1301
  H  H63  1  0.214700  0.413300  0.190900  1.0  0.116
  H  H64  1  0.936500  0.429700  0.153100  1.0  0.1059
  H  H65  1  0.448400  0.217400  0.992600  1.0  0.0734
  H  H66  1  0.053600  0.194600  0.343100  1.0  0.1244
  H  H67  1  0.063500  0.570300  0.846900  1.0  0.1057
  H  H68  1  0.178400  0.501900  0.501200  1.0  0.1082
  H  H69  1  0.710200  0.086100  0.876500  1.0  0.0984
  H  H70  1  0.975800  0.102800  0.188200  1.0  0.1064
  H  H71  1  0.150400  0.285700  0.990800  1.0  0.1071
  H  H72  1  0.739800  0.771200  0.163200  1.0  0.0839
  H  H73  1  0.074300  0.737600  0.162800  1.0  0.1038
  H  H74  1  0.350800  0.385600  0.619800  1.0  0.1188
  H  H75  1  0.037600  0.508400  0.733700  1.0  0.0879
  H  H76  1  0.310300  0.061600  0.989200  1.0  0.1222
  H  H77  1  0.574800  0.075500  0.368000  1.0  0.1038
  H  H78  1  0.851800  0.030300  0.994700  1.0  0.1181
  H  H79  1  0.991600  0.179400  0.996100  1.0  0.1044
  H  H80  1  0.024200  0.897200  0.811800  1.0  0.1074
  H  H81  1  0.448500  0.932200  0.743500  1.0  0.1098
  H  H82  1  0.290500  0.434500  0.990000  1.0  0.0781
  H  H83  1  0.992900  0.555600  0.463300  1.0  0.0823
  H  H84  1  0.706100  0.163700  0.088100  1.0  0.0956
  C  C85  1  0.162500  0.330900  0.090200  1.0  0.0503
  C  C86  1  0.619100  0.812500  0.041800  1.0  0.1689
  C  C87  1  0.028700  0.496200  0.823000  1.0  -0.1559
  C  C88  1  0.746600  0.994100  0.791800  1.0  -0.182
  C  C89  1  0.052600  0.685200  0.182600  1.0  -0.171
  C  C90  1  0.987700  0.541200  0.245100  1.0  0.1758
  C  C91  1  0.316900  0.262300  0.308500  1.0  -0.1668
  C  C92  1  0.936500  0.790500  0.850200  1.0  -0.127
  C  C93  1  0.524900  0.590900  0.481600  1.0  -0.104
  C  C94  1  0.809900  0.659400  0.968600  1.0  -0.1963
  C  C95  1  0.685400  0.033600  0.697400  1.0  -0.1301
  C  C96  1  0.403600  0.781900  0.155200  1.0  0.6385
  C  C97  1  0.021400  0.881600  0.851200  1.0  -0.0978
  C  C98  1  0.268100  0.809000  0.599300  1.0  -0.1645
  C  C99  1  0.978600  0.118400  0.148800  1.0  -0.097
  C  C100  1  0.768800  0.586800  0.661900  1.0  -0.1755
  C  C101  1  0.190100  0.340600  0.031400  1.0  -0.1982
  C  C102  1  0.272000  0.194200  0.867500  1.0  0.1773
  C  C103  1  0.619600  0.115000  0.287700  1.0  -0.1515
  C  C104  1  0.719500  0.604600  0.399500  1.0  -0.2194
  C  C105  1  0.312400  0.503500  0.144500  1.0  0.1774
  C  C106  1  0.350200  0.663500  0.785900  1.0  -0.1374
  C  C107  1  0.704600  0.178100  0.268900  1.0  0.2928
  C  C108  1  0.998800  0.462700  0.930500  1.0  0.0322
  C  C109  1  0.701600  0.072900  0.830600  1.0  -0.0802
  C  C110  1  0.314600  0.966400  0.302600  1.0  -0.1315
  C  C111  1  0.006500  0.576400  0.142000  1.0  0.0848
  C  C112  1  0.184700  0.747200  0.620200  1.0  -0.064
  C  C113  1  0.298400  0.927100  0.169400  1.0  -0.0829
  C  C114  1  0.423500  0.565900  0.508600  1.0  -0.1027
  C  C115  1  0.196400  0.050200  0.910100  1.0  0.0702
  C  C116  1  0.325700  0.757300  0.824600  1.0  0.2556
  C  C117  1  0.343000  0.705900  0.920100  1.0  -0.1047
  C  C118  1  0.589800  0.458700  0.080000  1.0  0.668
  C  C119  1  0.728000  0.805800  0.132500  1.0  0.1757
  C  C120  1  0.929500  0.764400  0.907500  1.0  0.0478
  C  C121  1  0.081300  0.557400  0.973500  1.0  -0.0922
  C  C122  1  0.475100  0.409100  0.518400  1.0  -0.1019
  C  C123  1  0.826000  0.638300  0.379400  1.0  0.1734
  C  C124  1  0.295400  0.821900  0.731100  1.0  0.2924
  C  C125  1  0.194900  0.751300  0.687200  1.0  -0.2109
  C  C126  1  0.603900  0.525800  0.473800  1.0  0.0416
  C  C127  1  0.283600  0.443900  0.551900  1.0  0.1037
  C  C128  1  0.723900  0.569200  0.968700  1.0  0.1759
  C  C129  1  0.251100  0.805400  0.527100  1.0  0.7332
  C  C130  1  0.396100  0.474200  0.526200  1.0  0.0421
  C  C131  1  0.103100  0.950800  0.909500  1.0  0.0582
  C  C132  1  0.232100  0.530600  0.349500  1.0  0.6722
  C  C133  1  0.837500  0.669100  0.909800  1.0  0.0513
  C  C134  1  0.366800  0.879700  0.645100  1.0  -0.0273
  C  C135  1  0.918700  0.442600  0.026500  1.0  -0.0902
  C  C136  1  0.596400  0.218100  0.844800  1.0  0.6391
  C  C137  1  0.066900  0.717400  0.250800  1.0  0.1617
  C  C138  1  0.276100  0.430800  0.031300  1.0  0.1775
  C  C139  1  0.626600  0.389200  0.116100  1.0  -0.1528
  C  C140  1  0.635400  0.112500  0.735700  1.0  -0.0762
  C  C141  1  0.001200  0.537300  0.069500  1.0  0.0314
  C  C142  1  0.063500  0.209500  0.149800  1.0  -0.1283
  C  C143  1  0.767900  0.469400  0.650500  1.0  0.6741
  C  C144  1  0.323300  0.371000  0.318400  1.0  -0.0292
  C  C145  1  0.674300  0.242700  0.175400  1.0  0.2608
  C  C146  1  0.174000  0.361700  0.620600  1.0  0.1722
  C  C147  1  0.786200  0.805200  0.683600  1.0  0.3179
  C  C148  1  0.703600  0.906600  0.042800  1.0  -0.2101
  C  C149  1  0.183300  0.099700  0.862200  1.0  -0.1765
  C  C150  1  0.076800  0.430000  0.553100  1.0  0.1666
  C  C151  1  0.010900  0.835000  0.964200  1.0  -0.099
  C  C152  1  0.649800  0.336500  0.214100  1.0  -0.1407
  C  C153  1  0.687600  0.496500  0.855500  1.0  0.1768
  C  C154  1  0.644200  0.132900  0.803600  1.0  -0.0784
  C  C155  1  0.410200  0.541300  0.920000  1.0  0.6685
  C  C156  1  0.748900  0.194600  0.472900  1.0  0.7282
  C  C157  1  0.803600  0.949800  0.089900  1.0  0.071
  C  C158  1  0.373400  0.610800  0.883900  1.0  -0.1533
  C  C159  1  0.355800  0.867100  0.196400  1.0  -0.0775
  C  C160  1  0.213800  0.194800  0.316400  1.0  0.3168
  C  C161  1  0.380900  0.187500  0.958200  1.0  0.168
  C  C162  1  0.095300  0.925200  0.965300  1.0  -0.1712
  C  C163  1  0.716400  0.556100  0.448100  1.0  0.1031
  C  C164  1  0.731900  0.191000  0.400700  1.0  -0.166
  C  C165  1  0.904700  0.074800  0.034700  1.0  -0.1706
  C  C166  1  0.870900  0.655000  0.655400  1.0  -0.071
  C  C167  1  0.989100  0.165000  0.035800  1.0  -0.098
  C  C168  1  0.253400  0.005900  0.208200  1.0  -0.1847
  C  C169  1  0.374700  0.589200  0.816600  1.0  -0.009
  C  C170  1  0.260500  0.024500  0.274900  1.0  0.326
  C  C171  1  0.179800  0.464200  0.531000  1.0  -0.209
  C  C172  1  0.280500  0.395400  0.600500  1.0  -0.2213
  C  C173  1  0.682600  0.224400  0.111700  1.0  -0.1884
  C  C174  1  0.971300  0.503800  0.177000  1.0  -0.156
  C  C175  1  0.815300  0.252800  0.379800  1.0  -0.0735
  C  C176  1  0.923200  0.570000  0.446900  1.0  0.1657
  C  C177  1  0.878400  0.761700  0.664200  1.0  -0.2179
  C  C178  1  0.896900  0.049200  0.090500  1.0  0.0582
  C  C179  1  0.683100  0.737700  0.691500  1.0  -0.1676
  C  C180  1  0.012300  0.458800  0.754900  1.0  0.1733
  C  C181  1  0.676700  0.629000  0.681600  1.0  -0.0295
  C  C182  1  0.739500  0.975500  0.725100  1.0  0.3272
  C  C183  1  0.085500  0.594100  0.041600  1.0  -0.1351
  C  C184  1  0.231200  0.413200  0.338100  1.0  -0.1744
  C  C185  1  0.227800  0.415700  0.149100  1.0  -0.1766
  C  C186  1  0.380400  0.885000  0.712300  1.0  -0.1525
  C  C187  1  0.993500  0.423600  0.858000  1.0  0.084
  C  C188  1  0.933100  0.282600  0.749200  1.0  0.1599
  C  C189  1  0.364600  0.887500  0.264300  1.0  -0.077
  C  C190  1  0.914500  0.405900  0.958400  1.0  -0.1352
  C  C191  1  0.129100  0.345000  0.344600  1.0  -0.0702
  C  C192  1  0.121600  0.238300  0.335800  1.0  -0.2095
  C  C193  1  0.296400  0.093400  0.957200  1.0  -0.2082
  C  C194  1  0.820200  0.535800  0.469000  1.0  -0.2091
  C  C195  1  0.633200  0.120300  0.354900  1.0  -0.0256
  C  C196  1  0.816700  0.900300  0.137800  1.0  -0.1774
  C  C197  1  0.317400  0.775600  0.888300  1.0  -0.1877
  C  C198  1  0.070500  0.235600  0.092500  1.0  0.0477
  C  C199  1  0.625300  0.410800  0.183400  1.0  -0.0074
  C  C200  1  0.576500  0.434100  0.491400  1.0  -0.1025
  C  C201  1  0.657000  0.294100  0.079900  1.0  -0.1054
  C  C202  1  0.805100  0.248700  0.312800  1.0  -0.2134
  C  C203  1  0.947400  0.314800  0.817400  1.0  -0.1714
  C  C204  1  0.772200  0.584300  0.850900  1.0  -0.1777
  N  N205  1  0.660500  0.487700  0.913600  1.0  -0.3243
  N  N206  1  0.628400  0.763800  0.085900  1.0  -0.3086
  N  N207  1  0.070800  0.377200  0.596700  1.0  -0.305
  N  N208  1  0.039500  0.647700  0.283600  1.0  -0.331
  N  N209  1  0.960500  0.352300  0.716400  1.0  -0.3384
  N  N210  1  0.339500  0.512300  0.086400  1.0  -0.3243
  N  N211  1  0.929200  0.622800  0.403300  1.0  -0.3076
  N  N212  1  0.371600  0.236200  0.914100  1.0  -0.3107
  O  O213  1  0.151700  0.751400  0.491100  1.0  -0.5982
  O  O214  1  0.528100  0.262100  0.818100  1.0  -0.5753
  O  O215  1  0.311700  0.587700  0.329100  1.0  -0.5775
  O  O216  1  0.304800  0.838500  0.799800  1.0  -0.2672
  O  O217  1  0.593400  0.556800  0.114200  1.0  -0.5861
  O  O218  1  0.624300  0.249000  0.908300  1.0  -0.5795
  O  O219  1  0.406600  0.443200  0.885800  1.0  -0.5857
  O  O220  1  0.847900  0.437900  0.622100  1.0  -0.5748
  O  O221  1  0.197300  0.089400  0.313100  1.0  -0.2785
  O  O222  1  0.152100  0.562100  0.377900  1.0  -0.574
  O  O223  1  0.695200  0.161500  0.200200  1.0  -0.2677
  O  O224  1  0.446800  0.585600  0.982200  1.0  -0.6271
  O  O225  1  0.661700  0.143900  0.491400  1.0  -0.5613
  O  O226  1  0.848300  0.248600  0.508900  1.0  -0.5985
  O  O227  1  0.375700  0.751000  0.091700  1.0  -0.5806
  O  O228  1  0.338300  0.856100  0.508600  1.0  -0.5626
  O  O229  1  0.688300  0.412300  0.670900  1.0  -0.5742
  O  O230  1  0.553200  0.414400  0.017800  1.0  -0.6269
  O  O231  1  0.802700  0.910600  0.686900  1.0  -0.2771
  O  O232  1  0.471900  0.737900  0.181900  1.0  -0.5755
