# generated using pymatgen
data_CdFeH24C30S2(N2O3)2
_symmetry_space_group_name_H-M   'P 1'
_cell_length_a   11.70000000
_cell_length_b   11.83100000
_cell_length_c   13.49000000
_cell_angle_alpha   90.00000000
_cell_angle_beta   90.00000000
_cell_angle_gamma   90.00000000
_symmetry_Int_Tables_number   1
_chemical_formula_structural   CdFeH24C30S2(N2O3)2
_chemical_formula_sum   'Cd2 Fe2 H48 C60 S4 N8 O12'
_cell_volume   1867.32222300
_cell_formula_units_Z   2
loop_
 _symmetry_equiv_pos_site_id
 _symmetry_equiv_pos_as_xyz
  1  'x, y, z'
loop_
 _atom_site_type_symbol
 _atom_site_label
 _atom_site_symmetry_multiplicity
 _atom_site_fract_x
 _atom_site_fract_y
 _atom_site_fract_z
 _atom_site_occupancy
 _atom_site_charge
  Cd  Cd1  1  0.282550  0.000000  0.000000  1.0  0.9009
  Cd  Cd2  1  0.717450  0.500000  0.500000  1.0  0.903
  Fe  Fe3  1  0.212760  0.000000  0.500000  1.0  0.0626
  Fe  Fe4  1  0.787240  0.500000  0.000000  1.0  0.0627
  H  H5  1  0.398500  0.104900  0.580300  1.0  0.1348
  H  H6  1  0.275900  0.220800  0.459500  1.0  0.1221
  H  H7  1  0.064700  0.177200  0.492300  1.0  0.1261
  H  H8  1  0.056400  0.043700  0.644900  1.0  0.1305
  H  H9  1  0.144500  0.774200  0.921000  1.0  0.0785
  H  H10  1  0.141700  0.584300  0.925600  1.0  0.121
  H  H11  1  0.436400  0.587400  0.072800  1.0  0.1313
  H  H12  1  0.427200  0.783700  0.072100  1.0  0.0815
  H  H13  1  0.499200  0.909600  0.877400  1.0  0.1012
  H  H14  1  0.698400  0.912100  0.874500  1.0  0.134
  H  H15  1  0.869200  0.920800  0.131700  1.0  0.128
  H  H16  1  0.067500  0.927700  0.129700  1.0  0.0856
  H  H17  1  0.398500  0.895100  0.419700  1.0  0.1346
  H  H18  1  0.275900  0.779200  0.540500  1.0  0.1222
  H  H19  1  0.064700  0.822800  0.507700  1.0  0.1259
  H  H20  1  0.056400  0.956300  0.355100  1.0  0.131
  H  H21  1  0.144500  0.225800  0.079000  1.0  0.0788
  H  H22  1  0.141700  0.415700  0.074400  1.0  0.121
  H  H23  1  0.436400  0.412600  0.927200  1.0  0.1297
  H  H24  1  0.427200  0.216300  0.927900  1.0  0.0814
  H  H25  1  0.499200  0.090400  0.122600  1.0  0.101
  H  H26  1  0.698400  0.087900  0.125500  1.0  0.1334
  H  H27  1  0.869200  0.079200  0.868300  1.0  0.1273
  H  H28  1  0.067500  0.072300  0.870300  1.0  0.085
  H  H29  1  0.601500  0.395100  0.080300  1.0  0.1346
  H  H30  1  0.724100  0.279200  0.959500  1.0  0.122
  H  H31  1  0.935300  0.322800  0.992300  1.0  0.1252
  H  H32  1  0.943600  0.456300  0.144900  1.0  0.1306
  H  H33  1  0.855500  0.725800  0.421000  1.0  0.0775
  H  H34  1  0.858300  0.915700  0.425600  1.0  0.1211
  H  H35  1  0.563600  0.912600  0.572800  1.0  0.1302
  H  H36  1  0.572800  0.716300  0.572100  1.0  0.0811
  H  H37  1  0.500800  0.590400  0.377400  1.0  0.1011
  H  H38  1  0.301600  0.587900  0.374500  1.0  0.1336
  H  H39  1  0.130800  0.579200  0.631700  1.0  0.1269
  H  H40  1  0.932500  0.572300  0.629700  1.0  0.0854
  H  H41  1  0.601500  0.604900  0.919700  1.0  0.1346
  H  H42  1  0.724100  0.720800  0.040500  1.0  0.1222
  H  H43  1  0.935300  0.677200  0.007700  1.0  0.1259
  H  H44  1  0.943600  0.543700  0.855100  1.0  0.1315
  H  H45  1  0.855500  0.274200  0.579000  1.0  0.078
  H  H46  1  0.858300  0.084300  0.574400  1.0  0.1211
  H  H47  1  0.563600  0.087400  0.427200  1.0  0.13
  H  H48  1  0.572800  0.283700  0.427900  1.0  0.0813
  H  H49  1  0.500800  0.409600  0.622600  1.0  0.1015
  H  H50  1  0.301600  0.412100  0.625500  1.0  0.1333
  H  H51  1  0.130800  0.420800  0.368300  1.0  0.1278
  H  H52  1  0.932500  0.427700  0.370300  1.0  0.0852
  C  C53  1  0.239300  0.049300  0.640700  1.0  -0.2212
  C  C54  1  0.314900  0.106500  0.577500  1.0  -0.0909
  C  C55  1  0.246600  0.172500  0.512800  1.0  -0.0974
  C  C56  1  0.130100  0.146500  0.528800  1.0  -0.1323
  C  C57  1  0.125600  0.073100  0.613100  1.0  -0.0829
  C  C58  1  0.203300  0.736700  0.953700  1.0  0.1829
  C  C59  1  0.201600  0.623100  0.955500  1.0  -0.21
  C  C60  1  0.288200  0.563800  0.001400  1.0  0.1028
  C  C61  1  0.374800  0.624100  0.043300  1.0  -0.1977
  C  C62  1  0.369400  0.742900  0.041100  1.0  0.1872
  C  C63  1  0.539100  0.947000  0.927200  1.0  0.1645
  C  C64  1  0.659100  0.052500  0.074200  1.0  -0.1738
  C  C65  1  0.907200  0.953600  0.078400  1.0  -0.1821
  C  C66  1  0.026700  0.956700  0.076200  1.0  0.1681
  C  C67  1  0.239300  0.950700  0.359300  1.0  -0.2196
  C  C68  1  0.314900  0.893500  0.422500  1.0  -0.0913
  C  C69  1  0.246600  0.827500  0.487200  1.0  -0.0977
  C  C70  1  0.130100  0.853500  0.471200  1.0  -0.1313
  C  C71  1  0.125600  0.926900  0.386900  1.0  -0.0843
  C  C72  1  0.203300  0.263300  0.046300  1.0  0.1835
  C  C73  1  0.201600  0.376900  0.044500  1.0  -0.2085
  C  C74  1  0.288200  0.436200  0.998600  1.0  0.1033
  C  C75  1  0.374800  0.375900  0.956700  1.0  -0.1982
  C  C76  1  0.369400  0.257100  0.958900  1.0  0.1861
  C  C77  1  0.539100  0.053000  0.072800  1.0  0.1636
  C  C78  1  0.659100  0.947500  0.925800  1.0  -0.1734
  C  C79  1  0.907200  0.046400  0.921600  1.0  -0.1819
  C  C80  1  0.026700  0.043300  0.923800  1.0  0.1671
  C  C81  1  0.717800  0.000000  0.000000  1.0  0.1033
  C  C82  1  0.845600  0.000000  0.000000  1.0  0.1059
  C  C83  1  0.760700  0.450700  0.140700  1.0  -0.2208
  C  C84  1  0.685100  0.393500  0.077500  1.0  -0.0909
  C  C85  1  0.753400  0.327500  0.012800  1.0  -0.0988
  C  C86  1  0.869900  0.353500  0.028800  1.0  -0.1331
  C  C87  1  0.874400  0.426900  0.113100  1.0  -0.0824
  C  C88  1  0.796700  0.763300  0.453700  1.0  0.1831
  C  C89  1  0.798400  0.876900  0.455500  1.0  -0.2102
  C  C90  1  0.711800  0.936200  0.501400  1.0  0.1036
  C  C91  1  0.625200  0.875900  0.543300  1.0  -0.1967
  C  C92  1  0.630600  0.757100  0.541100  1.0  0.1866
  C  C93  1  0.460900  0.553000  0.427200  1.0  0.1643
  C  C94  1  0.340900  0.447500  0.574200  1.0  -0.1741
  C  C95  1  0.092800  0.546400  0.578400  1.0  -0.1822
  C  C96  1  0.973300  0.543300  0.576200  1.0  0.1675
  C  C97  1  0.760700  0.549300  0.859300  1.0  -0.2194
  C  C98  1  0.685100  0.606500  0.922500  1.0  -0.0914
  C  C99  1  0.753400  0.672500  0.987200  1.0  -0.0993
  C  C100  1  0.869900  0.646500  0.971200  1.0  -0.1326
  C  C101  1  0.874400  0.573100  0.886900  1.0  -0.084
  C  C102  1  0.796700  0.236700  0.546300  1.0  0.1837
  C  C103  1  0.798400  0.123100  0.544500  1.0  -0.2082
  C  C104  1  0.711800  0.063800  0.498600  1.0  0.1039
  C  C105  1  0.625200  0.124100  0.456700  1.0  -0.1974
  C  C106  1  0.630600  0.242900  0.458900  1.0  0.1861
  C  C107  1  0.460900  0.447000  0.572800  1.0  0.1632
  C  C108  1  0.340900  0.552500  0.425800  1.0  -0.1724
  C  C109  1  0.092800  0.453600  0.421600  1.0  -0.1821
  C  C110  1  0.973300  0.456700  0.423800  1.0  0.1667
  C  C111  1  0.282200  0.500000  0.500000  1.0  0.1036
  C  C112  1  0.154400  0.500000  0.500000  1.0  0.1061
  S  S113  1  0.278400  0.963000  0.739890  1.0  1.3921
  S  S114  1  0.278400  0.037000  0.260110  1.0  1.3915
  S  S115  1  0.721600  0.537000  0.239890  1.0  1.3923
  S  S116  1  0.721600  0.463000  0.760110  1.0  1.3917
  N  N117  1  0.286100  0.799300  0.997000  1.0  -0.3515
  N  N118  1  0.286100  0.200700  0.003000  1.0  -0.3508
  N  N119  1  0.481000  0.000000  0.000000  1.0  -0.3431
  N  N120  1  0.083700  0.000000  0.000000  1.0  -0.3356
  N  N121  1  0.713900  0.700700  0.497000  1.0  -0.3509
  N  N122  1  0.713900  0.299300  0.503000  1.0  -0.3516
  N  N123  1  0.519000  0.500000  0.500000  1.0  -0.3446
  N  N124  1  0.916300  0.500000  0.500000  1.0  -0.3353
  O  O125  1  0.283700  0.033500  0.827300  1.0  -0.7063
  O  O126  1  0.389500  0.915600  0.715500  1.0  -0.6801
  O  O127  1  0.188100  0.878100  0.749600  1.0  -0.6901
  O  O128  1  0.283700  0.966500  0.172700  1.0  -0.7064
  O  O129  1  0.389500  0.084400  0.284500  1.0  -0.6804
  O  O130  1  0.188100  0.121900  0.250400  1.0  -0.6901
  O  O131  1  0.716300  0.466500  0.327300  1.0  -0.7057
  O  O132  1  0.610500  0.584400  0.215500  1.0  -0.681
  O  O133  1  0.811900  0.621900  0.249600  1.0  -0.691
  O  O134  1  0.716300  0.533500  0.672700  1.0  -0.7055
  O  O135  1  0.610500  0.415600  0.784500  1.0  -0.68
  O  O136  1  0.811900  0.378100  0.750400  1.0  -0.6911
