# generated using pymatgen
data_MnCr(CO2)6
_symmetry_space_group_name_H-M   'P 1'
_cell_length_a   11.34300000
_cell_length_b   14.31100000
_cell_length_c   16.92800000
_cell_angle_alpha   90.00000000
_cell_angle_beta   104.14000000
_cell_angle_gamma   90.00000000
_symmetry_Int_Tables_number   1
_chemical_formula_structural   MnCr(CO2)6
_chemical_formula_sum   'Mn4 Cr4 C24 O48'
_cell_volume   2664.65950970
_cell_formula_units_Z   4
loop_
 _symmetry_equiv_pos_site_id
 _symmetry_equiv_pos_as_xyz
  1  'x, y, z'
loop_
 _atom_site_type_symbol
 _atom_site_label
 _atom_site_symmetry_multiplicity
 _atom_site_fract_x
 _atom_site_fract_y
 _atom_site_fract_z
 _atom_site_occupancy
 _atom_site_charge
  Mn  Mn1  1  0.316730  0.907100  0.142580  1.0  1.0921
  Mn  Mn2  1  0.816730  0.407100  0.142580  1.0  1.0921
  Mn  Mn3  1  0.316730  0.092900  0.642580  1.0  1.0922
  Mn  Mn4  1  0.816730  0.592900  0.642580  1.0  1.0922
  Cr  Cr5  1  0.085200  0.883540  0.822680  1.0  1.4294
  Cr  Cr6  1  0.585200  0.383540  0.822680  1.0  1.4294
  Cr  Cr7  1  0.085200  0.116460  0.322680  1.0  1.429
  Cr  Cr8  1  0.585200  0.616460  0.322680  1.0  1.429
  C  C9  1  0.208400  0.841510  0.979160  1.0  0.5755
  C  C10  1  0.214000  0.948940  0.970760  1.0  0.6012
  C  C11  1  0.243900  0.944950  0.736870  1.0  0.5607
  C  C12  1  0.127600  0.003790  0.707990  1.0  0.5676
  C  C13  1  0.868800  0.813680  0.839290  1.0  0.6202
  C  C14  1  0.903500  0.756040  0.771200  1.0  0.617
  C  C15  1  0.708400  0.341510  0.979160  1.0  0.5755
  C  C16  1  0.714000  0.448940  0.970760  1.0  0.6012
  C  C17  1  0.743900  0.444950  0.736870  1.0  0.5608
  C  C18  1  0.627600  0.503790  0.707990  1.0  0.5676
  C  C19  1  0.368800  0.313680  0.839290  1.0  0.6202
  C  C20  1  0.403500  0.256040  0.771200  1.0  0.6199
  C  C21  1  0.208400  0.158490  0.479160  1.0  0.5751
  C  C22  1  0.214000  0.051060  0.470760  1.0  0.6023
  C  C23  1  0.243900  0.055050  0.236870  1.0  0.5637
  C  C24  1  0.127600  0.996210  0.207990  1.0  0.5645
  C  C25  1  0.868800  0.186320  0.339290  1.0  0.6197
  C  C26  1  0.903500  0.243960  0.271200  1.0  0.6173
  C  C27  1  0.708400  0.658490  0.479160  1.0  0.5751
  C  C28  1  0.714000  0.551060  0.470760  1.0  0.6023
  C  C29  1  0.743900  0.555050  0.236870  1.0  0.5637
  C  C30  1  0.627600  0.496210  0.207990  1.0  0.5645
  C  C31  1  0.368800  0.686320  0.339290  1.0  0.6197
  C  C32  1  0.403500  0.743960  0.271200  1.0  0.6182
  O  O33  1  0.157450  0.798830  0.914320  1.0  -0.4975
  O  O34  1  0.162420  0.981350  0.901110  1.0  -0.5336
  O  O35  1  0.235780  0.878500  0.784500  1.0  -0.5036
  O  O36  1  0.038440  0.978860  0.736320  1.0  -0.5199
  O  O37  1  0.934920  0.886520  0.859390  1.0  -0.5182
  O  O38  1  0.002990  0.780100  0.755130  1.0  -0.4988
  O  O39  1  0.253410  0.806730  0.045770  1.0  -0.4575
  O  O40  1  0.267070  0.994820  0.029860  1.0  -0.5233
  O  O41  1  0.334940  0.964580  0.712340  1.0  -0.5292
  O  O42  1  0.129740  0.070150  0.661440  1.0  -0.4836
  O  O43  1  0.786230  0.788520  0.868480  1.0  -0.3852
  O  O44  1  0.834520  0.693520  0.737790  1.0  -0.6148
  O  O45  1  0.657450  0.298830  0.914320  1.0  -0.4971
  O  O46  1  0.662420  0.481350  0.901110  1.0  -0.5331
  O  O47  1  0.735780  0.378500  0.784500  1.0  -0.5036
  O  O48  1  0.538440  0.478860  0.736320  1.0  -0.5199
  O  O49  1  0.434920  0.386520  0.859390  1.0  -0.5182
  O  O50  1  0.502990  0.280100  0.755130  1.0  -0.4988
  O  O51  1  0.753410  0.306730  0.045770  1.0  -0.4575
  O  O52  1  0.767070  0.494820  0.029860  1.0  -0.5233
  O  O53  1  0.834940  0.464580  0.712340  1.0  -0.5291
  O  O54  1  0.629740  0.570150  0.661440  1.0  -0.4827
  O  O55  1  0.286230  0.288520  0.868480  1.0  -0.3852
  O  O56  1  0.334520  0.193520  0.737790  1.0  -0.6148
  O  O57  1  0.157450  0.201170  0.414320  1.0  -0.4961
  O  O58  1  0.162420  0.018650  0.401110  1.0  -0.5356
  O  O59  1  0.235780  0.121500  0.284500  1.0  -0.5028
  O  O60  1  0.038440  0.021140  0.236320  1.0  -0.518
  O  O61  1  0.934920  0.113480  0.359390  1.0  -0.5193
  O  O62  1  0.002990  0.219900  0.255130  1.0  -0.4996
  O  O63  1  0.253410  0.193270  0.545770  1.0  -0.4563
  O  O64  1  0.267070  0.005180  0.529860  1.0  -0.5261
  O  O65  1  0.334940  0.035420  0.212340  1.0  -0.5284
  O  O66  1  0.129740  0.929850  0.161440  1.0  -0.4826
  O  O67  1  0.786230  0.211480  0.368480  1.0  -0.3855
  O  O68  1  0.834520  0.306480  0.237790  1.0  -0.6149
  O  O69  1  0.657450  0.701170  0.414320  1.0  -0.4961
  O  O70  1  0.662420  0.518650  0.401110  1.0  -0.5351
  O  O71  1  0.735780  0.621500  0.284500  1.0  -0.5028
  O  O72  1  0.538440  0.521140  0.236320  1.0  -0.518
  O  O73  1  0.434920  0.613480  0.359390  1.0  -0.5193
  O  O74  1  0.502990  0.719900  0.255130  1.0  -0.4996
  O  O75  1  0.753410  0.693270  0.545770  1.0  -0.4563
  O  O76  1  0.767070  0.505180  0.529860  1.0  -0.5261
  O  O77  1  0.834940  0.535420  0.212340  1.0  -0.5284
  O  O78  1  0.629740  0.429850  0.161440  1.0  -0.4826
  O  O79  1  0.286230  0.711480  0.368480  1.0  -0.3855
  O  O80  1  0.334520  0.806480  0.237790  1.0  -0.6149
