# generated using pymatgen
data_ZnH14C18(NO2)2
_symmetry_space_group_name_H-M   'P 1'
_cell_length_a   22.21900000
_cell_length_b   5.52430000
_cell_length_c   18.47190000
_cell_angle_alpha   90.00000000
_cell_angle_beta   115.96200000
_cell_angle_gamma   90.00000000
_symmetry_Int_Tables_number   1
_chemical_formula_structural   ZnH14C18(NO2)2
_chemical_formula_sum   'Zn4 H56 C72 N8 O16'
_cell_volume   2038.51487903
_cell_formula_units_Z   4
loop_
 _symmetry_equiv_pos_site_id
 _symmetry_equiv_pos_as_xyz
  1  'x, y, z'
loop_
 _atom_site_type_symbol
 _atom_site_label
 _atom_site_symmetry_multiplicity
 _atom_site_fract_x
 _atom_site_fract_y
 _atom_site_fract_z
 _atom_site_occupancy
 _atom_site_charge
  Zn  Zn1  1  0.500000  0.036810  0.250000  1.0  0.852
  Zn  Zn2  1  0.000000  0.536810  0.250000  1.0  0.852
  Zn  Zn3  1  0.500000  0.963190  0.750000  1.0  0.8522
  Zn  Zn4  1  0.000000  0.463190  0.750000  1.0  0.8522
  H  H5  1  0.654600  0.737200  0.305200  1.0  0.1228
  H  H6  1  0.603400  0.087800  0.422100  1.0  0.0801
  H  H7  1  0.686900  0.345000  0.502200  1.0  0.1223
  H  H8  1  0.571800  0.468900  0.230300  1.0  0.0751
  H  H9  1  0.565600  0.822000  0.044000  1.0  0.1072
  H  H10  1  0.740400  0.875000  0.430800  1.0  0.0977
  H  H11  1  0.470300  0.512000  0.055400  1.0  0.0838
  H  H12  1  0.154600  0.237200  0.305200  1.0  0.1228
  H  H13  1  0.103400  0.587800  0.422100  1.0  0.0801
  H  H14  1  0.186900  0.845000  0.502200  1.0  0.1223
  H  H15  1  0.071800  0.968900  0.230300  1.0  0.0751
  H  H16  1  0.065600  0.322000  0.044000  1.0  0.1072
  H  H17  1  0.240400  0.375000  0.430800  1.0  0.0977
  H  H18  1  0.970300  0.012000  0.055400  1.0  0.0838
  H  H19  1  0.345400  0.737200  0.194800  1.0  0.1228
  H  H20  1  0.396600  0.087800  0.077900  1.0  0.0799
  H  H21  1  0.313100  0.345000  0.997800  1.0  0.123
  H  H22  1  0.428200  0.468900  0.269700  1.0  0.0753
  H  H23  1  0.434400  0.822000  0.456000  1.0  0.106
  H  H24  1  0.259600  0.875000  0.069200  1.0  0.0993
  H  H25  1  0.529700  0.512000  0.444600  1.0  0.0839
  H  H26  1  0.845400  0.237200  0.194800  1.0  0.1228
  H  H27  1  0.896600  0.587800  0.077900  1.0  0.0799
  H  H28  1  0.813100  0.845000  0.997800  1.0  0.123
  H  H29  1  0.928200  0.968900  0.269700  1.0  0.0753
  H  H30  1  0.934400  0.322000  0.456000  1.0  0.106
  H  H31  1  0.759600  0.375000  0.069200  1.0  0.0993
  H  H32  1  0.029700  0.012000  0.444600  1.0  0.0839
  H  H33  1  0.345400  0.262800  0.694800  1.0  0.1228
  H  H34  1  0.396600  0.912200  0.577900  1.0  0.0801
  H  H35  1  0.313100  0.655000  0.497800  1.0  0.1229
  H  H36  1  0.428200  0.531100  0.769700  1.0  0.0754
  H  H37  1  0.434400  0.178000  0.956000  1.0  0.1062
  H  H38  1  0.259600  0.125000  0.569200  1.0  0.0997
  H  H39  1  0.529700  0.488000  0.944600  1.0  0.0839
  H  H40  1  0.845400  0.762800  0.694800  1.0  0.1228
  H  H41  1  0.896600  0.412200  0.577900  1.0  0.0801
  H  H42  1  0.813100  0.155000  0.497800  1.0  0.1229
  H  H43  1  0.928200  0.031100  0.769700  1.0  0.0754
  H  H44  1  0.934400  0.678000  0.956000  1.0  0.1062
  H  H45  1  0.759600  0.625000  0.569200  1.0  0.0997
  H  H46  1  0.029700  0.988000  0.944600  1.0  0.0839
  H  H47  1  0.654600  0.262800  0.805200  1.0  0.1226
  H  H48  1  0.603400  0.912200  0.922100  1.0  0.0802
  H  H49  1  0.686900  0.655000  0.002200  1.0  0.1223
  H  H50  1  0.571800  0.531100  0.730300  1.0  0.0752
  H  H51  1  0.565600  0.178000  0.544000  1.0  0.1072
  H  H52  1  0.740400  0.125000  0.930800  1.0  0.0983
  H  H53  1  0.470300  0.488000  0.555400  1.0  0.0837
  H  H54  1  0.154600  0.762800  0.805200  1.0  0.1226
  H  H55  1  0.103400  0.412200  0.922100  1.0  0.0802
  H  H56  1  0.186900  0.155000  0.002200  1.0  0.1223
  H  H57  1  0.071800  0.031100  0.730300  1.0  0.0752
  H  H58  1  0.065600  0.678000  0.544000  1.0  0.1072
  H  H59  1  0.240400  0.625000  0.930800  1.0  0.0983
  H  H60  1  0.970300  0.988000  0.555400  1.0  0.0837
  C  C61  1  0.644900  0.607300  0.330380  1.0  -0.2134
  C  C62  1  0.613800  0.220500  0.398690  1.0  0.1696
  C  C63  1  0.533560  0.903500  0.131720  1.0  0.7044
  C  C64  1  0.680580  0.575600  0.413390  1.0  0.1214
  C  C65  1  0.664030  0.374500  0.447230  1.0  -0.1972
  C  C66  1  0.595040  0.444900  0.285540  1.0  0.1835
  C  C67  1  0.499650  0.567000  0.033580  1.0  -0.1013
  C  C68  1  0.536770  0.762700  0.065090  1.0  -0.172
  C  C69  1  0.732440  0.751800  0.459950  1.0  -0.114
  C  C70  1  0.144900  0.107300  0.330380  1.0  -0.2134
  C  C71  1  0.113800  0.720500  0.398690  1.0  0.1696
  C  C72  1  0.033560  0.403500  0.131720  1.0  0.7044
  C  C73  1  0.180580  0.075600  0.413390  1.0  0.1214
  C  C74  1  0.164030  0.874500  0.447230  1.0  -0.1972
  C  C75  1  0.095040  0.944900  0.285540  1.0  0.1835
  C  C76  1  0.999650  0.067000  0.033580  1.0  -0.1013
  C  C77  1  0.036770  0.262700  0.065090  1.0  -0.172
  C  C78  1  0.232440  0.251800  0.459950  1.0  -0.114
  C  C79  1  0.355100  0.607300  0.169620  1.0  -0.2164
  C  C80  1  0.386200  0.220500  0.101310  1.0  0.1703
  C  C81  1  0.466440  0.903500  0.368280  1.0  0.7042
  C  C82  1  0.319420  0.575600  0.086610  1.0  0.1216
  C  C83  1  0.335970  0.374500  0.052770  1.0  -0.1965
  C  C84  1  0.404960  0.444900  0.214460  1.0  0.1834
  C  C85  1  0.500350  0.567000  0.466420  1.0  -0.0967
  C  C86  1  0.463230  0.762700  0.434910  1.0  -0.1719
  C  C87  1  0.267560  0.751800  0.040050  1.0  -0.1129
  C  C88  1  0.855100  0.107300  0.169620  1.0  -0.2164
  C  C89  1  0.886200  0.720500  0.101310  1.0  0.1703
  C  C90  1  0.966440  0.403500  0.368280  1.0  0.7042
  C  C91  1  0.819420  0.075600  0.086610  1.0  0.1216
  C  C92  1  0.835970  0.874500  0.052770  1.0  -0.1965
  C  C93  1  0.904960  0.944900  0.214460  1.0  0.1834
  C  C94  1  0.000350  0.067000  0.466420  1.0  -0.0967
  C  C95  1  0.963230  0.262700  0.434910  1.0  -0.1719
  C  C96  1  0.767560  0.251800  0.040050  1.0  -0.1129
  C  C97  1  0.355100  0.392700  0.669620  1.0  -0.2162
  C  C98  1  0.386200  0.779500  0.601310  1.0  0.1713
  C  C99  1  0.466440  0.096500  0.868280  1.0  0.7037
  C  C100  1  0.319420  0.424400  0.586610  1.0  0.1217
  C  C101  1  0.335970  0.625500  0.552770  1.0  -0.1968
  C  C102  1  0.404960  0.555100  0.714460  1.0  0.183
  C  C103  1  0.500350  0.433000  0.966420  1.0  -0.0958
  C  C104  1  0.463230  0.237300  0.934910  1.0  -0.1711
  C  C105  1  0.267560  0.248200  0.540050  1.0  -0.1137
  C  C106  1  0.855100  0.892700  0.669620  1.0  -0.2162
  C  C107  1  0.886200  0.279500  0.601310  1.0  0.1713
  C  C108  1  0.966440  0.596500  0.868280  1.0  0.7037
  C  C109  1  0.819420  0.924400  0.586610  1.0  0.1217
  C  C110  1  0.835970  0.125500  0.552770  1.0  -0.1968
  C  C111  1  0.904960  0.055100  0.714460  1.0  0.183
  C  C112  1  0.000350  0.933000  0.966420  1.0  -0.0958
  C  C113  1  0.963230  0.737300  0.934910  1.0  -0.1711
  C  C114  1  0.767560  0.748200  0.540050  1.0  -0.1137
  C  C115  1  0.644900  0.392700  0.830380  1.0  -0.2151
  C  C116  1  0.613800  0.779500  0.898690  1.0  0.1699
  C  C117  1  0.533560  0.096500  0.631720  1.0  0.7046
  C  C118  1  0.680580  0.424400  0.913390  1.0  0.1214
  C  C119  1  0.664030  0.625500  0.947230  1.0  -0.1976
  C  C120  1  0.595040  0.555100  0.785540  1.0  0.1838
  C  C121  1  0.499650  0.433000  0.533580  1.0  -0.1005
  C  C122  1  0.536770  0.237300  0.565090  1.0  -0.171
  C  C123  1  0.732440  0.248200  0.959950  1.0  -0.1136
  C  C124  1  0.144900  0.892700  0.830380  1.0  -0.2151
  C  C125  1  0.113800  0.279500  0.898690  1.0  0.1699
  C  C126  1  0.033560  0.596500  0.631720  1.0  0.7046
  C  C127  1  0.180580  0.924400  0.913390  1.0  0.1214
  C  C128  1  0.164030  0.125500  0.947230  1.0  -0.1976
  C  C129  1  0.095040  0.055100  0.785540  1.0  0.1838
  C  C130  1  0.999650  0.933000  0.533580  1.0  -0.1005
  C  C131  1  0.036770  0.737300  0.565090  1.0  -0.171
  C  C132  1  0.232440  0.748200  0.959950  1.0  -0.1136
  N  N133  1  0.578940  0.254220  0.318510  1.0  -0.3396
  N  N134  1  0.078940  0.754220  0.318510  1.0  -0.3396
  N  N135  1  0.421060  0.254220  0.181490  1.0  -0.3382
  N  N136  1  0.921060  0.754220  0.181490  1.0  -0.3382
  N  N137  1  0.421060  0.745780  0.681490  1.0  -0.3394
  N  N138  1  0.921060  0.245780  0.681490  1.0  -0.3394
  N  N139  1  0.578940  0.745780  0.818510  1.0  -0.3398
  N  N140  1  0.078940  0.245780  0.818510  1.0  -0.3398
  O  O141  1  0.498310  0.818020  0.164940  1.0  -0.5714
  O  O142  1  0.563390  0.099300  0.151870  1.0  -0.588
  O  O143  1  0.998310  0.318020  0.164940  1.0  -0.5714
  O  O144  1  0.063390  0.599300  0.151870  1.0  -0.588
  O  O145  1  0.501690  0.818020  0.335060  1.0  -0.5717
  O  O146  1  0.436610  0.099300  0.348130  1.0  -0.5885
  O  O147  1  0.001690  0.318020  0.335060  1.0  -0.5717
  O  O148  1  0.936610  0.599300  0.348130  1.0  -0.5885
  O  O149  1  0.501690  0.181980  0.835060  1.0  -0.5714
  O  O150  1  0.436610  0.900700  0.848130  1.0  -0.5901
  O  O151  1  0.001690  0.681980  0.835060  1.0  -0.5714
  O  O152  1  0.936610  0.400700  0.848130  1.0  -0.5901
  O  O153  1  0.498310  0.181980  0.664940  1.0  -0.5714
  O  O154  1  0.563390  0.900700  0.651870  1.0  -0.5885
  O  O155  1  0.998310  0.681980  0.664940  1.0  -0.5714
  O  O156  1  0.063390  0.400700  0.651870  1.0  -0.5885
