# generated using pymatgen
data_ZnH18C20(NO)4
_symmetry_space_group_name_H-M   'P 1'
_cell_length_a   10.75750000
_cell_length_b   15.31800000
_cell_length_c   29.39060000
_cell_angle_alpha   81.11200000
_cell_angle_beta   87.71100000
_cell_angle_gamma   84.53600000
_symmetry_Int_Tables_number   1
_chemical_formula_structural   ZnH18C20(NO)4
_chemical_formula_sum   'Zn8 H144 C160 N32 O32'
_cell_volume   4761.61905510
_cell_formula_units_Z   8
loop_
 _symmetry_equiv_pos_site_id
 _symmetry_equiv_pos_as_xyz
  1  'x, y, z'
loop_
 _atom_site_type_symbol
 _atom_site_label
 _atom_site_symmetry_multiplicity
 _atom_site_fract_x
 _atom_site_fract_y
 _atom_site_fract_z
 _atom_site_occupancy
 _atom_site_charge
  Zn  Zn1  1  0.273610  0.649650  0.691800  1.0  0.899
  Zn  Zn2  1  0.301130  0.870760  0.179060  1.0  0.8681
  Zn  Zn3  1  0.204910  0.143100  0.190250  1.0  0.8939
  Zn  Zn4  1  0.235740  0.391670  0.683580  1.0  0.8871
  Zn  Zn5  1  0.726390  0.350350  0.308200  1.0  0.8998
  Zn  Zn6  1  0.698870  0.129240  0.820940  1.0  0.868
  Zn  Zn7  1  0.795090  0.856900  0.809750  1.0  0.8934
  Zn  Zn8  1  0.764260  0.608330  0.316420  1.0  0.8873
  H  H9  1  0.373200  0.218700  0.838400  1.0  0.1199
  H  H10  1  0.058200  0.743800  0.319700  1.0  0.1205
  H  H11  1  0.097100  0.808500  0.246000  1.0  0.0766
  H  H12  1  0.818300  0.084200  0.193800  1.0  0.0974
  H  H13  1  0.908300  0.910800  0.193000  1.0  0.1
  H  H14  1  0.450100  0.811700  0.269100  1.0  0.0782
  H  H15  1  0.852100  0.453600  0.693700  1.0  0.0963
  H  H16  1  0.394600  0.297800  0.766300  1.0  0.0822
  H  H17  1  0.419500  0.910600  0.701800  1.0  0.0979
  H  H18  1  0.586400  0.107000  0.191100  1.0  0.1035
  H  H19  1  0.423000  0.745600  0.344000  1.0  0.1147
  H  H20  1  0.391700  0.310600  0.921000  1.0  0.1304
  H  H21  1  0.440600  0.245600  0.964400  1.0  0.1286
  H  H22  1  0.462500  0.346400  0.958900  1.0  0.1283
  H  H23  1  0.001800  0.279300  0.830600  1.0  0.1264
  H  H24  1  0.414900  0.188600  0.117200  1.0  0.0839
  H  H25  1  0.034600  0.354300  0.758500  1.0  0.0741
  H  H26  1  0.682300  0.933100  0.197800  1.0  0.0847
  H  H27  1  0.009100  0.111200  0.350200  1.0  0.1198
  H  H28  1  0.316400  0.433000  0.841100  1.0  0.1103
  H  H29  1  0.867800  0.631800  0.692000  1.0  0.1101
  H  H30  1  0.174200  0.963500  0.682900  1.0  0.1006
  H  H31  1  0.157400  0.592300  0.530100  1.0  0.1287
  H  H32  1  0.364400  0.494600  0.767900  1.0  0.0744
  H  H33  1  0.447400  0.250000  0.042500  1.0  0.1271
  H  H34  1  0.055000  0.221200  0.103200  1.0  0.0833
  H  H35  1  0.486000  0.738100  0.535000  1.0  0.1251
  H  H36  1  0.119300  0.812000  0.536800  1.0  0.1191
  H  H37  1  0.176600  0.079400  0.033800  1.0  0.1137
  H  H38  1  0.370000  0.073900  0.685900  1.0  0.0982
  H  H39  1  0.041600  0.170000  0.274600  1.0  0.0758
  H  H40  1  0.109300  0.744600  0.611400  1.0  0.0903
  H  H41  1  0.175100  0.578600  0.181200  1.0  0.1055
  H  H42  1  0.466600  0.675600  0.610500  1.0  0.0781
  H  H43  1  0.416800  0.831400  0.418300  1.0  0.1312
  H  H44  1  0.458800  0.749600  0.455100  1.0  0.136
  H  H45  1  0.494600  0.844300  0.460300  1.0  0.1353
  H  H46  1  0.076800  0.289000  0.028900  1.0  0.1239
  H  H47  1  0.037000  0.658600  0.401700  1.0  0.1347
  H  H48  1  0.046300  0.760800  0.399300  1.0  0.1254
  H  H49  1  0.090900  0.695100  0.443100  1.0  0.1363
  H  H50  1  0.359000  0.432000  0.185500  1.0  0.0973
  H  H51  1  0.067200  0.639700  0.849400  1.0  0.1105
  H  H52  1  0.106200  0.431600  0.197300  1.0  0.0984
  H  H53  1  0.426500  0.586000  0.169300  1.0  0.0962
  H  H54  1  0.118000  0.694400  0.775200  1.0  0.0813
  H  H55  1  0.312200  0.942400  0.339900  1.0  0.1192
  H  H56  1  0.335300  0.005300  0.265200  1.0  0.0738
  H  H57  1  0.079100  0.587500  0.934900  1.0  0.1302
  H  H58  1  0.041300  0.494800  0.958800  1.0  0.1252
  H  H59  1  0.977200  0.541100  0.913300  1.0  0.1315
  H  H60  1  0.177700  0.022300  0.109700  1.0  0.0727
  H  H61  1  0.994900  0.147100  0.898900  1.0  0.1369
  H  H62  1  0.999900  0.244900  0.908000  1.0  0.1225
  H  H63  1  0.049800  0.165400  0.944800  1.0  0.1301
  H  H64  1  0.123600  0.123800  0.667600  1.0  0.1039
  H  H65  1  0.131400  0.541300  0.606500  1.0  0.0813
  H  H66  1  0.422500  0.831500  0.088000  1.0  0.0735
  H  H67  1  0.040200  0.067500  0.436100  1.0  0.1322
  H  H68  1  0.030400  0.969800  0.460600  1.0  0.1276
  H  H69  1  0.956400  0.005600  0.415600  1.0  0.1308
  H  H70  1  0.283900  0.438800  0.427800  1.0  0.1454
  H  H71  1  0.417100  0.426400  0.448900  1.0  0.1237
  H  H72  1  0.386100  0.501100  0.407100  1.0  0.1143
  H  H73  1  0.319100  0.937600  0.919600  1.0  0.1449
  H  H74  1  0.448200  0.945900  0.940700  1.0  0.1176
  H  H75  1  0.395000  0.018800  0.901200  1.0  0.1202
  H  H76  1  0.427900  0.883200  0.011000  1.0  0.1029
  H  H77  1  0.424900  0.396000  0.524000  1.0  0.115
  H  H78  1  0.394500  0.353100  0.601100  1.0  0.0763
  H  H79  1  0.655000  0.594000  0.691200  1.0  0.1152
  H  H80  1  0.638000  0.406000  0.694500  1.0  0.0904
  H  H81  1  0.626800  0.781300  0.161600  1.0  0.1205
  H  H82  1  0.941800  0.256200  0.680300  1.0  0.1216
  H  H83  1  0.902900  0.191500  0.754000  1.0  0.0767
  H  H84  1  0.181700  0.915800  0.806200  1.0  0.0983
  H  H85  1  0.091700  0.089200  0.807000  1.0  0.0992
  H  H86  1  0.549900  0.188300  0.730900  1.0  0.0778
  H  H87  1  0.147900  0.546400  0.306300  1.0  0.0956
  H  H88  1  0.605400  0.702200  0.233700  1.0  0.0819
  H  H89  1  0.580500  0.089400  0.298200  1.0  0.0985
  H  H90  1  0.413600  0.893000  0.808900  1.0  0.1049
  H  H91  1  0.577000  0.254400  0.656000  1.0  0.1151
  H  H92  1  0.608300  0.689400  0.079000  1.0  0.1294
  H  H93  1  0.559400  0.754400  0.035600  1.0  0.124
  H  H94  1  0.537500  0.653600  0.041100  1.0  0.1282
  H  H95  1  0.998200  0.720700  0.169400  1.0  0.1263
  H  H96  1  0.585100  0.811400  0.882800  1.0  0.0833
  H  H97  1  0.965400  0.645700  0.241500  1.0  0.0743
  H  H98  1  0.317700  0.066900  0.802200  1.0  0.0842
  H  H99  1  0.990900  0.888800  0.649800  1.0  0.1195
  H  H100  1  0.683600  0.567000  0.158900  1.0  0.1104
  H  H101  1  0.132200  0.368200  0.308000  1.0  0.1102
  H  H102  1  0.825800  0.036500  0.317100  1.0  0.0991
  H  H103  1  0.842600  0.407700  0.469900  1.0  0.1283
  H  H104  1  0.635600  0.505400  0.232100  1.0  0.0743
  H  H105  1  0.552600  0.750000  0.957500  1.0  0.1273
  H  H106  1  0.945000  0.778800  0.896800  1.0  0.0841
  H  H107  1  0.514000  0.261900  0.465000  1.0  0.1237
  H  H108  1  0.880700  0.188000  0.463200  1.0  0.1192
  H  H109  1  0.823400  0.920600  0.966200  1.0  0.1143
  H  H110  1  0.630000  0.926100  0.314100  1.0  0.0989
  H  H111  1  0.958400  0.830000  0.725400  1.0  0.0759
  H  H112  1  0.890700  0.255400  0.388600  1.0  0.0905
  H  H113  1  0.824900  0.421400  0.818800  1.0  0.1042
  H  H114  1  0.533400  0.324400  0.389500  1.0  0.0778
  H  H115  1  0.583200  0.168600  0.581700  1.0  0.1302
  H  H116  1  0.541200  0.250400  0.544900  1.0  0.1358
  H  H117  1  0.505400  0.155700  0.539700  1.0  0.1348
  H  H118  1  0.923200  0.711000  0.971100  1.0  0.1239
  H  H119  1  0.963000  0.341400  0.598300  1.0  0.1347
  H  H120  1  0.953700  0.239200  0.600700  1.0  0.1247
  H  H121  1  0.909100  0.304900  0.556900  1.0  0.1366
  H  H122  1  0.641000  0.568000  0.814500  1.0  0.0957
  H  H123  1  0.932800  0.360300  0.150600  1.0  0.1108
  H  H124  1  0.893800  0.568400  0.802700  1.0  0.0986
  H  H125  1  0.573500  0.414000  0.830700  1.0  0.0965
  H  H126  1  0.882000  0.305600  0.224800  1.0  0.081
  H  H127  1  0.687800  0.057600  0.660100  1.0  0.1194
  H  H128  1  0.664700  0.994700  0.734800  1.0  0.0731
  H  H129  1  0.920900  0.412500  0.065100  1.0  0.1305
  H  H130  1  0.958700  0.505200  0.041200  1.0  0.125
  H  H131  1  0.022800  0.458900  0.086700  1.0  0.1299
  H  H132  1  0.822300  0.977700  0.890300  1.0  0.0725
  H  H133  1  0.005100  0.852900  0.101100  1.0  0.1361
  H  H134  1  0.000100  0.755100  0.092000  1.0  0.1214
  H  H135  1  0.950200  0.834600  0.055200  1.0  0.1306
  H  H136  1  0.876400  0.876200  0.332400  1.0  0.1046
  H  H137  1  0.868600  0.458700  0.393500  1.0  0.0815
  H  H138  1  0.577500  0.168500  0.912000  1.0  0.0738
  H  H139  1  0.959800  0.932500  0.563900  1.0  0.1332
  H  H140  1  0.969600  0.030200  0.539400  1.0  0.1282
  H  H141  1  0.043600  0.994400  0.584400  1.0  0.1305
  H  H142  1  0.716100  0.561200  0.572200  1.0  0.1437
  H  H143  1  0.582900  0.573600  0.551100  1.0  0.1258
  H  H144  1  0.613900  0.498900  0.592900  1.0  0.1156
  H  H145  1  0.680900  0.062400  0.080400  1.0  0.1445
  H  H146  1  0.551800  0.054100  0.059300  1.0  0.1166
  H  H147  1  0.605000  0.981200  0.098800  1.0  0.1206
  H  H148  1  0.572100  0.116800  0.989000  1.0  0.1024
  H  H149  1  0.575100  0.604000  0.476000  1.0  0.1153
  H  H150  1  0.605500  0.646900  0.398900  1.0  0.0758
  H  H151  1  0.345000  0.406000  0.308800  1.0  0.1167
  H  H152  1  0.362000  0.594000  0.305500  1.0  0.0907
  C  C153  1  0.184700  0.239200  0.843470  1.0  -0.0213
  C  C154  1  0.304100  0.783600  0.526470  1.0  0.0498
  C  C155  1  0.156700  0.019000  0.354550  1.0  0.0431
  C  C156  1  0.184200  0.528100  0.854440  1.0  0.0291
  C  C157  1  0.302800  0.246000  0.822840  1.0  -0.1431
  C  C158  1  0.138900  0.756700  0.310310  1.0  -0.2038
  C  C159  1  0.168600  0.188300  0.890070  1.0  0.2837
  C  C160  1  0.163200  0.795900  0.266140  1.0  0.1809
  C  C161  1  0.317900  0.707000  0.168030  1.0  0.6873
  C  C162  1  0.236800  0.736300  0.341210  1.0  0.0042
  C  C163  1  0.312800  0.827300  0.477650  1.0  0.243
  C  C164  1  0.811600  0.024300  0.193120  1.0  -0.1248
  C  C165  1  0.214400  0.693100  0.388960  1.0  0.2803
  C  C166  1  0.915500  0.971300  0.190960  1.0  -0.1907
  C  C167  1  0.370600  0.797750  0.279550  1.0  0.1842
  C  C168  1  0.685200  0.531500  0.691630  1.0  -0.1032
  C  C169  1  0.819900  0.512500  0.692360  1.0  -0.1002
  C  C170  1  0.314800  0.293300  0.779370  1.0  0.1809
  C  C171  1  0.336800  0.902400  0.696810  1.0  -0.2109
  C  C172  1  0.582700  0.046600  0.191390  1.0  -0.2144
  C  C173  1  0.284600  0.322800  0.978320  1.0  0.2699
  C  C174  1  0.355000  0.757900  0.324720  1.0  -0.1535
  C  C175  1  0.405600  0.304700  0.953450  1.0  -0.3672
  C  C176  1  0.152500  0.487000  0.902190  1.0  0.272
  C  C177  1  0.082600  0.281700  0.818180  1.0  -0.194
  C  C178  1  0.300800  0.810700  0.700230  1.0  0.6637
  C  C179  1  0.140600  0.977100  0.403090  1.0  0.2374
  C  C180  1  0.345900  0.208100  0.099060  1.0  0.1759
  C  C181  1  0.103400  0.326700  0.774880  1.0  0.1822
  C  C182  1  0.688200  0.994000  0.194510  1.0  -0.0595
  C  C183  1  0.265500  0.278800  0.026240  1.0  0.0648
  C  C184  1  0.076500  0.088200  0.333550  1.0  -0.2022
  C  C185  1  0.274500  0.486600  0.828560  1.0  -0.1394
  C  C186  1  0.900100  0.573600  0.691180  1.0  -0.1854
  C  C187  1  0.042600  0.001700  0.185480  1.0  0.6957
  C  C188  1  0.203000  0.306300  0.199100  1.0  0.6843
  C  C189  1  0.607400  0.468700  0.692460  1.0  -0.0951
  C  C190  1  0.256800  0.973000  0.687020  1.0  -0.0947
  C  C191  1  0.304500  0.989800  0.012420  1.0  0.0103
  C  C192  1  0.206500  0.542400  0.543490  1.0  -0.15
  C  C193  1  0.302600  0.524000  0.784430  1.0  0.1962
  C  C194  1  0.037300  0.555100  0.688610  1.0  0.6954
  C  C195  1  0.293000  0.499700  0.517080  1.0  0.0472
  C  C196  1  0.310700  0.531900  0.467310  1.0  0.2788
  C  C197  1  0.366200  0.246100  0.054190  1.0  -0.2139
  C  C198  1  0.135100  0.228000  0.090880  1.0  0.1824
  C  C199  1  0.237100  0.226400  0.670320  1.0  0.6958
  C  C200  1  0.408200  0.741000  0.549970  1.0  -0.237
  C  C201  1  0.191600  0.784200  0.550930  1.0  -0.1445
  C  C202  1  0.468900  0.486200  0.689730  1.0  0.6709
  C  C203  1  0.228800  0.028600  0.043720  1.0  -0.1781
  C  C204  1  0.287300  0.063900  0.682210  1.0  -0.1021
  C  C205  1  0.096600  0.123300  0.287820  1.0  0.1853
  C  C206  1  0.186400  0.744000  0.595970  1.0  0.1867
  C  C207  1  0.458700  0.012800  0.188280  1.0  0.6833
  C  C208  1  0.257400  0.554000  0.179940  1.0  -0.0897
  C  C209  1  0.395600  0.703100  0.595480  1.0  0.1794
  C  C210  1  0.431400  0.811800  0.450390  1.0  -0.375
  C  C211  1  0.147400  0.268500  0.046010  1.0  -0.175
  C  C212  1  0.085600  0.702800  0.410140  1.0  -0.3779
  C  C213  1  0.277300  0.457800  0.186730  1.0  -0.1205
  C  C214  1  0.308700  0.029100  0.963100  1.0  0.2925
  C  C215  1  0.127400  0.608000  0.833280  1.0  -0.177
  C  C216  1  0.187000  0.405100  0.194460  1.0  -0.1646
  C  C217  1  0.344100  0.609200  0.172260  1.0  -0.1163
  C  C218  1  0.159100  0.641000  0.788660  1.0  0.188
  C  C219  1  0.255200  0.988600  0.327510  1.0  -0.1198
  C  C220  1  0.268400  0.026800  0.282540  1.0  0.1968
  C  C221  1  0.053800  0.531500  0.929720  1.0  -0.3828
  C  C222  1  0.229400  0.993400  0.089500  1.0  0.1839
  C  C223  1  0.042100  0.186200  0.912420  1.0  -0.3634
  C  C224  1  0.205500  0.133400  0.672880  1.0  -0.2097
  C  C225  1  0.192100  0.511600  0.589630  1.0  0.1933
  C  C226  1  0.371700  0.882300  0.077020  1.0  0.1737
  C  C227  1  0.032300  0.007700  0.431330  1.0  -0.3771
  C  C228  1  0.353200  0.469000  0.434900  1.0  -0.3796
  C  C229  1  0.373600  0.978300  0.927980  1.0  -0.3752
  C  C230  1  0.376100  0.913700  0.030450  1.0  -0.1954
  C  C231  1  0.364100  0.427300  0.540060  1.0  -0.2042
  C  C232  1  0.344800  0.401600  0.586550  1.0  0.1924
  C  C233  1  0.815300  0.760800  0.156530  1.0  -0.0205
  C  C234  1  0.695900  0.216400  0.473530  1.0  0.0477
  C  C235  1  0.843300  0.981000  0.645450  1.0  0.0426
  C  C236  1  0.815800  0.471900  0.145560  1.0  0.0283
  C  C237  1  0.697200  0.754000  0.177160  1.0  -0.1411
  C  C238  1  0.861100  0.243300  0.689690  1.0  -0.205
  C  C239  1  0.831400  0.811700  0.109930  1.0  0.2837
  C  C240  1  0.836800  0.204100  0.733860  1.0  0.1809
  C  C241  1  0.682100  0.293000  0.831970  1.0  0.6879
  C  C242  1  0.763200  0.263700  0.658790  1.0  0.0047
  C  C243  1  0.687200  0.172700  0.522350  1.0  0.2435
  C  C244  1  0.188400  0.975700  0.806880  1.0  -0.1287
  C  C245  1  0.785600  0.306900  0.611040  1.0  0.2797
  C  C246  1  0.084500  0.028700  0.809040  1.0  -0.1889
  C  C247  1  0.629400  0.202250  0.720450  1.0  0.1855
  C  C248  1  0.314800  0.468500  0.308370  1.0  -0.1001
  C  C249  1  0.180100  0.487500  0.307640  1.0  -0.1041
  C  C250  1  0.685200  0.706700  0.220630  1.0  0.1819
  C  C251  1  0.663200  0.097600  0.303190  1.0  -0.2111
  C  C252  1  0.417300  0.953400  0.808610  1.0  -0.2141
  C  C253  1  0.715400  0.677200  0.021680  1.0  0.2678
  C  C254  1  0.645000  0.242100  0.675280  1.0  -0.1528
  C  C255  1  0.594400  0.695300  0.046550  1.0  -0.3659
  C  C256  1  0.847500  0.513000  0.097810  1.0  0.272
  C  C257  1  0.917400  0.718300  0.181820  1.0  -0.1955
  C  C258  1  0.699200  0.189300  0.299770  1.0  0.6629
  C  C259  1  0.859400  0.022900  0.596910  1.0  0.2374
  C  C260  1  0.654100  0.791900  0.900940  1.0  0.1775
  C  C261  1  0.896600  0.673300  0.225120  1.0  0.1817
  C  C262  1  0.311800  0.006000  0.805490  1.0  -0.054
  C  C263  1  0.734500  0.721200  0.973760  1.0  0.0659
  C  C264  1  0.923500  0.911800  0.666450  1.0  -0.2042
  C  C265  1  0.725500  0.513400  0.171440  1.0  -0.1391
  C  C266  1  0.099900  0.426400  0.308820  1.0  -0.1848
  C  C267  1  0.957400  0.998300  0.814520  1.0  0.6948
  C  C268  1  0.797000  0.693700  0.800900  1.0  0.6832
  C  C269  1  0.392600  0.531300  0.307540  1.0  -0.096
  C  C270  1  0.743200  0.027000  0.312980  1.0  -0.0923
  C  C271  1  0.695500  0.010200  0.987580  1.0  0.008
  C  C272  1  0.793500  0.457600  0.456510  1.0  -0.152
  C  C273  1  0.697400  0.476000  0.215570  1.0  0.1962
  C  C274  1  0.962700  0.444900  0.311390  1.0  0.6933
  C  C275  1  0.707000  0.500300  0.482920  1.0  0.0461
  C  C276  1  0.689300  0.468100  0.532690  1.0  0.2797
  C  C277  1  0.633800  0.753900  0.945810  1.0  -0.2144
  C  C278  1  0.864900  0.772000  0.909120  1.0  0.1804
  C  C279  1  0.762900  0.773600  0.329680  1.0  0.6956
  C  C280  1  0.591800  0.259000  0.450030  1.0  -0.2359
  C  C281  1  0.808400  0.215800  0.449070  1.0  -0.1452
  C  C282  1  0.531100  0.513800  0.310270  1.0  0.6717
  C  C283  1  0.771200  0.971400  0.956280  1.0  -0.1799
  C  C284  1  0.712700  0.936100  0.317790  1.0  -0.1059
  C  C285  1  0.903400  0.876700  0.712180  1.0  0.1845
  C  C286  1  0.813600  0.256000  0.404030  1.0  0.185
  C  C287  1  0.541300  0.987200  0.811720  1.0  0.6827
  C  C288  1  0.742600  0.446000  0.820060  1.0  -0.0895
  C  C289  1  0.604400  0.296900  0.404520  1.0  0.1791
  C  C290  1  0.568600  0.188200  0.549610  1.0  -0.3734
  C  C291  1  0.852600  0.731500  0.953990  1.0  -0.1761
  C  C292  1  0.914400  0.297200  0.589860  1.0  -0.3786
  C  C293  1  0.722700  0.542200  0.813270  1.0  -0.125
  C  C294  1  0.691300  0.970900  0.036900  1.0  0.2936
  C  C295  1  0.872600  0.392000  0.166720  1.0  -0.1785
  C  C296  1  0.813000  0.594900  0.805540  1.0  -0.1636
  C  C297  1  0.655900  0.390800  0.827740  1.0  -0.1176
  C  C298  1  0.840900  0.359000  0.211340  1.0  0.1869
  C  C299  1  0.744800  0.011400  0.672490  1.0  -0.1206
  C  C300  1  0.731600  0.973200  0.717460  1.0  0.1975
  C  C301  1  0.946200  0.468500  0.070280  1.0  -0.3814
  C  C302  1  0.770600  0.006600  0.910500  1.0  0.1841
  C  C303  1  0.957900  0.813800  0.087580  1.0  -0.3648
  C  C304  1  0.794500  0.866600  0.327120  1.0  -0.2096
  C  C305  1  0.807900  0.488400  0.410370  1.0  0.1935
  C  C306  1  0.628300  0.117700  0.922980  1.0  0.1732
  C  C307  1  0.967700  0.992300  0.568670  1.0  -0.3757
  C  C308  1  0.646800  0.531000  0.565100  1.0  -0.379
  C  C309  1  0.626400  0.021700  0.072020  1.0  -0.3752
  C  C310  1  0.623900  0.086300  0.969550  1.0  -0.1954
  C  C311  1  0.635900  0.572700  0.459940  1.0  -0.2041
  C  C312  1  0.655200  0.598400  0.413450  1.0  0.1927
  N  N313  1  0.190100  0.093680  0.261990  1.0  -0.3282
  N  N314  1  0.245600  0.600580  0.763730  1.0  -0.328
  N  N315  1  0.287200  0.703770  0.618960  1.0  -0.3002
  N  N316  1  0.276100  0.817120  0.250160  1.0  -0.3346
  N  N317  1  0.216900  0.333400  0.754760  1.0  -0.3219
  N  N318  1  0.260000  0.441750  0.611580  1.0  -0.3137
  N  N319  1  0.256300  0.107490  0.953820  1.0  -0.2398
  N  N320  1  0.267700  0.148490  0.908860  1.0  -0.256
  N  N321  1  0.232200  0.197850  0.117880  1.0  -0.3144
  N  N322  1  0.298700  0.920990  0.106850  1.0  -0.3315
  N  N323  1  0.286700  0.614960  0.455310  1.0  -0.2849
  N  N324  1  0.214800  0.876800  0.463070  1.0  -0.2974
  N  N325  1  0.308500  0.649380  0.409520  1.0  -0.2834
  N  N326  1  0.192100  0.375500  0.961100  1.0  -0.2438
  N  N327  1  0.228100  0.916900  0.417110  1.0  -0.2926
  N  N328  1  0.218300  0.415200  0.916320  1.0  -0.2425
  N  N329  1  0.809900  0.906320  0.738010  1.0  -0.327
  N  N330  1  0.754400  0.399420  0.236270  1.0  -0.3279
  N  N331  1  0.712800  0.296230  0.381040  1.0  -0.3005
  N  N332  1  0.723900  0.182880  0.749840  1.0  -0.3336
  N  N333  1  0.783100  0.666667  0.245240  1.0  -0.3214
  N  N334  1  0.740000  0.558250  0.388420  1.0  -0.3165
  N  N335  1  0.743700  0.892510  0.046180  1.0  -0.2416
  N  N336  1  0.732300  0.851510  0.091140  1.0  -0.2556
  N  N337  1  0.767800  0.802150  0.882120  1.0  -0.317
  N  N338  1  0.701300  0.079010  0.893150  1.0  -0.3332
  N  N339  1  0.713300  0.385040  0.544690  1.0  -0.2844
  N  N340  1  0.785200  0.123200  0.536930  1.0  -0.2951
  N  N341  1  0.691500  0.350620  0.590480  1.0  -0.2828
  N  N342  1  0.807900  0.624500  0.038900  1.0  -0.244
  N  N343  1  0.771900  0.083100  0.582890  1.0  -0.2928
  N  N344  1  0.781700  0.584800  0.083680  1.0  -0.2436
  O  O345  1  0.309900  0.266080  0.203320  1.0  -0.5875
  O  O346  1  0.189900  0.795670  0.697700  1.0  -0.6062
  O  O347  1  0.410800  0.751200  0.169350  1.0  -0.5615
  O  O348  1  0.410030  0.418310  0.695980  1.0  -0.5885
  O  O349  1  0.367200  0.069570  0.181560  1.0  -0.6328
  O  O350  1  0.051360  0.084780  0.177970  1.0  -0.5978
  O  O351  1  0.148000  0.286710  0.667870  1.0  -0.5816
  O  O352  1  0.423510  0.565080  0.681720  1.0  -0.6091
  O  O353  1  0.209000  0.743030  0.165940  1.0  -0.5951
  O  O354  1  0.348100  0.241940  0.673090  1.0  -0.6009
  O  O355  1  0.081400  0.475680  0.692450  1.0  -0.619
  O  O356  1  0.107200  0.266470  0.196790  1.0  -0.5558
  O  O357  1  0.098250  0.622120  0.681100  1.0  -0.5996
  O  O358  1  0.131400  0.943350  0.187500  1.0  -0.6131
  O  O359  1  0.387900  0.747780  0.704630  1.0  -0.5775
  O  O360  1  0.453270  0.930630  0.191700  1.0  -0.5739
  O  O361  1  0.690100  0.733920  0.796680  1.0  -0.588
  O  O362  1  0.810100  0.204330  0.302300  1.0  -0.6067
  O  O363  1  0.589200  0.248800  0.830650  1.0  -0.5594
  O  O364  1  0.589970  0.581690  0.304020  1.0  -0.5893
  O  O365  1  0.632800  0.930430  0.818440  1.0  -0.6326
  O  O366  1  0.948640  0.915220  0.822030  1.0  -0.596
  O  O367  1  0.852000  0.713290  0.332130  1.0  -0.5825
  O  O368  1  0.576490  0.434920  0.318280  1.0  -0.6104
  O  O369  1  0.791000  0.256970  0.834060  1.0  -0.5956
  O  O370  1  0.651900  0.758060  0.326910  1.0  -0.6001
  O  O371  1  0.918600  0.524320  0.307550  1.0  -0.6177
  O  O372  1  0.892800  0.733530  0.803210  1.0  -0.5559
  O  O373  1  0.901750  0.377880  0.318900  1.0  -0.5986
  O  O374  1  0.868600  0.056650  0.812500  1.0  -0.6135
  O  O375  1  0.612100  0.252220  0.295370  1.0  -0.5793
  O  O376  1  0.546730  0.069370  0.808300  1.0  -0.574
