# generated using pymatgen
data_CuH13C21(NO)4
_symmetry_space_group_name_H-M   'P 1'
_cell_length_a   11.92720000
_cell_length_b   13.95400000
_cell_length_c   20.18500000
_cell_angle_alpha   90.00000000
_cell_angle_beta   90.00000000
_cell_angle_gamma   90.00000000
_symmetry_Int_Tables_number   1
_chemical_formula_structural   CuH13C21(NO)4
_chemical_formula_sum   'Cu4 H52 C84 N16 O16'
_cell_volume   3359.43292353
_cell_formula_units_Z   4
loop_
 _symmetry_equiv_pos_site_id
 _symmetry_equiv_pos_as_xyz
  1  'x, y, z'
loop_
 _atom_site_type_symbol
 _atom_site_label
 _atom_site_symmetry_multiplicity
 _atom_site_fract_x
 _atom_site_fract_y
 _atom_site_fract_z
 _atom_site_occupancy
 _atom_site_charge
  Cu  Cu1  1  0.262570  0.072720  0.000000  1.0  0.8313
  Cu  Cu2  1  0.237430  0.572720  0.500000  1.0  0.8331
  Cu  Cu3  1  0.737430  0.927280  0.000000  1.0  0.8349
  Cu  Cu4  1  0.762570  0.427280  0.500000  1.0  0.8327
  H  H5  1  0.036600  0.099000  0.000000  1.0  0.0986
  H  H6  1  0.514300  0.665200  0.385700  1.0  0.1267
  H  H7  1  0.031000  0.778800  0.226800  1.0  0.1103
  H  H8  1  0.014300  0.834800  0.885700  1.0  0.1257
  H  H9  1  0.485700  0.334800  0.614300  1.0  0.127
  H  H10  1  0.969000  0.221200  0.773200  1.0  0.1106
  H  H11  1  0.167300  0.401900  0.265700  1.0  0.1288
  H  H12  1  0.573200  0.800800  0.172100  1.0  0.1067
  H  H13  1  0.332700  0.901900  0.234300  1.0  0.13
  H  H14  1  0.364500  0.825900  0.340100  1.0  0.1277
  H  H15  1  0.792200  0.510400  0.354900  1.0  0.0981
  H  H16  1  0.207800  0.489600  0.645100  1.0  0.0989
  H  H17  1  0.469000  0.278800  0.726800  1.0  0.1106
  H  H18  1  0.707800  0.010400  0.145100  1.0  0.0988
  H  H19  1  0.635500  0.174100  0.340100  1.0  0.1276
  H  H20  1  0.531000  0.721200  0.273200  1.0  0.1104
  H  H21  1  0.207800  0.489600  0.354900  1.0  0.0987
  H  H22  1  0.469000  0.278800  0.273200  1.0  0.1086
  H  H23  1  0.667300  0.098100  0.234300  1.0  0.1291
  H  H24  1  0.292200  0.989600  0.145100  1.0  0.0986
  H  H25  1  0.531000  0.721200  0.726800  1.0  0.1105
  H  H26  1  0.014300  0.834800  0.114300  1.0  0.1259
  H  H27  1  0.332700  0.901900  0.765700  1.0  0.1297
  H  H28  1  0.985700  0.165200  0.885700  1.0  0.1267
  H  H29  1  0.135500  0.325900  0.159900  1.0  0.1275
  H  H30  1  0.485700  0.334800  0.385700  1.0  0.1268
  H  H31  1  0.926800  0.300800  0.327900  1.0  0.1064
  H  H32  1  0.135500  0.325900  0.840100  1.0  0.1275
  H  H33  1  0.073200  0.699200  0.327900  1.0  0.1068
  H  H34  1  0.167300  0.401900  0.734300  1.0  0.129
  H  H35  1  0.514300  0.665200  0.614300  1.0  0.1271
  H  H36  1  0.792200  0.510400  0.645100  1.0  0.0986
  H  H37  1  0.667300  0.098100  0.765700  1.0  0.1289
  H  H38  1  0.969000  0.221200  0.226800  1.0  0.1105
  H  H39  1  0.031000  0.778800  0.773200  1.0  0.1102
  H  H40  1  0.536600  0.401000  0.500000  1.0  0.1005
  H  H41  1  0.573200  0.800800  0.827900  1.0  0.1066
  H  H42  1  0.426800  0.199200  0.172100  1.0  0.1065
  H  H43  1  0.985700  0.165200  0.114300  1.0  0.1269
  H  H44  1  0.963400  0.901000  0.000000  1.0  0.1005
  H  H45  1  0.073200  0.699200  0.672100  1.0  0.1066
  H  H46  1  0.364500  0.825900  0.659900  1.0  0.1275
  H  H47  1  0.864500  0.674100  0.840100  1.0  0.128
  H  H48  1  0.635500  0.174100  0.659900  1.0  0.1271
  H  H49  1  0.864500  0.674100  0.159900  1.0  0.1274
  H  H50  1  0.463400  0.599000  0.500000  1.0  0.0995
  H  H51  1  0.292200  0.989600  0.854900  1.0  0.0983
  H  H52  1  0.426800  0.199200  0.827900  1.0  0.1066
  H  H53  1  0.832700  0.598100  0.734300  1.0  0.1297
  H  H54  1  0.926800  0.300800  0.672100  1.0  0.1065
  H  H55  1  0.707800  0.010400  0.854900  1.0  0.0983
  H  H56  1  0.832700  0.598100  0.265700  1.0  0.1293
  C  C57  1  0.873200  0.258700  0.308800  1.0  -0.0336
  C  C58  1  0.126800  0.741300  0.691200  1.0  -0.0354
  C  C59  1  0.177500  0.846700  0.774500  1.0  0.0457
  C  C60  1  0.754800  0.799900  0.096000  1.0  0.7005
  C  C61  1  0.839300  0.103600  0.843900  1.0  -0.1297
  C  C62  1  0.297600  0.813800  0.684000  1.0  -0.0717
  C  C63  1  0.777800  0.638300  0.246000  1.0  -0.1093
  C  C64  1  0.702400  0.186200  0.316000  1.0  -0.0737
  C  C65  1  0.277800  0.861700  0.746000  1.0  -0.1105
  C  C66  1  0.925600  0.121000  0.109700  1.0  -0.0417
  C  C67  1  0.276500  0.253800  0.839000  1.0  -0.1121
  C  C68  1  0.254800  0.700100  0.404000  1.0  0.6995
  C  C69  1  0.177500  0.846700  0.225500  1.0  0.0433
  C  C70  1  0.600400  0.711500  0.748900  1.0  -0.1179
  C  C71  1  0.245200  0.200100  0.096000  1.0  0.6989
  C  C72  1  0.660700  0.603600  0.343900  1.0  -0.1302
  C  C73  1  0.723500  0.746200  0.839000  1.0  -0.1121
  C  C74  1  0.722200  0.138300  0.746000  1.0  -0.1082
  C  C75  1  0.839300  0.103600  0.156100  1.0  -0.131
  C  C76  1  0.297600  0.813800  0.316000  1.0  -0.0724
  C  C77  1  0.660700  0.603600  0.656100  1.0  -0.1319
  C  C78  1  0.777800  0.638300  0.754000  1.0  -0.1103
  C  C79  1  0.677500  0.653300  0.274500  1.0  0.0442
  C  C80  1  0.774300  0.035600  0.125900  1.0  0.1261
  C  C81  1  0.254800  0.700100  0.596000  1.0  0.6997
  C  C82  1  0.797600  0.686200  0.816000  1.0  -0.0731
  C  C83  1  0.899600  0.211500  0.751100  1.0  -0.1173
  C  C84  1  0.245200  0.200100  0.904000  1.0  0.6997
  C  C85  1  0.702400  0.186200  0.684000  1.0  -0.074
  C  C86  1  0.222200  0.361700  0.754000  1.0  -0.108
  C  C87  1  0.222200  0.361700  0.246000  1.0  -0.1075
  C  C88  1  0.322500  0.346700  0.274500  1.0  0.0395
  C  C89  1  0.822500  0.153300  0.225500  1.0  0.0447
  C  C90  1  0.126800  0.741300  0.308800  1.0  -0.0347
  C  C91  1  0.725700  0.535600  0.374100  1.0  0.1261
  C  C92  1  0.754800  0.799900  0.904000  1.0  0.7021
  C  C93  1  0.399600  0.288500  0.251100  1.0  -0.1166
  C  C94  1  0.225700  0.964400  0.125900  1.0  0.1259
  C  C95  1  0.160700  0.896400  0.156100  1.0  -0.1325
  C  C96  1  0.474700  0.449200  0.500000  1.0  -0.0487
  C  C97  1  0.873200  0.258700  0.691200  1.0  -0.0344
  C  C98  1  0.925600  0.121000  0.890300  1.0  -0.042
  C  C99  1  0.425600  0.379000  0.609700  1.0  -0.0443
  C  C100  1  0.223500  0.753800  0.661000  1.0  -0.1107
  C  C101  1  0.725700  0.535600  0.625900  1.0  0.1261
  C  C102  1  0.774300  0.035600  0.874100  1.0  0.1261
  C  C103  1  0.974700  0.050800  0.000000  1.0  -0.0477
  C  C104  1  0.745200  0.299900  0.596000  1.0  0.6983
  C  C105  1  0.225700  0.964400  0.874100  1.0  0.1261
  C  C106  1  0.574400  0.621000  0.390300  1.0  -0.0479
  C  C107  1  0.776500  0.246200  0.661000  1.0  -0.1122
  C  C108  1  0.339300  0.396400  0.343900  1.0  -0.1312
  C  C109  1  0.074400  0.879000  0.109700  1.0  -0.0417
  C  C110  1  0.677500  0.653300  0.725500  1.0  0.04
  C  C111  1  0.274300  0.464400  0.625900  1.0  0.1255
  C  C112  1  0.276500  0.253800  0.161000  1.0  -0.112
  C  C113  1  0.399600  0.288500  0.748900  1.0  -0.1185
  C  C114  1  0.100400  0.788500  0.751100  1.0  -0.1181
  C  C115  1  0.339300  0.396400  0.656100  1.0  -0.1318
  C  C116  1  0.723500  0.746200  0.161000  1.0  -0.1109
  C  C117  1  0.074400  0.879000  0.890300  1.0  -0.0431
  C  C118  1  0.274300  0.464400  0.374100  1.0  0.1256
  C  C119  1  0.626800  0.758700  0.808800  1.0  -0.0345
  C  C120  1  0.025300  0.949200  0.000000  1.0  -0.0477
  C  C121  1  0.722200  0.138300  0.254000  1.0  -0.1072
  C  C122  1  0.277800  0.861700  0.254000  1.0  -0.111
  C  C123  1  0.899600  0.211500  0.248900  1.0  -0.1167
  C  C124  1  0.223500  0.753800  0.339000  1.0  -0.111
  C  C125  1  0.425600  0.379000  0.390300  1.0  -0.0447
  C  C126  1  0.626800  0.758700  0.191200  1.0  -0.0349
  C  C127  1  0.822500  0.153300  0.774500  1.0  0.0406
  C  C128  1  0.160700  0.896400  0.843900  1.0  -0.1312
  C  C129  1  0.373200  0.241300  0.191200  1.0  -0.0344
  C  C130  1  0.373200  0.241300  0.808800  1.0  -0.0337
  C  C131  1  0.776500  0.246200  0.339000  1.0  -0.1128
  C  C132  1  0.525300  0.550800  0.500000  1.0  -0.0477
  C  C133  1  0.202400  0.313800  0.816000  1.0  -0.0738
  C  C134  1  0.202400  0.313800  0.184000  1.0  -0.0732
  C  C135  1  0.574400  0.621000  0.609700  1.0  -0.0434
  C  C136  1  0.745200  0.299900  0.404000  1.0  0.7003
  C  C137  1  0.322500  0.346700  0.725500  1.0  0.0391
  C  C138  1  0.600400  0.711500  0.251100  1.0  -0.1155
  C  C139  1  0.100400  0.788500  0.248900  1.0  -0.1164
  C  C140  1  0.797600  0.686200  0.184000  1.0  -0.0733
  N  N141  1  0.813000  0.008400  0.932500  1.0  -0.3702
  N  N142  1  0.187000  0.991600  0.932500  1.0  -0.3699
  N  N143  1  0.687000  0.508400  0.567500  1.0  -0.3707
  N  N144  1  0.906700  0.063900  0.058400  1.0  0.1245
  N  N145  1  0.093300  0.936100  0.941600  1.0  0.1229
  N  N146  1  0.593300  0.563900  0.441600  1.0  0.1233
  N  N147  1  0.906700  0.063900  0.941600  1.0  0.1241
  N  N148  1  0.406700  0.436100  0.558400  1.0  0.1245
  N  N149  1  0.813000  0.008400  0.067500  1.0  -0.3705
  N  N150  1  0.093300  0.936100  0.058400  1.0  0.1236
  N  N151  1  0.313000  0.491600  0.567500  1.0  -0.3702
  N  N152  1  0.687000  0.508400  0.432500  1.0  -0.3702
  N  N153  1  0.406700  0.436100  0.441600  1.0  0.1234
  N  N154  1  0.593300  0.563900  0.558400  1.0  0.1237
  N  N155  1  0.187000  0.991600  0.067500  1.0  -0.3708
  N  N156  1  0.313000  0.491600  0.432500  1.0  -0.3697
  O  O157  1  0.849200  0.791400  0.074400  1.0  -0.567
  O  O158  1  0.321600  0.153300  0.927900  1.0  -0.5763
  O  O159  1  0.150800  0.208600  0.074400  1.0  -0.5676
  O  O160  1  0.678400  0.846700  0.072100  1.0  -0.5757
  O  O161  1  0.150800  0.208600  0.925600  1.0  -0.568
  O  O162  1  0.849200  0.791400  0.925600  1.0  -0.5671
  O  O163  1  0.321600  0.153300  0.072100  1.0  -0.5762
  O  O164  1  0.178400  0.653300  0.427900  1.0  -0.573
  O  O165  1  0.178400  0.653300  0.572100  1.0  -0.573
  O  O166  1  0.650800  0.291400  0.425600  1.0  -0.5674
  O  O167  1  0.821600  0.346700  0.572100  1.0  -0.5746
  O  O168  1  0.650800  0.291400  0.574400  1.0  -0.5671
  O  O169  1  0.349200  0.708600  0.425600  1.0  -0.5676
  O  O170  1  0.349200  0.708600  0.574400  1.0  -0.5674
  O  O171  1  0.678400  0.846700  0.927900  1.0  -0.5756
  O  O172  1  0.821600  0.346700  0.427900  1.0  -0.5746
