# generated using pymatgen
data_CuH9C11N3O4
_symmetry_space_group_name_H-M   'P 1'
_cell_length_a   10.20560000
_cell_length_b   10.81930000
_cell_length_c   13.09470000
_cell_angle_alpha   91.51030000
_cell_angle_beta   112.93500000
_cell_angle_gamma   90.00000000
_symmetry_Int_Tables_number   1
_chemical_formula_structural   CuH9C11N3O4
_chemical_formula_sum   'Cu4 H36 C44 N12 O16'
_cell_volume   1331.03728007
_cell_formula_units_Z   4
loop_
 _symmetry_equiv_pos_site_id
 _symmetry_equiv_pos_as_xyz
  1  'x, y, z'
loop_
 _atom_site_type_symbol
 _atom_site_label
 _atom_site_symmetry_multiplicity
 _atom_site_fract_x
 _atom_site_fract_y
 _atom_site_fract_z
 _atom_site_occupancy
 _atom_site_charge
  Cu  Cu1  1  0.225480  0.738680  0.395060  1.0  0.4795
  Cu  Cu2  1  0.830420  0.761320  0.604940  1.0  0.4791
  Cu  Cu3  1  0.169580  0.238680  0.395060  1.0  0.4794
  Cu  Cu4  1  0.774520  0.261320  0.604940  1.0  0.4788
  H  H5  1  0.586100  0.597300  0.985800  1.0  0.1018
  H  H6  1  0.702000  0.045700  0.455800  1.0  0.114
  H  H7  1  0.430100  0.780200  0.198800  1.0  0.1396
  H  H8  1  0.379800  0.170400  0.153400  1.0  0.1632
  H  H9  1  0.521400  0.793700  0.518000  1.0  0.0808
  H  H10  1  0.030900  0.970400  0.696000  1.0  0.1337
  H  H11  1  0.561800  0.999000  0.918800  1.0  0.0976
  H  H12  1  0.226400  0.329600  0.846600  1.0  0.1648
  H  H13  1  0.003400  0.706300  0.482000  1.0  0.081
  H  H14  1  0.555300  0.939000  0.314800  1.0  0.1404
  H  H15  1  0.364800  0.333600  0.266400  1.0  0.1383
  H  H16  1  0.759500  0.439000  0.314800  1.0  0.1406
  H  H17  1  0.444700  0.061000  0.685200  1.0  0.1398
  H  H18  1  0.996600  0.293700  0.518000  1.0  0.0816
  H  H19  1  0.438200  0.001000  0.081200  1.0  0.0976
  H  H20  1  0.098400  0.166400  0.733600  1.0  0.1407
  H  H21  1  0.399700  0.097300  0.985800  1.0  0.1019
  H  H22  1  0.665100  0.470400  0.696000  1.0  0.1323
  H  H23  1  0.600300  0.902700  0.014200  1.0  0.1022
  H  H24  1  0.246200  0.454300  0.544200  1.0  0.1147
  H  H25  1  0.298000  0.954300  0.544200  1.0  0.1138
  H  H26  1  0.753800  0.545700  0.455800  1.0  0.1142
  H  H27  1  0.643000  0.501000  0.081200  1.0  0.0986
  H  H28  1  0.569900  0.219800  0.801200  1.0  0.1385
  H  H29  1  0.231300  0.719800  0.801200  1.0  0.1374
  H  H30  1  0.635200  0.666400  0.733600  1.0  0.1395
  H  H31  1  0.768700  0.280200  0.198800  1.0  0.1384
  H  H32  1  0.413900  0.402700  0.014200  1.0  0.1021
  H  H33  1  0.334900  0.529600  0.304000  1.0  0.1324
  H  H34  1  0.969100  0.029600  0.304000  1.0  0.1329
  H  H35  1  0.478600  0.206300  0.482000  1.0  0.0797
  H  H36  1  0.240500  0.561000  0.685200  1.0  0.1397
  H  H37  1  0.620200  0.829600  0.846600  1.0  0.1643
  H  H38  1  0.357000  0.499000  0.918800  1.0  0.0984
  H  H39  1  0.901600  0.833600  0.266400  1.0  0.1395
  H  H40  1  0.773600  0.670400  0.153400  1.0  0.1655
  C  C41  1  0.473800  0.209600  0.787000  1.0  -0.1363
  C  C42  1  0.729400  0.725400  0.185200  1.0  -0.211
  C  C43  1  0.581800  0.432400  0.646800  1.0  0.1772
  C  C44  1  0.335800  0.422000  0.558000  1.0  0.1797
  C  C45  1  0.182600  0.983100  0.634800  1.0  0.1183
  C  C46  1  0.447100  0.323800  0.252800  1.0  -0.0899
  C  C47  1  0.686800  0.290400  0.213000  1.0  -0.135
  C  C48  1  0.680700  0.387300  0.281200  1.0  -0.1147
  C  C49  1  0.578100  0.210400  0.166200  1.0  0.3215
  C  C50  1  0.741100  0.908100  0.300400  1.0  0.0811
  C  C51  1  0.552900  0.676200  0.747200  1.0  -0.0888
  C  C52  1  0.222200  0.922000  0.558000  1.0  0.1838
  C  C53  1  0.452200  0.483100  0.634800  1.0  0.117
  C  C54  1  0.544200  0.774600  0.814800  1.0  -0.2078
  C  C55  1  0.805700  0.823800  0.252800  1.0  -0.0939
  C  C56  1  0.935000  0.067600  0.353200  1.0  0.1764
  C  C57  1  0.440700  0.591900  0.699600  1.0  0.0793
  C  C58  1  0.440300  0.454600  0.965800  1.0  0.1141
  C  C59  1  0.951100  0.222200  0.479600  1.0  0.3745
  C  C60  1  0.471500  0.277800  0.520400  1.0  0.3765
  C  C61  1  0.817400  0.016900  0.365200  1.0  0.118
  C  C62  1  0.474500  0.045400  0.034200  1.0  0.1148
  C  C63  1  0.065000  0.932400  0.646800  1.0  0.1758
  C  C64  1  0.600500  0.887300  0.281200  1.0  -0.1129
  C  C65  1  0.455800  0.225400  0.185200  1.0  -0.2094
  C  C66  1  0.411900  0.289600  0.833800  1.0  0.3268
  C  C67  1  0.559300  0.408100  0.300400  1.0  0.0796
  C  C68  1  0.559700  0.545400  0.034200  1.0  0.1134
  C  C69  1  0.525500  0.954600  0.965800  1.0  0.1139
  C  C70  1  0.319300  0.612700  0.718800  1.0  -0.1133
  C  C71  1  0.777800  0.078000  0.442000  1.0  0.1826
  C  C72  1  0.664200  0.578000  0.442000  1.0  0.1797
  C  C73  1  0.048900  0.777800  0.520400  1.0  0.3771
  C  C74  1  0.547800  0.516900  0.365200  1.0  0.117
  C  C75  1  0.270600  0.274600  0.814800  1.0  -0.2127
  C  C76  1  0.588100  0.710400  0.166200  1.0  0.3191
  C  C77  1  0.258900  0.091900  0.699600  1.0  0.0802
  C  C78  1  0.528500  0.722200  0.479600  1.0  0.3743
  C  C79  1  0.526200  0.790400  0.213000  1.0  -0.1391
  C  C80  1  0.399500  0.112700  0.718800  1.0  -0.1148
  C  C81  1  0.421900  0.789600  0.833800  1.0  0.3205
  C  C82  1  0.418200  0.567600  0.353200  1.0  0.1778
  C  C83  1  0.313200  0.709600  0.787000  1.0  -0.1422
  C  C84  1  0.194300  0.176200  0.747200  1.0  -0.0924
  N  N85  1  0.343500  0.319000  0.501600  1.0  -0.3022
  N  N86  1  0.012700  0.524000  0.287400  1.0  0.1895
  N  N87  1  0.158100  0.819000  0.501600  1.0  -0.2992
  N  N88  1  0.998900  0.830000  0.589800  1.0  -0.3083
  N  N89  1  0.725300  0.976000  0.712600  1.0  0.1819
  N  N90  1  0.409100  0.670000  0.410200  1.0  -0.306
  N  N91  1  0.001100  0.170000  0.410200  1.0  -0.3078
  N  N92  1  0.656500  0.681000  0.498400  1.0  -0.3016
  N  N93  1  0.274700  0.024000  0.287400  1.0  0.1857
  N  N94  1  0.841900  0.181000  0.498400  1.0  -0.2993
  N  N95  1  0.987300  0.476000  0.712600  1.0  0.1887
  N  N96  1  0.590900  0.330000  0.589800  1.0  -0.3052
  O  O97  1  0.350400  0.011000  0.384200  1.0  -0.4754
  O  O98  1  0.821300  0.099800  0.716800  1.0  -0.7263
  O  O99  1  0.406000  0.883100  0.901600  1.0  -0.2322
  O  O100  1  0.082800  0.608300  0.275400  1.0  -0.5507
  O  O101  1  0.895500  0.599800  0.716800  1.0  -0.7288
  O  O102  1  0.807400  0.891700  0.724600  1.0  -0.5488
  O  O103  1  0.178700  0.900200  0.283200  1.0  -0.7257
  O  O104  1  0.192600  0.108300  0.275400  1.0  -0.5502
  O  O105  1  0.495600  0.383100  0.901600  1.0  -0.2294
  O  O106  1  0.504400  0.616900  0.098400  1.0  -0.2317
  O  O107  1  0.966200  0.489000  0.615800  1.0  -0.4744
  O  O108  1  0.033800  0.511000  0.384200  1.0  -0.4738
  O  O109  1  0.104500  0.400200  0.283200  1.0  -0.7279
  O  O110  1  0.649600  0.989000  0.615800  1.0  -0.4768
  O  O111  1  0.594000  0.116900  0.098400  1.0  -0.2266
  O  O112  1  0.917200  0.391700  0.724600  1.0  -0.5516
