# generated using pymatgen
data_Sr4H36Ru2C72N12O25
_symmetry_space_group_name_H-M   'P 1'
_cell_length_a   15.00800000
_cell_length_b   24.75000000
_cell_length_c   25.79200000
_cell_angle_alpha   111.95700000
_cell_angle_beta   90.00000000
_cell_angle_gamma   90.00000000
_symmetry_Int_Tables_number   1
_chemical_formula_structural   Sr4H36Ru2C72N12O25
_chemical_formula_sum   'Sr16 H144 Ru8 C288 N48 O100'
_cell_volume   8885.47089575
_cell_formula_units_Z   4
loop_
 _symmetry_equiv_pos_site_id
 _symmetry_equiv_pos_as_xyz
  1  'x, y, z'
loop_
 _atom_site_type_symbol
 _atom_site_label
 _atom_site_symmetry_multiplicity
 _atom_site_fract_x
 _atom_site_fract_y
 _atom_site_fract_z
 _atom_site_occupancy
 _atom_site_charge
  Sr  Sr1  1  0.284790  0.267290  0.500140  1.0  1.6308
  Sr  Sr2  1  0.944250  0.015050  0.292030  1.0  1.5677
  Sr  Sr3  1  0.555750  0.515050  0.792030  1.0  1.568
  Sr  Sr4  1  0.065200  0.045280  0.869490  1.0  1.5963
  Sr  Sr5  1  0.444250  0.484950  0.207970  1.0  1.5676
  Sr  Sr6  1  0.534420  0.298130  0.963460  1.0  1.634
  Sr  Sr7  1  0.215210  0.767290  0.000140  1.0  1.6298
  Sr  Sr8  1  0.055750  0.984950  0.707970  1.0  1.5677
  Sr  Sr9  1  0.465580  0.701870  0.036540  1.0  1.631
  Sr  Sr10  1  0.715210  0.732710  0.499860  1.0  1.6297
  Sr  Sr11  1  0.965580  0.798130  0.463460  1.0  1.6344
  Sr  Sr12  1  0.565200  0.454720  0.630510  1.0  1.5978
  Sr  Sr13  1  0.784790  0.232710  0.999860  1.0  1.6309
  Sr  Sr14  1  0.034420  0.201870  0.536540  1.0  1.6312
  Sr  Sr15  1  0.434800  0.545280  0.369490  1.0  1.5952
  Sr  Sr16  1  0.934800  0.954720  0.130510  1.0  1.5974
  H  H17  1  0.244000  0.551800  0.845300  1.0  0.106
  H  H18  1  0.094100  0.535100  0.317600  1.0  0.1193
  H  H19  1  0.964100  0.421600  0.047800  1.0  0.1157
  H  H20  1  0.263500  0.641200  0.167800  1.0  0.1104
  H  H21  1  0.776700  0.861500  0.948900  1.0  0.1201
  H  H22  1  0.509600  0.158500  0.591600  1.0  0.0844
  H  H23  1  0.825300  0.692400  0.301100  1.0  0.0828
  H  H24  1  0.062000  0.261900  0.206000  1.0  0.0796
  H  H25  1  0.535900  0.921600  0.547800  1.0  0.1154
  H  H26  1  0.162500  0.729500  0.807600  1.0  0.08
  H  H27  1  0.313800  0.098200  0.100600  1.0  0.0869
  H  H28  1  0.200400  0.846100  0.433800  1.0  0.1228
  H  H29  1  0.658100  0.434800  0.258600  1.0  0.1185
  H  H30  1  0.662500  0.770500  0.692400  1.0  0.0795
  H  H31  1  0.035900  0.578400  0.952200  1.0  0.1159
  H  H32  1  0.007100  0.480900  0.372600  1.0  0.0871
  H  H33  1  0.723300  0.361500  0.448900  1.0  0.1206
  H  H34  1  0.744000  0.948200  0.654700  1.0  0.1032
  H  H35  1  0.438000  0.761900  0.706000  1.0  0.0785
  H  H36  1  0.594100  0.964900  0.182400  1.0  0.1189
  H  H37  1  0.027300  0.435900  0.721200  1.0  0.0841
  H  H38  1  0.955200  0.295800  0.699000  1.0  0.0769
  H  H39  1  0.182500  0.198400  0.828300  1.0  0.1151
  H  H40  1  0.440600  0.905500  0.633200  1.0  0.1066
  H  H41  1  0.709600  0.506000  0.335600  1.0  0.1177
  H  H42  1  0.790900  0.600800  0.103100  1.0  0.0849
  H  H43  1  0.917900  0.837700  0.236700  1.0  0.1165
  H  H44  1  0.077900  0.802300  0.345900  1.0  0.1015
  H  H45  1  0.151500  0.346600  0.446100  1.0  0.105
  H  H46  1  0.012700  0.352400  0.407000  1.0  0.1005
  H  H47  1  0.545800  0.877800  0.683700  1.0  0.0777
  H  H48  1  0.972700  0.564100  0.278800  1.0  0.0839
  H  H49  1  0.490400  0.841500  0.408400  1.0  0.0849
  H  H50  1  0.562000  0.238100  0.294000  1.0  0.0802
  H  H51  1  0.439800  0.928800  0.082800  1.0  0.1105
  H  H52  1  0.321100  0.483900  0.780100  1.0  0.1074
  H  H53  1  0.770800  0.121800  0.179900  1.0  0.1061
  H  H54  1  0.689500  0.679000  0.339000  1.0  0.1143
  H  H55  1  0.270800  0.378200  0.320100  1.0  0.109
  H  H56  1  0.619100  0.814200  0.442700  1.0  0.1216
  H  H57  1  0.703000  0.270200  0.148700  1.0  0.1092
  H  H58  1  0.325300  0.807600  0.198900  1.0  0.0835
  H  H59  1  0.498300  0.980500  0.410500  1.0  0.085
  H  H60  1  0.512700  0.147600  0.093000  1.0  0.1012
  H  H61  1  0.189500  0.821000  0.161000  1.0  0.1147
  H  H62  1  0.337500  0.229500  0.307600  1.0  0.0802
  H  H63  1  0.799600  0.153900  0.566200  1.0  0.1215
  H  H64  1  0.009600  0.341500  0.908400  1.0  0.0853
  H  H65  1  0.454200  0.122200  0.316300  1.0  0.0778
  H  H66  1  0.472700  0.935900  0.221200  1.0  0.0842
  H  H67  1  0.813800  0.401800  0.399400  1.0  0.0855
  H  H68  1  0.236500  0.141200  0.667800  1.0  0.1104
  H  H69  1  0.527300  0.064100  0.778800  1.0  0.0842
  H  H70  1  0.203000  0.229800  0.351300  1.0  0.1096
  H  H71  1  0.487300  0.852400  0.907000  1.0  0.101
  H  H72  1  0.060200  0.428800  0.582800  1.0  0.1101
  H  H73  1  0.299600  0.346100  0.933800  1.0  0.1224
  H  H74  1  0.729200  0.621800  0.679900  1.0  0.1086
  H  H75  1  0.905900  0.464900  0.682400  1.0  0.1178
  H  H76  1  0.044800  0.704200  0.301000  1.0  0.078
  H  H77  1  0.174700  0.307600  0.698900  1.0  0.0837
  H  H78  1  0.544800  0.795800  0.199000  1.0  0.0767
  H  H79  1  0.559400  0.094500  0.366800  1.0  0.1064
  H  H80  1  0.817000  0.202000  0.353000  1.0  0.1169
  H  H81  1  0.756800  0.906800  0.275900  1.0  0.1163
  H  H82  1  0.001700  0.480500  0.910500  1.0  0.0838
  H  H83  1  0.317000  0.298000  0.147000  1.0  0.1164
  H  H84  1  0.954200  0.377800  0.183700  1.0  0.0777
  H  H85  1  0.388500  0.347200  0.220600  1.0  0.1164
  H  H86  1  0.756000  0.448200  0.154700  1.0  0.1056
  H  H87  1  0.682500  0.301600  0.671700  1.0  0.1175
  H  H88  1  0.754800  0.594400  0.752400  1.0  0.109
  H  H89  1  0.183000  0.798000  0.647000  1.0  0.117
  H  H90  1  0.290400  0.494000  0.664400  1.0  0.1174
  H  H91  1  0.686200  0.901800  0.899400  1.0  0.0862
  H  H92  1  0.297000  0.729800  0.851300  1.0  0.1093
  H  H93  1  0.507100  0.019100  0.127400  1.0  0.087
  H  H94  1  0.256800  0.593200  0.224100  1.0  0.1179
  H  H95  1  0.651500  0.153400  0.053900  1.0  0.1053
  H  H96  1  0.940600  0.594500  0.866800  1.0  0.1075
  H  H97  1  0.990400  0.658500  0.091600  1.0  0.0844
  H  H98  1  0.674700  0.192400  0.801100  1.0  0.0834
  H  H99  1  0.700400  0.653900  0.066200  1.0  0.1216
  H  H100  1  0.987300  0.647600  0.593000  1.0  0.1012
  H  H101  1  0.243200  0.093200  0.724100  1.0  0.1166
  H  H102  1  0.254800  0.905600  0.747600  1.0  0.1098
  H  H103  1  0.926100  0.840000  0.832700  1.0  0.1246
  H  H104  1  0.422100  0.302300  0.845900  1.0  0.1014
  H  H105  1  0.341900  0.565200  0.741400  1.0  0.1182
  H  H106  1  0.045800  0.622200  0.816300  1.0  0.0774
  H  H107  1  0.186200  0.598200  0.600600  1.0  0.0877
  H  H108  1  0.810500  0.179000  0.839000  1.0  0.1141
  H  H109  1  0.763500  0.858800  0.332200  1.0  0.1113
  H  H110  1  0.848500  0.653400  0.553900  1.0  0.1051
  H  H111  1  0.380900  0.185800  0.557300  1.0  0.1208
  H  H112  1  0.082100  0.162300  0.763300  1.0  0.1165
  H  H113  1  0.405900  0.035100  0.817600  1.0  0.1182
  H  H114  1  0.560200  0.071200  0.917200  1.0  0.1107
  H  H115  1  0.256000  0.051800  0.345300  1.0  0.1048
  H  H116  1  0.841900  0.934800  0.758600  1.0  0.1177
  H  H117  1  0.922100  0.197700  0.654100  1.0  0.1013
  H  H118  1  0.158100  0.065200  0.241400  1.0  0.1184
  H  H119  1  0.426100  0.660000  0.667300  1.0  0.1242
  H  H120  1  0.455200  0.204200  0.801000  1.0  0.078
  H  H121  1  0.745200  0.094400  0.252400  1.0  0.1089
  H  H122  1  0.209600  0.994000  0.164400  1.0  0.1177
  H  H123  1  0.736500  0.358800  0.832200  1.0  0.1116
  H  H124  1  0.743200  0.406800  0.775900  1.0  0.1179
  H  H125  1  0.276700  0.638500  0.551100  1.0  0.1196
  H  H126  1  0.992900  0.519100  0.627400  1.0  0.0865
  H  H127  1  0.611500  0.652800  0.779400  1.0  0.1165
  H  H128  1  0.817500  0.801600  0.171700  1.0  0.1172
  H  H129  1  0.348500  0.846600  0.946100  1.0  0.1051
  H  H130  1  0.417900  0.662300  0.263300  1.0  0.1183
  H  H131  1  0.573900  0.340000  0.332700  1.0  0.1245
  H  H132  1  0.678900  0.516100  0.219900  1.0  0.108
  H  H133  1  0.939800  0.571200  0.417200  1.0  0.1105
  H  H134  1  0.119100  0.685800  0.057300  1.0  0.1209
  H  H135  1  0.880900  0.314200  0.942700  1.0  0.121
  H  H136  1  0.790400  0.006000  0.835600  1.0  0.1175
  H  H137  1  0.464100  0.078400  0.452200  1.0  0.1154
  H  H138  1  0.683000  0.702000  0.853000  1.0  0.1166
  H  H139  1  0.577900  0.697700  0.154100  1.0  0.1015
  H  H140  1  0.837500  0.270500  0.192400  1.0  0.08
  H  H141  1  0.073900  0.160000  0.167300  1.0  0.1242
  H  H142  1  0.821100  0.016100  0.719900  1.0  0.1076
  H  H143  1  0.111500  0.847200  0.720600  1.0  0.116
  H  H144  1  0.223300  0.138500  0.051100  1.0  0.1194
  H  H145  1  0.938000  0.738100  0.794000  1.0  0.0792
  H  H146  1  0.888500  0.152800  0.279400  1.0  0.1169
  H  H147  1  0.229200  0.878200  0.820100  1.0  0.1071
  H  H148  1  0.178900  0.983900  0.280100  1.0  0.1082
  H  H149  1  0.059400  0.405500  0.133200  1.0  0.1067
  H  H150  1  0.290900  0.899200  0.396900  1.0  0.0854
  H  H151  1  0.209100  0.399200  0.896900  1.0  0.0853
  H  H152  1  0.492900  0.980900  0.872600  1.0  0.0869
  H  H153  1  0.998300  0.519500  0.089500  1.0  0.0843
  H  H154  1  0.582100  0.337700  0.736700  1.0  0.1178
  H  H155  1  0.797000  0.770200  0.648700  1.0  0.1091
  H  H156  1  0.501700  0.019500  0.589500  1.0  0.0841
  H  H157  1  0.317500  0.698400  0.328300  1.0  0.1151
  H  H158  1  0.245200  0.405600  0.247600  1.0  0.1091
  H  H159  1  0.709100  0.100800  0.603100  1.0  0.0846
  H  H160  1  0.310500  0.321000  0.661000  1.0  0.1147
  Ru  Ru161  1  0.939210  0.626220  0.194240  1.0  0.5956
  Ru  Ru162  1  0.443990  0.144360  0.204870  1.0  0.6665
  Ru  Ru163  1  0.556010  0.855640  0.795130  1.0  0.6664
  Ru  Ru164  1  0.056010  0.644360  0.704870  1.0  0.6665
  Ru  Ru165  1  0.060790  0.373780  0.805760  1.0  0.5964
  Ru  Ru166  1  0.943990  0.355640  0.295130  1.0  0.6663
  Ru  Ru167  1  0.439210  0.873780  0.305760  1.0  0.5959
  Ru  Ru168  1  0.560790  0.126220  0.694240  1.0  0.5962
  C  C169  1  0.961300  0.209900  0.685300  1.0  -0.0972
  C  C170  1  0.770400  0.501600  0.343400  1.0  -0.0736
  C  C171  1  0.525500  0.260600  0.279600  1.0  0.171
  C  C172  1  0.070700  0.553800  0.921800  1.0  -0.1703
  C  C173  1  0.946200  0.485800  0.365300  1.0  0.1454
  C  C174  1  0.498400  0.330300  0.796200  1.0  -0.1671
  C  C175  1  0.929300  0.446200  0.078200  1.0  -0.1675
  C  C176  1  0.331900  0.646970  0.801890  1.0  -0.1427
  C  C177  1  0.721400  0.303800  0.179400  1.0  -0.1431
  C  C178  1  0.074900  0.248200  0.775100  1.0  0.1384
  C  C179  1  0.186500  0.639200  0.610700  1.0  0.1564
  C  C180  1  0.295600  0.857900  0.382400  1.0  0.1631
  C  C181  1  0.814300  0.242900  0.362700  1.0  -0.0782
  C  C182  1  0.213700  0.851300  0.192600  1.0  -0.137
  C  C183  1  0.814300  0.599600  0.766000  1.0  -0.0952
  C  C184  1  0.377100  0.171900  0.586900  1.0  -0.1364
  C  C185  1  0.270400  0.998400  0.156600  1.0  -0.0712
  C  C186  1  0.260700  0.222800  0.093400  1.0  -0.0927
  C  C187  1  0.707700  0.248500  0.439700  1.0  0.6268
  C  C188  1  0.546300  0.844800  0.392500  1.0  0.1645
  C  C189  1  0.810200  0.760500  0.157700  1.0  -0.0629
  C  C190  1  0.718700  0.128600  0.162300  1.0  -0.0668
  C  C191  1  0.752100  0.233600  0.615800  1.0  -0.1274
  C  C192  1  0.418200  0.416700  0.693520  1.0  0.7005
  C  C193  1  0.128800  0.628300  0.170400  1.0  0.1308
  C  C194  1  0.093900  0.460400  0.607700  1.0  -0.0894
  C  C195  1  0.776000  0.399210  0.269100  1.0  0.152
  C  C196  1  0.466800  0.678500  0.696900  1.0  -0.1511
  C  C197  1  0.692800  0.961800  0.641650  1.0  -0.0577
  C  C198  1  0.763600  0.572700  0.846500  1.0  0.6732
  C  C199  1  0.375500  0.103000  0.713500  1.0  0.1361
  C  C200  1  0.194900  0.098800  0.255700  1.0  -0.0804
  C  C201  1  0.079200  0.764640  0.714800  1.0  0.1804
  C  C202  1  0.556000  0.310700  0.750400  1.0  -0.0752
  C  C203  1  0.582700  0.355700  0.167700  1.0  0.731
  C  C204  1  0.579200  0.735360  0.785200  1.0  0.1794
  C  C205  1  0.185700  0.400400  0.234000  1.0  -0.0977
  C  C206  1  0.699000  0.804300  0.705700  1.0  0.1722
  C  C207  1  0.292000  0.145200  0.651800  1.0  -0.0558
  C  C208  1  0.013700  0.384200  0.197000  1.0  0.1805
  C  C209  1  0.686500  0.860800  0.889300  1.0  0.1551
  C  C210  1  0.363800  0.230970  0.167200  1.0  0.1836
  C  C211  1  0.189300  0.563570  0.276220  1.0  -0.1494
  C  C212  1  0.204400  0.357900  0.882400  1.0  0.164
  C  C213  1  0.294700  0.843510  0.215800  1.0  0.1691
  C  C214  1  0.538700  0.709900  0.185300  1.0  -0.0982
  C  C215  1  0.801000  0.412600  0.763800  1.0  -0.0761
  C  C216  1  0.550200  0.004500  0.603600  1.0  0.1665
  C  C217  1  0.270700  0.549200  0.303220  1.0  0.6866
  C  C218  1  0.305100  0.598800  0.755700  1.0  -0.0798
  C  C219  1  0.225600  0.358400  0.385700  1.0  -0.1018
  C  C220  1  0.668100  0.353030  0.198110  1.0  -0.1437
  C  C221  1  0.205300  0.343510  0.715800  1.0  0.169
  C  C222  1  0.292300  0.751500  0.560300  1.0  0.6298
  C  C223  1  0.969100  0.429800  0.732400  1.0  0.1749
  C  C224  1  0.434300  0.856400  0.888700  1.0  0.1527
  C  C225  1  0.446200  0.014200  0.134700  1.0  0.1471
  C  C226  1  0.260100  0.163100  0.080400  1.0  -0.1057
  C  C227  1  0.897100  0.446700  0.708510  1.0  -0.1481
  C  C228  1  0.025500  0.239400  0.220400  1.0  0.1704
  C  C229  1  0.513700  0.115800  0.303000  1.0  0.179
  C  C230  1  0.469100  0.070200  0.767600  1.0  0.1782
  C  C231  1  0.521400  0.605800  0.176600  1.0  0.6833
  C  C232  1  0.423900  0.325600  0.236500  1.0  -0.1012
  C  C233  1  0.185700  0.757100  0.637300  1.0  -0.0785
  C  C234  1  0.330700  0.404270  0.716580  1.0  -0.1285
  C  C235  1  0.205200  0.667800  0.110200  1.0  -0.1556
  C  C236  1  0.814600  0.270500  0.596000  1.0  0.6966
  C  C237  1  0.880400  0.615040  0.736600  1.0  0.1721
  C  C238  1  0.530900  0.929800  0.232400  1.0  0.175
  C  C239  1  0.046300  0.655200  0.107500  1.0  0.1647
  C  C240  1  0.065700  0.356400  0.388700  1.0  0.1502
  C  C241  1  0.533200  0.321500  0.303100  1.0  -0.1472
  C  C242  1  0.705300  0.156490  0.784200  1.0  0.1689
  C  C243  1  0.774400  0.641600  0.614300  1.0  -0.1022
  C  C244  1  0.221400  0.196200  0.320600  1.0  -0.1426
  C  C245  1  0.707700  0.552750  0.236910  1.0  -0.0798
  C  C246  1  0.835000  0.591500  0.815300  1.0  -0.126
  C  C247  1  0.593900  0.039600  0.892300  1.0  -0.092
  C  C248  1  0.642900  0.923620  0.597410  1.0  -0.1452
  C  C249  1  0.148600  0.352900  0.412000  1.0  -0.0813
  C  C250  1  0.792000  0.354800  0.848200  1.0  -0.0553
  C  C251  1  0.830700  0.095730  0.783420  1.0  -0.1287
  C  C252  1  0.271300  0.895600  0.083500  1.0  0.7348
  C  C253  1  0.294800  0.167800  0.610200  1.0  -0.1563
  C  C254  1  0.461300  0.290100  0.814700  1.0  -0.098
  C  C255  1  0.833800  0.359100  0.071600  1.0  0.7227
  C  C256  1  0.199000  0.695700  0.794300  1.0  0.1713
  C  C257  1  0.739900  0.836900  0.919600  1.0  -0.105
  C  C258  1  0.851400  0.647100  0.588000  1.0  -0.0849
  C  C259  1  0.360900  0.773000  0.321300  1.0  0.1783
  C  C260  1  0.602900  0.946700  0.208510  1.0  -0.1466
  C  C261  1  0.729600  0.001600  0.843400  1.0  -0.0732
  C  C262  1  0.685400  0.770500  0.096000  1.0  0.6991
  C  C263  1  0.699000  0.912600  0.263800  1.0  -0.0754
  C  C264  1  0.301000  0.087400  0.736200  1.0  -0.0761
  C  C265  1  0.139100  0.273000  0.821300  1.0  0.1782
  C  C266  1  0.771300  0.604400  0.416500  1.0  0.7328
  C  C267  1  0.286300  0.351300  0.692600  1.0  -0.1363
  C  C268  1  0.316700  0.952710  0.117000  1.0  -0.1394
  C  C269  1  0.208000  0.645200  0.151800  1.0  -0.0541
  C  C270  1  0.949800  0.504500  0.103600  1.0  0.1608
  C  C271  1  0.449800  0.995500  0.396400  1.0  0.1597
  C  C272  1  0.038700  0.790100  0.314700  1.0  -0.0968
  C  C273  1  0.136200  0.730970  0.667200  1.0  0.1844
  C  C274  1  0.739300  0.777200  0.906600  1.0  -0.0902
  C  C275  1  0.725600  0.141600  0.114300  1.0  -0.1007
  C  C276  1  0.314300  0.257100  0.137300  1.0  -0.0792
  C  C277  1  0.923900  0.174400  0.263500  1.0  -0.1008
  C  C278  1  0.274400  0.858400  0.885700  1.0  -0.1025
  C  C279  1  0.476600  0.419650  0.307160  1.0  0.6802
  C  C280  1  0.917300  0.855700  0.667700  1.0  0.7275
  C  C281  1  0.314300  0.900400  0.734000  1.0  -0.0967
  C  C282  1  0.124500  0.603000  0.213500  1.0  0.1406
  C  C283  1  0.301000  0.195700  0.294300  1.0  0.1713
  C  C284  1  0.877100  0.328100  0.913100  1.0  -0.1392
  C  C285  1  0.335000  0.908500  0.684700  1.0  -0.1255
  C  C286  1  0.287300  0.936710  0.284470  1.0  0.1873
  C  C287  1  0.981100  0.268400  0.712300  1.0  0.175
  C  C288  1  0.189800  0.239500  0.842300  1.0  -0.0636
  C  C289  1  0.628800  0.871700  0.329600  1.0  0.1319
  C  C290  1  0.758600  0.173500  0.595200  1.0  -0.146
  C  C291  1  0.481100  0.231600  0.787700  1.0  0.1736
  C  C292  1  0.313500  0.139200  0.110700  1.0  0.1568
  C  C293  1  0.289700  0.689100  0.091500  1.0  0.6741
  C  C294  1  0.705200  0.832200  0.389800  1.0  -0.1556
  C  C295  1  0.056000  0.189300  0.749600  1.0  -0.0739
  C  C296  1  0.122900  0.671900  0.086900  1.0  -0.1365
  C  C297  1  0.239900  0.663100  0.580400  1.0  -0.1064
  C  C298  1  0.669300  0.595730  0.283420  1.0  -0.1292
  C  C299  1  0.792300  0.052750  0.736910  1.0  -0.079
  C  C300  1  0.001600  0.830300  0.296200  1.0  -0.1677
  C  C301  1  0.315800  0.347600  0.407000  1.0  0.7111
  C  C302  1  0.760100  0.336900  0.419600  1.0  -0.1065
  C  C303  1  0.934300  0.643600  0.611300  1.0  0.1512
  C  C304  1  0.581800  0.583300  0.306480  1.0  0.7006
  C  C305  1  0.310200  0.739500  0.342300  1.0  -0.0629
  C  C306  1  0.794700  0.656490  0.284200  1.0  0.1725
  C  C307  1  0.417300  0.644300  0.832300  1.0  0.7277
  C  C308  1  0.478600  0.394200  0.823400  1.0  0.6846
  C  C309  1  0.694900  0.401200  0.244300  1.0  -0.081
  C  C310  1  0.689300  0.936430  0.223780  1.0  -0.1485
  C  C311  1  0.397100  0.053300  0.791490  1.0  -0.146
  C  C312  1  0.724000  0.899210  0.769100  1.0  0.1543
  C  C313  1  0.685700  0.742900  0.862700  1.0  -0.0776
  C  C314  1  0.278600  0.696200  0.820600  1.0  -0.1419
  C  C315  1  0.023400  0.919650  0.807160  1.0  0.6803
  C  C316  1  0.333000  0.980100  0.333520  1.0  0.1803
  C  C317  1  0.520900  0.646020  0.718300  1.0  -0.1419
  C  C318  1  0.760700  0.277200  0.406600  1.0  -0.0903
  C  C319  1  0.920800  0.235360  0.285200  1.0  0.1795
  C  C320  1  0.666200  0.859100  0.571600  1.0  0.7222
  C  C321  1  0.357100  0.076380  0.402590  1.0  -0.1453
  C  C322  1  0.425100  0.748200  0.275100  1.0  0.1393
  C  C323  1  0.814900  0.449000  0.315400  1.0  0.1388
  C  C324  1  0.863800  0.269030  0.332800  1.0  0.1837
  C  C325  1  0.787300  0.563290  0.215530  1.0  0.1836
  C  C326  1  0.565700  0.143600  0.111300  1.0  0.1532
  C  C327  1  0.076200  0.400100  0.166400  1.0  -0.1199
  C  C328  1  0.523400  0.580350  0.692840  1.0  0.678
  C  C329  1  0.875500  0.397000  0.786500  1.0  0.1354
  C  C330  1  0.501600  0.669700  0.203800  1.0  -0.1664
  C  C331  1  0.944000  0.810700  0.250400  1.0  -0.0743
  C  C332  1  0.429300  0.053800  0.421800  1.0  -0.1702
  C  C333  1  0.986300  0.615800  0.803000  1.0  0.1807
  C  C334  1  0.030900  0.570200  0.267600  1.0  0.1746
  C  C335  1  0.033200  0.178500  0.196900  1.0  -0.1494
  C  C336  1  0.239300  0.722800  0.593400  1.0  -0.0941
  C  C337  1  0.102900  0.553300  0.291490  1.0  -0.1465
  C  C338  1  0.639100  0.227000  0.678700  1.0  0.178
  C  C339  1  0.576200  0.099900  0.333600  1.0  -0.1191
  C  C340  1  0.224000  0.600790  0.730900  1.0  0.1541
  C  C341  1  0.741400  0.673500  0.095200  1.0  -0.144
  C  C342  1  0.018900  0.731600  0.287700  1.0  0.1742
  C  C343  1  0.998400  0.169700  0.703800  1.0  -0.166
  C  C344  1  0.199000  0.587400  0.236200  1.0  -0.0754
  C  C345  1  0.553800  0.985800  0.865300  1.0  0.1457
  C  C346  1  0.167000  0.480100  0.833520  1.0  0.1751
  C  C347  1  0.166200  0.640900  0.928400  1.0  0.7236
  C  C348  1  0.683300  0.047290  0.883000  1.0  -0.1403
  C  C349  1  0.770700  0.950800  0.196780  1.0  0.6841
  C  C350  1  0.479100  0.353980  0.281700  1.0  -0.1398
  C  C351  1  0.252100  0.266400  0.884200  1.0  -0.1258
  C  C352  1  0.365700  0.874180  0.815500  1.0  0.2073
  C  C353  1  0.119600  0.384960  0.263400  1.0  0.1723
  C  C354  1  0.183300  0.452710  0.617000  1.0  -0.139
  C  C355  1  0.795600  0.642100  0.117600  1.0  0.1643
  C  C356  1  0.310700  0.063570  0.776220  1.0  -0.1505
  C  C357  1  0.736400  0.072700  0.346500  1.0  0.677
  C  C358  1  0.576100  0.674400  0.763500  1.0  -0.0999
  C  C359  1  0.966800  0.821500  0.803100  1.0  -0.1512
  C  C360  1  0.816700  0.547290  0.383000  1.0  -0.1405
  C  C361  1  0.165000  0.408500  0.184700  1.0  -0.124
  C  C362  1  0.778600  0.803800  0.679400  1.0  -0.1421
  C  C363  1  0.169300  0.904270  0.216580  1.0  -0.1303
  C  C364  1  0.314900  0.051000  0.184600  1.0  0.1388
  C  C365  1  0.444000  0.689300  0.249600  1.0  -0.0733
  C  C366  1  0.976600  0.080350  0.192840  1.0  0.6778
  C  C367  1  0.185100  0.551000  0.684600  1.0  0.1392
  C  C368  1  0.134300  0.374180  0.315500  1.0  0.2071
  C  C369  1  0.624500  0.897000  0.286500  1.0  0.1357
  C  C370  1  0.871200  0.371700  0.829600  1.0  0.1311
  C  C371  1  0.168100  0.146970  0.301890  1.0  -0.1428
  C  C372  1  0.710300  0.310900  0.908500  1.0  0.6721
  C  C373  1  0.082700  0.144300  0.332300  1.0  0.725
  C  C374  1  0.684200  0.652400  0.593000  1.0  0.7116
  C  C375  1  0.685700  0.099600  0.266000  1.0  -0.097
  C  C376  1  0.247900  0.766400  0.384200  1.0  -0.1263
  C  C377  1  0.689800  0.260500  0.657700  1.0  -0.0634
  C  C378  1  0.236400  0.427300  0.153500  1.0  0.676
  C  C379  1  0.713700  0.648700  0.307400  1.0  -0.1371
  C  C380  1  0.634300  0.125820  0.184500  1.0  0.2013
  C  C381  1  0.263600  0.927300  0.653500  1.0  0.6791
  C  C382  1  0.925100  0.751800  0.224900  1.0  0.1378
  C  C383  1  0.833000  0.519900  0.166480  1.0  0.1748
  C  C384  1  0.241400  0.826500  0.404800  1.0  -0.1448
  C  C385  1  0.728700  0.104400  0.916500  1.0  0.7327
  C  C386  1  0.076100  0.825600  0.736500  1.0  -0.1002
  C  C387  1  0.807200  0.461800  0.141650  1.0  -0.0584
  C  C388  1  0.081800  0.916700  0.193520  1.0  0.701
  C  C389  1  0.923800  0.599900  0.833600  1.0  -0.1196
  C  C390  1  0.857100  0.423620  0.097410  1.0  -0.1459
  C  C391  1  0.622900  0.828100  0.413100  1.0  -0.1384
  C  C392  1  0.423800  0.900100  0.666400  1.0  -0.1206
  C  C393  1  0.665000  0.091500  0.315300  1.0  -0.1246
  C  C394  1  0.518900  0.768400  0.212300  1.0  0.1747
  C  C395  1  0.636200  0.769030  0.832800  1.0  0.1838
  C  C396  1  0.380400  0.884960  0.763400  1.0  0.1721
  C  C397  1  0.906100  0.539600  0.392300  1.0  -0.0922
  C  C398  1  0.229600  0.498400  0.656600  1.0  -0.0712
  C  C399  1  0.207700  0.251500  0.060300  1.0  0.6308
  C  C400  1  0.974500  0.760600  0.779600  1.0  0.1705
  C  C401  1  0.781300  0.628600  0.662300  1.0  -0.067
  C  C402  1  0.794800  0.332200  0.889800  1.0  -0.1545
  C  C403  1  0.218700  0.371400  0.337700  1.0  -0.0658
  C  C404  1  0.292300  0.447250  0.763090  1.0  -0.0792
  C  C405  1  0.667000  0.019900  0.666480  1.0  0.1748
  C  C406  1  0.619600  0.115040  0.236600  1.0  0.172
  C  C407  1  0.574900  0.251800  0.724900  1.0  0.1466
  C  C408  1  0.704400  0.142100  0.617600  1.0  0.1638
  C  C409  1  0.786300  0.148700  0.807400  1.0  -0.1355
  C  C410  1  0.860900  0.727000  0.178700  1.0  0.1777
  C  C411  1  0.307200  0.038200  0.358350  1.0  -0.0606
  C  C412  1  0.212700  0.436710  0.784470  1.0  0.1876
  C  C413  1  0.351400  0.852900  0.912000  1.0  -0.0823
  C  C414  1  0.918200  0.083300  0.806480  1.0  0.7012
  C  C415  1  0.729300  0.450800  0.696780  1.0  0.6845
  C  C416  1  0.486300  0.884200  0.697000  1.0  0.179
  C  C417  1  0.815800  0.152400  0.093000  1.0  0.7103
  C  C418  1  0.708000  0.854800  0.348200  1.0  -0.0538
  C  C419  1  0.453700  0.155200  0.607500  1.0  0.1644
  C  C420  1  0.406100  0.960400  0.107700  1.0  -0.0905
  C  C421  1  0.020900  0.853980  0.781700  1.0  -0.1403
  C  C422  1  0.207700  0.947250  0.263090  1.0  -0.0798
  C  C423  1  0.979100  0.146020  0.218300  1.0  -0.1412
  C  C424  1  0.801000  0.304300  0.205700  1.0  0.1716
  C  C425  1  0.210300  0.189100  0.591500  1.0  0.6739
  C  C426  1  0.978600  0.105800  0.676600  1.0  0.6819
  C  C427  1  0.314600  0.229500  0.904000  1.0  0.696
  C  C428  1  0.333800  0.140900  0.428400  1.0  0.7223
  C  C429  1  0.474500  0.739400  0.720400  1.0  0.1707
  C  C430  1  0.792300  0.748500  0.939700  1.0  0.6291
  C  C431  1  0.053800  0.514200  0.634700  1.0  0.148
  C  C432  1  0.789700  0.810900  0.408500  1.0  0.6745
  C  C433  1  0.276000  0.100790  0.230900  1.0  0.1523
  C  C434  1  0.685100  0.949000  0.815400  1.0  0.139
  C  C435  1  0.228700  0.395600  0.583500  1.0  0.7334
  C  C436  1  0.185400  0.729500  0.404000  1.0  0.6943
  C  C437  1  0.648600  0.147100  0.088000  1.0  -0.0839
  C  C438  1  0.831900  0.853030  0.698110  1.0  -0.1427
  C  C439  1  0.184200  0.847600  0.907000  1.0  0.7082
  C  C440  1  0.953700  0.344800  0.892500  1.0  0.164
  C  C441  1  0.813500  0.360800  0.389300  1.0  0.1548
  C  C442  1  0.192800  0.538200  0.858350  1.0  -0.0595
  C  C443  1  0.258600  0.326500  0.904800  1.0  -0.1453
  C  C444  1  0.747900  0.733600  0.115800  1.0  -0.1277
  C  C445  1  0.371200  0.128300  0.670400  1.0  0.1305
  C  C446  1  0.021400  0.894200  0.323400  1.0  0.6839
  C  C447  1  0.229300  0.049200  0.803220  1.0  0.6832
  C  C448  1  0.050200  0.495500  0.896400  1.0  0.1607
  C  C449  1  0.142900  0.576380  0.902590  1.0  -0.145
  C  C450  1  0.420800  0.264640  0.214800  1.0  0.1796
  C  C451  1  0.865700  0.625820  0.684500  1.0  0.201
  C  C452  1  0.281300  0.871400  0.837700  1.0  -0.0661
  C  C453  1  0.570700  0.946200  0.578200  1.0  -0.1672
  C  C454  1  0.805100  0.901200  0.744300  1.0  -0.08
  C  C455  1  0.712700  0.063290  0.715530  1.0  0.1835
  C  C456  1  0.810700  0.436430  0.723780  1.0  -0.1502
  N  N457  1  0.539600  0.905250  0.270730  1.0  -0.3483
  N  N458  1  0.645700  0.167830  0.658770  1.0  -0.3471
  N  N459  1  0.468900  0.232460  0.237580  1.0  -0.3393
  N  N460  1  0.669100  0.115190  0.738890  1.0  -0.3138
  N  N461  1  0.364700  0.172470  0.153630  1.0  -0.3309
  N  N462  1  0.939600  0.634590  0.659950  1.0  -0.3235
  N  N463  1  0.535900  0.212050  0.743050  1.0  -0.3276
  N  N464  1  0.466500  0.877180  0.745330  1.0  -0.325
  N  N465  1  0.035900  0.287950  0.756950  1.0  -0.3266
  N  N466  1  0.854300  0.667830  0.158770  1.0  -0.3471
  N  N467  1  0.548000  0.865320  0.351180  1.0  -0.3137
  N  N468  1  0.635300  0.827530  0.846370  1.0  -0.3342
  N  N469  1  0.452000  0.134680  0.648820  1.0  -0.3138
  N  N470  1  0.596100  0.041430  0.647840  1.0  -0.3145
  N  N471  1  0.531100  0.767540  0.762420  1.0  -0.3389
  N  N472  1  0.329600  0.149070  0.250220  1.0  -0.3071
  N  N473  1  0.599500  0.939910  0.828710  1.0  -0.3606
  N  N474  1  0.033500  0.377180  0.245330  1.0  -0.3259
  N  N475  1  0.864700  0.327530  0.346370  1.0  -0.3332
  N  N476  1  0.829600  0.350930  0.249780  1.0  -0.308
  N  N477  1  0.060400  0.365410  0.340050  1.0  -0.3218
  N  N478  1  0.960400  0.405250  0.770730  1.0  -0.3491
  N  N479  1  0.964100  0.712050  0.243050  1.0  -0.328
  N  N480  1  0.099500  0.560090  0.671290  1.0  -0.3596
  N  N481  1  0.670400  0.850930  0.749780  1.0  -0.3055
  N  N482  1  0.048000  0.634680  0.148820  1.0  -0.3146
  N  N483  1  0.903900  0.541430  0.147840  1.0  -0.3125
  N  N484  1  0.031100  0.732460  0.737580  1.0  -0.3389
  N  N485  1  0.560400  0.134590  0.159950  1.0  -0.3248
  N  N486  1  0.354300  0.832170  0.341230  1.0  -0.3466
  N  N487  1  0.400500  0.060090  0.171290  1.0  -0.3602
  N  N488  1  0.439600  0.865410  0.840050  1.0  -0.3215
  N  N489  1  0.464100  0.787950  0.256950  1.0  -0.3273
  N  N490  1  0.135300  0.672470  0.653630  1.0  -0.3327
  N  N491  1  0.533500  0.122820  0.254670  1.0  -0.3261
  N  N492  1  0.900500  0.439910  0.328710  1.0  -0.3598
  N  N493  1  0.403900  0.958570  0.352160  1.0  -0.3126
  N  N494  1  0.830900  0.615190  0.238890  1.0  -0.3117
  N  N495  1  0.145700  0.332170  0.841230  1.0  -0.3466
  N  N496  1  0.096100  0.458570  0.852160  1.0  -0.316
  N  N497  1  0.952000  0.365320  0.851180  1.0  -0.3149
  N  N498  1  0.966500  0.622820  0.754670  1.0  -0.3253
  N  N499  1  0.330900  0.884810  0.261110  1.0  -0.3119
  N  N500  1  0.169100  0.384810  0.761110  1.0  -0.3132
  N  N501  1  0.039600  0.594750  0.229270  1.0  -0.3486
  N  N502  1  0.968900  0.267540  0.262420  1.0  -0.3394
  N  N503  1  0.460400  0.094750  0.729270  1.0  -0.3494
  N  N504  1  0.170400  0.649070  0.750220  1.0  -0.3087
  O  O505  1  0.080600  0.944300  0.787500  1.0  -0.6905
  O  O506  1  0.541200  0.623880  0.343600  1.0  -0.635
  O  O507  1  0.866200  0.773600  0.960000  1.0  -0.4964
  O  O508  1  0.972100  0.945450  0.846900  1.0  -0.6471
  O  O509  1  0.887200  0.247220  0.575440  1.0  -0.7589
  O  O510  1  0.062800  0.913300  0.368000  1.0  -0.5369
  O  O511  1  0.681200  0.147040  0.941800  1.0  -0.6007
  O  O512  1  0.818800  0.647040  0.441800  1.0  -0.6022
  O  O513  1  0.117600  0.869400  0.893820  1.0  -0.5288
  O  O514  1  0.281300  0.716860  0.058770  1.0  -0.7573
  O  O515  1  0.892500  0.325000  0.041770  1.0  -0.6535
  O  O516  1  0.318800  0.852960  0.058200  1.0  -0.601
  O  O517  1  0.218700  0.216860  0.558770  1.0  -0.7588
  O  O518  1  0.846200  0.942860  0.215730  1.0  -0.7053
  O  O519  1  0.718700  0.283140  0.941230  1.0  -0.7588
  O  O520  1  0.183600  0.922400  0.666900  1.0  -0.7387
  O  O521  1  0.991400  0.924900  0.298800  1.0  -0.6832
  O  O522  1  0.781300  0.783140  0.441230  1.0  -0.7567
  O  O523  1  0.472100  0.554550  0.653100  1.0  -0.6473
  O  O524  1  0.958800  0.123880  0.843600  1.0  -0.6347
  O  O525  1  0.041200  0.876120  0.156400  1.0  -0.6363
  O  O526  1  0.683600  0.684600  0.565200  1.0  -0.7721
  O  O527  1  0.027900  0.054550  0.153100  1.0  -0.647
  O  O528  1  0.261100  0.532550  0.342910  1.0  -0.6287
  O  O529  1  0.761100  0.967450  0.157090  1.0  -0.6296
  O  O530  1  0.241100  0.657310  0.919760  1.0  -0.6208
  O  O531  1  0.133800  0.226400  0.040000  1.0  -0.4993
  O  O532  1  0.116400  0.250120  0.471000  1.0  -0.5129
  O  O533  1  0.209000  0.678740  0.395500  1.0  -0.5228
  O  O534  1  0.446200  0.690200  0.868510  1.0  -0.5317
  O  O535  1  0.291000  0.178740  0.895500  1.0  -0.5237
  O  O536  1  0.944000  0.031030  0.787750  1.0  -0.6981
  O  O537  1  0.238300  0.295500  0.055600  1.0  -0.4965
  O  O538  1  0.761700  0.704500  0.944400  1.0  -0.4958
  O  O539  1  0.816400  0.077600  0.333100  1.0  -0.7417
  O  O540  1  0.816400  0.184600  0.065200  1.0  -0.771
  O  O541  1  0.738900  0.467450  0.657090  1.0  -0.6298
  O  O542  1  0.919400  0.055700  0.212500  1.0  -0.6927
  O  O543  1  0.392500  0.175000  0.458230  1.0  -0.6519
  O  O544  1  0.346200  0.557140  0.284270  1.0  -0.7035
  O  O545  1  0.863100  0.822600  0.392400  1.0  -0.6699
  O  O546  1  0.616400  0.249880  0.029000  1.0  -0.5137
  O  O547  1  0.053800  0.190200  0.368510  1.0  -0.5315
  O  O548  1  0.791000  0.321260  0.604500  1.0  -0.5259
  O  O549  1  0.636900  0.322600  0.892400  1.0  -0.6688
  O  O550  1  0.181200  0.352960  0.558200  1.0  -0.6001
  O  O551  1  0.047200  0.095300  0.317900  1.0  -0.7457
  O  O552  1  0.689800  0.607700  0.415100  1.0  -0.5231
  O  O553  1  0.458800  0.376120  0.656400  1.0  -0.6345
  O  O554  1  0.363100  0.677400  0.107600  1.0  -0.6698
  O  O555  1  0.310200  0.392300  0.584900  1.0  -0.5237
  O  O556  1  0.547200  0.404700  0.182100  1.0  -0.7457
  O  O557  1  0.419400  0.444300  0.287500  1.0  -0.6911
  O  O558  1  0.288800  0.945900  0.616800  1.0  -0.5631
  O  O559  1  0.491400  0.575100  0.201200  1.0  -0.6871
  O  O560  1  0.437200  0.413300  0.868000  1.0  -0.5358
  O  O561  1  0.741100  0.842690  0.580240  1.0  -0.6209
  O  O562  1  0.617600  0.630600  0.606180  1.0  -0.5313
  O  O563  1  0.937200  0.086700  0.632000  1.0  -0.5378
  O  O564  1  0.444000  0.468970  0.712250  1.0  -0.6973
  O  O565  1  0.883600  0.749880  0.529000  1.0  -0.5144
  O  O566  1  0.112800  0.752780  0.424560  1.0  -0.7586
  O  O567  1  0.527900  0.445450  0.346900  1.0  -0.6462
  O  O568  1  0.056000  0.968970  0.212250  1.0  -0.6991
  O  O569  1  0.153800  0.057140  0.784270  1.0  -0.7027
  O  O570  1  0.211200  0.445900  0.116800  1.0  -0.5607
  O  O571  1  0.758900  0.342690  0.080240  1.0  -0.6199
  O  O572  1  0.653800  0.442860  0.715730  1.0  -0.704
  O  O573  1  0.810200  0.107700  0.915100  1.0  -0.5213
  O  O574  1  0.316400  0.422400  0.166900  1.0  -0.7391
  O  O575  1  0.556000  0.531030  0.287750  1.0  -0.6987
  O  O576  1  0.383600  0.750120  0.971000  1.0  -0.5134
  O  O577  1  0.882400  0.130600  0.106180  1.0  -0.5311
  O  O578  1  0.952800  0.904700  0.682100  1.0  -0.7457
  O  O579  1  0.366200  0.726400  0.540000  1.0  -0.4976
  O  O580  1  0.387200  0.252780  0.924560  1.0  -0.757
  O  O581  1  0.258900  0.157310  0.419760  1.0  -0.6205
  O  O582  1  0.452800  0.595300  0.817900  1.0  -0.7445
  O  O583  1  0.008600  0.075100  0.701200  1.0  -0.6854
  O  O584  1  0.189800  0.892300  0.084900  1.0  -0.5236
  O  O585  1  0.633800  0.273600  0.460000  1.0  -0.4977
  O  O586  1  0.738300  0.204500  0.444400  1.0  -0.4947
  O  O587  1  0.136900  0.177400  0.607600  1.0  -0.6688
  O  O588  1  0.709000  0.821260  0.104500  1.0  -0.5258
  O  O589  1  0.316400  0.315400  0.434800  1.0  -0.7725
  O  O590  1  0.183600  0.815400  0.934800  1.0  -0.7732
  O  O591  1  0.238900  0.032550  0.842910  1.0  -0.6295
  O  O592  1  0.553800  0.309800  0.131490  1.0  -0.5328
  O  O593  1  0.788800  0.554100  0.883200  1.0  -0.5594
  O  O594  1  0.107500  0.675000  0.958230  1.0  -0.6526
  O  O595  1  0.711200  0.054100  0.383200  1.0  -0.5588
  O  O596  1  0.683600  0.577600  0.833100  1.0  -0.7411
  O  O597  1  0.612800  0.747220  0.075440  1.0  -0.7585
  O  O598  1  0.607500  0.825000  0.541770  1.0  -0.6541
  O  O599  1  0.562800  0.586700  0.132000  1.0  -0.5366
  O  O600  1  0.508600  0.424900  0.798800  1.0  -0.6824
  O  O601  1  0.261700  0.795500  0.555600  1.0  -0.4988
  O  O602  1  0.946200  0.809800  0.631490  1.0  -0.5325
  O  O603  1  0.580600  0.555700  0.712500  1.0  -0.6917
  O  O604  1  0.382400  0.369400  0.393820  1.0  -0.5268
