# generated using pymatgen
data_Mg5H6(C10O9)2
_symmetry_space_group_name_H-M   'P 1'
_cell_length_a   7.37420000
_cell_length_b   11.40110000
_cell_length_c   11.67060000
_cell_angle_alpha   89.66600000
_cell_angle_beta   76.81300000
_cell_angle_gamma   74.97100000
_symmetry_Int_Tables_number   1
_chemical_formula_structural   Mg5H6(C10O9)2
_chemical_formula_sum   'Mg5 H6 C20 O18'
_cell_volume   921.15864761
_cell_formula_units_Z   1
loop_
 _symmetry_equiv_pos_site_id
 _symmetry_equiv_pos_as_xyz
  1  'x, y, z'
loop_
 _atom_site_type_symbol
 _atom_site_label
 _atom_site_symmetry_multiplicity
 _atom_site_fract_x
 _atom_site_fract_y
 _atom_site_fract_z
 _atom_site_occupancy
 _atom_site_charge
  Mg  Mg1  1  0.541220  0.146970  0.674360  1.0  1.521
  Mg  Mg2  1  0.687510  0.131970  0.363990  1.0  1.5276
  Mg  Mg3  1  0.458780  0.853030  0.325640  1.0  1.5222
  Mg  Mg4  1  0.312490  0.868030  0.636010  1.0  1.5284
  Mg  Mg5  1  0.000000  0.000000  0.500000  1.0  1.483
  H  H6  1  0.659900  0.976300  0.520800  1.0  0.3507
  H  H7  1  0.299300  0.502300  0.526800  1.0  0.0678
  H  H8  1  0.274900  0.041900  0.030300  1.0  0.0693
  H  H9  1  0.340100  0.023700  0.479200  1.0  0.3487
  H  H10  1  0.700700  0.497700  0.473200  1.0  0.0676
  H  H11  1  0.725100  0.958100  0.969700  1.0  0.0698
  C  C12  1  0.298400  0.277150  0.506230  1.0  0.6811
  C  C13  1  0.139500  0.390390  0.501540  1.0  -0.0656
  C  C14  1  0.178600  0.501350  0.515970  1.0  -0.0493
  C  C15  1  0.957900  0.388940  0.485290  1.0  -0.1629
  C  C16  1  0.907200  0.271010  0.471190  1.0  0.6712
  C  C17  1  0.100600  0.978620  0.227700  1.0  0.711
  C  C18  1  0.038700  0.990740  0.112570  1.0  -0.1453
  C  C19  1  0.164000  0.024800  0.017980  1.0  -0.1092
  C  C20  1  0.128800  0.033990  0.905640  1.0  -0.1389
  C  C21  1  0.278400  0.073640  0.814310  1.0  0.6337
  C  C22  1  0.701600  0.722850  0.493770  1.0  0.6807
  C  C23  1  0.860500  0.609610  0.498460  1.0  -0.0658
  C  C24  1  0.821400  0.498650  0.484030  1.0  -0.0521
  C  C25  1  0.042100  0.611060  0.514710  1.0  -0.1628
  C  C26  1  0.092800  0.728990  0.528810  1.0  0.6713
  C  C27  1  0.899400  0.021380  0.772300  1.0  0.708
  C  C28  1  0.961300  0.009260  0.887430  1.0  -0.1452
  C  C29  1  0.836000  0.975200  0.982020  1.0  -0.1121
  C  C30  1  0.871200  0.966010  0.094360  1.0  -0.138
  C  C31  1  0.721600  0.926360  0.185690  1.0  0.6338
  O  O32  1  0.326400  0.252460  0.606260  1.0  -0.6506
  O  O33  1  0.397100  0.220600  0.411320  1.0  -0.6622
  O  O34  1  0.002500  0.178990  0.510940  1.0  -0.6469
  O  O35  1  0.774000  0.273490  0.419800  1.0  -0.6669
  O  O36  1  0.977980  0.021620  0.321880  1.0  -0.7139
  O  O37  1  0.274200  0.927820  0.220820  1.0  -0.6778
  O  O38  1  0.322100  0.167670  0.837650  1.0  -0.5999
  O  O39  1  0.366350  0.009910  0.719570  1.0  -0.6871
  O  O40  1  0.701070  0.051090  0.523810  1.0  -0.9921
  O  O41  1  0.673600  0.747540  0.393740  1.0  -0.652
  O  O42  1  0.602900  0.779400  0.588680  1.0  -0.6629
  O  O43  1  0.997500  0.821010  0.489060  1.0  -0.647
  O  O44  1  0.226000  0.726510  0.580200  1.0  -0.6678
  O  O45  1  0.022020  0.978380  0.678120  1.0  -0.7131
  O  O46  1  0.725800  0.072180  0.779180  1.0  -0.6793
  O  O47  1  0.677900  0.832330  0.162350  1.0  -0.6024
  O  O48  1  0.633650  0.990090  0.280430  1.0  -0.6858
  O  O49  1  0.298930  0.948910  0.476190  1.0  -0.9919
