# generated using pymatgen
data_Y2H6(C7O4)3
_symmetry_space_group_name_H-M   'P 1'
_cell_length_a   9.86050000
_cell_length_b   29.21000000
_cell_length_c   10.86520000
_cell_angle_alpha   90.00000000
_cell_angle_beta   92.20300000
_cell_angle_gamma   90.00000000
_symmetry_Int_Tables_number   1
_chemical_formula_structural   Y2H6(C7O4)3
_chemical_formula_sum   'Y8 H24 C84 O48'
_cell_volume   3127.13849563
_cell_formula_units_Z   4
loop_
 _symmetry_equiv_pos_site_id
 _symmetry_equiv_pos_as_xyz
  1  'x, y, z'
loop_
 _atom_site_type_symbol
 _atom_site_label
 _atom_site_symmetry_multiplicity
 _atom_site_fract_x
 _atom_site_fract_y
 _atom_site_fract_z
 _atom_site_occupancy
 _atom_site_charge
  Y  Y1  1  0.454480  0.418560  0.958410  1.0  2.0861
  Y  Y2  1  0.459570  0.251660  0.236690  1.0  2.0593
  Y  Y3  1  0.545520  0.918560  0.541590  1.0  2.0867
  Y  Y4  1  0.540430  0.751660  0.263310  1.0  2.0597
  Y  Y5  1  0.545520  0.581440  0.041590  1.0  2.0868
  Y  Y6  1  0.540430  0.748340  0.763310  1.0  2.0592
  Y  Y7  1  0.454480  0.081450  0.458410  1.0  2.0861
  Y  Y8  1  0.459570  0.248340  0.736690  1.0  2.0585
  H  H9  1  0.013300  0.407500  0.835600  1.0  0.0823
  H  H10  1  0.781000  0.392700  0.835600  1.0  0.0943
  H  H11  1  0.906300  0.209900  0.155500  1.0  0.0905
  H  H12  1  0.133000  0.213400  0.105900  1.0  0.1013
  H  H13  1  0.057400  0.482400  0.310100  1.0  0.0936
  H  H14  1  0.174000  0.513900  0.734900  1.0  0.1082
  H  H15  1  0.986700  0.907500  0.664400  1.0  0.0824
  H  H16  1  0.219000  0.892700  0.664400  1.0  0.094
  H  H17  1  0.093700  0.709900  0.344500  1.0  0.0919
  H  H18  1  0.867000  0.713400  0.394100  1.0  0.1016
  H  H19  1  0.942600  0.982400  0.189900  1.0  0.0935
  H  H20  1  0.826000  0.013900  0.765100  1.0  0.1081
  H  H21  1  0.986700  0.592500  0.164400  1.0  0.0824
  H  H22  1  0.219000  0.607300  0.164400  1.0  0.0942
  H  H23  1  0.093700  0.790100  0.844500  1.0  0.0925
  H  H24  1  0.867000  0.786600  0.894100  1.0  0.1024
  H  H25  1  0.942600  0.517600  0.689900  1.0  0.0941
  H  H26  1  0.826000  0.486100  0.265100  1.0  0.1083
  H  H27  1  0.013300  0.092500  0.335600  1.0  0.0823
  H  H28  1  0.781000  0.107300  0.335600  1.0  0.0938
  H  H29  1  0.906300  0.290100  0.655500  1.0  0.091
  H  H30  1  0.133000  0.286600  0.605900  1.0  0.1018
  H  H31  1  0.057400  0.017600  0.810100  1.0  0.0932
  H  H32  1  0.174000  0.986100  0.234900  1.0  0.108
  C  C33  1  0.074900  0.348920  0.912600  1.0  -0.0965
  C  C34  1  0.982800  0.380120  0.868300  1.0  -0.0597
  C  C35  1  0.841900  0.371740  0.870800  1.0  -0.0685
  C  C36  1  0.794100  0.332790  0.925000  1.0  -0.1038
  C  C37  1  0.887300  0.301120  0.982700  1.0  0.0386
  C  C38  1  0.843100  0.264450  0.058500  1.0  -0.0676
  C  C39  1  0.935400  0.233350  0.104900  1.0  -0.0924
  C  C40  1  0.073500  0.236080  0.077400  1.0  -0.1003
  C  C41  1  0.121300  0.271340  0.009900  1.0  -0.0834
  C  C42  1  0.030000  0.307050  0.966200  1.0  0.0327
  C  C43  1  0.218300  0.365420  0.920300  1.0  0.6413
  C  C44  1  0.646000  0.322480  0.900800  1.0  0.714
  C  C45  1  0.702500  0.261680  0.105800  1.0  0.6441
  C  C46  1  0.266100  0.267580  0.971200  1.0  0.7211
  C  C47  1  0.026400  0.486030  0.228700  1.0  -0.0906
  C  C48  1  0.117300  0.489050  0.139100  1.0  -0.059
  C  C49  1  0.262700  0.476470  0.172900  1.0  0.6853
  C  C50  1  0.071600  0.498910  0.014300  1.0  0.0252
  C  C51  1  0.161700  0.506300  0.917500  1.0  -0.0939
  C  C52  1  0.310400  0.514160  0.941100  1.0  0.6857
  C  C53  1  0.113500  0.511700  0.798200  1.0  -0.0956
  C  C54  1  0.925100  0.848920  0.587400  1.0  -0.0968
  C  C55  1  0.017200  0.880120  0.631700  1.0  -0.0591
  C  C56  1  0.158100  0.871740  0.629200  1.0  -0.0693
  C  C57  1  0.205900  0.832790  0.575000  1.0  -0.1044
  C  C58  1  0.112700  0.801120  0.517300  1.0  0.0378
  C  C59  1  0.156900  0.764450  0.441500  1.0  -0.0669
  C  C60  1  0.064600  0.733350  0.395100  1.0  -0.0932
  C  C61  1  0.926500  0.736080  0.422600  1.0  -0.0993
  C  C62  1  0.878700  0.771340  0.490100  1.0  -0.0832
  C  C63  1  0.970000  0.807050  0.533800  1.0  0.0319
  C  C64  1  0.781700  0.865420  0.579700  1.0  0.6404
  C  C65  1  0.354000  0.822480  0.599200  1.0  0.7118
  C  C66  1  0.297500  0.761680  0.394200  1.0  0.6433
  C  C67  1  0.733900  0.767580  0.528800  1.0  0.7222
  C  C68  1  0.973600  0.986030  0.271300  1.0  -0.0881
  C  C69  1  0.882700  0.989050  0.360900  1.0  -0.0633
  C  C70  1  0.737300  0.976470  0.327100  1.0  0.6854
  C  C71  1  0.928400  0.998910  0.485700  1.0  0.0258
  C  C72  1  0.838300  0.006300  0.582500  1.0  -0.0935
  C  C73  1  0.689600  0.014160  0.558900  1.0  0.6851
  C  C74  1  0.886500  0.011700  0.701800  1.0  -0.0991
  C  C75  1  0.925100  0.651080  0.087400  1.0  -0.0967
  C  C76  1  0.017200  0.619880  0.131700  1.0  -0.0595
  C  C77  1  0.158100  0.628260  0.129200  1.0  -0.0694
  C  C78  1  0.205900  0.667210  0.075000  1.0  -0.1044
  C  C79  1  0.112700  0.698880  0.017300  1.0  0.0376
  C  C80  1  0.156900  0.735550  0.941500  1.0  -0.0668
  C  C81  1  0.064600  0.766650  0.895100  1.0  -0.0934
  C  C82  1  0.926500  0.763920  0.922600  1.0  -0.0994
  C  C83  1  0.878700  0.728660  0.990100  1.0  -0.0831
  C  C84  1  0.970000  0.692950  0.033800  1.0  0.0318
  C  C85  1  0.781700  0.634580  0.079700  1.0  0.6401
  C  C86  1  0.354000  0.677520  0.099200  1.0  0.7117
  C  C87  1  0.297500  0.738320  0.894200  1.0  0.6434
  C  C88  1  0.733900  0.732420  0.028800  1.0  0.7218
  C  C89  1  0.973600  0.513970  0.771300  1.0  -0.0896
  C  C90  1  0.882700  0.510950  0.860900  1.0  -0.0625
  C  C91  1  0.737300  0.523530  0.827100  1.0  0.6851
  C  C92  1  0.928400  0.501090  0.985700  1.0  0.0259
  C  C93  1  0.838300  0.493700  0.082500  1.0  -0.0936
  C  C94  1  0.689600  0.485840  0.058900  1.0  0.6861
  C  C95  1  0.886500  0.488300  0.201800  1.0  -0.0995
  C  C96  1  0.074900  0.151080  0.412600  1.0  -0.0962
  C  C97  1  0.982800  0.119880  0.368300  1.0  -0.0587
  C  C98  1  0.841900  0.128260  0.370800  1.0  -0.0686
  C  C99  1  0.794100  0.167210  0.425000  1.0  -0.104
  C  C100  1  0.887300  0.198880  0.482700  1.0  0.0386
  C  C101  1  0.843100  0.235550  0.558500  1.0  -0.067
  C  C102  1  0.935400  0.266650  0.604900  1.0  -0.0928
  C  C103  1  0.073500  0.263920  0.577400  1.0  -0.1006
  C  C104  1  0.121300  0.228660  0.509900  1.0  -0.0835
  C  C105  1  0.030000  0.192950  0.466200  1.0  0.0327
  C  C106  1  0.218300  0.134580  0.420300  1.0  0.6407
  C  C107  1  0.646000  0.177520  0.400800  1.0  0.714
  C  C108  1  0.702500  0.238320  0.605800  1.0  0.6443
  C  C109  1  0.266100  0.232420  0.471200  1.0  0.7205
  C  C110  1  0.026400  0.013970  0.728700  1.0  -0.0907
  C  C111  1  0.117300  0.010950  0.639100  1.0  -0.0597
  C  C112  1  0.262700  0.023530  0.672900  1.0  0.684
  C  C113  1  0.071600  0.001090  0.514300  1.0  0.0253
  C  C114  1  0.161700  0.993700  0.417500  1.0  -0.0933
  C  C115  1  0.310400  0.985840  0.441100  1.0  0.6865
  C  C116  1  0.113500  0.988300  0.298200  1.0  -0.0969
  O  O117  1  0.262600  0.390380  0.834700  1.0  -0.6495
  O  O118  1  0.290900  0.358430  0.015600  1.0  -0.6061
  O  O119  1  0.562700  0.354450  0.903700  1.0  -0.7388
  O  O120  1  0.615500  0.282360  0.870000  1.0  -0.6794
  O  O121  1  0.645500  0.296490  0.146600  1.0  -0.6381
  O  O122  1  0.644400  0.223010  0.111400  1.0  -0.6419
  O  O123  1  0.287200  0.272740  0.859200  1.0  -0.7005
  O  O124  1  0.355300  0.255220  0.049200  1.0  -0.7344
  O  O125  1  0.313500  0.490800  0.273300  1.0  -0.4638
  O  O126  1  0.322300  0.449930  0.101600  1.0  -0.718
  O  O127  1  0.341500  0.545950  0.014100  1.0  -0.628
  O  O128  1  0.393100  0.490320  0.883900  1.0  -0.6893
  O  O129  1  0.737400  0.890380  0.665300  1.0  -0.6513
  O  O130  1  0.709100  0.858430  0.484400  1.0  -0.6043
  O  O131  1  0.437300  0.854450  0.596300  1.0  -0.7397
  O  O132  1  0.384500  0.782360  0.630000  1.0  -0.6785
  O  O133  1  0.354500  0.796490  0.353400  1.0  -0.6381
  O  O134  1  0.355600  0.723010  0.388600  1.0  -0.6428
  O  O135  1  0.712800  0.772740  0.640800  1.0  -0.7033
  O  O136  1  0.644700  0.755220  0.450800  1.0  -0.7345
  O  O137  1  0.686500  0.990800  0.226700  1.0  -0.4653
  O  O138  1  0.677700  0.949930  0.398400  1.0  -0.7164
  O  O139  1  0.658500  0.045950  0.485900  1.0  -0.629
  O  O140  1  0.606900  0.990320  0.616100  1.0  -0.6864
  O  O141  1  0.737400  0.609620  0.165300  1.0  -0.6511
  O  O142  1  0.709100  0.641570  0.984400  1.0  -0.6041
  O  O143  1  0.437300  0.645550  0.096300  1.0  -0.7397
  O  O144  1  0.384500  0.717640  0.130000  1.0  -0.6788
  O  O145  1  0.354500  0.703510  0.853400  1.0  -0.6371
  O  O146  1  0.355600  0.776990  0.888600  1.0  -0.6431
  O  O147  1  0.712800  0.727260  0.140800  1.0  -0.7043
  O  O148  1  0.644700  0.744780  0.950800  1.0  -0.7339
  O  O149  1  0.686500  0.509200  0.726700  1.0  -0.4642
  O  O150  1  0.677700  0.550070  0.898400  1.0  -0.7166
  O  O151  1  0.658500  0.454050  0.985900  1.0  -0.6292
  O  O152  1  0.606900  0.509680  0.116100  1.0  -0.686
  O  O153  1  0.262600  0.109620  0.334700  1.0  -0.6494
  O  O154  1  0.290900  0.141570  0.515600  1.0  -0.6058
  O  O155  1  0.562700  0.145550  0.403700  1.0  -0.7397
  O  O156  1  0.615500  0.217640  0.370000  1.0  -0.6796
  O  O157  1  0.645500  0.203510  0.646600  1.0  -0.6373
  O  O158  1  0.644400  0.276990  0.611400  1.0  -0.6441
  O  O159  1  0.287200  0.227260  0.359200  1.0  -0.7004
  O  O160  1  0.355300  0.244780  0.549200  1.0  -0.7346
  O  O161  1  0.313500  0.009200  0.773300  1.0  -0.4622
  O  O162  1  0.322300  0.050070  0.601600  1.0  -0.7171
  O  O163  1  0.341500  0.954050  0.514100  1.0  -0.6283
  O  O164  1  0.393100  0.009680  0.383900  1.0  -0.6888
