# generated using pymatgen
data_Er2H6(C7O4)3
_symmetry_space_group_name_H-M   'P 1'
_cell_length_a   9.84750000
_cell_length_b   29.05800000
_cell_length_c   10.81510000
_cell_angle_alpha   90.00000000
_cell_angle_beta   92.31100000
_cell_angle_gamma   90.00000000
_symmetry_Int_Tables_number   1
_chemical_formula_structural   Er2H6(C7O4)3
_chemical_formula_sum   'Er8 H24 C84 O48'
_cell_volume   3092.20929097
_cell_formula_units_Z   4
loop_
 _symmetry_equiv_pos_site_id
 _symmetry_equiv_pos_as_xyz
  1  'x, y, z'
loop_
 _atom_site_type_symbol
 _atom_site_label
 _atom_site_symmetry_multiplicity
 _atom_site_fract_x
 _atom_site_fract_y
 _atom_site_fract_z
 _atom_site_occupancy
 _atom_site_charge
  Er  Er1  1  0.455120  0.418770  0.957640  1.0  1.5701
  Er  Er2  1  0.461090  0.251700  0.237260  1.0  1.6143
  Er  Er3  1  0.544880  0.918770  0.542360  1.0  1.5705
  Er  Er4  1  0.538910  0.751700  0.262740  1.0  1.6147
  Er  Er5  1  0.544880  0.581230  0.042360  1.0  1.5703
  Er  Er6  1  0.538910  0.748300  0.762740  1.0  1.6141
  Er  Er7  1  0.455120  0.081230  0.457640  1.0  1.5697
  Er  Er8  1  0.461090  0.248300  0.737260  1.0  1.6133
  H  H9  1  0.014400  0.408200  0.830400  1.0  0.1075
  H  H10  1  0.780800  0.393900  0.836000  1.0  0.1098
  H  H11  1  0.907700  0.209300  0.160300  1.0  0.1143
  H  H12  1  0.136500  0.213000  0.108900  1.0  0.1151
  H  H13  1  0.057600  0.483300  0.314100  1.0  0.1196
  H  H14  1  0.175800  0.514100  0.733000  1.0  0.1306
  H  H15  1  0.985600  0.908200  0.669600  1.0  0.1076
  H  H16  1  0.219200  0.893900  0.664000  1.0  0.1092
  H  H17  1  0.092300  0.709300  0.339700  1.0  0.1153
  H  H18  1  0.863500  0.713000  0.391100  1.0  0.1156
  H  H19  1  0.942400  0.983300  0.185900  1.0  0.1194
  H  H20  1  0.824200  0.014100  0.767000  1.0  0.1297
  H  H21  1  0.985600  0.591800  0.169600  1.0  0.108
  H  H22  1  0.219200  0.606100  0.164000  1.0  0.1095
  H  H23  1  0.092300  0.790700  0.839700  1.0  0.1147
  H  H24  1  0.863500  0.787000  0.891100  1.0  0.1159
  H  H25  1  0.942400  0.516700  0.685900  1.0  0.1201
  H  H26  1  0.824200  0.485900  0.267000  1.0  0.13
  H  H27  1  0.014400  0.091800  0.330400  1.0  0.1076
  H  H28  1  0.780800  0.106100  0.336000  1.0  0.1094
  H  H29  1  0.907700  0.290700  0.660300  1.0  0.1137
  H  H30  1  0.136500  0.287000  0.608900  1.0  0.1151
  H  H31  1  0.057600  0.016700  0.814100  1.0  0.1193
  H  H32  1  0.175800  0.985900  0.233000  1.0  0.1307
  C  C33  1  0.076400  0.349100  0.912300  1.0  -0.0585
  C  C34  1  0.983500  0.380400  0.866200  1.0  -0.0676
  C  C35  1  0.843200  0.372100  0.871000  1.0  -0.0432
  C  C36  1  0.795000  0.333400  0.924800  1.0  -0.0297
  C  C37  1  0.888400  0.301560  0.984200  1.0  0.0578
  C  C38  1  0.845000  0.263800  0.060000  1.0  -0.0458
  C  C39  1  0.937000  0.233100  0.107400  1.0  -0.0901
  C  C40  1  0.075100  0.236100  0.079400  1.0  -0.0448
  C  C41  1  0.122300  0.271680  0.010400  1.0  -0.0709
  C  C42  1  0.031900  0.307160  0.967400  1.0  0.059
  C  C43  1  0.219300  0.365840  0.920000  1.0  0.6619
  C  C44  1  0.647900  0.322500  0.901700  1.0  0.7202
  C  C45  1  0.704200  0.261500  0.106000  1.0  0.6737
  C  C46  1  0.268200  0.267430  0.969700  1.0  0.7416
  C  C47  1  0.026200  0.486600  0.230400  1.0  -0.0529
  C  C48  1  0.118200  0.489400  0.140200  1.0  -0.0344
  C  C49  1  0.263500  0.477000  0.173100  1.0  0.7244
  C  C50  1  0.071400  0.498780  0.014000  1.0  0.0437
  C  C51  1  0.161500  0.506400  0.917000  1.0  -0.0377
  C  C52  1  0.311200  0.514600  0.941000  1.0  0.7024
  C  C53  1  0.113600  0.511600  0.797600  1.0  -0.0507
  C  C54  1  0.923600  0.849100  0.587700  1.0  -0.0586
  C  C55  1  0.016500  0.880400  0.633800  1.0  -0.0686
  C  C56  1  0.156800  0.872100  0.629000  1.0  -0.044
  C  C57  1  0.205000  0.833400  0.575200  1.0  -0.0302
  C  C58  1  0.111600  0.801560  0.515800  1.0  0.0569
  C  C59  1  0.155000  0.763800  0.440000  1.0  -0.0453
  C  C60  1  0.063000  0.733100  0.392600  1.0  -0.0905
  C  C61  1  0.924900  0.736100  0.420600  1.0  -0.0442
  C  C62  1  0.877700  0.771680  0.489600  1.0  -0.0713
  C  C63  1  0.968100  0.807160  0.532600  1.0  0.0579
  C  C64  1  0.780700  0.865840  0.580000  1.0  0.6609
  C  C65  1  0.352100  0.822500  0.598300  1.0  0.7185
  C  C66  1  0.295800  0.761500  0.394000  1.0  0.6728
  C  C67  1  0.731800  0.767430  0.530300  1.0  0.7425
  C  C68  1  0.973800  0.986600  0.269600  1.0  -0.0516
  C  C69  1  0.881800  0.989400  0.359800  1.0  -0.0388
  C  C70  1  0.736500  0.977000  0.326900  1.0  0.7242
  C  C71  1  0.928600  0.998780  0.486000  1.0  0.0442
  C  C72  1  0.838500  0.006400  0.583000  1.0  -0.0387
  C  C73  1  0.688800  0.014600  0.559000  1.0  0.7025
  C  C74  1  0.886400  0.011600  0.702400  1.0  -0.0499
  C  C75  1  0.923600  0.650900  0.087700  1.0  -0.058
  C  C76  1  0.016500  0.619600  0.133800  1.0  -0.0693
  C  C77  1  0.156800  0.627900  0.129000  1.0  -0.044
  C  C78  1  0.205000  0.666667  0.075200  1.0  -0.031
  C  C79  1  0.111600  0.698440  0.015800  1.0  0.0576
  C  C80  1  0.155000  0.736200  0.940000  1.0  -0.0453
  C  C81  1  0.063000  0.766900  0.892600  1.0  -0.0902
  C  C82  1  0.924900  0.763900  0.920600  1.0  -0.0446
  C  C83  1  0.877700  0.728320  0.989600  1.0  -0.071
  C  C84  1  0.968100  0.692840  0.032600  1.0  0.058
  C  C85  1  0.780700  0.634160  0.080000  1.0  0.6608
  C  C86  1  0.352100  0.677500  0.098300  1.0  0.7175
  C  C87  1  0.295800  0.738500  0.894000  1.0  0.6729
  C  C88  1  0.731800  0.732570  0.030300  1.0  0.7419
  C  C89  1  0.973800  0.513400  0.769600  1.0  -0.0535
  C  C90  1  0.881800  0.510600  0.859800  1.0  -0.038
  C  C91  1  0.736500  0.523000  0.826900  1.0  0.7238
  C  C92  1  0.928600  0.501220  0.986000  1.0  0.0443
  C  C93  1  0.838500  0.493600  0.083000  1.0  -0.0385
  C  C94  1  0.688800  0.485400  0.059000  1.0  0.7037
  C  C95  1  0.886400  0.488400  0.202400  1.0  -0.0505
  C  C96  1  0.076400  0.150900  0.412300  1.0  -0.0578
  C  C97  1  0.983500  0.119600  0.366200  1.0  -0.0671
  C  C98  1  0.843200  0.127900  0.371000  1.0  -0.0428
  C  C99  1  0.795000  0.166600  0.424800  1.0  -0.0297
  C  C100  1  0.888400  0.198440  0.484200  1.0  0.0577
  C  C101  1  0.845000  0.236200  0.560000  1.0  -0.046
  C  C102  1  0.937000  0.266900  0.607400  1.0  -0.0907
  C  C103  1  0.075100  0.263900  0.579400  1.0  -0.0451
  C  C104  1  0.122300  0.228320  0.510400  1.0  -0.071
  C  C105  1  0.031900  0.192840  0.467400  1.0  0.0592
  C  C106  1  0.219300  0.134160  0.420000  1.0  0.6615
  C  C107  1  0.647900  0.177500  0.401700  1.0  0.7201
  C  C108  1  0.704200  0.238500  0.606000  1.0  0.6739
  C  C109  1  0.268200  0.232570  0.469700  1.0  0.7418
  C  C110  1  0.026200  0.013400  0.730400  1.0  -0.0536
  C  C111  1  0.118200  0.010600  0.640200  1.0  -0.0342
  C  C112  1  0.263500  0.023000  0.673100  1.0  0.7244
  C  C113  1  0.071400  0.001220  0.514000  1.0  0.0438
  C  C114  1  0.161500  0.993600  0.417000  1.0  -0.0367
  C  C115  1  0.311200  0.985400  0.441000  1.0  0.7033
  C  C116  1  0.113600  0.988400  0.297600  1.0  -0.0505
  O  O117  1  0.264400  0.390640  0.833500  1.0  -0.6238
  O  O118  1  0.293000  0.358510  0.015200  1.0  -0.6074
  O  O119  1  0.563400  0.354130  0.903900  1.0  -0.7216
  O  O120  1  0.617300  0.281820  0.871200  1.0  -0.6659
  O  O121  1  0.646600  0.296730  0.147600  1.0  -0.6314
  O  O122  1  0.646200  0.222350  0.112600  1.0  -0.6209
  O  O123  1  0.288200  0.272960  0.857800  1.0  -0.6595
  O  O124  1  0.357500  0.255340  0.049200  1.0  -0.7271
  O  O125  1  0.315500  0.491000  0.275000  1.0  -0.4495
  O  O126  1  0.322100  0.450160  0.101600  1.0  -0.6993
  O  O127  1  0.340000  0.546270  0.015200  1.0  -0.594
  O  O128  1  0.395000  0.490900  0.883900  1.0  -0.6345
  O  O129  1  0.735600  0.890640  0.666500  1.0  -0.6264
  O  O130  1  0.707000  0.858510  0.484800  1.0  -0.6055
  O  O131  1  0.436600  0.854130  0.596100  1.0  -0.7223
  O  O132  1  0.382700  0.781820  0.628800  1.0  -0.665
  O  O133  1  0.353400  0.796730  0.352400  1.0  -0.6313
  O  O134  1  0.353800  0.722350  0.387400  1.0  -0.622
  O  O135  1  0.711800  0.772960  0.642200  1.0  -0.6619
  O  O136  1  0.642500  0.755340  0.450800  1.0  -0.7269
  O  O137  1  0.684500  0.991000  0.225000  1.0  -0.4525
  O  O138  1  0.677900  0.950160  0.398400  1.0  -0.6984
  O  O139  1  0.660000  0.046270  0.484800  1.0  -0.5949
  O  O140  1  0.605000  0.990900  0.616100  1.0  -0.6317
  O  O141  1  0.735600  0.609360  0.166500  1.0  -0.6262
  O  O142  1  0.707000  0.641490  0.984800  1.0  -0.6052
  O  O143  1  0.436600  0.645870  0.096100  1.0  -0.7234
  O  O144  1  0.382700  0.718180  0.128800  1.0  -0.6652
  O  O145  1  0.353400  0.703270  0.852400  1.0  -0.63
  O  O146  1  0.353800  0.777650  0.887400  1.0  -0.619
  O  O147  1  0.711800  0.727040  0.142200  1.0  -0.6626
  O  O148  1  0.642500  0.744660  0.950800  1.0  -0.7257
  O  O149  1  0.684500  0.509000  0.725000  1.0  -0.452
  O  O150  1  0.677900  0.549840  0.898400  1.0  -0.698
  O  O151  1  0.660000  0.453730  0.984800  1.0  -0.595
  O  O152  1  0.605000  0.509100  0.116100  1.0  -0.6308
  O  O153  1  0.264400  0.109360  0.333500  1.0  -0.624
  O  O154  1  0.293000  0.141490  0.515200  1.0  -0.6072
  O  O155  1  0.563400  0.145870  0.403900  1.0  -0.7235
  O  O156  1  0.617300  0.218180  0.371200  1.0  -0.6662
  O  O157  1  0.646600  0.203270  0.647600  1.0  -0.6308
  O  O158  1  0.646200  0.277650  0.612600  1.0  -0.6202
  O  O159  1  0.288200  0.227040  0.357800  1.0  -0.6596
  O  O160  1  0.357500  0.244660  0.549200  1.0  -0.7271
  O  O161  1  0.315500  0.009000  0.775000  1.0  -0.4486
  O  O162  1  0.322100  0.049840  0.601600  1.0  -0.6979
  O  O163  1  0.340000  0.953730  0.515200  1.0  -0.594
  O  O164  1  0.395000  0.009100  0.383900  1.0  -0.6329
