# generated using pymatgen
data_MnCu(C2N3)4
_symmetry_space_group_name_H-M   'P 1'
_cell_length_a   31.95100000
_cell_length_b   10.63600000
_cell_length_c   12.36800000
_cell_angle_alpha   90.00000000
_cell_angle_beta   96.03000000
_cell_angle_gamma   90.00000000
_symmetry_Int_Tables_number   1
_chemical_formula_structural   MnCu(C2N3)4
_chemical_formula_sum   'Mn4 Cu4 C32 N48'
_cell_volume   4179.77254492
_cell_formula_units_Z   4
loop_
 _symmetry_equiv_pos_site_id
 _symmetry_equiv_pos_as_xyz
  1  'x, y, z'
loop_
 _atom_site_type_symbol
 _atom_site_label
 _atom_site_symmetry_multiplicity
 _atom_site_fract_x
 _atom_site_fract_y
 _atom_site_fract_z
 _atom_site_occupancy
 _atom_site_charge
  Mn  Mn1  1  0.249580  0.248250  0.499410  1.0  0.7497
  Mn  Mn2  1  0.250420  0.748250  0.000590  1.0  0.7489
  Mn  Mn3  1  0.750420  0.751750  0.500590  1.0  0.7488
  Mn  Mn4  1  0.749580  0.251750  0.999410  1.0  0.7496
  Cu  Cu5  1  0.995770  0.257090  0.285610  1.0  0.4313
  Cu  Cu6  1  0.504230  0.757090  0.214390  1.0  0.4293
  Cu  Cu7  1  0.004230  0.742910  0.714390  1.0  0.4319
  Cu  Cu8  1  0.495770  0.242910  0.785610  1.0  0.4291
  C  C9  1  0.074500  0.254700  0.434900  1.0  0.5354
  C  C10  1  0.144900  0.243900  0.485200  1.0  0.5049
  C  C11  1  0.353200  0.250900  0.538100  1.0  0.5983
  C  C12  1  0.420500  0.238400  0.626100  1.0  0.5756
  C  C13  1  0.254600  0.952100  0.412500  1.0  0.5207
  C  C14  1  0.249800  0.543100  0.590200  1.0  0.6108
  C  C15  1  0.253200  0.669500  0.737600  1.0  0.5598
  C  C16  1  0.251400  0.823600  0.266200  1.0  0.578
  C  C17  1  0.425500  0.754700  0.065100  1.0  0.537
  C  C18  1  0.355100  0.743900  0.014800  1.0  0.5037
  C  C19  1  0.146800  0.750900  0.961900  1.0  0.5989
  C  C20  1  0.079500  0.738400  0.873900  1.0  0.5755
  C  C21  1  0.245400  0.452100  0.087500  1.0  0.5214
  C  C22  1  0.250200  0.043100  0.909800  1.0  0.6112
  C  C23  1  0.246800  0.169500  0.762400  1.0  0.5596
  C  C24  1  0.248600  0.323600  0.233800  1.0  0.5779
  C  C25  1  0.925500  0.745300  0.565100  1.0  0.537
  C  C26  1  0.855100  0.756100  0.514800  1.0  0.5037
  C  C27  1  0.646800  0.749100  0.461900  1.0  0.599
  C  C28  1  0.579500  0.761600  0.373900  1.0  0.5751
  C  C29  1  0.745400  0.047900  0.587500  1.0  0.5202
  C  C30  1  0.750200  0.456900  0.409800  1.0  0.6107
  C  C31  1  0.746800  0.330500  0.262400  1.0  0.5595
  C  C32  1  0.748600  0.176400  0.733800  1.0  0.578
  C  C33  1  0.574500  0.245300  0.934900  1.0  0.5354
  C  C34  1  0.644900  0.256100  0.985200  1.0  0.5048
  C  C35  1  0.853200  0.249100  0.038100  1.0  0.5982
  C  C36  1  0.920500  0.261600  0.126100  1.0  0.5765
  C  C37  1  0.754600  0.547900  0.912500  1.0  0.5211
  C  C38  1  0.749800  0.956900  0.090200  1.0  0.6103
  C  C39  1  0.753200  0.830500  0.237600  1.0  0.5598
  C  C40  1  0.751400  0.676400  0.766200  1.0  0.5783
  N  N41  1  0.043540  0.254100  0.380900  1.0  -0.4252
  N  N42  1  0.106400  0.258000  0.505200  1.0  -0.4292
  N  N43  1  0.180780  0.232800  0.480200  1.0  -0.4946
  N  N44  1  0.318300  0.260700  0.520900  1.0  -0.4455
  N  N45  1  0.392900  0.237100  0.542200  1.0  -0.4064
  N  N46  1  0.448400  0.240300  0.689800  1.0  -0.4176
  N  N47  1  0.250600  0.837700  0.369700  1.0  -0.5864
  N  N48  1  0.256600  0.044100  0.455600  1.0  -0.4988
  N  N49  1  0.245800  0.451100  0.542500  1.0  -0.4913
  N  N50  1  0.257000  0.652800  0.634500  1.0  -0.5585
  N  N51  1  0.250840  0.698600  0.825400  1.0  -0.4391
  N  N52  1  0.251000  0.797000  0.176200  1.0  -0.4726
  N  N53  1  0.456460  0.754100  0.119100  1.0  -0.4249
  N  N54  1  0.393600  0.758000  0.994800  1.0  -0.4284
  N  N55  1  0.319220  0.732800  0.019800  1.0  -0.4941
  N  N56  1  0.181700  0.760700  0.979100  1.0  -0.444
  N  N57  1  0.107100  0.737100  0.957800  1.0  -0.4196
  N  N58  1  0.051600  0.740300  0.810200  1.0  -0.4077
  N  N59  1  0.249400  0.337700  0.130300  1.0  -0.5866
  N  N60  1  0.243400  0.544100  0.044400  1.0  -0.4977
  N  N61  1  0.254200  0.951100  0.957500  1.0  -0.4898
  N  N62  1  0.243000  0.152800  0.865500  1.0  -0.5597
  N  N63  1  0.249160  0.198600  0.674600  1.0  -0.4368
  N  N64  1  0.249000  0.297000  0.323800  1.0  -0.4724
  N  N65  1  0.956460  0.745900  0.619100  1.0  -0.4248
  N  N66  1  0.893600  0.742000  0.494800  1.0  -0.4295
  N  N67  1  0.819220  0.767200  0.519800  1.0  -0.4938
  N  N68  1  0.681700  0.739300  0.479100  1.0  -0.4444
  N  N69  1  0.607100  0.762900  0.457800  1.0  -0.407
  N  N70  1  0.551600  0.759700  0.310200  1.0  -0.4196
  N  N71  1  0.749400  0.162300  0.630300  1.0  -0.5876
  N  N72  1  0.743400  0.955900  0.544400  1.0  -0.4996
  N  N73  1  0.754200  0.548900  0.457500  1.0  -0.4907
  N  N74  1  0.743000  0.347200  0.365500  1.0  -0.5576
  N  N75  1  0.749160  0.301400  0.174600  1.0  -0.4376
  N  N76  1  0.749000  0.203000  0.823800  1.0  -0.4732
  N  N77  1  0.543540  0.245900  0.880900  1.0  -0.4252
  N  N78  1  0.606400  0.242000  0.005200  1.0  -0.4291
  N  N79  1  0.680780  0.267200  0.980200  1.0  -0.4953
  N  N80  1  0.818300  0.239300  0.020900  1.0  -0.4456
  N  N81  1  0.892900  0.262900  0.042200  1.0  -0.4191
  N  N82  1  0.948400  0.259700  0.189800  1.0  -0.4058
  N  N83  1  0.750600  0.662300  0.869700  1.0  -0.588
  N  N84  1  0.756600  0.455900  0.955600  1.0  -0.4963
  N  N85  1  0.745800  0.048900  0.042500  1.0  -0.4907
  N  N86  1  0.757000  0.847200  0.134500  1.0  -0.5572
  N  N87  1  0.750840  0.801400  0.325400  1.0  -0.4385
  N  N88  1  0.751000  0.703000  0.676200  1.0  -0.472
