# generated using pymatgen
data_MnCu(C2N3)4
_symmetry_space_group_name_H-M   'P 1'
_cell_length_a   31.93600000
_cell_length_b   10.66400000
_cell_length_c   12.36100000
_cell_angle_alpha   90.00000000
_cell_angle_beta   96.20000000
_cell_angle_gamma   90.00000000
_symmetry_Int_Tables_number   1
_chemical_formula_structural   MnCu(C2N3)4
_chemical_formula_sum   'Mn4 Cu4 C32 N48'
_cell_volume   4185.10733137
_cell_formula_units_Z   4
loop_
 _symmetry_equiv_pos_site_id
 _symmetry_equiv_pos_as_xyz
  1  'x, y, z'
loop_
 _atom_site_type_symbol
 _atom_site_label
 _atom_site_symmetry_multiplicity
 _atom_site_fract_x
 _atom_site_fract_y
 _atom_site_fract_z
 _atom_site_occupancy
 _atom_site_charge
  Mn  Mn1  1  0.249530  0.250100  0.499580  1.0  0.7708
  Mn  Mn2  1  0.250470  0.750100  0.000420  1.0  0.7701
  Mn  Mn3  1  0.750470  0.749900  0.500420  1.0  0.7699
  Mn  Mn4  1  0.749530  0.249900  0.999580  1.0  0.7707
  Cu  Cu5  1  0.995650  0.257380  0.284980  1.0  0.4513
  Cu  Cu6  1  0.504350  0.757380  0.215020  1.0  0.4406
  Cu  Cu7  1  0.004350  0.742620  0.715020  1.0  0.4516
  Cu  Cu8  1  0.495650  0.242620  0.784980  1.0  0.4405
  C  C9  1  0.074500  0.254600  0.434500  1.0  0.5128
  C  C10  1  0.145100  0.245100  0.484700  1.0  0.5743
  C  C11  1  0.352600  0.252000  0.538400  1.0  0.5752
  C  C12  1  0.420100  0.239700  0.626700  1.0  0.5646
  C  C13  1  0.255300  0.956100  0.410900  1.0  0.54
  C  C14  1  0.250500  0.544000  0.590500  1.0  0.5985
  C  C15  1  0.252700  0.671300  0.738300  1.0  0.5198
  C  C16  1  0.251800  0.827000  0.265200  1.0  0.5601
  C  C17  1  0.425500  0.754600  0.065500  1.0  0.5138
  C  C18  1  0.354900  0.745100  0.015300  1.0  0.5745
  C  C19  1  0.147400  0.752000  0.961600  1.0  0.5754
  C  C20  1  0.079900  0.739700  0.873300  1.0  0.5671
  C  C21  1  0.244700  0.456100  0.089100  1.0  0.5398
  C  C22  1  0.249500  0.044000  0.909500  1.0  0.5998
  C  C23  1  0.247300  0.171300  0.761700  1.0  0.5202
  C  C24  1  0.248200  0.327000  0.234800  1.0  0.5607
  C  C25  1  0.925500  0.745400  0.565500  1.0  0.5137
  C  C26  1  0.854900  0.754900  0.515300  1.0  0.575
  C  C27  1  0.647400  0.748000  0.461600  1.0  0.575
  C  C28  1  0.579900  0.760300  0.373300  1.0  0.5635
  C  C29  1  0.744700  0.043900  0.589100  1.0  0.5395
  C  C30  1  0.749500  0.456000  0.409500  1.0  0.5984
  C  C31  1  0.747300  0.328700  0.261700  1.0  0.5201
  C  C32  1  0.748200  0.173000  0.734800  1.0  0.5608
  C  C33  1  0.574500  0.245400  0.934500  1.0  0.5128
  C  C34  1  0.645100  0.254900  0.984700  1.0  0.5739
  C  C35  1  0.852600  0.248000  0.038400  1.0  0.5756
  C  C36  1  0.920100  0.260300  0.126700  1.0  0.5681
  C  C37  1  0.755300  0.543900  0.910900  1.0  0.5407
  C  C38  1  0.750500  0.956000  0.090500  1.0  0.5993
  C  C39  1  0.752700  0.828700  0.238300  1.0  0.5199
  C  C40  1  0.751800  0.673000  0.765200  1.0  0.5604
  N  N41  1  0.043100  0.254100  0.380000  1.0  -0.4568
  N  N42  1  0.106180  0.255800  0.503400  1.0  -0.4101
  N  N43  1  0.180400  0.235200  0.479900  1.0  -0.4711
  N  N44  1  0.318000  0.261500  0.521600  1.0  -0.4366
  N  N45  1  0.392600  0.237700  0.543300  1.0  -0.4185
  N  N46  1  0.448600  0.240200  0.690000  1.0  -0.3974
  N  N47  1  0.250500  0.842900  0.369000  1.0  -0.5966
  N  N48  1  0.256200  0.047600  0.455400  1.0  -0.4989
  N  N49  1  0.246100  0.451500  0.544000  1.0  -0.4927
  N  N50  1  0.256300  0.653700  0.635200  1.0  -0.5543
  N  N51  1  0.251100  0.699800  0.825600  1.0  -0.4764
  N  N52  1  0.251200  0.799400  0.175200  1.0  -0.4531
  N  N53  1  0.456900  0.754100  0.120000  1.0  -0.4557
  N  N54  1  0.393820  0.755800  0.996600  1.0  -0.4095
  N  N55  1  0.319600  0.735200  0.020100  1.0  -0.4733
  N  N56  1  0.182000  0.761500  0.978400  1.0  -0.4376
  N  N57  1  0.107400  0.737700  0.956700  1.0  -0.427
  N  N58  1  0.051400  0.740200  0.810000  1.0  -0.3915
  N  N59  1  0.249500  0.342900  0.131000  1.0  -0.5974
  N  N60  1  0.243800  0.547600  0.044600  1.0  -0.4991
  N  N61  1  0.253900  0.951500  0.956000  1.0  -0.4915
  N  N62  1  0.243700  0.153700  0.864800  1.0  -0.5553
  N  N63  1  0.248900  0.199800  0.674400  1.0  -0.4769
  N  N64  1  0.248800  0.299400  0.324800  1.0  -0.453
  N  N65  1  0.956900  0.745900  0.620000  1.0  -0.4557
  N  N66  1  0.893820  0.744200  0.496600  1.0  -0.4101
  N  N67  1  0.819600  0.764800  0.520100  1.0  -0.4729
  N  N68  1  0.682000  0.738500  0.478400  1.0  -0.4378
  N  N69  1  0.607400  0.762300  0.456700  1.0  -0.4192
  N  N70  1  0.551400  0.759800  0.310000  1.0  -0.3997
  N  N71  1  0.749500  0.157100  0.631000  1.0  -0.5976
  N  N72  1  0.743800  0.952400  0.544600  1.0  -0.5005
  N  N73  1  0.753900  0.548500  0.456000  1.0  -0.4918
  N  N74  1  0.743700  0.346300  0.364800  1.0  -0.5529
  N  N75  1  0.748900  0.300200  0.174400  1.0  -0.477
  N  N76  1  0.748800  0.200600  0.824800  1.0  -0.4539
  N  N77  1  0.543100  0.245900  0.880000  1.0  -0.4567
  N  N78  1  0.606180  0.244200  0.003400  1.0  -0.4099
  N  N79  1  0.680400  0.264800  0.979900  1.0  -0.4719
  N  N80  1  0.818000  0.238500  0.021600  1.0  -0.4366
  N  N81  1  0.892600  0.262300  0.043300  1.0  -0.4259
  N  N82  1  0.948600  0.259800  0.190000  1.0  -0.3891
  N  N83  1  0.750500  0.657100  0.869000  1.0  -0.598
  N  N84  1  0.756200  0.452400  0.955400  1.0  -0.4978
  N  N85  1  0.746100  0.048500  0.044000  1.0  -0.4923
  N  N86  1  0.756300  0.846300  0.135200  1.0  -0.5523
  N  N87  1  0.751100  0.800200  0.325600  1.0  -0.4766
  N  N88  1  0.751200  0.700600  0.675200  1.0  -0.4524
