# generated using pymatgen
data_Si2AgH32(C13N2)2
_symmetry_space_group_name_H-M   'P 1'
_cell_length_a   17.63520000
_cell_length_b   18.55550000
_cell_length_c   20.33110000
_cell_angle_alpha   90.00000000
_cell_angle_beta   90.00000000
_cell_angle_gamma   90.00000000
_symmetry_Int_Tables_number   1
_chemical_formula_structural   Si2AgH32(C13N2)2
_chemical_formula_sum   'Si16 Ag8 H256 C208 N32'
_cell_volume   6652.94490964
_cell_formula_units_Z   8
loop_
 _symmetry_equiv_pos_site_id
 _symmetry_equiv_pos_as_xyz
  1  'x, y, z'
loop_
 _atom_site_type_symbol
 _atom_site_label
 _atom_site_symmetry_multiplicity
 _atom_site_fract_x
 _atom_site_fract_y
 _atom_site_fract_z
 _atom_site_occupancy
 _atom_site_charge
  Si  Si1  1  0.463350  0.679840  0.581760  1.0  0.9593
  Si  Si2  1  0.928500  0.825840  0.866050  1.0  0.9865
  Si  Si3  1  0.036650  0.320160  0.081760  1.0  0.9581
  Si  Si4  1  0.571500  0.174160  0.366050  1.0  0.9851
  Si  Si5  1  0.536650  0.179840  0.918240  1.0  0.9604
  Si  Si6  1  0.071500  0.325840  0.633950  1.0  0.9859
  Si  Si7  1  0.963350  0.820160  0.418240  1.0  0.9595
  Si  Si8  1  0.428500  0.674160  0.133950  1.0  0.9849
  Si  Si9  1  0.860960  0.497690  0.859600  1.0  0.9299
  Si  Si10  1  0.535620  0.024060  0.641140  1.0  0.9236
  Si  Si11  1  0.639040  0.502310  0.359600  1.0  0.9306
  Si  Si12  1  0.964380  0.975940  0.141140  1.0  0.9241
  Si  Si13  1  0.139040  0.997690  0.640400  1.0  0.9297
  Si  Si14  1  0.464380  0.524060  0.858860  1.0  0.9237
  Si  Si15  1  0.360960  0.002310  0.140400  1.0  0.9304
  Si  Si16  1  0.035620  0.475940  0.358860  1.0  0.9233
  Ag  Ag17  1  0.322770  0.874050  0.852220  1.0  0.3057
  Ag  Ag18  1  0.177230  0.125950  0.352220  1.0  0.305
  Ag  Ag19  1  0.677230  0.374050  0.647780  1.0  0.306
  Ag  Ag20  1  0.822770  0.625950  0.147780  1.0  0.3054
  Ag  Ag21  1  0.837880  0.119890  0.845550  1.0  0.3627
  Ag  Ag22  1  0.662120  0.880110  0.345550  1.0  0.3628
  Ag  Ag23  1  0.162120  0.619890  0.654450  1.0  0.3628
  Ag  Ag24  1  0.337880  0.380110  0.154450  1.0  0.3632
  H  H25  1  0.512700  0.425700  0.623300  1.0  0.0526
  H  H26  1  0.439900  0.524100  0.594700  1.0  0.0959
  H  H27  1  0.618600  0.649900  0.629500  1.0  0.0814
  H  H28  1  0.687100  0.548600  0.659200  1.0  0.0526
  H  H29  1  0.358100  0.610800  0.543100  1.0  0.1173
  H  H30  1  0.352300  0.691600  0.515500  1.0  0.1102
  H  H31  1  0.384500  0.610700  0.426800  1.0  0.0974
  H  H32  1  0.459000  0.585800  0.465700  1.0  0.1025
  H  H33  1  0.452700  0.666300  0.437900  1.0  0.0988
  H  H34  1  0.499900  0.788900  0.529500  1.0  0.1148
  H  H35  1  0.554400  0.724800  0.506100  1.0  0.1031
  H  H36  1  0.566800  0.761500  0.576500  1.0  0.1126
  H  H37  1  0.327700  0.764600  0.612600  1.0  0.0791
  H  H38  1  0.281700  0.826400  0.701900  1.0  0.039
  H  H39  1  0.452900  0.763000  0.809100  1.0  0.0523
  H  H40  1  0.503400  0.701200  0.722900  1.0  0.0795
  H  H41  1  0.195500  0.757600  0.855000  1.0  0.0557
  H  H42  1  0.067100  0.736700  0.857000  1.0  0.0912
  H  H43  1  0.035600  0.951400  0.874100  1.0  0.0771
  H  H44  1  0.163800  0.966000  0.868900  1.0  0.0626
  H  H45  1  0.939500  0.732100  0.787900  1.0  0.1123
  H  H46  1  0.852000  0.747400  0.802900  1.0  0.1194
  H  H47  1  0.881100  0.782600  0.694100  1.0  0.0964
  H  H48  1  0.944500  0.837000  0.720900  1.0  0.0946
  H  H49  1  0.856800  0.852100  0.735800  1.0  0.0936
  H  H50  1  0.888200  0.940500  0.827000  1.0  0.1018
  H  H51  1  0.892400  0.941500  0.905700  1.0  0.1078
  H  H52  1  0.821900  0.904300  0.869500  1.0  0.1118
  H  H53  1  0.009500  0.751600  0.976000  1.0  0.063
  H  H54  1  0.973600  0.693100  0.070600  1.0  0.053
  H  H55  1  0.761500  0.714800  0.024900  1.0  0.0452
  H  H56  1  0.789900  0.776300  0.930500  1.0  0.1008
  H  H57  1  0.987300  0.574300  0.123300  1.0  0.0529
  H  H58  1  0.060100  0.475900  0.094700  1.0  0.0959
  H  H59  1  0.881400  0.350100  0.129500  1.0  0.081
  H  H60  1  0.812900  0.451400  0.159200  1.0  0.0531
  H  H61  1  0.141900  0.389200  0.043100  1.0  0.1154
  H  H62  1  0.147700  0.308400  0.015500  1.0  0.1109
  H  H63  1  0.115500  0.389300  0.926800  1.0  0.097
  H  H64  1  0.041000  0.414200  0.965700  1.0  0.1044
  H  H65  1  0.047300  0.333700  0.937900  1.0  0.0985
  H  H66  1  0.000100  0.211100  0.029500  1.0  0.1147
  H  H67  1  0.945600  0.275200  0.006100  1.0  0.1032
  H  H68  1  0.933200  0.238500  0.076500  1.0  0.1135
  H  H69  1  0.172300  0.235400  0.112600  1.0  0.0793
  H  H70  1  0.218300  0.173600  0.201900  1.0  0.0386
  H  H71  1  0.047100  0.237000  0.309100  1.0  0.053
  H  H72  1  0.996600  0.298800  0.222900  1.0  0.0793
  H  H73  1  0.304500  0.242400  0.355000  1.0  0.0556
  H  H74  1  0.432900  0.263300  0.357000  1.0  0.0918
  H  H75  1  0.464400  0.048600  0.374100  1.0  0.0771
  H  H76  1  0.336200  0.034000  0.368900  1.0  0.0628
  H  H77  1  0.560500  0.267900  0.287900  1.0  0.1123
  H  H78  1  0.648000  0.252600  0.302900  1.0  0.1183
  H  H79  1  0.618900  0.217400  0.194100  1.0  0.0964
  H  H80  1  0.555500  0.163000  0.220900  1.0  0.0956
  H  H81  1  0.643200  0.147900  0.235800  1.0  0.0942
  H  H82  1  0.611800  0.059500  0.327000  1.0  0.103
  H  H83  1  0.607600  0.058500  0.405700  1.0  0.1079
  H  H84  1  0.678100  0.095700  0.369500  1.0  0.1113
  H  H85  1  0.490500  0.248400  0.476000  1.0  0.0627
  H  H86  1  0.526400  0.306900  0.570600  1.0  0.0524
  H  H87  1  0.738500  0.285200  0.524900  1.0  0.0455
  H  H88  1  0.710100  0.223700  0.430500  1.0  0.1007
  H  H89  1  0.487300  0.925700  0.876700  1.0  0.0528
  H  H90  1  0.560100  0.024100  0.905300  1.0  0.0954
  H  H91  1  0.381400  0.149900  0.870500  1.0  0.0817
  H  H92  1  0.312900  0.048600  0.840800  1.0  0.0526
  H  H93  1  0.641900  0.110800  0.956900  1.0  0.1165
  H  H94  1  0.647700  0.191600  0.984500  1.0  0.1096
  H  H95  1  0.615500  0.110700  0.073200  1.0  0.0972
  H  H96  1  0.541000  0.085800  0.034300  1.0  0.1044
  H  H97  1  0.547300  0.166300  0.062100  1.0  0.0993
  H  H98  1  0.500100  0.288900  0.970500  1.0  0.1143
  H  H99  1  0.445600  0.224800  0.993900  1.0  0.1049
  H  H100  1  0.433200  0.261500  0.923500  1.0  0.1124
  H  H101  1  0.672300  0.264600  0.887400  1.0  0.0788
  H  H102  1  0.718300  0.326400  0.798100  1.0  0.0382
  H  H103  1  0.547100  0.263000  0.690900  1.0  0.0531
  H  H104  1  0.496600  0.201200  0.777100  1.0  0.0796
  H  H105  1  0.804500  0.257600  0.645000  1.0  0.0553
  H  H106  1  0.932900  0.236700  0.643000  1.0  0.0913
  H  H107  1  0.964400  0.451400  0.625900  1.0  0.0777
  H  H108  1  0.836200  0.466000  0.631100  1.0  0.063
  H  H109  1  0.060500  0.232100  0.712100  1.0  0.113
  H  H110  1  0.148000  0.247400  0.697100  1.0  0.1188
  H  H111  1  0.118900  0.282600  0.805900  1.0  0.0974
  H  H112  1  0.055500  0.337000  0.779100  1.0  0.0949
  H  H113  1  0.143200  0.352100  0.764200  1.0  0.093
  H  H114  1  0.111800  0.440500  0.673000  1.0  0.1022
  H  H115  1  0.107600  0.441500  0.594300  1.0  0.1081
  H  H116  1  0.178100  0.404300  0.630500  1.0  0.1112
  H  H117  1  0.990500  0.251600  0.524000  1.0  0.0621
  H  H118  1  0.026400  0.193100  0.429400  1.0  0.0526
  H  H119  1  0.238500  0.214800  0.475100  1.0  0.0441
  H  H120  1  0.210100  0.276300  0.569500  1.0  0.1008
  H  H121  1  0.012700  0.074300  0.376700  1.0  0.0528
  H  H122  1  0.939900  0.975900  0.405300  1.0  0.096
  H  H123  1  0.118600  0.850100  0.370500  1.0  0.0824
  H  H124  1  0.187100  0.951400  0.340800  1.0  0.0523
  H  H125  1  0.858100  0.889200  0.456900  1.0  0.1171
  H  H126  1  0.852300  0.808400  0.484500  1.0  0.1107
  H  H127  1  0.884500  0.889300  0.573200  1.0  0.0978
  H  H128  1  0.959000  0.914200  0.534300  1.0  0.1022
  H  H129  1  0.952700  0.833700  0.562100  1.0  0.0987
  H  H130  1  0.999900  0.711100  0.470500  1.0  0.1153
  H  H131  1  0.054400  0.775200  0.493900  1.0  0.1047
  H  H132  1  0.066800  0.738500  0.423500  1.0  0.1124
  H  H133  1  0.827700  0.735400  0.387400  1.0  0.0789
  H  H134  1  0.781700  0.673600  0.298100  1.0  0.0388
  H  H135  1  0.952900  0.737000  0.190900  1.0  0.0529
  H  H136  1  0.003400  0.798800  0.277100  1.0  0.0796
  H  H137  1  0.695500  0.742400  0.145000  1.0  0.0554
  H  H138  1  0.567100  0.763300  0.143000  1.0  0.0916
  H  H139  1  0.535600  0.548600  0.125900  1.0  0.077
  H  H140  1  0.663800  0.534000  0.131100  1.0  0.063
  H  H141  1  0.439500  0.767900  0.212100  1.0  0.1115
  H  H142  1  0.352000  0.752600  0.197100  1.0  0.1186
  H  H143  1  0.381100  0.717400  0.305900  1.0  0.098
  H  H144  1  0.444500  0.663000  0.279100  1.0  0.0956
  H  H145  1  0.356800  0.647900  0.264200  1.0  0.0925
  H  H146  1  0.388200  0.559500  0.173000  1.0  0.1034
  H  H147  1  0.392400  0.558500  0.094300  1.0  0.1077
  H  H148  1  0.321900  0.595700  0.130500  1.0  0.1124
  H  H149  1  0.509500  0.748400  0.024000  1.0  0.0628
  H  H150  1  0.473600  0.806900  0.929400  1.0  0.0533
  H  H151  1  0.261500  0.785200  0.975100  1.0  0.0444
  H  H152  1  0.289900  0.723700  0.069500  1.0  0.1006
  H  H153  1  0.809300  0.256700  0.944800  1.0  0.0603
  H  H154  1  0.809700  0.380900  0.947400  1.0  0.0901
  H  H155  1  0.922400  0.380300  0.775500  1.0  0.0637
  H  H156  1  0.917400  0.255400  0.775600  1.0  0.0572
  H  H157  1  0.767400  0.502100  0.770900  1.0  0.1216
  H  H158  1  0.724700  0.488400  0.839300  1.0  0.1101
  H  H159  1  0.694000  0.605600  0.798800  1.0  0.0947
  H  H160  1  0.781800  0.627100  0.798700  1.0  0.0915
  H  H161  1  0.738800  0.613400  0.866800  1.0  0.0922
  H  H162  1  0.924700  0.519300  0.963000  1.0  0.1097
  H  H163  1  0.835600  0.510700  0.975800  1.0  0.1096
  H  H164  1  0.868600  0.584900  0.947600  1.0  0.1058
  H  H165  1  0.027200  0.501400  0.864000  1.0  0.0817
  H  H166  1  0.123400  0.544800  0.799100  1.0  0.0493
  H  H167  1  0.977000  0.623400  0.673500  1.0  0.0576
  H  H168  1  0.878900  0.575600  0.732700  1.0  0.0725
  H  H169  1  0.755200  0.159800  0.716500  1.0  0.0395
  H  H170  1  0.657400  0.131600  0.645800  1.0  0.0908
  H  H171  1  0.602700  0.969500  0.766700  1.0  0.0696
  H  H172  1  0.699900  0.001700  0.835800  1.0  0.0752
  H  H173  1  0.463700  0.129600  0.657500  1.0  0.1287
  H  H174  1  0.524400  0.142500  0.600500  1.0  0.1265
  H  H175  1  0.400600  0.149100  0.556700  1.0  0.0997
  H  H176  1  0.383000  0.068900  0.581500  1.0  0.0974
  H  H177  1  0.443900  0.082000  0.524400  1.0  0.0922
  H  H178  1  0.498900  0.915000  0.692000  1.0  0.1089
  H  H179  1  0.429500  0.946900  0.650500  1.0  0.1022
  H  H180  1  0.449800  0.980200  0.720900  1.0  0.1041
  H  H181  1  0.479800  0.935000  0.533800  1.0  0.0897
  H  H182  1  0.527300  0.887900  0.438900  1.0  0.0591
  H  H183  1  0.729700  0.958800  0.478300  1.0  0.0538
  H  H184  1  0.687700  0.010500  0.575400  1.0  0.0844
  H  H185  1  0.690700  0.743300  0.444800  1.0  0.0608
  H  H186  1  0.690300  0.619100  0.447400  1.0  0.0896
  H  H187  1  0.577600  0.619700  0.275500  1.0  0.0636
  H  H188  1  0.582600  0.744600  0.275600  1.0  0.0573
  H  H189  1  0.732600  0.497900  0.270900  1.0  0.1208
  H  H190  1  0.775300  0.511600  0.339300  1.0  0.1099
  H  H191  1  0.806000  0.394400  0.298800  1.0  0.0939
  H  H192  1  0.718200  0.372900  0.298700  1.0  0.0923
  H  H193  1  0.761200  0.386600  0.366800  1.0  0.0927
  H  H194  1  0.575300  0.480700  0.463000  1.0  0.1096
  H  H195  1  0.664400  0.489300  0.475800  1.0  0.1085
  H  H196  1  0.631400  0.415100  0.447600  1.0  0.1044
  H  H197  1  0.472800  0.498600  0.364000  1.0  0.0823
  H  H198  1  0.376600  0.455200  0.299100  1.0  0.0491
  H  H199  1  0.523000  0.376600  0.173500  1.0  0.0575
  H  H200  1  0.621100  0.424400  0.232700  1.0  0.0723
  H  H201  1  0.744800  0.840200  0.216500  1.0  0.0399
  H  H202  1  0.842600  0.868400  0.145800  1.0  0.0909
  H  H203  1  0.897300  0.030500  0.266700  1.0  0.0705
  H  H204  1  0.800100  0.998300  0.335800  1.0  0.0748
  H  H205  1  0.036300  0.870400  0.157500  1.0  0.1276
  H  H206  1  0.975600  0.857500  0.100500  1.0  0.1274
  H  H207  1  0.099400  0.850900  0.056700  1.0  0.0985
  H  H208  1  0.117000  0.931100  0.081500  1.0  0.0975
  H  H209  1  0.056100  0.918000  0.024400  1.0  0.0919
  H  H210  1  0.001100  0.085000  0.192000  1.0  0.1084
  H  H211  1  0.070500  0.053100  0.150500  1.0  0.102
  H  H212  1  0.050200  0.019800  0.220900  1.0  0.1044
  H  H213  1  0.020200  0.065000  0.033800  1.0  0.0894
  H  H214  1  0.972700  0.112100  0.938900  1.0  0.059
  H  H215  1  0.770300  0.041200  0.978300  1.0  0.0541
  H  H216  1  0.812300  0.989500  0.075400  1.0  0.0843
  H  H217  1  0.190700  0.756700  0.555200  1.0  0.0614
  H  H218  1  0.190300  0.880900  0.552600  1.0  0.0894
  H  H219  1  0.077600  0.880300  0.724500  1.0  0.0639
  H  H220  1  0.082600  0.755400  0.724400  1.0  0.0573
  H  H221  1  0.232600  0.002100  0.729100  1.0  0.12
  H  H222  1  0.275300  0.988400  0.660700  1.0  0.1097
  H  H223  1  0.306000  0.105600  0.701200  1.0  0.0934
  H  H224  1  0.218200  0.127100  0.701300  1.0  0.0919
  H  H225  1  0.261200  0.113400  0.633200  1.0  0.0929
  H  H226  1  0.075300  0.019300  0.537000  1.0  0.1096
  H  H227  1  0.164400  0.010700  0.524200  1.0  0.1099
  H  H228  1  0.131400  0.084900  0.552400  1.0  0.1048
  H  H229  1  0.972800  0.001400  0.636000  1.0  0.0817
  H  H230  1  0.876600  0.044800  0.700900  1.0  0.049
  H  H231  1  0.023000  0.123400  0.826500  1.0  0.0571
  H  H232  1  0.121100  0.075600  0.767300  1.0  0.0725
  H  H233  1  0.244800  0.659800  0.783500  1.0  0.0398
  H  H234  1  0.342600  0.631600  0.854200  1.0  0.0912
  H  H235  1  0.397300  0.469500  0.733300  1.0  0.0702
  H  H236  1  0.300100  0.501700  0.664200  1.0  0.0745
  H  H237  1  0.536300  0.629600  0.842500  1.0  0.129
  H  H238  1  0.475600  0.642500  0.899500  1.0  0.1276
  H  H239  1  0.599400  0.649100  0.943300  1.0  0.0994
  H  H240  1  0.617000  0.568900  0.918500  1.0  0.098
  H  H241  1  0.556100  0.582000  0.975600  1.0  0.0932
  H  H242  1  0.501100  0.415000  0.808000  1.0  0.1084
  H  H243  1  0.570500  0.446900  0.849500  1.0  0.1031
  H  H244  1  0.550200  0.480200  0.779100  1.0  0.103
  H  H245  1  0.520200  0.435000  0.966200  1.0  0.0895
  H  H246  1  0.472700  0.387900  0.061100  1.0  0.0589
  H  H247  1  0.270300  0.458800  0.021700  1.0  0.0535
  H  H248  1  0.312300  0.510500  0.924600  1.0  0.0843
  H  H249  1  0.309300  0.243300  0.055200  1.0  0.0619
  H  H250  1  0.309700  0.119100  0.052600  1.0  0.0899
  H  H251  1  0.422400  0.119700  0.224500  1.0  0.0638
  H  H252  1  0.417400  0.244600  0.224400  1.0  0.0571
  H  H253  1  0.267400  0.997900  0.229100  1.0  0.1208
  H  H254  1  0.224700  0.011600  0.160700  1.0  0.1105
  H  H255  1  0.194000  0.894400  0.201200  1.0  0.0945
  H  H256  1  0.281800  0.872900  0.201300  1.0  0.0917
  H  H257  1  0.238800  0.886600  0.133200  1.0  0.0928
  H  H258  1  0.424700  0.980700  0.037000  1.0  0.1095
  H  H259  1  0.335600  0.989300  0.024200  1.0  0.1097
  H  H260  1  0.368600  0.915100  0.052400  1.0  0.104
  H  H261  1  0.527200  0.998600  0.136000  1.0  0.0808
  H  H262  1  0.623400  0.955200  0.200900  1.0  0.0495
  H  H263  1  0.477000  0.876600  0.326500  1.0  0.0574
  H  H264  1  0.378900  0.924400  0.267300  1.0  0.0729
  H  H265  1  0.255200  0.340200  0.283500  1.0  0.0402
  H  H266  1  0.157400  0.368400  0.354200  1.0  0.0905
  H  H267  1  0.102700  0.530500  0.233300  1.0  0.0703
  H  H268  1  0.199900  0.498300  0.164200  1.0  0.0743
  H  H269  1  0.963700  0.370400  0.342500  1.0  0.1294
  H  H270  1  0.024400  0.357500  0.399500  1.0  0.1272
  H  H271  1  0.900600  0.350900  0.443300  1.0  0.0982
  H  H272  1  0.883000  0.431100  0.418500  1.0  0.098
  H  H273  1  0.943900  0.418000  0.475600  1.0  0.0929
  H  H274  1  0.998900  0.585000  0.308000  1.0  0.1079
  H  H275  1  0.929500  0.553100  0.349500  1.0  0.1026
  H  H276  1  0.949800  0.519800  0.279100  1.0  0.1035
  H  H277  1  0.979800  0.565000  0.466200  1.0  0.0899
  H  H278  1  0.027300  0.612100  0.561100  1.0  0.0585
  H  H279  1  0.229700  0.541200  0.521700  1.0  0.0535
  H  H280  1  0.187700  0.489500  0.424600  1.0  0.0851
  C  C281  1  0.535500  0.472100  0.624600  1.0  0.1475
  C  C282  1  0.491200  0.530800  0.607400  1.0  -0.1694
  C  C283  1  0.521800  0.598800  0.609000  1.0  -0.0946
  C  C284  1  0.594900  0.603900  0.627900  1.0  -0.1067
  C  C285  1  0.636100  0.542800  0.645100  1.0  0.117
  C  C286  1  0.387500  0.651000  0.523700  1.0  -0.1835
  C  C287  1  0.424400  0.626100  0.457300  1.0  -0.3322
  C  C288  1  0.528900  0.746700  0.544000  1.0  -0.6669
  C  C289  1  0.421300  0.723700  0.656300  1.0  -0.2038
  C  C290  1  0.355000  0.763200  0.652800  1.0  -0.1434
  C  C291  1  0.327800  0.800400  0.706600  1.0  0.1316
  C  C292  1  0.426800  0.763900  0.768300  1.0  0.1388
  C  C293  1  0.456900  0.726200  0.716900  1.0  -0.1479
  C  C294  1  0.162400  0.797800  0.858000  1.0  0.1361
  C  C295  1  0.085400  0.784800  0.859400  1.0  -0.1827
  C  C296  1  0.034100  0.842400  0.864400  1.0  -0.1896
  C  C297  1  0.067000  0.910200  0.869000  1.0  -0.1619
  C  C298  1  0.143900  0.918500  0.866400  1.0  0.1277
  C  C299  1  0.901400  0.770700  0.794100  1.0  -0.3381
  C  C300  1  0.895400  0.814500  0.730500  1.0  -0.3303
  C  C301  1  0.876600  0.913400  0.867200  1.0  -0.5775
  C  C302  1  0.905600  0.774300  0.943200  1.0  -0.138
  C  C303  1  0.957000  0.746100  0.985200  1.0  -0.1329
  C  C304  1  0.935300  0.709600  0.041300  1.0  0.1194
  C  C305  1  0.813400  0.722500  0.014900  1.0  0.146
  C  C306  1  0.829500  0.760200  0.958500  1.0  -0.161
  C  C307  1  0.964500  0.527900  0.124600  1.0  0.1473
  C  C308  1  0.008800  0.469200  0.107400  1.0  -0.171
  C  C309  1  0.978200  0.401200  0.109000  1.0  -0.0931
  C  C310  1  0.905100  0.396100  0.127900  1.0  -0.1078
  C  C311  1  0.863900  0.457200  0.145100  1.0  0.116
  C  C312  1  0.112500  0.349000  0.023700  1.0  -0.183
  C  C313  1  0.075600  0.373900  0.957300  1.0  -0.3308
  C  C314  1  0.971100  0.253300  0.044000  1.0  -0.6675
  C  C315  1  0.078700  0.276300  0.156300  1.0  -0.2042
  C  C316  1  0.145000  0.236800  0.152800  1.0  -0.1433
  C  C317  1  0.172200  0.199600  0.206600  1.0  0.1317
  C  C318  1  0.073200  0.236100  0.268300  1.0  0.1392
  C  C319  1  0.043100  0.273800  0.216900  1.0  -0.148
  C  C320  1  0.337600  0.202200  0.358000  1.0  0.1364
  C  C321  1  0.414600  0.215200  0.359400  1.0  -0.1831
  C  C322  1  0.465900  0.157600  0.364400  1.0  -0.1892
  C  C323  1  0.433000  0.089800  0.369000  1.0  -0.1614
  C  C324  1  0.356100  0.081500  0.366400  1.0  0.1281
  C  C325  1  0.598600  0.229300  0.294100  1.0  -0.3366
  C  C326  1  0.604600  0.185500  0.230500  1.0  -0.3307
  C  C327  1  0.623400  0.086600  0.367200  1.0  -0.5821
  C  C328  1  0.594400  0.225700  0.443200  1.0  -0.1378
  C  C329  1  0.543000  0.253900  0.485200  1.0  -0.1311
  C  C330  1  0.564700  0.290400  0.541300  1.0  0.1191
  C  C331  1  0.686600  0.277500  0.514900  1.0  0.1462
  C  C332  1  0.670500  0.239800  0.458500  1.0  -0.1596
  C  C333  1  0.464500  0.972100  0.875400  1.0  0.1474
  C  C334  1  0.508800  0.030800  0.892600  1.0  -0.1704
  C  C335  1  0.478200  0.098800  0.891000  1.0  -0.0931
  C  C336  1  0.405100  0.103900  0.872100  1.0  -0.1071
  C  C337  1  0.363900  0.042800  0.854900  1.0  0.116
  C  C338  1  0.612500  0.151000  0.976300  1.0  -0.182
  C  C339  1  0.575600  0.126100  0.042700  1.0  -0.3299
  C  C340  1  0.471100  0.246700  0.956000  1.0  -0.6676
  C  C341  1  0.578700  0.223700  0.843700  1.0  -0.2041
  C  C342  1  0.645000  0.263200  0.847200  1.0  -0.1427
  C  C343  1  0.672200  0.300400  0.793400  1.0  0.1324
  C  C344  1  0.573200  0.263900  0.731700  1.0  0.1394
  C  C345  1  0.543100  0.226200  0.783100  1.0  -0.1469
  C  C346  1  0.837600  0.297800  0.642000  1.0  0.1363
  C  C347  1  0.914600  0.284800  0.640600  1.0  -0.1826
  C  C348  1  0.965900  0.342400  0.635600  1.0  -0.1889
  C  C349  1  0.933000  0.410200  0.631000  1.0  -0.1624
  C  C350  1  0.856100  0.418500  0.633600  1.0  0.1276
  C  C351  1  0.098600  0.270700  0.705900  1.0  -0.3368
  C  C352  1  0.104600  0.314500  0.769500  1.0  -0.3296
  C  C353  1  0.123400  0.413400  0.632800  1.0  -0.5782
  C  C354  1  0.094400  0.274300  0.556800  1.0  -0.1386
  C  C355  1  0.043000  0.246100  0.514800  1.0  -0.1307
  C  C356  1  0.064700  0.209600  0.458700  1.0  0.1194
  C  C357  1  0.186600  0.222500  0.485100  1.0  0.1454
  C  C358  1  0.170500  0.260200  0.541500  1.0  -0.16
  C  C359  1  0.035500  0.027900  0.375400  1.0  0.1472
  C  C360  1  0.991200  0.969200  0.392600  1.0  -0.1698
  C  C361  1  0.021800  0.901200  0.391000  1.0  -0.0936
  C  C362  1  0.094900  0.896100  0.372100  1.0  -0.1072
  C  C363  1  0.136100  0.957200  0.354900  1.0  0.1164
  C  C364  1  0.887500  0.849000  0.476300  1.0  -0.1823
  C  C365  1  0.924400  0.873900  0.542700  1.0  -0.3309
  C  C366  1  0.028900  0.753300  0.456000  1.0  -0.6673
  C  C367  1  0.921300  0.776300  0.343700  1.0  -0.2041
  C  C368  1  0.855000  0.736800  0.347200  1.0  -0.1425
  C  C369  1  0.827800  0.699600  0.293400  1.0  0.1318
  C  C370  1  0.926800  0.736100  0.231700  1.0  0.1383
  C  C371  1  0.956900  0.773800  0.283100  1.0  -0.1484
  C  C372  1  0.662400  0.702200  0.142000  1.0  0.1354
  C  C373  1  0.585400  0.715200  0.140600  1.0  -0.1844
  C  C374  1  0.534100  0.657600  0.135600  1.0  -0.1898
  C  C375  1  0.567000  0.589800  0.131000  1.0  -0.1619
  C  C376  1  0.643900  0.581500  0.133600  1.0  0.1272
  C  C377  1  0.401400  0.729300  0.205900  1.0  -0.3365
  C  C378  1  0.395400  0.685500  0.269500  1.0  -0.3306
  C  C379  1  0.376600  0.586600  0.132800  1.0  -0.5824
  C  C380  1  0.405600  0.725700  0.056800  1.0  -0.1385
  C  C381  1  0.457000  0.753900  0.014800  1.0  -0.1316
  C  C382  1  0.435300  0.790400  0.958700  1.0  0.1195
  C  C383  1  0.313400  0.777500  0.985100  1.0  0.1457
  C  C384  1  0.329500  0.739800  0.041500  1.0  -0.1599
  C  C385  1  0.831800  0.282100  0.909200  1.0  0.144
  C  C386  1  0.832400  0.356600  0.911300  1.0  -0.1566
  C  C387  1  0.866000  0.396100  0.861100  1.0  -0.287
  C  C388  1  0.898000  0.356100  0.810800  1.0  -0.1125
  C  C389  1  0.894900  0.281100  0.810900  1.0  0.144
  C  C390  1  0.764700  0.517300  0.817600  1.0  -0.3699
  C  C391  1  0.742800  0.598300  0.820700  1.0  -0.3319
  C  C392  1  0.874000  0.532400  0.947100  1.0  -0.8434
  C  C393  1  0.940400  0.533200  0.806400  1.0  -0.1432
  C  C394  1  0.015000  0.525600  0.824200  1.0  -0.1327
  C  C395  1  0.072500  0.552400  0.785300  1.0  0.1289
  C  C396  1  0.988500  0.597000  0.712300  1.0  0.1294
  C  C397  1  0.929200  0.569400  0.748400  1.0  -0.1706
  C  C398  1  0.723200  0.120400  0.727500  1.0  0.1466
  C  C399  1  0.664500  0.103700  0.684500  1.0  -0.1498
  C  C400  1  0.616500  0.047100  0.697800  1.0  -0.2032
  C  C401  1  0.633200  0.009900  0.755400  1.0  -0.0819
  C  C402  1  0.691700  0.028700  0.796700  1.0  0.102
  C  C403  1  0.486000  0.108200  0.617300  1.0  -0.3511
  C  C404  1  0.422600  0.101400  0.565200  1.0  -0.3133
  C  C405  1  0.470800  0.958900  0.680800  1.0  -0.7078
  C  C406  1  0.577100  0.981100  0.565700  1.0  -0.2165
  C  C407  1  0.531900  0.941900  0.523600  1.0  -0.1842
  C  C408  1  0.560900  0.913000  0.467400  1.0  0.1467
  C  C409  1  0.677700  0.953900  0.489700  1.0  0.1309
  C  C410  1  0.652900  0.985700  0.547900  1.0  -0.1436
  C  C411  1  0.668200  0.717900  0.409200  1.0  0.1438
  C  C412  1  0.667600  0.643400  0.411300  1.0  -0.1557
  C  C413  1  0.634000  0.603900  0.361100  1.0  -0.2863
  C  C414  1  0.602000  0.643900  0.310800  1.0  -0.1135
  C  C415  1  0.605100  0.718900  0.310900  1.0  0.1439
  C  C416  1  0.735300  0.482700  0.317600  1.0  -0.3702
  C  C417  1  0.757200  0.401700  0.320700  1.0  -0.3338
  C  C418  1  0.626000  0.467600  0.447100  1.0  -0.8428
  C  C419  1  0.559600  0.466800  0.306400  1.0  -0.1454
  C  C420  1  0.485000  0.474400  0.324200  1.0  -0.1328
  C  C421  1  0.427500  0.447600  0.285300  1.0  0.131
  C  C422  1  0.511500  0.403000  0.212300  1.0  0.1291
  C  C423  1  0.570800  0.430600  0.248400  1.0  -0.1707
  C  C424  1  0.776800  0.879600  0.227500  1.0  0.1455
  C  C425  1  0.835500  0.896300  0.184500  1.0  -0.1494
  C  C426  1  0.883500  0.952900  0.197800  1.0  -0.2055
  C  C427  1  0.866800  0.990100  0.255400  1.0  -0.0821
  C  C428  1  0.808300  0.971300  0.296700  1.0  0.101
  C  C429  1  0.014000  0.891800  0.117300  1.0  -0.3519
  C  C430  1  0.077400  0.898600  0.065200  1.0  -0.3136
  C  C431  1  0.029200  0.041100  0.180800  1.0  -0.707
  C  C432  1  0.922900  0.018900  0.065700  1.0  -0.2162
  C  C433  1  0.968100  0.058100  0.023600  1.0  -0.1847
  C  C434  1  0.939100  0.087000  0.967400  1.0  0.1458
  C  C435  1  0.822300  0.046100  0.989700  1.0  0.1311
  C  C436  1  0.847100  0.014300  0.047900  1.0  -0.1444
  C  C437  1  0.168200  0.782100  0.590800  1.0  0.143
  C  C438  1  0.167600  0.856600  0.588700  1.0  -0.1561
  C  C439  1  0.134000  0.896100  0.638900  1.0  -0.2865
  C  C440  1  0.102000  0.856100  0.689200  1.0  -0.1134
  C  C441  1  0.105100  0.781100  0.689100  1.0  0.1443
  C  C442  1  0.235300  0.017300  0.682400  1.0  -0.3687
  C  C443  1  0.257200  0.098300  0.679300  1.0  -0.3337
  C  C444  1  0.126000  0.032400  0.552900  1.0  -0.8448
  C  C445  1  0.059600  0.033200  0.693600  1.0  -0.1442
  C  C446  1  0.985000  0.025600  0.675800  1.0  -0.1337
  C  C447  1  0.927500  0.052400  0.714700  1.0  0.131
  C  C448  1  0.011500  0.097000  0.787700  1.0  0.1293
  C  C449  1  0.070800  0.069400  0.751600  1.0  -0.17
  C  C450  1  0.276800  0.620400  0.772500  1.0  0.1467
  C  C451  1  0.335500  0.603700  0.815500  1.0  -0.1504
  C  C452  1  0.383500  0.547100  0.802200  1.0  -0.2054
  C  C453  1  0.366800  0.509900  0.744600  1.0  -0.0818
  C  C454  1  0.308300  0.528700  0.703300  1.0  0.1013
  C  C455  1  0.514000  0.608200  0.882700  1.0  -0.3528
  C  C456  1  0.577400  0.601400  0.934800  1.0  -0.3148
  C  C457  1  0.529200  0.458900  0.819200  1.0  -0.7075
  C  C458  1  0.422900  0.481100  0.934300  1.0  -0.2162
  C  C459  1  0.468100  0.441900  0.976400  1.0  -0.1849
  C  C460  1  0.439100  0.413000  0.032600  1.0  0.1473
  C  C461  1  0.322300  0.453900  0.010300  1.0  0.1309
  C  C462  1  0.347100  0.485700  0.952100  1.0  -0.1443
  C  C463  1  0.331800  0.217900  0.090800  1.0  0.1438
  C  C464  1  0.332400  0.143400  0.088700  1.0  -0.1551
  C  C465  1  0.366000  0.103900  0.138900  1.0  -0.2865
  C  C466  1  0.398000  0.143900  0.189200  1.0  -0.1133
  C  C467  1  0.394900  0.218900  0.189100  1.0  0.144
  C  C468  1  0.264700  0.982700  0.182400  1.0  -0.3707
  C  C469  1  0.242800  0.901700  0.179300  1.0  -0.3325
  C  C470  1  0.374000  0.967600  0.052900  1.0  -0.845
  C  C471  1  0.440400  0.966800  0.193600  1.0  -0.1427
  C  C472  1  0.515000  0.974400  0.175800  1.0  -0.1336
  C  C473  1  0.572500  0.947600  0.214700  1.0  0.1297
  C  C474  1  0.488500  0.903000  0.287700  1.0  0.1292
  C  C475  1  0.429200  0.930600  0.251600  1.0  -0.1703
  C  C476  1  0.223200  0.379600  0.272500  1.0  0.1452
  C  C477  1  0.164500  0.396300  0.315500  1.0  -0.1508
  C  C478  1  0.116500  0.452900  0.302200  1.0  -0.2037
  C  C479  1  0.133200  0.490100  0.244600  1.0  -0.0812
  C  C480  1  0.191700  0.471300  0.203300  1.0  0.102
  C  C481  1  0.986000  0.391800  0.382700  1.0  -0.3505
  C  C482  1  0.922600  0.398600  0.434800  1.0  -0.3139
  C  C483  1  0.970800  0.541100  0.319200  1.0  -0.708
  C  C484  1  0.077100  0.518900  0.434300  1.0  -0.2168
  C  C485  1  0.031900  0.558100  0.476400  1.0  -0.1843
  C  C486  1  0.060900  0.587000  0.532600  1.0  0.1466
  C  C487  1  0.177700  0.546100  0.510300  1.0  0.1307
  C  C488  1  0.152900  0.514300  0.452100  1.0  -0.1431
  N  N489  1  0.362300  0.802000  0.764300  1.0  -0.396
  N  N490  1  0.607200  0.476400  0.642600  1.0  -0.3404
  N  N491  1  0.193100  0.863400  0.860600  1.0  -0.3727
  N  N492  1  0.863200  0.696300  0.056200  1.0  -0.3789
  N  N493  1  0.137700  0.198000  0.264300  1.0  -0.3941
  N  N494  1  0.892800  0.523600  0.142600  1.0  -0.3391
  N  N495  1  0.306900  0.136600  0.360600  1.0  -0.371
  N  N496  1  0.636800  0.303700  0.556200  1.0  -0.3766
  N  N497  1  0.637700  0.302000  0.735700  1.0  -0.3933
  N  N498  1  0.392800  0.976400  0.857400  1.0  -0.3408
  N  N499  1  0.806900  0.363400  0.639400  1.0  -0.3707
  N  N500  1  0.136800  0.196300  0.443800  1.0  -0.3773
  N  N501  1  0.862300  0.698000  0.235700  1.0  -0.3944
  N  N502  1  0.107200  0.023600  0.357400  1.0  -0.3397
  N  N503  1  0.693100  0.636600  0.139400  1.0  -0.3731
  N  N504  1  0.363200  0.803700  0.943800  1.0  -0.3758
  N  N505  1  0.861300  0.244100  0.859500  1.0  -0.3931
  N  N506  1  0.060800  0.588800  0.729000  1.0  -0.3821
  N  N507  1  0.737700  0.085200  0.782700  1.0  -0.3843
  N  N508  1  0.633700  0.917800  0.449900  1.0  -0.3621
  N  N509  1  0.638700  0.755900  0.359500  1.0  -0.3932
  N  N510  1  0.439200  0.411200  0.229000  1.0  -0.3847
  N  N511  1  0.762300  0.914800  0.282700  1.0  -0.3839
  N  N512  1  0.866300  0.082200  0.949900  1.0  -0.3621
  N  N513  1  0.138700  0.744100  0.640500  1.0  -0.3936
  N  N514  1  0.939200  0.088800  0.771000  1.0  -0.3845
  N  N515  1  0.262300  0.585200  0.717300  1.0  -0.3841
  N  N516  1  0.366300  0.417800  0.050100  1.0  -0.3601
  N  N517  1  0.361300  0.255900  0.140500  1.0  -0.393
  N  N518  1  0.560800  0.911200  0.271000  1.0  -0.3828
  N  N519  1  0.237700  0.414800  0.217300  1.0  -0.3844
  N  N520  1  0.133700  0.582200  0.550100  1.0  -0.3599
