# generated using pymatgen
data_Si4Ag2H67(C27N4)2
_symmetry_space_group_name_H-M   'P 1'
_cell_length_a   17.93040000
_cell_length_b   18.83210000
_cell_length_c   20.29220000
_cell_angle_alpha   90.00000000
_cell_angle_beta   90.00000000
_cell_angle_gamma   90.00000000
_symmetry_Int_Tables_number   1
_chemical_formula_structural   Si4Ag2H67(C27N4)2
_chemical_formula_sum   'Si16 Ag8 H268 C216 N32'
_cell_volume   6852.00803928
_cell_formula_units_Z   4
loop_
 _symmetry_equiv_pos_site_id
 _symmetry_equiv_pos_as_xyz
  1  'x, y, z'
loop_
 _atom_site_type_symbol
 _atom_site_label
 _atom_site_symmetry_multiplicity
 _atom_site_fract_x
 _atom_site_fract_y
 _atom_site_fract_z
 _atom_site_occupancy
 _atom_site_charge
  Si  Si1  1  0.552840  0.674560  0.129860  1.0  1.0013
  Si  Si2  1  0.028870  0.823700  0.423170  1.0  0.9899
  Si  Si3  1  0.947160  0.325440  0.629860  1.0  1.0028
  Si  Si4  1  0.471130  0.176300  0.923170  1.0  0.9897
  Si  Si5  1  0.447160  0.174560  0.370140  1.0  1.0029
  Si  Si6  1  0.971130  0.323700  0.076830  1.0  0.9888
  Si  Si7  1  0.052840  0.825440  0.870140  1.0  1.0015
  Si  Si8  1  0.528870  0.676300  0.576830  1.0  0.9872
  Si  Si9  1  0.957670  0.476400  0.362100  1.0  1.0688
  Si  Si10  1  0.356080  0.501310  0.353620  1.0  0.9631
  Si  Si11  1  0.542330  0.523600  0.862100  1.0  1.0687
  Si  Si12  1  0.143920  0.498690  0.853620  1.0  0.9632
  Si  Si13  1  0.042330  0.976400  0.137900  1.0  1.0678
  Si  Si14  1  0.643920  0.001310  0.146380  1.0  0.9638
  Si  Si15  1  0.457670  0.023600  0.637900  1.0  1.0694
  Si  Si16  1  0.856080  0.998690  0.646380  1.0  0.963
  Ag  Ag17  1  0.164790  0.632980  0.151930  1.0  0.3382
  Ag  Ag18  1  0.335210  0.367020  0.651930  1.0  0.3382
  Ag  Ag19  1  0.835210  0.132980  0.348070  1.0  0.3378
  Ag  Ag20  1  0.664790  0.867020  0.848070  1.0  0.3381
  Ag  Ag21  1  0.657790  0.373940  0.159350  1.0  0.2929
  Ag  Ag22  1  0.842210  0.626060  0.659350  1.0  0.2934
  Ag  Ag23  1  0.342210  0.873940  0.340650  1.0  0.2937
  Ag  Ag24  1  0.157790  0.126060  0.840650  1.0  0.2928
  H  H25  1  0.292800  0.744300  0.147300  1.0  0.0448
  H  H26  1  0.418800  0.764400  0.142700  1.0  0.0924
  H  H27  1  0.446500  0.554100  0.115100  1.0  0.0801
  H  H28  1  0.317200  0.542100  0.124400  1.0  0.0424
  H  H29  1  0.585700  0.556000  0.094800  1.0  0.0941
  H  H30  1  0.588300  0.560100  0.173600  1.0  0.0926
  H  H31  1  0.655700  0.591600  0.131000  1.0  0.107
  H  H32  1  0.624600  0.763800  0.184800  1.0  0.1405
  H  H33  1  0.539300  0.770400  0.206300  1.0  0.082
  H  H34  1  0.583800  0.738900  0.292500  1.0  0.067
  H  H35  1  0.649900  0.695200  0.258400  1.0  0.0955
  H  H36  1  0.567700  0.662300  0.261500  1.0  0.0734
  H  H37  1  0.691400  0.703700  0.054600  1.0  0.0942
  H  H38  1  0.717900  0.758600  0.959400  1.0  0.0232
  H  H39  1  0.513800  0.817000  0.929900  1.0  0.0585
  H  H40  1  0.475500  0.754900  0.023300  1.0  0.0717
  H  H41  1  0.054300  0.759200  0.190500  1.0  0.0724
  H  H42  1  0.006700  0.821300  0.277300  1.0  0.0592
  H  H43  1  0.156800  0.727900  0.395200  1.0  0.0797
  H  H44  1  0.206000  0.673800  0.302900  1.0  0.0307
  H  H45  1  0.133000  0.808700  0.492500  1.0  0.0993
  H  H46  1  0.133100  0.887300  0.462000  1.0  0.1158
  H  H47  1  0.101800  0.894300  0.578400  1.0  0.0935
  H  H48  1  0.032300  0.842300  0.567000  1.0  0.0871
  H  H49  1  0.031600  0.920500  0.536200  1.0  0.0854
  H  H50  1  0.993600  0.721000  0.483400  1.0  0.1101
  H  H51  1  0.938700  0.784700  0.500900  1.0  0.1016
  H  H52  1  0.870200  0.690500  0.448200  1.0  0.0846
  H  H53  1  0.921700  0.697000  0.384100  1.0  0.0997
  H  H54  1  0.865900  0.760100  0.403100  1.0  0.0982
  H  H55  1  0.873400  0.861300  0.380100  1.0  0.0974
  H  H56  1  0.815200  0.960900  0.350200  1.0  0.0414
  H  H57  1  0.996200  0.074000  0.366800  1.0  0.0604
  H  H58  1  0.061800  0.974200  0.402500  1.0  0.0611
  H  H59  1  0.207200  0.255700  0.647300  1.0  0.0446
  H  H60  1  0.081200  0.235600  0.642700  1.0  0.0918
  H  H61  1  0.053500  0.445900  0.615100  1.0  0.0805
  H  H62  1  0.182800  0.457900  0.624400  1.0  0.0426
  H  H63  1  0.914300  0.444000  0.594800  1.0  0.0932
  H  H64  1  0.911700  0.439900  0.673600  1.0  0.0929
  H  H65  1  0.844300  0.408400  0.631000  1.0  0.1062
  H  H66  1  0.875400  0.236200  0.684800  1.0  0.1425
  H  H67  1  0.960700  0.229600  0.706300  1.0  0.0821
  H  H68  1  0.916200  0.261100  0.792500  1.0  0.0682
  H  H69  1  0.850100  0.304800  0.758400  1.0  0.0936
  H  H70  1  0.932300  0.337700  0.761500  1.0  0.071
  H  H71  1  0.808600  0.296300  0.554600  1.0  0.0934
  H  H72  1  0.782100  0.241400  0.459400  1.0  0.0226
  H  H73  1  0.986200  0.183000  0.429900  1.0  0.0593
  H  H74  1  0.024500  0.245100  0.523300  1.0  0.0718
  H  H75  1  0.445700  0.240800  0.690500  1.0  0.0722
  H  H76  1  0.493300  0.178700  0.777300  1.0  0.0591
  H  H77  1  0.343200  0.272100  0.895200  1.0  0.0797
  H  H78  1  0.294000  0.326200  0.802900  1.0  0.031
  H  H79  1  0.367000  0.191300  0.992500  1.0  0.0995
  H  H80  1  0.366900  0.112700  0.962000  1.0  0.1171
  H  H81  1  0.398200  0.105700  0.078400  1.0  0.0937
  H  H82  1  0.467700  0.157700  0.067000  1.0  0.0872
  H  H83  1  0.468400  0.079500  0.036200  1.0  0.0804
  H  H84  1  0.506400  0.279000  0.983400  1.0  0.1103
  H  H85  1  0.561300  0.215300  0.000900  1.0  0.1012
  H  H86  1  0.629800  0.309500  0.948200  1.0  0.0847
  H  H87  1  0.578300  0.303000  0.884100  1.0  0.1006
  H  H88  1  0.634100  0.239900  0.903100  1.0  0.0995
  H  H89  1  0.626600  0.138700  0.880100  1.0  0.0976
  H  H90  1  0.684800  0.039100  0.850200  1.0  0.0423
  H  H91  1  0.503800  0.926000  0.866800  1.0  0.0602
  H  H92  1  0.438200  0.025800  0.902500  1.0  0.0611
  H  H93  1  0.707200  0.244300  0.352700  1.0  0.0447
  H  H94  1  0.581200  0.264400  0.357300  1.0  0.0917
  H  H95  1  0.553500  0.054100  0.384900  1.0  0.0798
  H  H96  1  0.682800  0.042100  0.375600  1.0  0.0428
  H  H97  1  0.414300  0.056000  0.405200  1.0  0.0934
  H  H98  1  0.411700  0.060100  0.326400  1.0  0.0934
  H  H99  1  0.344300  0.091600  0.369000  1.0  0.106
  H  H100  1  0.375400  0.263800  0.315200  1.0  0.141
  H  H101  1  0.460700  0.270400  0.293700  1.0  0.082
  H  H102  1  0.416200  0.238900  0.207500  1.0  0.0662
  H  H103  1  0.350100  0.195200  0.241600  1.0  0.0937
  H  H104  1  0.432300  0.162300  0.238500  1.0  0.0684
  H  H105  1  0.308600  0.203700  0.445400  1.0  0.0937
  H  H106  1  0.282100  0.258600  0.540600  1.0  0.0222
  H  H107  1  0.486200  0.317000  0.570100  1.0  0.0589
  H  H108  1  0.524500  0.254900  0.476700  1.0  0.0722
  H  H109  1  0.945700  0.259200  0.309500  1.0  0.0725
  H  H110  1  0.993300  0.321300  0.222700  1.0  0.0587
  H  H111  1  0.843200  0.227900  0.104800  1.0  0.0795
  H  H112  1  0.794000  0.173800  0.197100  1.0  0.0311
  H  H113  1  0.867000  0.308700  0.007500  1.0  0.0998
  H  H114  1  0.866900  0.387300  0.038000  1.0  0.1165
  H  H115  1  0.898200  0.394300  0.921600  1.0  0.0924
  H  H116  1  0.967700  0.342300  0.933000  1.0  0.0868
  H  H117  1  0.968400  0.420500  0.963800  1.0  0.0831
  H  H118  1  0.006400  0.221000  0.016600  1.0  0.1103
  H  H119  1  0.061300  0.284700  0.999100  1.0  0.1024
  H  H120  1  0.129800  0.190500  0.051800  1.0  0.0852
  H  H121  1  0.078300  0.197000  0.115900  1.0  0.1
  H  H122  1  0.134100  0.260100  0.096900  1.0  0.0993
  H  H123  1  0.126600  0.361300  0.119900  1.0  0.0972
  H  H124  1  0.184800  0.460900  0.149800  1.0  0.0419
  H  H125  1  0.003800  0.574000  0.133200  1.0  0.0608
  H  H126  1  0.938200  0.474200  0.097500  1.0  0.0618
  H  H127  1  0.792800  0.755700  0.852700  1.0  0.0448
  H  H128  1  0.918800  0.735600  0.857300  1.0  0.0916
  H  H129  1  0.946500  0.945900  0.884900  1.0  0.0806
  H  H130  1  0.817200  0.957900  0.875600  1.0  0.0427
  H  H131  1  0.085700  0.944000  0.905200  1.0  0.0935
  H  H132  1  0.088300  0.939900  0.826400  1.0  0.0935
  H  H133  1  0.155700  0.908400  0.869000  1.0  0.1072
  H  H134  1  0.124600  0.736200  0.815200  1.0  0.1405
  H  H135  1  0.039300  0.729600  0.793700  1.0  0.0811
  H  H136  1  0.083800  0.761100  0.707500  1.0  0.0672
  H  H137  1  0.149900  0.804800  0.741600  1.0  0.0968
  H  H138  1  0.067700  0.837700  0.738500  1.0  0.0743
  H  H139  1  0.191400  0.796300  0.945400  1.0  0.0945
  H  H140  1  0.217900  0.741400  0.040600  1.0  0.0229
  H  H141  1  0.013800  0.683000  0.070100  1.0  0.0589
  H  H142  1  0.975500  0.745100  0.976700  1.0  0.0716
  H  H143  1  0.554300  0.740800  0.809500  1.0  0.0726
  H  H144  1  0.506700  0.678700  0.722700  1.0  0.0589
  H  H145  1  0.656800  0.772100  0.604800  1.0  0.0798
  H  H146  1  0.706000  0.826200  0.697100  1.0  0.0304
  H  H147  1  0.633000  0.691300  0.507500  1.0  0.0997
  H  H148  1  0.633100  0.612700  0.538000  1.0  0.1163
  H  H149  1  0.601800  0.605700  0.421600  1.0  0.0933
  H  H150  1  0.532300  0.657700  0.433000  1.0  0.0877
  H  H151  1  0.531600  0.579500  0.463800  1.0  0.0813
  H  H152  1  0.493600  0.779000  0.516600  1.0  0.1099
  H  H153  1  0.438700  0.715300  0.499100  1.0  0.1027
  H  H154  1  0.370200  0.809500  0.551800  1.0  0.0851
  H  H155  1  0.421700  0.803000  0.615900  1.0  0.0993
  H  H156  1  0.365900  0.739900  0.596900  1.0  0.0981
  H  H157  1  0.373400  0.638700  0.619900  1.0  0.0975
  H  H158  1  0.315200  0.539100  0.649800  1.0  0.0414
  H  H159  1  0.496200  0.426000  0.633200  1.0  0.06
  H  H160  1  0.561800  0.525800  0.597500  1.0  0.0611
  H  H161  1  0.798100  0.487600  0.164300  1.0  0.0491
  H  H162  1  0.886200  0.531700  0.235800  1.0  0.0787
  H  H163  1  0.835500  0.374100  0.360500  1.0  0.0677
  H  H164  1  0.737500  0.347400  0.292900  1.0  0.04
  H  H165  1  0.063100  0.553800  0.344700  1.0  0.0981
  H  H166  1  0.991800  0.585400  0.307300  1.0  0.1069
  H  H167  1  0.037400  0.520800  0.275600  1.0  0.0983
  H  H168  1  0.967600  0.361600  0.400800  1.0  0.105
  H  H169  1  0.026900  0.375100  0.343400  1.0  0.11
  H  H170  1  0.095700  0.358100  0.445900  1.0  0.0967
  H  H171  1  0.049700  0.420500  0.480800  1.0  0.0826
  H  H172  1  0.108100  0.438800  0.423700  1.0  0.0904
  H  H173  1  0.806100  0.497100  0.429700  1.0  0.0927
  H  H174  1  0.772300  0.555700  0.529200  1.0  0.0325
  H  H175  1  0.974100  0.607200  0.567300  1.0  0.0618
  H  H176  1  0.013700  0.572500  0.464000  1.0  0.0705
  H  H177  1  0.614700  0.443700  0.310000  1.0  0.0686
  H  H178  1  0.517700  0.490000  0.365600  1.0  0.0521
  H  H179  1  0.379200  0.431000  0.227600  1.0  0.0422
  H  H180  1  0.473700  0.374600  0.174100  1.0  0.0684
  H  H181  1  0.310800  0.462300  0.457500  1.0  0.1277
  H  H182  1  0.379100  0.413700  0.435500  1.0  0.1555
  H  H183  1  0.462900  0.478900  0.492600  1.0  0.0651
  H  H184  1  0.391000  0.498300  0.535700  1.0  0.0383
  H  H185  1  0.419600  0.552000  0.480100  1.0  0.0706
  H  H186  1  0.239100  0.521800  0.283200  1.0  0.1127
  H  H187  1  0.182900  0.412100  0.282200  1.0  0.1065
  H  H188  1  0.220300  0.397200  0.352500  1.0  0.1227
  H  H189  1  0.264700  0.378300  0.286300  1.0  0.0946
  H  H190  1  0.296800  0.616100  0.438400  1.0  0.0915
  H  H191  1  0.301000  0.738300  0.435900  1.0  0.0423
  H  H192  1  0.422300  0.739500  0.277900  1.0  0.0341
  H  H193  1  0.424700  0.615600  0.275900  1.0  0.0649
  H  H194  1  0.701900  0.512400  0.664300  1.0  0.049
  H  H195  1  0.613800  0.468300  0.735800  1.0  0.0772
  H  H196  1  0.664500  0.625900  0.860500  1.0  0.0671
  H  H197  1  0.762500  0.652600  0.792900  1.0  0.0394
  H  H198  1  0.436900  0.446200  0.844700  1.0  0.0985
  H  H199  1  0.508200  0.414600  0.807300  1.0  0.1063
  H  H200  1  0.462600  0.479200  0.775600  1.0  0.0985
  H  H201  1  0.532400  0.638400  0.900800  1.0  0.1053
  H  H202  1  0.473100  0.624900  0.843400  1.0  0.1101
  H  H203  1  0.404300  0.641900  0.945900  1.0  0.0965
  H  H204  1  0.450300  0.579500  0.980800  1.0  0.0822
  H  H205  1  0.391900  0.561200  0.923700  1.0  0.0905
  H  H206  1  0.693900  0.502900  0.929700  1.0  0.0926
  H  H207  1  0.727700  0.444300  0.029200  1.0  0.0312
  H  H208  1  0.525900  0.392800  0.067300  1.0  0.0622
  H  H209  1  0.486300  0.427500  0.964000  1.0  0.0712
  H  H210  1  0.885300  0.556300  0.810000  1.0  0.068
  H  H211  1  0.982300  0.510000  0.865600  1.0  0.0523
  H  H212  1  0.120800  0.569000  0.727600  1.0  0.0425
  H  H213  1  0.026300  0.625400  0.674100  1.0  0.068
  H  H214  1  0.189200  0.537700  0.957500  1.0  0.1286
  H  H215  1  0.120900  0.586300  0.935500  1.0  0.1557
  H  H216  1  0.037100  0.521100  0.992600  1.0  0.0663
  H  H217  1  0.109000  0.501700  0.035700  1.0  0.0387
  H  H218  1  0.080400  0.448000  0.980100  1.0  0.0718
  H  H219  1  0.260900  0.478200  0.783200  1.0  0.1124
  H  H220  1  0.317100  0.587900  0.782200  1.0  0.106
  H  H221  1  0.279700  0.602800  0.852500  1.0  0.1226
  H  H222  1  0.235300  0.621700  0.786300  1.0  0.0947
  H  H223  1  0.203200  0.383900  0.938400  1.0  0.0906
  H  H224  1  0.199000  0.261700  0.935900  1.0  0.0424
  H  H225  1  0.077700  0.260500  0.777900  1.0  0.0343
  H  H226  1  0.075300  0.384400  0.775900  1.0  0.0655
  H  H227  1  0.201900  0.987600  0.335700  1.0  0.0496
  H  H228  1  0.113800  0.031700  0.264200  1.0  0.0789
  H  H229  1  0.164500  0.874100  0.139500  1.0  0.0678
  H  H230  1  0.262500  0.847400  0.207100  1.0  0.0396
  H  H231  1  0.936900  0.053800  0.155300  1.0  0.0988
  H  H232  1  0.008200  0.085400  0.192700  1.0  0.1059
  H  H233  1  0.962600  0.020800  0.224400  1.0  0.0986
  H  H234  1  0.032400  0.861600  0.099200  1.0  0.1052
  H  H235  1  0.973100  0.875100  0.156600  1.0  0.1105
  H  H236  1  0.904300  0.858100  0.054100  1.0  0.0964
  H  H237  1  0.950300  0.920500  0.019200  1.0  0.0826
  H  H238  1  0.891900  0.938800  0.076300  1.0  0.0893
  H  H239  1  0.193900  0.997100  0.070300  1.0  0.0928
  H  H240  1  0.227700  0.055700  0.970800  1.0  0.0313
  H  H241  1  0.025900  0.107200  0.932700  1.0  0.0617
  H  H242  1  0.986300  0.072500  0.036000  1.0  0.0711
  H  H243  1  0.385300  0.943700  0.190000  1.0  0.068
  H  H244  1  0.482300  0.990000  0.134400  1.0  0.0519
  H  H245  1  0.620800  0.931000  0.272400  1.0  0.0431
  H  H246  1  0.526300  0.874600  0.325900  1.0  0.0686
  H  H247  1  0.689200  0.962300  0.042500  1.0  0.1282
  H  H248  1  0.620900  0.913700  0.064500  1.0  0.1541
  H  H249  1  0.537100  0.978900  0.007400  1.0  0.0654
  H  H250  1  0.609000  0.998300  0.964300  1.0  0.0369
  H  H251  1  0.580400  0.052000  0.019900  1.0  0.0708
  H  H252  1  0.760900  0.021800  0.216800  1.0  0.1128
  H  H253  1  0.817100  0.912100  0.217800  1.0  0.1058
  H  H254  1  0.779700  0.897200  0.147500  1.0  0.1224
  H  H255  1  0.735300  0.878300  0.213700  1.0  0.0947
  H  H256  1  0.703200  0.116100  0.061600  1.0  0.0912
  H  H257  1  0.699000  0.238300  0.064100  1.0  0.0415
  H  H258  1  0.577700  0.239500  0.222100  1.0  0.0343
  H  H259  1  0.575300  0.115600  0.224100  1.0  0.0651
  H  H260  1  0.298100  0.012400  0.835700  1.0  0.0492
  H  H261  1  0.386200  0.968300  0.764200  1.0  0.0781
  H  H262  1  0.335500  0.125900  0.639500  1.0  0.0679
  H  H263  1  0.237500  0.152600  0.707100  1.0  0.0399
  H  H264  1  0.563100  0.946200  0.655300  1.0  0.0985
  H  H265  1  0.491800  0.914600  0.692700  1.0  0.107
  H  H266  1  0.537400  0.979200  0.724400  1.0  0.0986
  H  H267  1  0.467600  0.138400  0.599200  1.0  0.1054
  H  H268  1  0.526900  0.124900  0.656600  1.0  0.1095
  H  H269  1  0.595700  0.141900  0.554100  1.0  0.096
  H  H270  1  0.549700  0.079500  0.519200  1.0  0.0829
  H  H271  1  0.608100  0.061200  0.576300  1.0  0.0906
  H  H272  1  0.306100  0.002900  0.570300  1.0  0.0926
  H  H273  1  0.272300  0.944300  0.470800  1.0  0.0324
  H  H274  1  0.474100  0.892800  0.432700  1.0  0.0617
  H  H275  1  0.513700  0.927500  0.536000  1.0  0.0705
  H  H276  1  0.114700  0.056300  0.690000  1.0  0.0682
  H  H277  1  0.017700  0.010000  0.634400  1.0  0.052
  H  H278  1  0.879200  0.069000  0.772400  1.0  0.0429
  H  H279  1  0.973700  0.125400  0.825900  1.0  0.069
  H  H280  1  0.810800  0.037700  0.542500  1.0  0.1271
  H  H281  1  0.879100  0.086300  0.564500  1.0  0.1563
  H  H282  1  0.962900  0.021100  0.507400  1.0  0.0662
  H  H283  1  0.891000  0.001700  0.464300  1.0  0.0382
  H  H284  1  0.919600  0.948000  0.519900  1.0  0.0712
  H  H285  1  0.739100  0.978200  0.716800  1.0  0.113
  H  H286  1  0.682900  0.087900  0.717800  1.0  0.1061
  H  H287  1  0.720300  0.102800  0.647500  1.0  0.1225
  H  H288  1  0.764700  0.121700  0.713700  1.0  0.0939
  H  H289  1  0.796800  0.883900  0.561600  1.0  0.0918
  H  H290  1  0.801000  0.761700  0.564100  1.0  0.0415
  H  H291  1  0.922300  0.760500  0.722100  1.0  0.0347
  H  H292  1  0.924700  0.884400  0.724100  1.0  0.0652
  C  C293  1  0.324800  0.704500  0.142600  1.0  0.1249
  C  C294  1  0.400400  0.717200  0.139500  1.0  -0.146
  C  C295  1  0.449700  0.660700  0.131500  1.0  -0.1982
  C  C296  1  0.416700  0.594700  0.123800  1.0  -0.1674
  C  C297  1  0.338200  0.588200  0.129000  1.0  0.1306
  C  C298  1  0.601600  0.584600  0.132600  1.0  -0.7608
  C  C299  1  0.580500  0.736200  0.199200  1.0  -0.5091
  C  C300  1  0.596500  0.706200  0.256600  1.0  -0.4011
  C  C301  1  0.576800  0.720900  0.049700  1.0  -0.1986
  C  C302  1  0.652700  0.724800  0.029300  1.0  -0.1667
  C  C303  1  0.667400  0.759400  0.973300  1.0  0.1739
  C  C304  1  0.550100  0.792300  0.955200  1.0  0.1222
  C  C305  1  0.526900  0.755500  0.011700  1.0  -0.1121
  C  C306  1  0.074500  0.751900  0.233300  1.0  0.103
  C  C307  1  0.046000  0.788600  0.285400  1.0  -0.097
  C  C308  1  0.071200  0.780600  0.348900  1.0  -0.2015
  C  C309  1  0.133700  0.735200  0.353700  1.0  -0.143
  C  C310  1  0.161800  0.701100  0.298100  1.0  0.1606
  C  C311  1  0.101200  0.850100  0.481800  1.0  -0.2719
  C  C312  1  0.063100  0.879600  0.547100  1.0  -0.3224
  C  C313  1  0.963200  0.759500  0.463900  1.0  -0.3352
  C  C314  1  0.899000  0.723300  0.420600  1.0  -0.3265
  C  C315  1  0.977600  0.906200  0.396800  1.0  -0.12
  C  C316  1  0.900300  0.904700  0.379100  1.0  -0.1837
  C  C317  1  0.866600  0.964400  0.361200  1.0  0.0995
  C  C318  1  0.970400  0.030200  0.371100  1.0  0.0859
  C  C319  1  0.010400  0.969700  0.391800  1.0  -0.1588
  C  C320  1  0.175200  0.295500  0.642600  1.0  0.1248
  C  C321  1  0.099600  0.282800  0.639500  1.0  -0.1456
  C  C322  1  0.050300  0.339300  0.631500  1.0  -0.1981
  C  C323  1  0.083300  0.405300  0.623800  1.0  -0.1675
  C  C324  1  0.161800  0.411800  0.629000  1.0  0.1304
  C  C325  1  0.898400  0.415400  0.632600  1.0  -0.7571
  C  C326  1  0.919500  0.263800  0.699200  1.0  -0.5063
  C  C327  1  0.903500  0.293800  0.756600  1.0  -0.4005
  C  C328  1  0.923200  0.279100  0.549700  1.0  -0.1988
  C  C329  1  0.847300  0.275200  0.529300  1.0  -0.1679
  C  C330  1  0.832600  0.240600  0.473300  1.0  0.1743
  C  C331  1  0.949900  0.207700  0.455200  1.0  0.1214
  C  C332  1  0.973100  0.244500  0.511700  1.0  -0.1142
  C  C333  1  0.425500  0.248100  0.733300  1.0  0.1031
  C  C334  1  0.454000  0.211400  0.785400  1.0  -0.0967
  C  C335  1  0.428800  0.219400  0.848900  1.0  -0.2017
  C  C336  1  0.366300  0.264800  0.853700  1.0  -0.1427
  C  C337  1  0.338200  0.298900  0.798100  1.0  0.16
  C  C338  1  0.398800  0.149900  0.981800  1.0  -0.2727
  C  C339  1  0.436900  0.120400  0.047100  1.0  -0.3235
  C  C340  1  0.536800  0.240500  0.963900  1.0  -0.3344
  C  C341  1  0.601000  0.276700  0.920600  1.0  -0.3266
  C  C342  1  0.522400  0.093800  0.896800  1.0  -0.1215
  C  C343  1  0.599700  0.095300  0.879100  1.0  -0.1833
  C  C344  1  0.633400  0.035600  0.861200  1.0  0.0997
  C  C345  1  0.529600  0.969800  0.871100  1.0  0.0854
  C  C346  1  0.489600  0.030300  0.891800  1.0  -0.1557
  C  C347  1  0.675200  0.204500  0.357400  1.0  0.1253
  C  C348  1  0.599600  0.217200  0.360500  1.0  -0.1472
  C  C349  1  0.550300  0.160700  0.368500  1.0  -0.1976
  C  C350  1  0.583300  0.094700  0.376200  1.0  -0.1664
  C  C351  1  0.661800  0.088200  0.371000  1.0  0.1311
  C  C352  1  0.398400  0.084600  0.367400  1.0  -0.7602
  C  C353  1  0.419500  0.236200  0.300800  1.0  -0.508
  C  C354  1  0.403500  0.206200  0.243400  1.0  -0.4011
  C  C355  1  0.423200  0.220900  0.450300  1.0  -0.1974
  C  C356  1  0.347300  0.224800  0.470700  1.0  -0.1683
  C  C357  1  0.332600  0.259400  0.526700  1.0  0.1741
  C  C358  1  0.449900  0.292300  0.544800  1.0  0.1213
  C  C359  1  0.473100  0.255500  0.488300  1.0  -0.1134
  C  C360  1  0.925500  0.251900  0.266700  1.0  0.1035
  C  C361  1  0.954000  0.288600  0.214600  1.0  -0.097
  C  C362  1  0.928800  0.280600  0.151100  1.0  -0.2006
  C  C363  1  0.866300  0.235200  0.146300  1.0  -0.1429
  C  C364  1  0.838200  0.201100  0.201900  1.0  0.1604
  C  C365  1  0.898800  0.350100  0.018200  1.0  -0.2733
  C  C366  1  0.936900  0.379600  0.952900  1.0  -0.3237
  C  C367  1  0.036800  0.259500  0.036100  1.0  -0.334
  C  C368  1  0.101000  0.223300  0.079400  1.0  -0.3262
  C  C369  1  0.022400  0.406200  0.103200  1.0  -0.119
  C  C370  1  0.099700  0.404700  0.120900  1.0  -0.1839
  C  C371  1  0.133400  0.464400  0.138800  1.0  0.099
  C  C372  1  0.029600  0.530200  0.128900  1.0  0.0859
  C  C373  1  0.989600  0.469700  0.108200  1.0  -0.1561
  C  C374  1  0.824800  0.795500  0.857400  1.0  0.1254
  C  C375  1  0.900400  0.782800  0.860500  1.0  -0.1439
  C  C376  1  0.949700  0.839300  0.868500  1.0  -0.198
  C  C377  1  0.916700  0.905300  0.876200  1.0  -0.1667
  C  C378  1  0.838200  0.911800  0.871000  1.0  0.1304
  C  C379  1  0.101600  0.915400  0.867400  1.0  -0.7587
  C  C380  1  0.080500  0.763800  0.800800  1.0  -0.5076
  C  C381  1  0.096500  0.793800  0.743400  1.0  -0.4017
  C  C382  1  0.076800  0.779100  0.950300  1.0  -0.198
  C  C383  1  0.152700  0.775200  0.970700  1.0  -0.1667
  C  C384  1  0.167400  0.740600  0.026700  1.0  0.1739
  C  C385  1  0.050100  0.707700  0.044800  1.0  0.1214
  C  C386  1  0.026900  0.744500  0.988300  1.0  -0.1127
  C  C387  1  0.574500  0.748100  0.766700  1.0  0.1033
  C  C388  1  0.546000  0.711400  0.714600  1.0  -0.0976
  C  C389  1  0.571200  0.719400  0.651100  1.0  -0.201
  C  C390  1  0.633700  0.764800  0.646300  1.0  -0.1429
  C  C391  1  0.661800  0.798900  0.701900  1.0  0.161
  C  C392  1  0.601200  0.649900  0.518200  1.0  -0.2734
  C  C393  1  0.563100  0.620400  0.452900  1.0  -0.3233
  C  C394  1  0.463200  0.740500  0.536100  1.0  -0.3327
  C  C395  1  0.399000  0.776700  0.579400  1.0  -0.327
  C  C396  1  0.477600  0.593800  0.603200  1.0  -0.1213
  C  C397  1  0.400300  0.595300  0.620900  1.0  -0.1836
  C  C398  1  0.366600  0.535600  0.638800  1.0  0.0997
  C  C399  1  0.470400  0.469800  0.628900  1.0  0.086
  C  C400  1  0.510400  0.530300  0.608200  1.0  -0.1598
  C  C401  1  0.803300  0.465500  0.206100  1.0  0.1245
  C  C402  1  0.858900  0.490300  0.247600  1.0  -0.1335
  C  C403  1  0.875700  0.454800  0.307300  1.0  -0.1661
  C  C404  1  0.828700  0.400800  0.321200  1.0  -0.1699
  C  C405  1  0.770600  0.383700  0.278900  1.0  0.126
  C  C406  1  0.020100  0.542100  0.317000  1.0  -0.753
  C  C407  1  0.005000  0.395800  0.383900  1.0  -0.2949
  C  C408  1  0.071300  0.404200  0.439100  1.0  -0.3336
  C  C409  1  0.919500  0.520200  0.437600  1.0  -0.1838
  C  C410  1  0.842800  0.519800  0.456100  1.0  -0.1363
  C  C411  1  0.823400  0.555500  0.516900  1.0  0.1485
  C  C412  1  0.939100  0.587400  0.537300  1.0  0.1227
  C  C413  1  0.964400  0.561600  0.477800  1.0  -0.1475
  C  C414  1  0.566200  0.439600  0.291700  1.0  0.0827
  C  C415  1  0.507800  0.467100  0.324800  1.0  -0.0889
  C  C416  1  0.435800  0.464500  0.304000  1.0  -0.0718
  C  C417  1  0.427600  0.432300  0.246500  1.0  -0.1128
  C  C418  1  0.485000  0.400900  0.212700  1.0  0.1075
  C  C419  1  0.362000  0.463600  0.439300  1.0  -0.3749
  C  C420  1  0.413800  0.501900  0.492000  1.0  -0.3588
  C  C421  1  0.263000  0.484300  0.306300  1.0  0.0345
  C  C422  1  0.230000  0.411800  0.306900  1.0  -0.4369
  C  C423  1  0.360900  0.601600  0.354900  1.0  -0.178
  C  C424  1  0.323000  0.640000  0.404200  1.0  -0.188
  C  C425  1  0.325000  0.712800  0.401400  1.0  0.1431
  C  C426  1  0.395100  0.714400  0.310600  1.0  0.1419
  C  C427  1  0.397200  0.639300  0.309300  1.0  -0.1022
  C  C428  1  0.696700  0.534500  0.706100  1.0  0.1229
  C  C429  1  0.641100  0.509700  0.747600  1.0  -0.1341
  C  C430  1  0.624300  0.545200  0.807300  1.0  -0.1649
  C  C431  1  0.671300  0.599200  0.821200  1.0  -0.1688
  C  C432  1  0.729400  0.616300  0.778900  1.0  0.1257
  C  C433  1  0.479900  0.457900  0.817000  1.0  -0.7542
  C  C434  1  0.495000  0.604200  0.883900  1.0  -0.2945
  C  C435  1  0.428700  0.595800  0.939100  1.0  -0.3347
  C  C436  1  0.580500  0.479800  0.937600  1.0  -0.1835
  C  C437  1  0.657200  0.480200  0.956100  1.0  -0.1343
  C  C438  1  0.676600  0.444500  0.016900  1.0  0.15
  C  C439  1  0.560900  0.412600  0.037300  1.0  0.1234
  C  C440  1  0.535600  0.438400  0.977800  1.0  -0.1464
  C  C441  1  0.933800  0.560400  0.791700  1.0  0.0827
  C  C442  1  0.992200  0.532900  0.824800  1.0  -0.0887
  C  C443  1  0.064200  0.535500  0.804000  1.0  -0.0731
  C  C444  1  0.072400  0.567700  0.746500  1.0  -0.1133
  C  C445  1  0.015000  0.599100  0.712700  1.0  0.1076
  C  C446  1  0.138000  0.536400  0.939300  1.0  -0.3759
  C  C447  1  0.086200  0.498100  0.992000  1.0  -0.3578
  C  C448  1  0.237000  0.515700  0.806300  1.0  0.0332
  C  C449  1  0.270000  0.588200  0.806900  1.0  -0.4369
  C  C450  1  0.139100  0.398400  0.854900  1.0  -0.1752
  C  C451  1  0.177000  0.360000  0.904200  1.0  -0.1877
  C  C452  1  0.175000  0.287200  0.901400  1.0  0.1437
  C  C453  1  0.104900  0.285600  0.810600  1.0  0.1417
  C  C454  1  0.102800  0.360700  0.809300  1.0  -0.1018
  C  C455  1  0.196700  0.965500  0.293900  1.0  0.1243
  C  C456  1  0.141100  0.990300  0.252400  1.0  -0.1338
  C  C457  1  0.124300  0.954800  0.192700  1.0  -0.1642
  C  C458  1  0.171300  0.900800  0.178800  1.0  -0.1695
  C  C459  1  0.229400  0.883700  0.221100  1.0  0.1261
  C  C460  1  0.979900  0.042100  0.183000  1.0  -0.7541
  C  C461  1  0.995000  0.895800  0.116100  1.0  -0.2941
  C  C462  1  0.928700  0.904200  0.060900  1.0  -0.3333
  C  C463  1  0.080500  0.020200  0.062400  1.0  -0.1854
  C  C464  1  0.157200  0.019800  0.043900  1.0  -0.1334
  C  C465  1  0.176600  0.055500  0.983100  1.0  0.1507
  C  C466  1  0.060900  0.087400  0.962700  1.0  0.1233
  C  C467  1  0.035600  0.061600  0.022200  1.0  -0.1461
  C  C468  1  0.433800  0.939600  0.208300  1.0  0.0817
  C  C469  1  0.492200  0.967100  0.175200  1.0  -0.0895
  C  C470  1  0.564200  0.964500  0.196000  1.0  -0.0728
  C  C471  1  0.572400  0.932300  0.253500  1.0  -0.1135
  C  C472  1  0.515000  0.900900  0.287300  1.0  0.1074
  C  C473  1  0.638000  0.963600  0.060700  1.0  -0.3723
  C  C474  1  0.586200  0.001900  0.008000  1.0  -0.3574
  C  C475  1  0.737000  0.984300  0.193700  1.0  0.0331
  C  C476  1  0.770000  0.911800  0.193100  1.0  -0.4371
  C  C477  1  0.639100  0.101600  0.145100  1.0  -0.1776
  C  C478  1  0.677000  0.140000  0.095800  1.0  -0.1884
  C  C479  1  0.675000  0.212800  0.098600  1.0  0.143
  C  C480  1  0.604900  0.214400  0.189400  1.0  0.142
  C  C481  1  0.602800  0.139300  0.190700  1.0  -0.1026
  C  C482  1  0.303300  0.034500  0.793900  1.0  0.1248
  C  C483  1  0.358900  0.009700  0.752400  1.0  -0.1343
  C  C484  1  0.375700  0.045200  0.692700  1.0  -0.1661
  C  C485  1  0.328700  0.099200  0.678800  1.0  -0.1692
  C  C486  1  0.270600  0.116300  0.721100  1.0  0.1262
  C  C487  1  0.520100  0.957900  0.683000  1.0  -0.7529
  C  C488  1  0.505000  0.104200  0.616100  1.0  -0.2945
  C  C489  1  0.571300  0.095800  0.560900  1.0  -0.3334
  C  C490  1  0.419500  0.979800  0.562400  1.0  -0.1855
  C  C491  1  0.342800  0.980200  0.543900  1.0  -0.1352
  C  C492  1  0.323400  0.944500  0.483100  1.0  0.1488
  C  C493  1  0.439100  0.912600  0.462700  1.0  0.1226
  C  C494  1  0.464400  0.938400  0.522200  1.0  -0.1478
  C  C495  1  0.066200  0.060400  0.708300  1.0  0.0823
  C  C496  1  0.007800  0.032900  0.675200  1.0  -0.0899
  C  C497  1  0.935800  0.035500  0.696000  1.0  -0.0717
  C  C498  1  0.927600  0.067700  0.753500  1.0  -0.1124
  C  C499  1  0.985000  0.099100  0.787300  1.0  0.1072
  C  C500  1  0.862000  0.036400  0.560700  1.0  -0.3714
  C  C501  1  0.913800  0.998100  0.508000  1.0  -0.3584
  C  C502  1  0.763000  0.015700  0.693700  1.0  0.0336
  C  C503  1  0.730000  0.088200  0.693100  1.0  -0.4364
  C  C504  1  0.860900  0.898400  0.645100  1.0  -0.176
  C  C505  1  0.823000  0.860000  0.595800  1.0  -0.1895
  C  C506  1  0.825000  0.787200  0.598600  1.0  0.1439
  C  C507  1  0.895100  0.785600  0.689400  1.0  0.1419
  C  C508  1  0.897200  0.860700  0.690700  1.0  -0.1019
  N  N509  1  0.293100  0.640500  0.139500  1.0  -0.3744
  N  N510  1  0.621600  0.794100  0.935200  1.0  -0.3917
  N  N511  1  0.132100  0.704300  0.241600  1.0  -0.3928
  N  N512  1  0.896900  0.028100  0.357100  1.0  -0.4028
  N  N513  1  0.206900  0.359500  0.639500  1.0  -0.3757
  N  N514  1  0.878400  0.205900  0.435200  1.0  -0.3936
  N  N515  1  0.367900  0.295700  0.741600  1.0  -0.3932
  N  N516  1  0.603100  0.971900  0.857100  1.0  -0.4014
  N  N517  1  0.706900  0.140500  0.360500  1.0  -0.3756
  N  N518  1  0.378400  0.294100  0.564800  1.0  -0.3933
  N  N519  1  0.867900  0.204300  0.258400  1.0  -0.3929
  N  N520  1  0.103100  0.528100  0.142900  1.0  -0.4046
  N  N521  1  0.793100  0.859500  0.860500  1.0  -0.3731
  N  N522  1  0.121600  0.705900  0.064800  1.0  -0.3926
  N  N523  1  0.632100  0.795700  0.758400  1.0  -0.3941
  N  N524  1  0.396900  0.471900  0.642900  1.0  -0.4017
  N  N525  1  0.557400  0.405800  0.232200  1.0  -0.4051
  N  N526  1  0.358200  0.750800  0.353700  1.0  -0.3748
  N  N527  1  0.756900  0.413200  0.220800  1.0  -0.3442
  N  N528  1  0.867800  0.585700  0.554200  1.0  -0.3269
  N  N529  1  0.942600  0.594200  0.732200  1.0  -0.4051
  N  N530  1  0.141800  0.249200  0.853700  1.0  -0.3737
  N  N531  1  0.743100  0.586800  0.720800  1.0  -0.3434
  N  N532  1  0.632200  0.414300  0.054200  1.0  -0.3262
  N  N533  1  0.442600  0.905800  0.267800  1.0  -0.4055
  N  N534  1  0.641800  0.250800  0.146300  1.0  -0.3749
  N  N535  1  0.243100  0.913200  0.279200  1.0  -0.3437
  N  N536  1  0.132200  0.085700  0.945800  1.0  -0.3275
  N  N537  1  0.057400  0.094200  0.767800  1.0  -0.4047
  N  N538  1  0.858200  0.749200  0.646300  1.0  -0.3738
  N  N539  1  0.256900  0.086800  0.779200  1.0  -0.3448
  N  N540  1  0.367800  0.914300  0.445800  1.0  -0.3278
