# generated using pymatgen
data_Si2AgH34(C7N)4
_symmetry_space_group_name_H-M   'P 1'
_cell_length_a   18.19350000
_cell_length_b   18.57590000
_cell_length_c   20.20440000
_cell_angle_alpha   90.00000000
_cell_angle_beta   90.00000000
_cell_angle_gamma   90.00000000
_symmetry_Int_Tables_number   1
_chemical_formula_structural   Si2AgH34(C7N)4
_chemical_formula_sum   'Si16 Ag8 H272 C224 N32'
_cell_volume   6828.29188713
_cell_formula_units_Z   8
loop_
 _symmetry_equiv_pos_site_id
 _symmetry_equiv_pos_as_xyz
  1  'x, y, z'
loop_
 _atom_site_type_symbol
 _atom_site_label
 _atom_site_symmetry_multiplicity
 _atom_site_fract_x
 _atom_site_fract_y
 _atom_site_fract_z
 _atom_site_occupancy
 _atom_site_charge
  Si  Si1  1  0.954020  0.329930  0.630280  1.0  1.0028
  Si  Si2  1  0.474500  0.172800  0.927810  1.0  1.0243
  Si  Si3  1  0.545980  0.670070  0.130280  1.0  1.0015
  Si  Si4  1  0.025500  0.827200  0.427810  1.0  1.0234
  Si  Si5  1  0.045980  0.829930  0.869720  1.0  1.0007
  Si  Si6  1  0.525500  0.672800  0.572190  1.0  1.0229
  Si  Si7  1  0.454020  0.170070  0.369720  1.0  0.9999
  Si  Si8  1  0.974500  0.327200  0.072190  1.0  1.0222
  Si  Si9  1  0.550300  0.507300  0.854500  1.0  1.0717
  Si  Si10  1  0.133800  0.507100  0.860950  1.0  0.9
  Si  Si11  1  0.949700  0.492700  0.354500  1.0  1.0795
  Si  Si12  1  0.366200  0.492900  0.360950  1.0  0.8973
  Si  Si13  1  0.449700  0.007300  0.645500  1.0  1.0805
  Si  Si14  1  0.866200  0.007100  0.639050  1.0  0.9011
  Si  Si15  1  0.050300  0.992700  0.145500  1.0  1.0743
  Si  Si16  1  0.633800  0.992900  0.139050  1.0  0.8949
  Ag  Ag17  1  0.337500  0.358480  0.652730  1.0  0.3485
  Ag  Ag18  1  0.162500  0.641520  0.152730  1.0  0.3479
  Ag  Ag19  1  0.662500  0.858480  0.847270  1.0  0.3478
  Ag  Ag20  1  0.837500  0.141520  0.347270  1.0  0.3481
  Ag  Ag21  1  0.840520  0.630000  0.658050  1.0  0.2784
  Ag  Ag22  1  0.659480  0.370000  0.158050  1.0  0.2793
  Ag  Ag23  1  0.159480  0.130000  0.841950  1.0  0.2791
  Ag  Ag24  1  0.340520  0.870000  0.341950  1.0  0.2784
  H  H25  1  0.786500  0.259700  0.454600  1.0  0.0423
  H  H26  1  0.820100  0.309900  0.555400  1.0  0.0695
  H  H27  1  0.026100  0.252000  0.522100  1.0  0.0578
  H  H28  1  0.990200  0.199500  0.422400  1.0  0.0509
  H  H29  1  0.885800  0.233200  0.683000  1.0  0.1476
  H  H30  1  0.961000  0.247900  0.723700  1.0  0.126
  H  H31  1  0.830800  0.312200  0.758100  1.0  0.1239
  H  H32  1  0.908400  0.341700  0.783000  1.0  0.0991
  H  H33  1  0.876600  0.436100  0.744000  1.0  0.0487
  H  H34  1  0.811500  0.400100  0.702900  1.0  0.0599
  H  H35  1  0.939500  0.453600  0.655300  1.0  0.1214
  H  H36  1  0.869800  0.425400  0.613400  1.0  0.1187
  H  H37  1  0.083400  0.234100  0.638300  1.0  0.0536
  H  H38  1  0.207900  0.249000  0.650500  1.0  0.0422
  H  H39  1  0.188000  0.457300  0.629000  1.0  0.049
  H  H40  1  0.065600  0.449500  0.620000  1.0  0.0656
  H  H41  1  0.453100  0.240300  0.697000  1.0  0.0573
  H  H42  1  0.490900  0.172100  0.788300  1.0  0.0258
  H  H43  1  0.357300  0.277500  0.900900  1.0  0.0858
  H  H44  1  0.309500  0.330000  0.808300  1.0  0.0083
  H  H45  1  0.366100  0.184800  0.994900  1.0  0.0863
  H  H46  1  0.381000  0.101200  0.980100  1.0  0.0907
  H  H47  1  0.405300  0.127800  0.089500  1.0  0.0606
  H  H48  1  0.464900  0.186200  0.066900  1.0  0.0514
  H  H49  1  0.478800  0.102600  0.052600  1.0  0.0505
  H  H50  1  0.510400  0.270100  0.993500  1.0  0.1021
  H  H51  1  0.571200  0.209100  0.996000  1.0  0.092
  H  H52  1  0.618200  0.314700  0.959000  1.0  0.0604
  H  H53  1  0.562600  0.314600  0.897600  1.0  0.059
  H  H54  1  0.625200  0.254300  0.902800  1.0  0.0628
  H  H55  1  0.625700  0.130900  0.886800  1.0  0.0578
  H  H56  1  0.683400  0.031500  0.856300  1.0  0.0423
  H  H57  1  0.506600  0.918600  0.870300  1.0  0.0412
  H  H58  1  0.439300  0.021900  0.900300  1.0  0.0544
  H  H59  1  0.713500  0.740300  0.954600  1.0  0.0431
  H  H60  1  0.679900  0.690100  0.055400  1.0  0.0699
  H  H61  1  0.473900  0.748000  0.022100  1.0  0.0566
  H  H62  1  0.509800  0.800500  0.922400  1.0  0.0507
  H  H63  1  0.614200  0.766800  0.183000  1.0  0.1484
  H  H64  1  0.539000  0.752100  0.223700  1.0  0.1261
  H  H65  1  0.669200  0.687800  0.258100  1.0  0.1295
  H  H66  1  0.591600  0.658300  0.283000  1.0  0.0981
  H  H67  1  0.623400  0.563900  0.244000  1.0  0.0494
  H  H68  1  0.688500  0.599900  0.202900  1.0  0.0607
  H  H69  1  0.560500  0.546400  0.155300  1.0  0.1226
  H  H70  1  0.630200  0.574600  0.113400  1.0  0.1196
  H  H71  1  0.416600  0.765900  0.138300  1.0  0.0536
  H  H72  1  0.292100  0.751000  0.150500  1.0  0.042
  H  H73  1  0.312000  0.542700  0.129000  1.0  0.0492
  H  H74  1  0.434400  0.550500  0.120000  1.0  0.0653
  H  H75  1  0.046900  0.759700  0.197000  1.0  0.0573
  H  H76  1  0.009100  0.827900  0.288300  1.0  0.0257
  H  H77  1  0.142700  0.722500  0.400900  1.0  0.0857
  H  H78  1  0.190500  0.670000  0.308300  1.0  0.0087
  H  H79  1  0.133900  0.815200  0.494900  1.0  0.087
  H  H80  1  0.119000  0.898800  0.480100  1.0  0.0898
  H  H81  1  0.094700  0.872200  0.589500  1.0  0.0607
  H  H82  1  0.035100  0.813800  0.566900  1.0  0.0514
  H  H83  1  0.021200  0.897400  0.552600  1.0  0.0516
  H  H84  1  0.989600  0.729900  0.493500  1.0  0.1015
  H  H85  1  0.928800  0.790900  0.496000  1.0  0.0916
  H  H86  1  0.881800  0.685300  0.459000  1.0  0.0604
  H  H87  1  0.937400  0.685400  0.397600  1.0  0.0572
  H  H88  1  0.874800  0.745700  0.402800  1.0  0.0641
  H  H89  1  0.874300  0.869100  0.386800  1.0  0.0575
  H  H90  1  0.816600  0.968500  0.356300  1.0  0.0414
  H  H91  1  0.993400  0.081400  0.370300  1.0  0.0405
  H  H92  1  0.060700  0.978100  0.400300  1.0  0.0546
  H  H93  1  0.213500  0.759700  0.045400  1.0  0.043
  H  H94  1  0.179900  0.809900  0.944600  1.0  0.07
  H  H95  1  0.973900  0.752000  0.977900  1.0  0.0567
  H  H96  1  0.009800  0.699500  0.077600  1.0  0.0504
  H  H97  1  0.114200  0.733200  0.817000  1.0  0.1478
  H  H98  1  0.039000  0.747900  0.776300  1.0  0.1255
  H  H99  1  0.169200  0.812200  0.741900  1.0  0.1313
  H  H100  1  0.091600  0.841700  0.717000  1.0  0.0955
  H  H101  1  0.123400  0.936100  0.756000  1.0  0.0492
  H  H102  1  0.188500  0.900100  0.797100  1.0  0.0609
  H  H103  1  0.060500  0.953600  0.844700  1.0  0.1222
  H  H104  1  0.130200  0.925400  0.886600  1.0  0.1187
  H  H105  1  0.916600  0.734100  0.861700  1.0  0.0537
  H  H106  1  0.792100  0.749000  0.849500  1.0  0.0422
  H  H107  1  0.812000  0.957300  0.871000  1.0  0.0494
  H  H108  1  0.934400  0.949500  0.880000  1.0  0.0657
  H  H109  1  0.546900  0.740300  0.803000  1.0  0.0577
  H  H110  1  0.509100  0.672100  0.711700  1.0  0.026
  H  H111  1  0.642700  0.777500  0.599100  1.0  0.0855
  H  H112  1  0.690500  0.830000  0.691700  1.0  0.0083
  H  H113  1  0.633900  0.684800  0.505100  1.0  0.0865
  H  H114  1  0.619000  0.601200  0.519900  1.0  0.0909
  H  H115  1  0.594700  0.627800  0.410500  1.0  0.0612
  H  H116  1  0.535100  0.686200  0.433100  1.0  0.0527
  H  H117  1  0.521200  0.602600  0.447400  1.0  0.0516
  H  H118  1  0.489600  0.770100  0.506500  1.0  0.1021
  H  H119  1  0.428800  0.709100  0.504000  1.0  0.0919
  H  H120  1  0.381800  0.814700  0.541000  1.0  0.0607
  H  H121  1  0.437400  0.814600  0.602400  1.0  0.0593
  H  H122  1  0.374800  0.754300  0.597200  1.0  0.0651
  H  H123  1  0.374300  0.630900  0.613200  1.0  0.0579
  H  H124  1  0.316600  0.531500  0.643700  1.0  0.0412
  H  H125  1  0.493400  0.418600  0.629700  1.0  0.0406
  H  H126  1  0.560700  0.521900  0.599700  1.0  0.0543
  H  H127  1  0.286500  0.240300  0.545400  1.0  0.042
  H  H128  1  0.320100  0.190100  0.444600  1.0  0.0695
  H  H129  1  0.526100  0.248000  0.477900  1.0  0.0576
  H  H130  1  0.490200  0.300500  0.577600  1.0  0.05
  H  H131  1  0.385800  0.266800  0.317000  1.0  0.1482
  H  H132  1  0.461000  0.252100  0.276300  1.0  0.1259
  H  H133  1  0.330800  0.187800  0.241900  1.0  0.1221
  H  H134  1  0.408400  0.158300  0.217000  1.0  0.0959
  H  H135  1  0.376600  0.063900  0.256000  1.0  0.049
  H  H136  1  0.311500  0.099900  0.297100  1.0  0.0599
  H  H137  1  0.439500  0.046400  0.344700  1.0  0.1217
  H  H138  1  0.369800  0.074600  0.386600  1.0  0.1188
  H  H139  1  0.583400  0.265900  0.361700  1.0  0.0531
  H  H140  1  0.707900  0.251000  0.349500  1.0  0.042
  H  H141  1  0.688000  0.042700  0.371000  1.0  0.0494
  H  H142  1  0.565600  0.050500  0.380000  1.0  0.0652
  H  H143  1  0.953100  0.259700  0.303000  1.0  0.0577
  H  H144  1  0.990900  0.327900  0.211700  1.0  0.0255
  H  H145  1  0.857300  0.222500  0.099100  1.0  0.0857
  H  H146  1  0.809500  0.170000  0.191700  1.0  0.0082
  H  H147  1  0.866100  0.315200  0.005100  1.0  0.0863
  H  H148  1  0.881000  0.398800  0.019900  1.0  0.09
  H  H149  1  0.905300  0.372200  0.910500  1.0  0.0606
  H  H150  1  0.964900  0.313800  0.933100  1.0  0.0508
  H  H151  1  0.978800  0.397400  0.947400  1.0  0.0507
  H  H152  1  0.010400  0.229900  0.006500  1.0  0.1026
  H  H153  1  0.071200  0.290900  0.004000  1.0  0.0907
  H  H154  1  0.118200  0.185300  0.041000  1.0  0.0605
  H  H155  1  0.062600  0.185400  0.102400  1.0  0.0603
  H  H156  1  0.125200  0.245700  0.097200  1.0  0.0636
  H  H157  1  0.125700  0.369100  0.113200  1.0  0.0581
  H  H158  1  0.183400  0.468500  0.143700  1.0  0.0419
  H  H159  1  0.006600  0.581400  0.129700  1.0  0.0406
  H  H160  1  0.939300  0.478100  0.099700  1.0  0.0547
  H  H161  1  0.713900  0.508700  0.654700  1.0  0.054
  H  H162  1  0.625100  0.456100  0.723500  1.0  0.0888
  H  H163  1  0.670600  0.603600  0.858900  1.0  0.0371
  H  H164  1  0.751500  0.654900  0.789800  1.0  0.0418
  H  H165  1  0.496800  0.447200  0.772300  1.0  0.0691
  H  H166  1  0.487200  0.405700  0.840800  1.0  0.0934
  H  H167  1  0.393100  0.460400  0.865100  1.0  0.0584
  H  H168  1  0.386900  0.455500  0.785600  1.0  0.0802
  H  H169  1  0.439000  0.579600  0.772600  1.0  0.0595
  H  H170  1  0.375500  0.588200  0.827300  1.0  0.0564
  H  H171  1  0.459800  0.589500  0.913200  1.0  0.1085
  H  H172  1  0.502000  0.635500  0.856600  1.0  0.1236
  H  H173  1  0.691700  0.500600  0.928100  1.0  0.042
  H  H174  1  0.732700  0.434400  0.020300  1.0  0.0638
  H  H175  1  0.527400  0.405400  0.067500  1.0  0.0431
  H  H176  1  0.487400  0.442100  0.965000  1.0  0.082
  H  H177  1  0.017600  0.626700  0.670700  1.0  0.0465
  H  H178  1  0.113300  0.575900  0.729200  1.0  0.0801
  H  H179  1  0.970900  0.517300  0.870200  1.0  0.0891
  H  H180  1  0.881700  0.569500  0.807200  1.0  0.03
  H  H181  1  0.080600  0.572800  0.954900  1.0  0.076
  H  H182  1  0.118600  0.499700  0.981500  1.0  0.0843
  H  H183  1  0.199500  0.599100  0.004500  1.0  0.0715
  H  H184  1  0.198800  0.620900  0.927900  1.0  0.0852
  H  H185  1  0.237400  0.547600  0.950900  1.0  0.063
  H  H186  1  0.260900  0.542300  0.869500  1.0  0.0511
  H  H187  1  0.244400  0.514700  0.795800  1.0  0.0918
  H  H188  1  0.264500  0.650500  0.802000  1.0  0.0575
  H  H189  1  0.187900  0.656000  0.840600  1.0  0.0458
  H  H190  1  0.189600  0.629700  0.765200  1.0  0.07
  H  H191  1  0.203900  0.390200  0.936900  1.0  0.0734
  H  H192  1  0.212100  0.271700  0.930600  1.0  0.0485
  H  H193  1  0.082500  0.264900  0.776600  1.0  0.0296
  H  H194  1  0.063800  0.383900  0.785400  1.0  0.043
  H  H195  1  0.786100  0.491300  0.154700  1.0  0.0542
  H  H196  1  0.874900  0.543900  0.223500  1.0  0.0896
  H  H197  1  0.829400  0.396400  0.358900  1.0  0.0375
  H  H198  1  0.748500  0.345100  0.289800  1.0  0.0417
  H  H199  1  0.003200  0.552800  0.272300  1.0  0.0701
  H  H200  1  0.012800  0.594300  0.340800  1.0  0.0914
  H  H201  1  0.106900  0.539600  0.365100  1.0  0.0584
  H  H202  1  0.113100  0.544500  0.285600  1.0  0.0806
  H  H203  1  0.061000  0.420400  0.272600  1.0  0.0594
  H  H204  1  0.124500  0.411800  0.327300  1.0  0.0569
  H  H205  1  0.040200  0.410500  0.413200  1.0  0.1087
  H  H206  1  0.998000  0.364500  0.356600  1.0  0.1228
  H  H207  1  0.808300  0.499400  0.428100  1.0  0.0416
  H  H208  1  0.767300  0.565600  0.520300  1.0  0.0632
  H  H209  1  0.972600  0.594600  0.567500  1.0  0.0429
  H  H210  1  0.012600  0.557900  0.465000  1.0  0.0831
  H  H211  1  0.482400  0.373300  0.170700  1.0  0.0467
  H  H212  1  0.386700  0.424100  0.229200  1.0  0.0806
  H  H213  1  0.529100  0.482700  0.370200  1.0  0.0887
  H  H214  1  0.618300  0.430500  0.307200  1.0  0.03
  H  H215  1  0.419400  0.427200  0.454900  1.0  0.0769
  H  H216  1  0.381400  0.500300  0.481500  1.0  0.0831
  H  H217  1  0.300500  0.400900  0.504500  1.0  0.0717
  H  H218  1  0.301200  0.379100  0.427900  1.0  0.0839
  H  H219  1  0.262600  0.452400  0.450900  1.0  0.0645
  H  H220  1  0.239100  0.457700  0.369500  1.0  0.0503
  H  H221  1  0.255600  0.485300  0.295800  1.0  0.0911
  H  H222  1  0.235500  0.349500  0.302000  1.0  0.0574
  H  H223  1  0.312100  0.344000  0.340600  1.0  0.0455
  H  H224  1  0.310400  0.370300  0.265200  1.0  0.0702
  H  H225  1  0.296100  0.609800  0.436900  1.0  0.074
  H  H226  1  0.287900  0.728300  0.430600  1.0  0.0484
  H  H227  1  0.417500  0.735100  0.276600  1.0  0.0295
  H  H228  1  0.436200  0.616100  0.285400  1.0  0.0428
  H  H229  1  0.286100  0.008700  0.845300  1.0  0.0525
  H  H230  1  0.374900  0.956100  0.776500  1.0  0.089
  H  H231  1  0.329400  0.103600  0.641100  1.0  0.0378
  H  H232  1  0.248500  0.154900  0.710200  1.0  0.0422
  H  H233  1  0.503200  0.947200  0.727700  1.0  0.0691
  H  H234  1  0.512800  0.905700  0.659200  1.0  0.0926
  H  H235  1  0.606900  0.960400  0.634900  1.0  0.059
  H  H236  1  0.613100  0.955500  0.714400  1.0  0.0808
  H  H237  1  0.561000  0.079600  0.727400  1.0  0.0561
  H  H238  1  0.624500  0.088200  0.672700  1.0  0.0563
  H  H239  1  0.540200  0.089500  0.586800  1.0  0.1099
  H  H240  1  0.498000  0.135500  0.643400  1.0  0.1233
  H  H241  1  0.308300  0.000600  0.571900  1.0  0.0419
  H  H242  1  0.267300  0.934400  0.479700  1.0  0.0635
  H  H243  1  0.472600  0.905400  0.432500  1.0  0.0423
  H  H244  1  0.512600  0.942100  0.535000  1.0  0.0836
  H  H245  1  0.982400  0.126700  0.829300  1.0  0.0472
  H  H246  1  0.886700  0.075900  0.770800  1.0  0.082
  H  H247  1  0.029100  0.017300  0.629800  1.0  0.0895
  H  H248  1  0.118300  0.069500  0.692800  1.0  0.0301
  H  H249  1  0.919400  0.072800  0.545100  1.0  0.0765
  H  H250  1  0.881400  0.999700  0.518500  1.0  0.0834
  H  H251  1  0.800500  0.099100  0.495500  1.0  0.0725
  H  H252  1  0.801200  0.120900  0.572100  1.0  0.087
  H  H253  1  0.762600  0.047600  0.549100  1.0  0.0655
  H  H254  1  0.739100  0.042300  0.630500  1.0  0.0501
  H  H255  1  0.755600  0.014700  0.704200  1.0  0.0923
  H  H256  1  0.735500  0.150500  0.698000  1.0  0.0563
  H  H257  1  0.812100  0.156000  0.659400  1.0  0.0447
  H  H258  1  0.810400  0.129700  0.734800  1.0  0.071
  H  H259  1  0.796100  0.890200  0.563100  1.0  0.0728
  H  H260  1  0.787900  0.771700  0.569400  1.0  0.0481
  H  H261  1  0.917500  0.764900  0.723400  1.0  0.0298
  H  H262  1  0.936200  0.883900  0.714600  1.0  0.0429
  H  H263  1  0.213900  0.991300  0.345300  1.0  0.0524
  H  H264  1  0.125100  0.043900  0.276500  1.0  0.0895
  H  H265  1  0.170600  0.896400  0.141100  1.0  0.0382
  H  H266  1  0.251500  0.845100  0.210200  1.0  0.0417
  H  H267  1  0.996800  0.052800  0.227700  1.0  0.0694
  H  H268  1  0.987200  0.094300  0.159200  1.0  0.0906
  H  H269  1  0.893100  0.039600  0.134900  1.0  0.0585
  H  H270  1  0.886900  0.044500  0.214400  1.0  0.0814
  H  H271  1  0.939000  0.920400  0.227400  1.0  0.0563
  H  H272  1  0.875500  0.911800  0.172700  1.0  0.056
  H  H273  1  0.959800  0.910500  0.086800  1.0  0.1088
  H  H274  1  0.002000  0.864500  0.143400  1.0  0.1236
  H  H275  1  0.191700  0.999400  0.071900  1.0  0.0423
  H  H276  1  0.232700  0.065600  0.979700  1.0  0.0642
  H  H277  1  0.027400  0.094600  0.932500  1.0  0.0429
  H  H278  1  0.987400  0.057900  0.035000  1.0  0.0828
  H  H279  1  0.517600  0.873300  0.329300  1.0  0.0469
  H  H280  1  0.613300  0.924100  0.270800  1.0  0.0815
  H  H281  1  0.470900  0.982700  0.129800  1.0  0.0889
  H  H282  1  0.381700  0.930500  0.192800  1.0  0.0299
  H  H283  1  0.580600  0.927200  0.045100  1.0  0.0765
  H  H284  1  0.618600  0.000300  0.018500  1.0  0.0839
  H  H285  1  0.699500  0.900900  0.995500  1.0  0.0733
  H  H286  1  0.698800  0.879100  0.072100  1.0  0.0868
  H  H287  1  0.737400  0.952400  0.049100  1.0  0.0648
  H  H288  1  0.760900  0.957700  0.130500  1.0  0.0504
  H  H289  1  0.744400  0.985300  0.204200  1.0  0.091
  H  H290  1  0.764500  0.849500  0.198000  1.0  0.0584
  H  H291  1  0.687900  0.844000  0.159400  1.0  0.0441
  H  H292  1  0.689600  0.870300  0.234800  1.0  0.0714
  H  H293  1  0.703900  0.109800  0.063100  1.0  0.0733
  H  H294  1  0.712100  0.228300  0.069400  1.0  0.0477
  H  H295  1  0.582500  0.235100  0.223400  1.0  0.0296
  H  H296  1  0.563800  0.116100  0.214600  1.0  0.0433
  C  C297  1  0.836200  0.255800  0.468700  1.0  0.1069
  C  C298  1  0.856400  0.288000  0.528300  1.0  -0.1219
  C  C299  1  0.927800  0.288200  0.547500  1.0  -0.137
  C  C300  1  0.975900  0.254100  0.509100  1.0  -0.1051
  C  C301  1  0.954000  0.221200  0.449700  1.0  0.0883
  C  C302  1  0.920200  0.270700  0.699100  1.0  -0.1843
  C  C303  1  0.878400  0.332200  0.743000  1.0  -0.3131
  C  C304  1  0.864900  0.397300  0.712100  1.0  -0.2524
  C  C305  1  0.904800  0.413100  0.649300  1.0  -0.2263
  C  C306  1  0.056500  0.338900  0.633400  1.0  -0.1979
  C  C307  1  0.103200  0.281500  0.638400  1.0  -0.1511
  C  C308  1  0.178200  0.290400  0.643800  1.0  0.1113
  C  C309  1  0.166000  0.411100  0.631800  1.0  0.1109
  C  C310  1  0.093500  0.407000  0.627300  1.0  -0.1549
  C  C311  1  0.429800  0.246800  0.738600  1.0  0.0812
  C  C312  1  0.454700  0.208200  0.795000  1.0  -0.1047
  C  C313  1  0.432900  0.218100  0.851500  1.0  0.0627
  C  C314  1  0.377100  0.266600  0.858600  1.0  -0.1862
  C  C315  1  0.350400  0.298800  0.802600  1.0  0.1272
  C  C316  1  0.404700  0.147400  0.992200  1.0  -0.4043
  C  C317  1  0.441400  0.140400  0.055400  1.0  -0.3381
  C  C318  1  0.540200  0.237600  0.965400  1.0  -0.4248
  C  C319  1  0.590800  0.284200  0.928100  1.0  -0.3752
  C  C320  1  0.523700  0.090000  0.899900  1.0  -0.0577
  C  C321  1  0.598100  0.087600  0.884300  1.0  -0.1701
  C  C322  1  0.632400  0.027800  0.866000  1.0  0.1429
  C  C323  1  0.531800  0.963300  0.873500  1.0  0.1098
  C  C324  1  0.490700  0.026000  0.892700  1.0  -0.1397
  C  C325  1  0.663800  0.744200  0.968700  1.0  0.1069
  C  C326  1  0.643600  0.712000  0.028300  1.0  -0.1223
  C  C327  1  0.572200  0.711800  0.047500  1.0  -0.137
  C  C328  1  0.524100  0.745900  0.009100  1.0  -0.1062
  C  C329  1  0.546000  0.778800  0.949700  1.0  0.0877
  C  C330  1  0.579800  0.729300  0.199100  1.0  -0.1833
  C  C331  1  0.621600  0.667800  0.243000  1.0  -0.3126
  C  C332  1  0.635100  0.602700  0.212100  1.0  -0.2512
  C  C333  1  0.595200  0.586900  0.149300  1.0  -0.2277
  C  C334  1  0.443500  0.661100  0.133400  1.0  -0.1988
  C  C335  1  0.396800  0.718500  0.138400  1.0  -0.1512
  C  C336  1  0.321800  0.709600  0.143800  1.0  0.1118
  C  C337  1  0.334000  0.588900  0.131800  1.0  0.1112
  C  C338  1  0.406500  0.593000  0.127300  1.0  -0.152
  C  C339  1  0.070200  0.753200  0.238600  1.0  0.0813
  C  C340  1  0.045300  0.791800  0.295000  1.0  -0.1036
  C  C341  1  0.067100  0.781900  0.351500  1.0  0.0618
  C  C342  1  0.122900  0.733400  0.358600  1.0  -0.1873
  C  C343  1  0.149600  0.701200  0.302600  1.0  0.1263
  C  C344  1  0.095300  0.852600  0.492200  1.0  -0.4036
  C  C345  1  0.058600  0.859600  0.555400  1.0  -0.3367
  C  C346  1  0.959800  0.762400  0.465400  1.0  -0.4243
  C  C347  1  0.909200  0.715800  0.428100  1.0  -0.3742
  C  C348  1  0.976300  0.910000  0.399900  1.0  -0.0581
  C  C349  1  0.901900  0.912400  0.384300  1.0  -0.1691
  C  C350  1  0.867600  0.972200  0.366000  1.0  0.1416
  C  C351  1  0.968200  0.036700  0.373500  1.0  0.1109
  C  C352  1  0.009300  0.974000  0.392700  1.0  -0.1416
  C  C353  1  0.163800  0.755800  0.031300  1.0  0.107
  C  C354  1  0.143600  0.788000  0.971700  1.0  -0.1233
  C  C355  1  0.072200  0.788200  0.952500  1.0  -0.1369
  C  C356  1  0.024100  0.754100  0.990900  1.0  -0.1055
  C  C357  1  0.046000  0.721200  0.050300  1.0  0.0891
  C  C358  1  0.079800  0.770700  0.800900  1.0  -0.1844
  C  C359  1  0.121600  0.832200  0.757000  1.0  -0.3142
  C  C360  1  0.135100  0.897300  0.787900  1.0  -0.2518
  C  C361  1  0.095200  0.913100  0.850700  1.0  -0.2258
  C  C362  1  0.943500  0.838900  0.866600  1.0  -0.1982
  C  C363  1  0.896800  0.781500  0.861600  1.0  -0.1497
  C  C364  1  0.821800  0.790400  0.856200  1.0  0.1119
  C  C365  1  0.834000  0.911100  0.868200  1.0  0.1104
  C  C366  1  0.906500  0.907000  0.872700  1.0  -0.1534
  C  C367  1  0.570200  0.746800  0.761400  1.0  0.0811
  C  C368  1  0.545300  0.708200  0.705000  1.0  -0.1034
  C  C369  1  0.567100  0.718100  0.648500  1.0  0.0618
  C  C370  1  0.622900  0.766600  0.641400  1.0  -0.1879
  C  C371  1  0.649600  0.798800  0.697400  1.0  0.1266
  C  C372  1  0.595300  0.647400  0.507800  1.0  -0.4035
  C  C373  1  0.558600  0.640400  0.444600  1.0  -0.3376
  C  C374  1  0.459800  0.737600  0.534600  1.0  -0.4247
  C  C375  1  0.409200  0.784200  0.571900  1.0  -0.3737
  C  C376  1  0.476300  0.590000  0.600100  1.0  -0.0577
  C  C377  1  0.401900  0.587600  0.615700  1.0  -0.1689
  C  C378  1  0.367600  0.527800  0.634000  1.0  0.1416
  C  C379  1  0.468200  0.463300  0.626500  1.0  0.1098
  C  C380  1  0.509300  0.526000  0.607300  1.0  -0.1419
  C  C381  1  0.336200  0.244200  0.531300  1.0  0.1071
  C  C382  1  0.356400  0.212000  0.471700  1.0  -0.1227
  C  C383  1  0.427800  0.211800  0.452500  1.0  -0.1365
  C  C384  1  0.475900  0.245900  0.490900  1.0  -0.1051
  C  C385  1  0.454000  0.278800  0.550300  1.0  0.0897
  C  C386  1  0.420200  0.229300  0.300900  1.0  -0.1828
  C  C387  1  0.378400  0.167800  0.257000  1.0  -0.314
  C  C388  1  0.364900  0.102700  0.287900  1.0  -0.2528
  C  C389  1  0.404800  0.086900  0.350700  1.0  -0.2267
  C  C390  1  0.556500  0.161100  0.366600  1.0  -0.1977
  C  C391  1  0.603200  0.218500  0.361600  1.0  -0.1527
  C  C392  1  0.678200  0.209600  0.356200  1.0  0.1107
  C  C393  1  0.666000  0.088900  0.368200  1.0  0.1123
  C  C394  1  0.593500  0.093000  0.372700  1.0  -0.1539
  C  C395  1  0.929800  0.253200  0.261400  1.0  0.0822
  C  C396  1  0.954700  0.291800  0.205000  1.0  -0.1033
  C  C397  1  0.932900  0.281900  0.148500  1.0  0.0617
  C  C398  1  0.877100  0.233400  0.141400  1.0  -0.1871
  C  C399  1  0.850400  0.201200  0.197400  1.0  0.1276
  C  C400  1  0.904700  0.352600  0.007800  1.0  -0.4047
  C  C401  1  0.941400  0.359600  0.944600  1.0  -0.3395
  C  C402  1  0.040200  0.262400  0.034600  1.0  -0.4233
  C  C403  1  0.090800  0.215800  0.071900  1.0  -0.3754
  C  C404  1  0.023700  0.410000  0.100100  1.0  -0.0585
  C  C405  1  0.098100  0.412400  0.115700  1.0  -0.1703
  C  C406  1  0.132400  0.472200  0.134000  1.0  0.1429
  C  C407  1  0.031800  0.536700  0.126500  1.0  0.11
  C  C408  1  0.990700  0.474000  0.107300  1.0  -0.1409
  C  C409  1  0.703200  0.529800  0.696500  1.0  0.1301
  C  C410  1  0.649400  0.499100  0.736500  1.0  -0.1651
  C  C411  1  0.631300  0.533900  0.798400  1.0  -0.0366
  C  C412  1  0.674500  0.585000  0.815200  1.0  -0.1274
  C  C413  1  0.725200  0.613900  0.774800  1.0  0.1217
  C  C414  1  0.484200  0.453700  0.819600  1.0  -0.2194
  C  C415  1  0.416100  0.475100  0.823000  1.0  -0.1047
  C  C416  1  0.423400  0.565300  0.818000  1.0  -0.2367
  C  C417  1  0.479900  0.588300  0.867700  1.0  -0.3625
  C  C418  1  0.588100  0.467300  0.931300  1.0  -0.0628
  C  C419  1  0.657600  0.473200  0.953300  1.0  -0.1281
  C  C420  1  0.681700  0.440600  0.011900  1.0  0.0822
  C  C421  1  0.563300  0.420700  0.036500  1.0  0.1284
  C  C422  1  0.538200  0.443400  0.975500  1.0  -0.2397
  C  C423  1  0.007300  0.603000  0.711300  1.0  0.0979
  C  C424  1  0.065400  0.573800  0.747700  1.0  -0.1774
  C  C425  1  0.057000  0.542000  0.809200  1.0  -0.17
  C  C426  1  0.983800  0.539600  0.829500  1.0  -0.1556
  C  C427  1  0.930300  0.569800  0.789900  1.0  0.1447
  C  C428  1  0.123300  0.540200  0.950000  1.0  -0.2579
  C  C429  1  0.196000  0.580600  0.959200  1.0  -0.3701
  C  C430  1  0.225100  0.544400  0.832600  1.0  -0.301
  C  C431  1  0.216000  0.629000  0.808000  1.0  -0.3655
  C  C432  1  0.136800  0.404200  0.857600  1.0  -0.1863
  C  C433  1  0.178300  0.365600  0.902700  1.0  -0.1586
  C  C434  1  0.182500  0.295400  0.898500  1.0  0.1485
  C  C435  1  0.107300  0.289900  0.811000  1.0  0.1306
  C  C436  1  0.098200  0.361800  0.814200  1.0  -0.1613
  C  C437  1  0.796800  0.470200  0.196500  1.0  0.1306
  C  C438  1  0.850600  0.500900  0.236500  1.0  -0.1643
  C  C439  1  0.868700  0.466100  0.298400  1.0  -0.0353
  C  C440  1  0.825500  0.415000  0.315200  1.0  -0.127
  C  C441  1  0.774800  0.386100  0.274800  1.0  0.1239
  C  C442  1  0.015800  0.546300  0.319600  1.0  -0.2218
  C  C443  1  0.083900  0.524900  0.323000  1.0  -0.104
  C  C444  1  0.076600  0.434700  0.318000  1.0  -0.2376
  C  C445  1  0.020100  0.411700  0.367700  1.0  -0.3624
  C  C446  1  0.911900  0.532700  0.431300  1.0  -0.0631
  C  C447  1  0.842400  0.526800  0.453300  1.0  -0.1277
  C  C448  1  0.818300  0.559400  0.511900  1.0  0.0816
  C  C449  1  0.936700  0.579300  0.536500  1.0  0.1288
  C  C450  1  0.961800  0.556600  0.475500  1.0  -0.2417
  C  C451  1  0.492700  0.397000  0.211300  1.0  0.0983
  C  C452  1  0.434600  0.426200  0.247700  1.0  -0.1757
  C  C453  1  0.443000  0.458000  0.309200  1.0  -0.1693
  C  C454  1  0.516200  0.460400  0.329500  1.0  -0.156
  C  C455  1  0.569700  0.430200  0.289900  1.0  0.1444
  C  C456  1  0.376700  0.459800  0.450000  1.0  -0.2584
  C  C457  1  0.304000  0.419400  0.459200  1.0  -0.3703
  C  C458  1  0.274900  0.455600  0.332600  1.0  -0.3007
  C  C459  1  0.284000  0.371000  0.308000  1.0  -0.3642
  C  C460  1  0.363200  0.595800  0.357600  1.0  -0.1867
  C  C461  1  0.321700  0.634400  0.402700  1.0  -0.1574
  C  C462  1  0.317500  0.704600  0.398500  1.0  0.1475
  C  C463  1  0.392700  0.710100  0.311000  1.0  0.1302
  C  C464  1  0.401800  0.638200  0.314200  1.0  -0.1617
  C  C465  1  0.296800  0.029800  0.803500  1.0  0.1293
  C  C466  1  0.350600  0.999100  0.763500  1.0  -0.164
  C  C467  1  0.368700  0.033900  0.701600  1.0  -0.035
  C  C468  1  0.325500  0.085000  0.684800  1.0  -0.1266
  C  C469  1  0.274800  0.113900  0.725200  1.0  0.1234
  C  C470  1  0.515800  0.953700  0.680400  1.0  -0.2223
  C  C471  1  0.583900  0.975100  0.677000  1.0  -0.1052
  C  C472  1  0.576600  0.065300  0.682000  1.0  -0.2383
  C  C473  1  0.520100  0.088300  0.632300  1.0  -0.3639
  C  C474  1  0.411900  0.967300  0.568700  1.0  -0.0633
  C  C475  1  0.342400  0.973200  0.546700  1.0  -0.1274
  C  C476  1  0.318300  0.940600  0.488100  1.0  0.0812
  C  C477  1  0.436700  0.920700  0.463500  1.0  0.1283
  C  C478  1  0.461800  0.943400  0.524500  1.0  -0.2424
  C  C479  1  0.992700  0.103000  0.788700  1.0  0.0979
  C  C480  1  0.934600  0.073800  0.752300  1.0  -0.1757
  C  C481  1  0.943000  0.042000  0.690800  1.0  -0.1688
  C  C482  1  0.016200  0.039600  0.670500  1.0  -0.1577
  C  C483  1  0.069700  0.069800  0.710100  1.0  0.1438
  C  C484  1  0.876700  0.040200  0.550000  1.0  -0.2587
  C  C485  1  0.804000  0.080600  0.540800  1.0  -0.3719
  C  C486  1  0.774900  0.044400  0.667400  1.0  -0.3
  C  C487  1  0.784000  0.129000  0.692000  1.0  -0.3645
  C  C488  1  0.863200  0.904200  0.642400  1.0  -0.1861
  C  C489  1  0.821700  0.865600  0.597300  1.0  -0.1567
  C  C490  1  0.817500  0.795400  0.601500  1.0  0.1477
  C  C491  1  0.892700  0.789900  0.689000  1.0  0.1307
  C  C492  1  0.901800  0.861800  0.685800  1.0  -0.161
  C  C493  1  0.203200  0.970200  0.303500  1.0  0.1294
  C  C494  1  0.149400  0.000900  0.263500  1.0  -0.1645
  C  C495  1  0.131300  0.966100  0.201600  1.0  -0.036
  C  C496  1  0.174500  0.915000  0.184800  1.0  -0.1266
  C  C497  1  0.225200  0.886100  0.225200  1.0  0.1223
  C  C498  1  0.984200  0.046300  0.180400  1.0  -0.2193
  C  C499  1  0.916100  0.024900  0.177000  1.0  -0.1025
  C  C500  1  0.923400  0.934700  0.182000  1.0  -0.2367
  C  C501  1  0.979900  0.911700  0.132300  1.0  -0.3637
  C  C502  1  0.088100  0.032700  0.068700  1.0  -0.0637
  C  C503  1  0.157600  0.026800  0.046700  1.0  -0.1274
  C  C504  1  0.181700  0.059400  0.988100  1.0  0.082
  C  C505  1  0.063300  0.079300  0.963500  1.0  0.1282
  C  C506  1  0.038200  0.056600  0.024500  1.0  -0.2409
  C  C507  1  0.507300  0.897000  0.288700  1.0  0.0988
  C  C508  1  0.565400  0.926200  0.252300  1.0  -0.1773
  C  C509  1  0.557000  0.958000  0.190800  1.0  -0.1696
  C  C510  1  0.483800  0.960400  0.170500  1.0  -0.1569
  C  C511  1  0.430300  0.930200  0.210100  1.0  0.1442
  C  C512  1  0.623300  0.959800  0.050000  1.0  -0.2584
  C  C513  1  0.696000  0.919400  0.040800  1.0  -0.3721
  C  C514  1  0.725100  0.955600  0.167400  1.0  -0.2996
  C  C515  1  0.716000  0.871000  0.192000  1.0  -0.3643
  C  C516  1  0.636800  0.095800  0.142400  1.0  -0.1866
  C  C517  1  0.678300  0.134400  0.097300  1.0  -0.1607
  C  C518  1  0.682500  0.204600  0.101500  1.0  0.1465
  C  C519  1  0.607300  0.210100  0.189000  1.0  0.1299
  C  C520  1  0.598200  0.138200  0.185800  1.0  -0.1609
  N  N521  1  0.210800  0.353700  0.640100  1.0  -0.3945
  N  N522  1  0.883500  0.219700  0.430600  1.0  -0.4046
  N  N523  1  0.374000  0.291900  0.744400  1.0  -0.3569
  N  N524  1  0.602300  0.964500  0.860200  1.0  -0.3849
  N  N525  1  0.289200  0.646300  0.140100  1.0  -0.3946
  N  N526  1  0.616500  0.780300  0.930600  1.0  -0.4043
  N  N527  1  0.126000  0.708100  0.244400  1.0  -0.3576
  N  N528  1  0.897700  0.035500  0.360200  1.0  -0.3867
  N  N529  1  0.789200  0.853700  0.859900  1.0  -0.3936
  N  N530  1  0.116500  0.719700  0.069400  1.0  -0.4046
  N  N531  1  0.626000  0.791900  0.755600  1.0  -0.3571
  N  N532  1  0.397700  0.464500  0.639800  1.0  -0.3873
  N  N533  1  0.710800  0.146300  0.359900  1.0  -0.3949
  N  N534  1  0.383500  0.280300  0.569400  1.0  -0.4048
  N  N535  1  0.874000  0.208100  0.255600  1.0  -0.3577
  N  N536  1  0.102300  0.535500  0.139800  1.0  -0.3858
  N  N537  1  0.740200  0.588600  0.715700  1.0  -0.3952
  N  N538  1  0.631600  0.418400  0.055500  1.0  -0.3842
  N  N539  1  0.938700  0.598700  0.731600  1.0  -0.3978
  N  N540  1  0.147800  0.252100  0.851600  1.0  -0.4051
  N  N541  1  0.759800  0.411400  0.215700  1.0  -0.3939
  N  N542  1  0.868400  0.581600  0.555500  1.0  -0.3861
  N  N543  1  0.561300  0.401300  0.231600  1.0  -0.3971
  N  N544  1  0.352200  0.747900  0.351600  1.0  -0.4062
  N  N545  1  0.259800  0.088600  0.784300  1.0  -0.394
  N  N546  1  0.368400  0.918400  0.444500  1.0  -0.3882
  N  N547  1  0.061300  0.098700  0.768400  1.0  -0.3976
  N  N548  1  0.852200  0.752100  0.648400  1.0  -0.4058
  N  N549  1  0.240200  0.911400  0.284300  1.0  -0.3932
  N  N550  1  0.131600  0.081600  0.944500  1.0  -0.3857
  N  N551  1  0.438700  0.901300  0.268400  1.0  -0.3979
  N  N552  1  0.647800  0.247900  0.148400  1.0  -0.4067
