# generated using pymatgen
data_Si2AgH32(C7N)4
_symmetry_space_group_name_H-M   'P 1'
_cell_length_a   18.31000000
_cell_length_b   18.35270000
_cell_length_c   20.29540000
_cell_angle_alpha   90.00000000
_cell_angle_beta   90.00000000
_cell_angle_gamma   90.00000000
_symmetry_Int_Tables_number   1
_chemical_formula_structural   Si2AgH32(C7N)4
_chemical_formula_sum   'Si16 Ag8 H256 C224 N32'
_cell_volume   6820.02434659
_cell_formula_units_Z   8
loop_
 _symmetry_equiv_pos_site_id
 _symmetry_equiv_pos_as_xyz
  1  'x, y, z'
loop_
 _atom_site_type_symbol
 _atom_site_label
 _atom_site_symmetry_multiplicity
 _atom_site_fract_x
 _atom_site_fract_y
 _atom_site_fract_z
 _atom_site_occupancy
 _atom_site_charge
  Si  Si1  1  0.539670  0.832280  0.628890  1.0  0.929
  Si  Si2  1  0.035600  0.668950  0.929630  1.0  1.0009
  Si  Si3  1  0.960330  0.167720  0.128890  1.0  0.9269
  Si  Si4  1  0.464400  0.331050  0.429630  1.0  1.0001
  Si  Si5  1  0.460330  0.332280  0.871110  1.0  0.9273
  Si  Si6  1  0.964400  0.168950  0.570370  1.0  0.9988
  Si  Si7  1  0.039670  0.667720  0.371110  1.0  0.9276
  Si  Si8  1  0.535600  0.831050  0.070370  1.0  0.9977
  Si  Si9  1  0.375750  0.007950  0.865290  1.0  0.9087
  Si  Si10  1  0.046690  0.509590  0.649920  1.0  0.8695
  Si  Si11  1  0.124250  0.992050  0.365290  1.0  0.9089
  Si  Si12  1  0.453310  0.490410  0.149920  1.0  0.8683
  Si  Si13  1  0.624250  0.507950  0.634710  1.0  0.909
  Si  Si14  1  0.953310  0.009590  0.850080  1.0  0.8693
  Si  Si15  1  0.875750  0.492050  0.134710  1.0  0.907
  Si  Si16  1  0.546690  0.990410  0.350080  1.0  0.8683
  Ag  Ag17  1  0.159320  0.856470  0.651140  1.0  0.3101
  Ag  Ag18  1  0.340680  0.143530  0.151140  1.0  0.3104
  Ag  Ag19  1  0.840680  0.356470  0.848860  1.0  0.3101
  Ag  Ag20  1  0.659320  0.643530  0.348860  1.0  0.3098
  Ag  Ag21  1  0.338530  0.625090  0.846120  1.0  0.3028
  Ag  Ag22  1  0.161470  0.374910  0.346120  1.0  0.3024
  Ag  Ag23  1  0.661470  0.125090  0.653880  1.0  0.3022
  Ag  Ag24  1  0.838530  0.874910  0.153880  1.0  0.3026
  H  H25  1  0.303600  0.959600  0.628300  1.0  0.0576
  H  H26  1  0.428400  0.952300  0.621400  1.0  0.0498
  H  H27  1  0.413800  0.735100  0.638500  1.0  0.0759
  H  H28  1  0.289200  0.746400  0.644000  1.0  0.0437
  H  H29  1  0.507000  0.706000  0.418900  1.0  0.0439
  H  H30  1  0.465500  0.762400  0.514900  1.0  0.0756
  H  H31  1  0.673500  0.819500  0.550500  1.0  0.068
  H  H32  1  0.706900  0.764200  0.455400  1.0  0.0419
  H  H33  1  0.531800  0.749300  0.720300  1.0  0.1108
  H  H34  1  0.607000  0.735700  0.681000  1.0  0.1098
  H  H35  1  0.576700  0.841000  0.777100  1.0  0.0467
  H  H36  1  0.652000  0.799300  0.764300  1.0  0.042
  H  H37  1  0.689000  0.877000  0.693500  1.0  0.0479
  H  H38  1  0.645100  0.927600  0.743800  1.0  0.0319
  H  H39  1  0.622100  0.934300  0.617500  1.0  0.1195
  H  H40  1  0.558500  0.954600  0.669300  1.0  0.0994
  H  H41  1  0.033700  0.756900  0.703100  1.0  0.0406
  H  H42  1  0.988800  0.693500  0.791800  1.0  0.0831
  H  H43  1  0.160200  0.764400  0.898200  1.0  0.0854
  H  H44  1  0.199100  0.826300  0.805900  1.0  0.0298
  H  H45  1  0.821500  0.530400  0.861600  1.0  0.0465
  H  H46  1  0.883600  0.633100  0.891500  1.0  0.0756
  H  H47  1  0.066300  0.515700  0.900100  1.0  0.0568
  H  H48  1  0.000000  0.414900  0.870600  1.0  0.0443
  H  H49  1  0.960000  0.778300  0.962300  1.0  0.1286
  H  H50  1  0.917400  0.705200  0.984800  1.0  0.103
  H  H51  1  0.965700  0.737000  0.078500  1.0  0.022
  H  H52  1  0.034900  0.774200  0.044200  1.0  0.0458
  H  H53  1  0.014200  0.622800  0.064800  1.0  0.0585
  H  H54  1  0.076000  0.672800  0.097800  1.0  0.0601
  H  H55  1  0.117200  0.597300  0.994800  1.0  0.1033
  H  H56  1  0.143400  0.681600  0.995000  1.0  0.101
  H  H57  1  0.196400  0.040400  0.128300  1.0  0.0576
  H  H58  1  0.071600  0.047700  0.121400  1.0  0.0494
  H  H59  1  0.086200  0.264900  0.138500  1.0  0.0758
  H  H60  1  0.210800  0.253600  0.144000  1.0  0.0435
  H  H61  1  0.993000  0.294000  0.918900  1.0  0.0435
  H  H62  1  0.034500  0.237600  0.014900  1.0  0.076
  H  H63  1  0.826500  0.180500  0.050500  1.0  0.0684
  H  H64  1  0.793100  0.235800  0.955400  1.0  0.0409
  H  H65  1  0.968200  0.250700  0.220300  1.0  0.1111
  H  H66  1  0.893000  0.264300  0.181000  1.0  0.1093
  H  H67  1  0.923300  0.159000  0.277100  1.0  0.0464
  H  H68  1  0.848000  0.200700  0.264300  1.0  0.0427
  H  H69  1  0.811000  0.123000  0.193500  1.0  0.0502
  H  H70  1  0.854900  0.072400  0.243800  1.0  0.0311
  H  H71  1  0.877900  0.065700  0.117500  1.0  0.1205
  H  H72  1  0.941500  0.045400  0.169300  1.0  0.1005
  H  H73  1  0.466300  0.243100  0.203100  1.0  0.0395
  H  H74  1  0.511200  0.306500  0.291800  1.0  0.0835
  H  H75  1  0.339800  0.235600  0.398200  1.0  0.0853
  H  H76  1  0.300900  0.173700  0.305900  1.0  0.0296
  H  H77  1  0.678500  0.469600  0.361600  1.0  0.0464
  H  H78  1  0.616400  0.366900  0.391500  1.0  0.075
  H  H79  1  0.433700  0.484300  0.400100  1.0  0.0576
  H  H80  1  0.500000  0.585100  0.370600  1.0  0.0439
  H  H81  1  0.540000  0.221700  0.462300  1.0  0.1268
  H  H82  1  0.582600  0.294800  0.484800  1.0  0.1017
  H  H83  1  0.534300  0.263000  0.578500  1.0  0.022
  H  H84  1  0.465100  0.225800  0.544200  1.0  0.0467
  H  H85  1  0.485800  0.377200  0.564800  1.0  0.0585
  H  H86  1  0.424000  0.327200  0.597800  1.0  0.0604
  H  H87  1  0.382800  0.402700  0.494800  1.0  0.1029
  H  H88  1  0.356600  0.318400  0.495000  1.0  0.1007
  H  H89  1  0.696400  0.459600  0.871700  1.0  0.0573
  H  H90  1  0.571600  0.452300  0.878600  1.0  0.0493
  H  H91  1  0.586200  0.235100  0.861500  1.0  0.0755
  H  H92  1  0.710800  0.246400  0.856000  1.0  0.0438
  H  H93  1  0.493000  0.206000  0.081100  1.0  0.043
  H  H94  1  0.534500  0.262400  0.985100  1.0  0.0758
  H  H95  1  0.326500  0.319500  0.949500  1.0  0.0689
  H  H96  1  0.293100  0.264200  0.044600  1.0  0.041
  H  H97  1  0.468200  0.249300  0.779700  1.0  0.1118
  H  H98  1  0.393000  0.235700  0.819000  1.0  0.1091
  H  H99  1  0.423300  0.341000  0.722900  1.0  0.0453
  H  H100  1  0.348000  0.299300  0.735700  1.0  0.0411
  H  H101  1  0.311000  0.377000  0.806500  1.0  0.0503
  H  H102  1  0.354900  0.427600  0.756200  1.0  0.0305
  H  H103  1  0.377900  0.434300  0.882500  1.0  0.1196
  H  H104  1  0.441500  0.454600  0.830700  1.0  0.0994
  H  H105  1  0.966300  0.256900  0.796900  1.0  0.0403
  H  H106  1  0.011200  0.193500  0.708200  1.0  0.0835
  H  H107  1  0.839800  0.264400  0.601800  1.0  0.0847
  H  H108  1  0.800900  0.326300  0.694100  1.0  0.0304
  H  H109  1  0.178500  0.030400  0.638400  1.0  0.0465
  H  H110  1  0.116400  0.133100  0.608500  1.0  0.075
  H  H111  1  0.933700  0.015700  0.599900  1.0  0.0577
  H  H112  1  0.000000  0.914900  0.629400  1.0  0.0434
  H  H113  1  0.040000  0.278300  0.537700  1.0  0.1262
  H  H114  1  0.082600  0.205200  0.515200  1.0  0.1017
  H  H115  1  0.034300  0.237000  0.421500  1.0  0.0235
  H  H116  1  0.965100  0.274200  0.455800  1.0  0.0461
  H  H117  1  0.985800  0.122800  0.435200  1.0  0.0589
  H  H118  1  0.924000  0.172800  0.402200  1.0  0.0611
  H  H119  1  0.882800  0.097300  0.505200  1.0  0.1031
  H  H120  1  0.856600  0.181600  0.505000  1.0  0.1
  H  H121  1  0.803600  0.540400  0.371700  1.0  0.0576
  H  H122  1  0.928400  0.547700  0.378600  1.0  0.0496
  H  H123  1  0.913800  0.764900  0.361500  1.0  0.0756
  H  H124  1  0.789200  0.753600  0.356000  1.0  0.0438
  H  H125  1  0.007000  0.794000  0.581100  1.0  0.0439
  H  H126  1  0.965500  0.737600  0.485100  1.0  0.0757
  H  H127  1  0.173500  0.680500  0.449500  1.0  0.0682
  H  H128  1  0.206900  0.735800  0.544600  1.0  0.0419
  H  H129  1  0.031800  0.750700  0.279700  1.0  0.1108
  H  H130  1  0.107000  0.764300  0.319000  1.0  0.1093
  H  H131  1  0.076700  0.659000  0.222900  1.0  0.0462
  H  H132  1  0.152000  0.700700  0.235700  1.0  0.0437
  H  H133  1  0.189000  0.623000  0.306500  1.0  0.0485
  H  H134  1  0.145100  0.572400  0.256200  1.0  0.0308
  H  H135  1  0.122100  0.565700  0.382500  1.0  0.1187
  H  H136  1  0.058500  0.545400  0.330700  1.0  0.0999
  H  H137  1  0.533700  0.743100  0.296900  1.0  0.0415
  H  H138  1  0.488800  0.806500  0.208200  1.0  0.0833
  H  H139  1  0.660200  0.735600  0.101800  1.0  0.0845
  H  H140  1  0.699100  0.673700  0.194100  1.0  0.0295
  H  H141  1  0.321500  0.969600  0.138400  1.0  0.0464
  H  H142  1  0.383600  0.866900  0.108500  1.0  0.0746
  H  H143  1  0.566300  0.984300  0.099900  1.0  0.0574
  H  H144  1  0.500000  0.085100  0.129400  1.0  0.0439
  H  H145  1  0.460000  0.721700  0.037700  1.0  0.1275
  H  H146  1  0.417400  0.794800  0.015200  1.0  0.103
  H  H147  1  0.465700  0.763000  0.921500  1.0  0.023
  H  H148  1  0.534900  0.725800  0.955800  1.0  0.047
  H  H149  1  0.514200  0.877200  0.935200  1.0  0.0582
  H  H150  1  0.576000  0.827200  0.902200  1.0  0.0612
  H  H151  1  0.617200  0.902700  0.005200  1.0  0.1027
  H  H152  1  0.643400  0.818400  0.005000  1.0  0.1008
  H  H153  1  0.295300  0.768000  0.937800  1.0  0.0484
  H  H154  1  0.305200  0.891100  0.944300  1.0  0.0717
  H  H155  1  0.422200  0.885900  0.774400  1.0  0.0673
  H  H156  1  0.404600  0.762300  0.771900  1.0  0.0335
  H  H157  1  0.483100  0.123400  0.672000  1.0  0.0564
  H  H158  1  0.389000  0.079100  0.734800  1.0  0.0835
  H  H159  1  0.537700  0.013000  0.868600  1.0  0.085
  H  H160  1  0.626100  0.062200  0.803000  1.0  0.047
  H  H161  1  0.290200  0.091000  0.814200  1.0  0.1369
  H  H162  1  0.247400  0.019300  0.839100  1.0  0.1256
  H  H163  1  0.268600  0.144400  0.907300  1.0  0.0732
  H  H164  1  0.222100  0.075600  0.930100  1.0  0.0665
  H  H165  1  0.290000  0.055300  0.001300  1.0  0.0731
  H  H166  1  0.331100  0.129200  0.983400  1.0  0.0524
  H  H167  1  0.390800  0.996300  0.983100  1.0  0.1272
  H  H168  1  0.430100  0.070000  0.958200  1.0  0.1318
  H  H169  1  0.216800  0.493500  0.836500  1.0  0.0474
  H  H170  1  0.124100  0.452600  0.769500  1.0  0.0731
  H  H171  1  0.149700  0.633300  0.658100  1.0  0.0791
  H  H172  1  0.243600  0.667100  0.727300  1.0  0.0366
  H  H173  1  0.025800  0.400300  0.433600  1.0  0.0501
  H  H174  1  0.984200  0.446900  0.532300  1.0  0.0679
  H  H175  1  0.190200  0.496700  0.577700  1.0  0.0706
  H  H176  1  0.224700  0.451800  0.477600  1.0  0.0273
  H  H177  1  0.998900  0.632800  0.651900  1.0  0.1287
  H  H178  1  0.958400  0.586800  0.594600  1.0  0.1087
  H  H179  1  0.934700  0.572700  0.735500  1.0  0.0545
  H  H180  1  0.872400  0.585200  0.681000  1.0  0.0529
  H  H181  1  0.885100  0.468000  0.642400  1.0  0.0485
  H  H182  1  0.876500  0.462800  0.720900  1.0  0.0404
  H  H183  1  0.982500  0.396100  0.665600  1.0  0.1245
  H  H184  1  0.996300  0.434200  0.736000  1.0  0.0973
  H  H185  1  0.204700  0.232000  0.437800  1.0  0.0483
  H  H186  1  0.194800  0.108900  0.444300  1.0  0.0711
  H  H187  1  0.077800  0.114100  0.274400  1.0  0.0667
  H  H188  1  0.095400  0.237700  0.271900  1.0  0.0341
  H  H189  1  0.016900  0.876600  0.172000  1.0  0.0559
  H  H190  1  0.111000  0.920900  0.234800  1.0  0.0848
  H  H191  1  0.962300  0.987000  0.368600  1.0  0.0853
  H  H192  1  0.873900  0.937800  0.303000  1.0  0.0462
  H  H193  1  0.209800  0.909000  0.314200  1.0  0.1369
  H  H194  1  0.252600  0.980700  0.339100  1.0  0.1244
  H  H195  1  0.231400  0.855600  0.407300  1.0  0.0699
  H  H196  1  0.277900  0.924400  0.430100  1.0  0.0665
  H  H197  1  0.210000  0.944700  0.501300  1.0  0.0714
  H  H198  1  0.168900  0.870800  0.483400  1.0  0.0528
  H  H199  1  0.109200  0.003700  0.483100  1.0  0.1259
  H  H200  1  0.069900  0.930000  0.458200  1.0  0.1315
  H  H201  1  0.283200  0.506500  0.336500  1.0  0.0477
  H  H202  1  0.375900  0.547400  0.269500  1.0  0.0726
  H  H203  1  0.350300  0.366700  0.158100  1.0  0.0792
  H  H204  1  0.256400  0.332900  0.227300  1.0  0.0366
  H  H205  1  0.474200  0.599700  0.933600  1.0  0.0497
  H  H206  1  0.515800  0.553100  0.032300  1.0  0.0679
  H  H207  1  0.309800  0.503300  0.077700  1.0  0.0699
  H  H208  1  0.275300  0.548200  0.977600  1.0  0.0271
  H  H209  1  0.501100  0.367200  0.151900  1.0  0.1273
  H  H210  1  0.541600  0.413200  0.094600  1.0  0.1089
  H  H211  1  0.565300  0.427300  0.235500  1.0  0.0536
  H  H212  1  0.627600  0.414800  0.181000  1.0  0.0543
  H  H213  1  0.614900  0.532000  0.142400  1.0  0.0502
  H  H214  1  0.623500  0.537200  0.220900  1.0  0.0403
  H  H215  1  0.517500  0.603900  0.165600  1.0  0.1256
  H  H216  1  0.503700  0.565800  0.236000  1.0  0.0976
  H  H217  1  0.704700  0.268000  0.562200  1.0  0.0482
  H  H218  1  0.694800  0.391100  0.555700  1.0  0.0712
  H  H219  1  0.577800  0.385900  0.725600  1.0  0.0665
  H  H220  1  0.595400  0.262300  0.728100  1.0  0.034
  H  H221  1  0.516900  0.623400  0.828000  1.0  0.0562
  H  H222  1  0.611000  0.579100  0.765200  1.0  0.0838
  H  H223  1  0.462300  0.513000  0.631400  1.0  0.0855
  H  H224  1  0.373900  0.562200  0.697000  1.0  0.0464
  H  H225  1  0.709800  0.591000  0.685800  1.0  0.1392
  H  H226  1  0.752600  0.519300  0.660900  1.0  0.1261
  H  H227  1  0.731400  0.644400  0.592700  1.0  0.0722
  H  H228  1  0.777900  0.575600  0.569900  1.0  0.0672
  H  H229  1  0.710000  0.555300  0.498700  1.0  0.0706
  H  H230  1  0.668900  0.629200  0.516600  1.0  0.0528
  H  H231  1  0.609200  0.496300  0.516900  1.0  0.127
  H  H232  1  0.569900  0.570000  0.541800  1.0  0.1319
  H  H233  1  0.783200  0.993500  0.663500  1.0  0.048
  H  H234  1  0.875900  0.952600  0.730500  1.0  0.0726
  H  H235  1  0.850300  0.133300  0.841900  1.0  0.0798
  H  H236  1  0.756400  0.167100  0.772700  1.0  0.0366
  H  H237  1  0.974200  0.900300  0.066400  1.0  0.0496
  H  H238  1  0.015800  0.946900  0.967700  1.0  0.068
  H  H239  1  0.809800  0.996700  0.922300  1.0  0.0699
  H  H240  1  0.775300  0.951800  0.022400  1.0  0.0271
  H  H241  1  0.001100  0.132800  0.848100  1.0  0.128
  H  H242  1  0.041600  0.086800  0.905400  1.0  0.1077
  H  H243  1  0.065300  0.072700  0.764500  1.0  0.0545
  H  H244  1  0.127600  0.085200  0.819000  1.0  0.0533
  H  H245  1  0.114900  0.968000  0.857600  1.0  0.0497
  H  H246  1  0.123500  0.962800  0.779100  1.0  0.0409
  H  H247  1  0.017500  0.896100  0.834400  1.0  0.1251
  H  H248  1  0.003700  0.934200  0.764000  1.0  0.0984
  H  H249  1  0.795300  0.732000  0.062200  1.0  0.048
  H  H250  1  0.805200  0.608900  0.055700  1.0  0.0719
  H  H251  1  0.922200  0.614100  0.225600  1.0  0.0668
  H  H252  1  0.904600  0.737700  0.228100  1.0  0.0335
  H  H253  1  0.983100  0.376600  0.328000  1.0  0.0565
  H  H254  1  0.889000  0.420900  0.265200  1.0  0.084
  H  H255  1  0.037700  0.487000  0.131400  1.0  0.0854
  H  H256  1  0.126100  0.437800  0.197000  1.0  0.0472
  H  H257  1  0.790200  0.409000  0.185800  1.0  0.1404
  H  H258  1  0.747400  0.480700  0.160900  1.0  0.1257
  H  H259  1  0.768600  0.355600  0.092700  1.0  0.0703
  H  H260  1  0.722100  0.424400  0.069900  1.0  0.0665
  H  H261  1  0.790000  0.444700  0.998700  1.0  0.0718
  H  H262  1  0.831100  0.370800  0.016600  1.0  0.0525
  H  H263  1  0.890800  0.503700  0.016900  1.0  0.1268
  H  H264  1  0.930100  0.430000  0.041800  1.0  0.1319
  H  H265  1  0.716800  0.006500  0.163500  1.0  0.0479
  H  H266  1  0.624100  0.047400  0.230500  1.0  0.0733
  H  H267  1  0.649700  0.866700  0.341900  1.0  0.0795
  H  H268  1  0.743600  0.832900  0.272700  1.0  0.0367
  H  H269  1  0.525800  0.099700  0.566400  1.0  0.0501
  H  H270  1  0.484200  0.053100  0.467700  1.0  0.0681
  H  H271  1  0.690200  0.003300  0.422300  1.0  0.071
  H  H272  1  0.724700  0.048200  0.522400  1.0  0.0274
  H  H273  1  0.498900  0.867200  0.348100  1.0  0.1288
  H  H274  1  0.458400  0.913200  0.405400  1.0  0.1074
  H  H275  1  0.434700  0.927300  0.264500  1.0  0.0543
  H  H276  1  0.372400  0.914800  0.319000  1.0  0.0538
  H  H277  1  0.385100  0.032000  0.357600  1.0  0.0496
  H  H278  1  0.376500  0.037200  0.279100  1.0  0.0404
  H  H279  1  0.482500  0.103900  0.334400  1.0  0.124
  H  H280  1  0.496300  0.065800  0.264000  1.0  0.0986
  C  C281  1  0.326200  0.913100  0.630700  1.0  0.0904
  C  C282  1  0.401000  0.908700  0.627000  1.0  -0.1199
  C  C283  1  0.437500  0.843700  0.631100  1.0  -0.2036
  C  C284  1  0.392500  0.782200  0.636800  1.0  -0.1697
  C  C285  1  0.317800  0.789300  0.640000  1.0  0.1282
  C  C286  1  0.541700  0.729200  0.446600  1.0  0.132
  C  C287  1  0.516200  0.762700  0.504700  1.0  -0.1636
  C  C288  1  0.565000  0.795800  0.546400  1.0  -0.221
  C  C289  1  0.637300  0.795800  0.524800  1.0  -0.151
  C  C290  1  0.656900  0.762600  0.467800  1.0  0.1376
  C  C291  1  0.573000  0.773400  0.697500  1.0  -0.2544
  C  C292  1  0.611300  0.825300  0.742400  1.0  -0.1902
  C  C293  1  0.639800  0.888300  0.710800  1.0  -0.1956
  C  C294  1  0.591900  0.915600  0.654300  1.0  -0.2443
  C  C295  1  0.060400  0.757800  0.743200  1.0  0.138
  C  C296  1  0.033200  0.719900  0.796200  1.0  -0.1399
  C  C297  1  0.069700  0.719800  0.856000  1.0  -0.2811
  C  C298  1  0.132900  0.761200  0.858500  1.0  -0.1617
  C  C299  1  0.156000  0.797700  0.802600  1.0  0.144
  C  C300  1  0.872500  0.526800  0.869600  1.0  0.1363
  C  C301  1  0.909400  0.588400  0.887700  1.0  -0.1771
  C  C302  1  0.984200  0.586800  0.900500  1.0  -0.0922
  C  C303  1  0.015300  0.520800  0.892800  1.0  -0.128
  C  C304  1  0.975300  0.460200  0.874700  1.0  0.1308
  C  C305  1  0.965800  0.728900  0.981300  1.0  -0.4378
  C  C306  1  0.002500  0.731000  0.043200  1.0  -0.1402
  C  C307  1  0.046800  0.665000  0.057400  1.0  -0.2292
  C  C308  1  0.100600  0.648600  0.995800  1.0  -0.2062
  C  C309  1  0.173800  0.086900  0.130700  1.0  0.0915
  C  C310  1  0.099000  0.091300  0.127000  1.0  -0.1224
  C  C311  1  0.062500  0.156300  0.131100  1.0  -0.2045
  C  C312  1  0.107500  0.217800  0.136800  1.0  -0.1708
  C  C313  1  0.182200  0.210700  0.140000  1.0  0.1282
  C  C314  1  0.958300  0.270800  0.946600  1.0  0.1323
  C  C315  1  0.983800  0.237300  0.004700  1.0  -0.1621
  C  C316  1  0.935000  0.204200  0.046400  1.0  -0.2208
  C  C317  1  0.862700  0.204200  0.024800  1.0  -0.1505
  C  C318  1  0.843100  0.237400  0.967800  1.0  0.1379
  C  C319  1  0.927000  0.226600  0.197500  1.0  -0.2535
  C  C320  1  0.888700  0.174700  0.242400  1.0  -0.1886
  C  C321  1  0.860200  0.111700  0.210800  1.0  -0.1968
  C  C322  1  0.908100  0.084400  0.154300  1.0  -0.2459
  C  C323  1  0.439600  0.242200  0.243200  1.0  0.1371
  C  C324  1  0.466800  0.280100  0.296200  1.0  -0.1397
  C  C325  1  0.430300  0.280200  0.356000  1.0  -0.2804
  C  C326  1  0.367100  0.238800  0.358500  1.0  -0.1617
  C  C327  1  0.344000  0.202300  0.302600  1.0  0.1443
  C  C328  1  0.627500  0.473200  0.369600  1.0  0.1348
  C  C329  1  0.590600  0.411600  0.387700  1.0  -0.1783
  C  C330  1  0.515800  0.413200  0.400500  1.0  -0.0929
  C  C331  1  0.484700  0.479200  0.392800  1.0  -0.1275
  C  C332  1  0.524700  0.539800  0.374700  1.0  0.1316
  C  C333  1  0.534200  0.271100  0.481300  1.0  -0.4358
  C  C334  1  0.497500  0.269000  0.543200  1.0  -0.1399
  C  C335  1  0.453200  0.335000  0.557400  1.0  -0.2285
  C  C336  1  0.399400  0.351400  0.495800  1.0  -0.2067
  C  C337  1  0.673800  0.413100  0.869300  1.0  0.0925
  C  C338  1  0.599000  0.408700  0.873000  1.0  -0.1221
  C  C339  1  0.562500  0.343700  0.868900  1.0  -0.2037
  C  C340  1  0.607500  0.282200  0.863200  1.0  -0.1697
  C  C341  1  0.682200  0.289300  0.860000  1.0  0.1254
  C  C342  1  0.458300  0.229200  0.053400  1.0  0.131
  C  C343  1  0.483800  0.262700  0.995300  1.0  -0.1624
  C  C344  1  0.435000  0.295800  0.953600  1.0  -0.2194
  C  C345  1  0.362700  0.295800  0.975200  1.0  -0.1513
  C  C346  1  0.343100  0.262600  0.032200  1.0  0.1392
  C  C347  1  0.427000  0.273400  0.802500  1.0  -0.2534
  C  C348  1  0.388700  0.325300  0.757600  1.0  -0.1891
  C  C349  1  0.360200  0.388300  0.789200  1.0  -0.1965
  C  C350  1  0.408100  0.415600  0.845700  1.0  -0.2436
  C  C351  1  0.939600  0.257800  0.756800  1.0  0.1368
  C  C352  1  0.966800  0.219900  0.703800  1.0  -0.1394
  C  C353  1  0.930300  0.219800  0.644000  1.0  -0.2806
  C  C354  1  0.867100  0.261200  0.641500  1.0  -0.1623
  C  C355  1  0.844000  0.297700  0.697400  1.0  0.1444
  C  C356  1  0.127500  0.026800  0.630400  1.0  0.1344
  C  C357  1  0.090600  0.088400  0.612300  1.0  -0.1783
  C  C358  1  0.015800  0.086800  0.599500  1.0  -0.0922
  C  C359  1  0.984700  0.020800  0.607200  1.0  -0.128
  C  C360  1  0.024700  0.960200  0.625300  1.0  0.1321
  C  C361  1  0.034200  0.228900  0.518700  1.0  -0.4363
  C  C362  1  0.997500  0.231000  0.456800  1.0  -0.1394
  C  C363  1  0.953200  0.165000  0.442600  1.0  -0.2276
  C  C364  1  0.899400  0.148600  0.504200  1.0  -0.2063
  C  C365  1  0.826200  0.586900  0.369300  1.0  0.0912
  C  C366  1  0.901000  0.591300  0.373000  1.0  -0.1216
  C  C367  1  0.937500  0.656300  0.368900  1.0  -0.2027
  C  C368  1  0.892500  0.717800  0.363200  1.0  -0.1697
  C  C369  1  0.817800  0.710700  0.360000  1.0  0.1253
  C  C370  1  0.041700  0.770800  0.553400  1.0  0.1312
  C  C371  1  0.016200  0.737300  0.495300  1.0  -0.163
  C  C372  1  0.065000  0.704200  0.453600  1.0  -0.2202
  C  C373  1  0.137300  0.704200  0.475200  1.0  -0.15
  C  C374  1  0.156900  0.737400  0.532200  1.0  0.1388
  C  C375  1  0.073000  0.726600  0.302500  1.0  -0.2542
  C  C376  1  0.111300  0.674700  0.257600  1.0  -0.1911
  C  C377  1  0.139800  0.611700  0.289200  1.0  -0.1948
  C  C378  1  0.091900  0.584400  0.345700  1.0  -0.2461
  C  C379  1  0.560400  0.742200  0.256800  1.0  0.1374
  C  C380  1  0.533200  0.780100  0.203800  1.0  -0.1401
  C  C381  1  0.569700  0.780200  0.144000  1.0  -0.2811
  C  C382  1  0.632900  0.738800  0.141500  1.0  -0.1622
  C  C383  1  0.656000  0.702300  0.197400  1.0  0.1442
  C  C384  1  0.372500  0.973200  0.130400  1.0  0.1358
  C  C385  1  0.409400  0.911600  0.112300  1.0  -0.1767
  C  C386  1  0.484200  0.913200  0.099500  1.0  -0.0932
  C  C387  1  0.515300  0.979200  0.107200  1.0  -0.1279
  C  C388  1  0.475300  0.039800  0.125300  1.0  0.1306
  C  C389  1  0.465800  0.771100  0.018700  1.0  -0.4383
  C  C390  1  0.502500  0.769000  0.956800  1.0  -0.1391
  C  C391  1  0.546800  0.835000  0.942600  1.0  -0.2302
  C  C392  1  0.600600  0.851400  0.004200  1.0  -0.2061
  C  C393  1  0.320500  0.792700  0.903500  1.0  0.1252
  C  C394  1  0.327000  0.866300  0.908300  1.0  -0.1439
  C  C395  1  0.366000  0.906300  0.860100  1.0  -0.2625
  C  C396  1  0.395000  0.863300  0.808600  1.0  -0.1526
  C  C397  1  0.384400  0.789000  0.807600  1.0  0.1394
  C  C398  1  0.494500  0.100700  0.712700  1.0  0.1298
  C  C399  1  0.437800  0.074000  0.750000  1.0  -0.1742
  C  C400  1  0.451100  0.039900  0.809300  1.0  -0.2633
  C  C401  1  0.524500  0.035800  0.828300  1.0  -0.1583
  C  C402  1  0.577000  0.064900  0.788200  1.0  0.1323
  C  C403  1  0.286100  0.054800  0.850200  1.0  -0.2113
  C  C404  1  0.271300  0.091200  0.915500  1.0  -0.2638
  C  C405  1  0.317200  0.080800  0.965900  1.0  -0.2412
  C  C406  1  0.386500  0.038600  0.953000  1.0  -0.2329
  C  C407  1  0.203300  0.521900  0.799300  1.0  0.1139
  C  C408  1  0.147500  0.497400  0.759300  1.0  -0.1382
  C  C409  1  0.124700  0.536600  0.704300  1.0  -0.2504
  C  C410  1  0.162600  0.602600  0.694000  1.0  -0.153
  C  C411  1  0.218600  0.622800  0.736100  1.0  0.1325
  C  C412  1  0.060300  0.419500  0.463800  1.0  0.1344
  C  C413  1  0.035100  0.447400  0.523200  1.0  -0.1091
  C  C414  1  0.082400  0.475800  0.569000  1.0  -0.1487
  C  C415  1  0.154200  0.476600  0.549400  1.0  -0.1467
  C  C416  1  0.174600  0.448600  0.489300  1.0  0.1259
  C  C417  1  0.978000  0.584800  0.640000  1.0  -0.2388
  C  C418  1  0.919100  0.559900  0.690200  1.0  -0.1749
  C  C419  1  0.908600  0.480100  0.684900  1.0  -0.1509
  C  C420  1  0.982600  0.443100  0.689500  1.0  -0.2588
  C  C421  1  0.179500  0.207300  0.403500  1.0  0.1236
  C  C422  1  0.173000  0.133700  0.408300  1.0  -0.147
  C  C423  1  0.134000  0.093700  0.360100  1.0  -0.2642
  C  C424  1  0.105000  0.136700  0.308600  1.0  -0.1521
  C  C425  1  0.115600  0.211000  0.307600  1.0  0.1392
  C  C426  1  0.005500  0.899300  0.212700  1.0  0.1297
  C  C427  1  0.062200  0.926000  0.250000  1.0  -0.1749
  C  C428  1  0.048900  0.960100  0.309300  1.0  -0.2617
  C  C429  1  0.975500  0.964200  0.328300  1.0  -0.1586
  C  C430  1  0.923000  0.935100  0.288200  1.0  0.1333
  C  C431  1  0.213900  0.945200  0.350200  1.0  -0.2102
  C  C432  1  0.228700  0.908800  0.415500  1.0  -0.2623
  C  C433  1  0.182800  0.919200  0.465900  1.0  -0.241
  C  C434  1  0.113500  0.961400  0.453000  1.0  -0.2304
  C  C435  1  0.296700  0.478100  0.299300  1.0  0.1128
  C  C436  1  0.352500  0.502600  0.259300  1.0  -0.1386
  C  C437  1  0.375300  0.463400  0.204300  1.0  -0.2488
  C  C438  1  0.337400  0.397400  0.194000  1.0  -0.152
  C  C439  1  0.281400  0.377200  0.236100  1.0  0.132
  C  C440  1  0.439700  0.580500  0.963800  1.0  0.135
  C  C441  1  0.464900  0.552600  0.023200  1.0  -0.1098
  C  C442  1  0.417600  0.524200  0.069000  1.0  -0.1481
  C  C443  1  0.345800  0.523400  0.049400  1.0  -0.1477
  C  C444  1  0.325400  0.551400  0.989300  1.0  0.1272
  C  C445  1  0.522000  0.415200  0.140000  1.0  -0.2406
  C  C446  1  0.580900  0.440100  0.190200  1.0  -0.1753
  C  C447  1  0.591400  0.519900  0.184900  1.0  -0.151
  C  C448  1  0.517400  0.556900  0.189500  1.0  -0.2593
  C  C449  1  0.679500  0.292700  0.596500  1.0  0.1238
  C  C450  1  0.673000  0.366300  0.591700  1.0  -0.1443
  C  C451  1  0.634000  0.406300  0.639900  1.0  -0.2626
  C  C452  1  0.605000  0.363300  0.691400  1.0  -0.1525
  C  C453  1  0.615600  0.289000  0.692400  1.0  0.1393
  C  C454  1  0.505500  0.600700  0.787300  1.0  0.1289
  C  C455  1  0.562200  0.574000  0.750000  1.0  -0.1765
  C  C456  1  0.548900  0.539900  0.690700  1.0  -0.2611
  C  C457  1  0.475500  0.535800  0.671700  1.0  -0.1596
  C  C458  1  0.423000  0.564900  0.711800  1.0  0.1327
  C  C459  1  0.713900  0.554800  0.649800  1.0  -0.2101
  C  C460  1  0.728700  0.591200  0.584500  1.0  -0.2633
  C  C461  1  0.682800  0.580800  0.534100  1.0  -0.2417
  C  C462  1  0.613500  0.538600  0.547000  1.0  -0.2305
  C  C463  1  0.796700  0.021900  0.700700  1.0  0.1132
  C  C464  1  0.852500  0.997400  0.740700  1.0  -0.1388
  C  C465  1  0.875300  0.036600  0.795700  1.0  -0.2489
  C  C466  1  0.837400  0.102600  0.806000  1.0  -0.1514
  C  C467  1  0.781400  0.122800  0.763900  1.0  0.132
  C  C468  1  0.939700  0.919500  0.036200  1.0  0.1353
  C  C469  1  0.964900  0.947400  0.976800  1.0  -0.1096
  C  C470  1  0.917600  0.975800  0.931000  1.0  -0.1486
  C  C471  1  0.845800  0.976600  0.950600  1.0  -0.1484
  C  C472  1  0.825400  0.948600  0.010700  1.0  0.1271
  C  C473  1  0.022000  0.084800  0.860000  1.0  -0.2399
  C  C474  1  0.080900  0.059900  0.809800  1.0  -0.1753
  C  C475  1  0.091400  0.980100  0.815100  1.0  -0.1514
  C  C476  1  0.017400  0.943100  0.810500  1.0  -0.2601
  C  C477  1  0.820500  0.707300  0.096500  1.0  0.125
  C  C478  1  0.827000  0.633700  0.091700  1.0  -0.1433
  C  C479  1  0.866000  0.593700  0.139900  1.0  -0.2628
  C  C480  1  0.895000  0.636700  0.191400  1.0  -0.1534
  C  C481  1  0.884400  0.711000  0.192400  1.0  0.1392
  C  C482  1  0.994500  0.399300  0.287300  1.0  0.129
  C  C483  1  0.937800  0.426000  0.250000  1.0  -0.1755
  C  C484  1  0.951100  0.460100  0.190700  1.0  -0.2616
  C  C485  1  0.024500  0.464200  0.171700  1.0  -0.1593
  C  C486  1  0.077000  0.435100  0.211800  1.0  0.132
  C  C487  1  0.786100  0.445200  0.149800  1.0  -0.212
  C  C488  1  0.771300  0.408800  0.084500  1.0  -0.2629
  C  C489  1  0.817200  0.419200  0.034100  1.0  -0.2409
  C  C490  1  0.886500  0.461400  0.047000  1.0  -0.23
  C  C491  1  0.703300  0.978100  0.200700  1.0  0.1136
  C  C492  1  0.647500  0.002600  0.240700  1.0  -0.1385
  C  C493  1  0.624700  0.963400  0.295700  1.0  -0.2508
  C  C494  1  0.662600  0.897400  0.306000  1.0  -0.1525
  C  C495  1  0.718600  0.877200  0.263900  1.0  0.132
  C  C496  1  0.560300  0.080500  0.536200  1.0  0.135
  C  C497  1  0.535100  0.052600  0.476800  1.0  -0.1093
  C  C498  1  0.582400  0.024200  0.431000  1.0  -0.1483
  C  C499  1  0.654200  0.023400  0.450600  1.0  -0.1463
  C  C500  1  0.674600  0.051400  0.510700  1.0  0.1264
  C  C501  1  0.478000  0.915200  0.360000  1.0  -0.2405
  C  C502  1  0.419100  0.940100  0.309800  1.0  -0.1744
  C  C503  1  0.408600  0.019900  0.315100  1.0  -0.1512
  C  C504  1  0.482600  0.056900  0.310500  1.0  -0.2598
  N  N505  1  0.283700  0.852900  0.637900  1.0  -0.3946
  N  N506  1  0.610900  0.728000  0.428400  1.0  -0.4054
  N  N507  1  0.122600  0.795900  0.745300  1.0  -0.3889
  N  N508  1  0.904400  0.462100  0.862800  1.0  -0.3881
  N  N509  1  0.216300  0.147100  0.137900  1.0  -0.3941
  N  N510  1  0.889100  0.272000  0.928400  1.0  -0.4046
  N  N511  1  0.377400  0.204100  0.245300  1.0  -0.3902
  N  N512  1  0.595600  0.537900  0.362800  1.0  -0.3884
  N  N513  1  0.716300  0.352900  0.862100  1.0  -0.3942
  N  N514  1  0.389100  0.228000  0.071600  1.0  -0.4043
  N  N515  1  0.877400  0.295900  0.754700  1.0  -0.3904
  N  N516  1  0.095600  0.962100  0.637200  1.0  -0.3861
  N  N517  1  0.783700  0.647100  0.362100  1.0  -0.3946
  N  N518  1  0.110900  0.772000  0.571600  1.0  -0.405
  N  N519  1  0.622600  0.704100  0.254700  1.0  -0.3894
  N  N520  1  0.404400  0.037900  0.137200  1.0  -0.3875
  N  N521  1  0.347600  0.752300  0.853300  1.0  -0.4047
  N  N522  1  0.565300  0.096600  0.730500  1.0  -0.4084
  N  N523  1  0.239300  0.584300  0.787700  1.0  -0.375
  N  N524  1  0.130600  0.418300  0.447400  1.0  -0.3771
  N  N525  1  0.152400  0.247700  0.353300  1.0  -0.4043
  N  N526  1  0.934700  0.903400  0.230500  1.0  -0.4088
  N  N527  1  0.260700  0.415700  0.287700  1.0  -0.3747
  N  N528  1  0.369400  0.581700  0.947400  1.0  -0.3736
  N  N529  1  0.652400  0.252300  0.646700  1.0  -0.4037
  N  N530  1  0.434700  0.596600  0.769500  1.0  -0.4089
  N  N531  1  0.760700  0.084300  0.712300  1.0  -0.375
  N  N532  1  0.869400  0.918300  0.052600  1.0  -0.375
  N  N533  1  0.847600  0.747700  0.146700  1.0  -0.4039
  N  N534  1  0.065300  0.403400  0.269500  1.0  -0.4078
  N  N535  1  0.739300  0.915700  0.212300  1.0  -0.3754
  N  N536  1  0.630600  0.081700  0.552600  1.0  -0.3762
