# generated using pymatgen
data_Si2AgH32C27N4
_symmetry_space_group_name_H-M   'P 1'
_cell_length_a   18.09400000
_cell_length_b   18.44500000
_cell_length_c   20.18300000
_cell_angle_alpha   90.00000000
_cell_angle_beta   90.00000000
_cell_angle_gamma   90.00000000
_symmetry_Int_Tables_number   1
_chemical_formula_structural   Si2AgH32C27N4
_chemical_formula_sum   'Si16 Ag8 H256 C216 N32'
_cell_volume   6735.95172089
_cell_formula_units_Z   8
loop_
 _symmetry_equiv_pos_site_id
 _symmetry_equiv_pos_as_xyz
  1  'x, y, z'
loop_
 _atom_site_type_symbol
 _atom_site_label
 _atom_site_symmetry_multiplicity
 _atom_site_fract_x
 _atom_site_fract_y
 _atom_site_fract_z
 _atom_site_occupancy
 _atom_site_charge
  Si  Si1  1  0.957930  0.516400  0.147050  1.0  0.9504
  Si  Si2  1  0.129190  0.495970  0.634610  1.0  0.9854
  Si  Si3  1  0.542070  0.483600  0.647050  1.0  0.95
  Si  Si4  1  0.370810  0.504030  0.134610  1.0  0.9873
  Si  Si5  1  0.042070  0.016400  0.352950  1.0  0.9494
  Si  Si6  1  0.870810  0.995970  0.865390  1.0  0.9862
  Si  Si7  1  0.457930  0.983600  0.852950  1.0  0.9497
  Si  Si8  1  0.629190  0.004030  0.365390  1.0  0.9848
  Si  Si9  1  0.448600  0.828100  0.132830  1.0  1.0168
  Si  Si10  1  0.962100  0.676400  0.426880  1.0  1.0253
  Si  Si11  1  0.051400  0.171900  0.632830  1.0  1.0173
  Si  Si12  1  0.537900  0.323600  0.926880  1.0  1.0261
  Si  Si13  1  0.551400  0.328100  0.367170  1.0  1.0161
  Si  Si14  1  0.037900  0.176400  0.073120  1.0  1.0238
  Si  Si15  1  0.948600  0.671900  0.867170  1.0  1.016
  Si  Si16  1  0.462100  0.823600  0.573120  1.0  1.0248
  Ag  Ag17  1  0.839870  0.376160  0.845120  1.0  0.2965
  Ag  Ag18  1  0.660130  0.623840  0.345120  1.0  0.2961
  Ag  Ag19  1  0.160130  0.876160  0.654880  1.0  0.2964
  Ag  Ag20  1  0.339870  0.123840  0.154880  1.0  0.296
  Ag  Ag21  1  0.833150  0.867230  0.149110  1.0  0.3068
  Ag  Ag22  1  0.666850  0.132770  0.649110  1.0  0.3066
  Ag  Ag23  1  0.166850  0.367230  0.350890  1.0  0.3068
  Ag  Ag24  1  0.333150  0.632770  0.850890  1.0  0.3065
  H  H25  1  0.969500  0.388900  0.936300  1.0  0.0428
  H  H26  1  0.014500  0.437900  0.035500  1.0  0.0856
  H  H27  1  0.813900  0.503800  0.074300  1.0  0.036
  H  H28  1  0.772800  0.453900  0.980000  1.0  0.0658
  H  H29  1  0.842200  0.630300  0.148700  1.0  0.0864
  H  H30  1  0.752500  0.666200  0.222700  1.0  0.0305
  H  H31  1  0.790900  0.503400  0.340300  1.0  0.0591
  H  H32  1  0.879100  0.459800  0.269400  1.0  0.066
  H  H33  1  0.995400  0.431000  0.226800  1.0  0.1182
  H  H34  1  0.022600  0.406200  0.154800  1.0  0.0889
  H  H35  1  0.120500  0.439200  0.218900  1.0  0.0585
  H  H36  1  0.085500  0.518000  0.229000  1.0  0.0347
  H  H37  1  0.112700  0.493000  0.157200  1.0  0.0558
  H  H38  1  0.990500  0.626500  0.096000  1.0  0.0999
  H  H39  1  0.062100  0.576100  0.103600  1.0  0.0961
  H  H40  1  0.031000  0.619800  0.166200  1.0  0.0956
  H  H41  1  0.017600  0.378400  0.829000  1.0  0.0492
  H  H42  1  0.115800  0.423500  0.764400  1.0  0.081
  H  H43  1  0.966300  0.487200  0.631600  1.0  0.0698
  H  H44  1  0.876800  0.436800  0.693600  1.0  0.0476
  H  H45  1  0.076800  0.613400  0.722900  1.0  0.0463
  H  H46  1  0.084500  0.738200  0.724800  1.0  0.0531
  H  H47  1  0.197000  0.738500  0.558000  1.0  0.0532
  H  H48  1  0.191700  0.613700  0.553600  1.0  0.0713
  H  H49  1  0.253200  0.502600  0.674300  1.0  0.1051
  H  H50  1  0.212000  0.434000  0.707200  1.0  0.0829
  H  H51  1  0.084300  0.428800  0.541100  1.0  0.1311
  H  H52  1  0.122100  0.503700  0.516200  1.0  0.1353
  H  H53  1  0.227300  0.456100  0.515600  1.0  0.0772
  H  H54  1  0.188600  0.379900  0.527200  1.0  0.0543
  H  H55  1  0.241900  0.365400  0.627100  1.0  0.1088
  H  H56  1  0.297100  0.428300  0.603800  1.0  0.0541
  H  H57  1  0.530500  0.611100  0.436300  1.0  0.0432
  H  H58  1  0.485500  0.562100  0.535500  1.0  0.0854
  H  H59  1  0.686100  0.496200  0.574300  1.0  0.0368
  H  H60  1  0.727200  0.546100  0.480000  1.0  0.0656
  H  H61  1  0.657800  0.369700  0.648700  1.0  0.086
  H  H62  1  0.747500  0.333800  0.722700  1.0  0.0303
  H  H63  1  0.709100  0.496600  0.840300  1.0  0.0592
  H  H64  1  0.620900  0.540200  0.769400  1.0  0.0657
  H  H65  1  0.504600  0.569000  0.726800  1.0  0.1171
  H  H66  1  0.477400  0.593800  0.654800  1.0  0.0883
  H  H67  1  0.379500  0.560800  0.718900  1.0  0.0596
  H  H68  1  0.414500  0.482000  0.729000  1.0  0.0353
  H  H69  1  0.387300  0.507000  0.657200  1.0  0.0561
  H  H70  1  0.509500  0.373500  0.596000  1.0  0.0996
  H  H71  1  0.437900  0.423900  0.603600  1.0  0.0955
  H  H72  1  0.469000  0.380200  0.666200  1.0  0.0958
  H  H73  1  0.482400  0.621600  0.329000  1.0  0.0492
  H  H74  1  0.384200  0.576500  0.264400  1.0  0.0808
  H  H75  1  0.533700  0.512800  0.131600  1.0  0.07
  H  H76  1  0.623200  0.563200  0.193600  1.0  0.048
  H  H77  1  0.423200  0.386600  0.222900  1.0  0.0461
  H  H78  1  0.415500  0.261800  0.224800  1.0  0.0537
  H  H79  1  0.303000  0.261500  0.058000  1.0  0.0525
  H  H80  1  0.308300  0.386300  0.053600  1.0  0.0712
  H  H81  1  0.246800  0.497400  0.174300  1.0  0.1056
  H  H82  1  0.288000  0.566000  0.207200  1.0  0.0821
  H  H83  1  0.415700  0.571200  0.041100  1.0  0.1279
  H  H84  1  0.377900  0.496300  0.016200  1.0  0.1356
  H  H85  1  0.272700  0.543900  0.015600  1.0  0.0766
  H  H86  1  0.311400  0.620100  0.027200  1.0  0.0536
  H  H87  1  0.258100  0.634600  0.127100  1.0  0.1116
  H  H88  1  0.202900  0.571700  0.103800  1.0  0.0574
  H  H89  1  0.030500  0.888900  0.563700  1.0  0.0431
  H  H90  1  0.985500  0.937900  0.464500  1.0  0.0854
  H  H91  1  0.186100  0.003800  0.425700  1.0  0.0372
  H  H92  1  0.227200  0.953900  0.520000  1.0  0.0657
  H  H93  1  0.157800  0.130300  0.351300  1.0  0.0865
  H  H94  1  0.247500  0.166200  0.277300  1.0  0.0304
  H  H95  1  0.209100  0.003400  0.159700  1.0  0.0592
  H  H96  1  0.120900  0.959800  0.230600  1.0  0.0656
  H  H97  1  0.004600  0.931000  0.273200  1.0  0.1171
  H  H98  1  0.977400  0.906200  0.345200  1.0  0.0892
  H  H99  1  0.879500  0.939200  0.281100  1.0  0.059
  H  H100  1  0.914500  0.018000  0.271000  1.0  0.0352
  H  H101  1  0.887300  0.993000  0.342800  1.0  0.056
  H  H102  1  0.009500  0.126500  0.404000  1.0  0.0994
  H  H103  1  0.937900  0.076100  0.396400  1.0  0.0964
  H  H104  1  0.969000  0.119800  0.333800  1.0  0.0958
  H  H105  1  0.982400  0.878400  0.671000  1.0  0.0493
  H  H106  1  0.884200  0.923500  0.735600  1.0  0.081
  H  H107  1  0.033700  0.987200  0.868400  1.0  0.0695
  H  H108  1  0.123200  0.936800  0.806400  1.0  0.0479
  H  H109  1  0.923200  0.113400  0.777100  1.0  0.0462
  H  H110  1  0.915500  0.238200  0.775200  1.0  0.0533
  H  H111  1  0.803000  0.238500  0.942000  1.0  0.0527
  H  H112  1  0.808300  0.113700  0.946400  1.0  0.0715
  H  H113  1  0.746800  0.002600  0.825700  1.0  0.1058
  H  H114  1  0.788000  0.934000  0.792800  1.0  0.0817
  H  H115  1  0.915700  0.928800  0.958900  1.0  0.1288
  H  H116  1  0.877900  0.003700  0.983800  1.0  0.1343
  H  H117  1  0.772700  0.956100  0.984400  1.0  0.0764
  H  H118  1  0.811400  0.879900  0.972800  1.0  0.0551
  H  H119  1  0.758100  0.865400  0.872900  1.0  0.1085
  H  H120  1  0.702900  0.928300  0.896200  1.0  0.0581
  H  H121  1  0.469500  0.111100  0.063700  1.0  0.0426
  H  H122  1  0.514500  0.062100  0.964500  1.0  0.0854
  H  H123  1  0.313900  0.996200  0.925700  1.0  0.0364
  H  H124  1  0.272800  0.046100  0.020000  1.0  0.0659
  H  H125  1  0.342200  0.869700  0.851300  1.0  0.0859
  H  H126  1  0.252500  0.833800  0.777300  1.0  0.0305
  H  H127  1  0.290900  0.996600  0.659700  1.0  0.0595
  H  H128  1  0.379100  0.040200  0.730600  1.0  0.0666
  H  H129  1  0.495400  0.069000  0.773200  1.0  0.1171
  H  H130  1  0.522600  0.093800  0.845200  1.0  0.0884
  H  H131  1  0.620500  0.060800  0.781100  1.0  0.0586
  H  H132  1  0.585500  0.982000  0.771000  1.0  0.0348
  H  H133  1  0.612700  0.007000  0.842800  1.0  0.0563
  H  H134  1  0.490500  0.873500  0.904000  1.0  0.0996
  H  H135  1  0.562100  0.923900  0.896400  1.0  0.0955
  H  H136  1  0.531000  0.880200  0.833800  1.0  0.0959
  H  H137  1  0.517600  0.121600  0.171000  1.0  0.0494
  H  H138  1  0.615800  0.076500  0.235600  1.0  0.0815
  H  H139  1  0.466300  0.012800  0.368400  1.0  0.0699
  H  H140  1  0.376800  0.063200  0.306400  1.0  0.0476
  H  H141  1  0.576800  0.886600  0.277100  1.0  0.0464
  H  H142  1  0.584500  0.761800  0.275200  1.0  0.053
  H  H143  1  0.697000  0.761500  0.442000  1.0  0.0533
  H  H144  1  0.691700  0.886300  0.446400  1.0  0.071
  H  H145  1  0.753200  0.997400  0.325700  1.0  0.1042
  H  H146  1  0.712000  0.066000  0.292800  1.0  0.0821
  H  H147  1  0.584300  0.071200  0.458900  1.0  0.1311
  H  H148  1  0.622100  0.996300  0.483800  1.0  0.1353
  H  H149  1  0.727300  0.043900  0.484400  1.0  0.0768
  H  H150  1  0.688600  0.120100  0.472800  1.0  0.0543
  H  H151  1  0.741900  0.134600  0.372900  1.0  0.1104
  H  H152  1  0.797100  0.071700  0.396200  1.0  0.0541
  H  H153  1  0.706200  0.753000  0.144700  1.0  0.0462
  H  H154  1  0.578700  0.735600  0.140000  1.0  0.0658
  H  H155  1  0.555400  0.950400  0.122800  1.0  0.069
  H  H156  1  0.681900  0.962300  0.127800  1.0  0.0483
  H  H157  1  0.317500  0.795900  0.064000  1.0  0.0717
  H  H158  1  0.282300  0.737600  0.964000  1.0  0.0522
  H  H159  1  0.489200  0.694600  0.927500  1.0  0.0452
  H  H160  1  0.524500  0.749700  0.020900  1.0  0.0472
  H  H161  1  0.430300  0.949900  0.169400  1.0  0.1207
  H  H162  1  0.361900  0.925100  0.122900  1.0  0.1536
  H  H163  1  0.390400  0.729000  0.185400  1.0  0.1186
  H  H164  1  0.464400  0.750200  0.224600  1.0  0.1275
  H  H165  1  0.406500  0.822000  0.288400  1.0  0.0462
  H  H166  1  0.331800  0.786400  0.259900  1.0  0.0332
  H  H167  1  0.362800  0.917300  0.249200  1.0  0.0507
  H  H168  1  0.307400  0.875500  0.202000  1.0  0.0649
  H  H169  1  0.959800  0.763600  0.198400  1.0  0.0374
  H  H170  1  0.001800  0.696300  0.286400  1.0  0.0686
  H  H171  1  0.834000  0.769300  0.391500  1.0  0.0547
  H  H172  1  0.789600  0.821800  0.302100  1.0  0.0437
  H  H173  1  0.937100  0.522100  0.401500  1.0  0.0889
  H  H174  1  0.009300  0.422900  0.372500  1.0  0.0362
  H  H175  1  0.185300  0.543800  0.357900  1.0  0.0585
  H  H176  1  0.118700  0.645400  0.383900  1.0  0.0713
  H  H177  1  0.063700  0.754500  0.439400  1.0  0.105
  H  H178  1  0.046600  0.714500  0.508100  1.0  0.0934
  H  H179  1  0.996700  0.781500  0.484900  1.0  0.1067
  H  H180  1  0.854900  0.685800  0.490800  1.0  0.1117
  H  H181  1  0.869600  0.603100  0.472000  1.0  0.1104
  H  H182  1  0.879100  0.620700  0.582700  1.0  0.0694
  H  H183  1  0.943600  0.678800  0.571400  1.0  0.0533
  H  H184  1  0.956900  0.595400  0.552900  1.0  0.06
  H  H185  1  0.793800  0.247000  0.644700  1.0  0.0462
  H  H186  1  0.921300  0.264400  0.640000  1.0  0.0664
  H  H187  1  0.944600  0.049600  0.622800  1.0  0.0684
  H  H188  1  0.818100  0.037700  0.627800  1.0  0.0479
  H  H189  1  0.182500  0.204100  0.564000  1.0  0.0723
  H  H190  1  0.217700  0.262400  0.464000  1.0  0.0538
  H  H191  1  0.010800  0.305400  0.427500  1.0  0.0447
  H  H192  1  0.975500  0.250300  0.520900  1.0  0.0468
  H  H193  1  0.069700  0.050100  0.669400  1.0  0.1199
  H  H194  1  0.138100  0.074900  0.622900  1.0  0.1542
  H  H195  1  0.109600  0.271000  0.685400  1.0  0.1175
  H  H196  1  0.035600  0.249800  0.724600  1.0  0.1267
  H  H197  1  0.093500  0.178000  0.788400  1.0  0.0458
  H  H198  1  0.168200  0.213600  0.759900  1.0  0.0326
  H  H199  1  0.137200  0.082700  0.749200  1.0  0.0517
  H  H200  1  0.192600  0.124500  0.702000  1.0  0.0668
  H  H201  1  0.540200  0.236400  0.698400  1.0  0.0377
  H  H202  1  0.498200  0.303700  0.786400  1.0  0.0676
  H  H203  1  0.666000  0.230700  0.891500  1.0  0.0551
  H  H204  1  0.710400  0.178200  0.802100  1.0  0.0432
  H  H205  1  0.562900  0.477900  0.901500  1.0  0.0887
  H  H206  1  0.490700  0.577100  0.872500  1.0  0.0361
  H  H207  1  0.314700  0.456200  0.857900  1.0  0.0583
  H  H208  1  0.381300  0.354600  0.883900  1.0  0.0703
  H  H209  1  0.436300  0.245500  0.939400  1.0  0.1054
  H  H210  1  0.453400  0.285500  0.008100  1.0  0.0929
  H  H211  1  0.503300  0.218500  0.984900  1.0  0.1059
  H  H212  1  0.645100  0.314200  0.990800  1.0  0.1116
  H  H213  1  0.630400  0.396900  0.972000  1.0  0.1092
  H  H214  1  0.620900  0.379300  0.082700  1.0  0.069
  H  H215  1  0.556400  0.321200  0.071400  1.0  0.0541
  H  H216  1  0.543100  0.404600  0.052900  1.0  0.0609
  H  H217  1  0.293800  0.253000  0.355300  1.0  0.0466
  H  H218  1  0.421300  0.235600  0.360000  1.0  0.0658
  H  H219  1  0.444600  0.450400  0.377200  1.0  0.0685
  H  H220  1  0.318100  0.462300  0.372200  1.0  0.049
  H  H221  1  0.682500  0.295900  0.436000  1.0  0.0724
  H  H222  1  0.717700  0.237600  0.536000  1.0  0.0531
  H  H223  1  0.510800  0.194600  0.572500  1.0  0.0444
  H  H224  1  0.475500  0.249700  0.479100  1.0  0.0466
  H  H225  1  0.569700  0.449900  0.330600  1.0  0.1208
  H  H226  1  0.638100  0.425100  0.377100  1.0  0.1523
  H  H227  1  0.609600  0.229000  0.314600  1.0  0.1187
  H  H228  1  0.535600  0.250200  0.275400  1.0  0.127
  H  H229  1  0.593500  0.322000  0.211600  1.0  0.0454
  H  H230  1  0.668200  0.286400  0.240100  1.0  0.035
  H  H231  1  0.637200  0.417300  0.250800  1.0  0.0505
  H  H232  1  0.692600  0.375500  0.298000  1.0  0.0671
  H  H233  1  0.040200  0.263600  0.301600  1.0  0.0384
  H  H234  1  0.998200  0.196300  0.213600  1.0  0.0678
  H  H235  1  0.166000  0.269300  0.108500  1.0  0.0554
  H  H236  1  0.210400  0.321800  0.197900  1.0  0.0432
  H  H237  1  0.062900  0.022100  0.098500  1.0  0.0886
  H  H238  1  0.990700  0.922900  0.127500  1.0  0.0359
  H  H239  1  0.814700  0.043800  0.142100  1.0  0.058
  H  H240  1  0.881300  0.145400  0.116100  1.0  0.0712
  H  H241  1  0.936300  0.254500  0.060600  1.0  0.1055
  H  H242  1  0.953400  0.214500  0.991900  1.0  0.0918
  H  H243  1  0.003300  0.281500  0.015100  1.0  0.1061
  H  H244  1  0.145100  0.185800  0.009200  1.0  0.1112
  H  H245  1  0.130400  0.103100  0.028000  1.0  0.11
  H  H246  1  0.120900  0.120700  0.917300  1.0  0.0682
  H  H247  1  0.056400  0.178800  0.928600  1.0  0.0556
  H  H248  1  0.043100  0.095400  0.947100  1.0  0.061
  H  H249  1  0.206200  0.747000  0.855300  1.0  0.0461
  H  H250  1  0.078700  0.764400  0.860000  1.0  0.0657
  H  H251  1  0.055400  0.549600  0.877200  1.0  0.0687
  H  H252  1  0.181900  0.537700  0.872200  1.0  0.0485
  H  H253  1  0.817500  0.704100  0.936000  1.0  0.072
  H  H254  1  0.782300  0.762400  0.036000  1.0  0.0519
  H  H255  1  0.989200  0.805400  0.072500  1.0  0.0447
  H  H256  1  0.024500  0.750300  0.979100  1.0  0.0473
  H  H257  1  0.930300  0.550100  0.830600  1.0  0.1205
  H  H258  1  0.861900  0.574900  0.877100  1.0  0.1535
  H  H259  1  0.890400  0.771000  0.814600  1.0  0.1193
  H  H260  1  0.964400  0.749800  0.775400  1.0  0.1268
  H  H261  1  0.906500  0.678000  0.711600  1.0  0.0451
  H  H262  1  0.831800  0.713600  0.740100  1.0  0.0321
  H  H263  1  0.862800  0.582700  0.750800  1.0  0.0504
  H  H264  1  0.807400  0.624500  0.798000  1.0  0.0653
  H  H265  1  0.459800  0.736400  0.801600  1.0  0.0378
  H  H266  1  0.501800  0.803700  0.713600  1.0  0.0681
  H  H267  1  0.334000  0.730700  0.608500  1.0  0.0556
  H  H268  1  0.289600  0.678200  0.697900  1.0  0.0439
  H  H269  1  0.437100  0.977900  0.598500  1.0  0.0885
  H  H270  1  0.509300  0.077100  0.627500  1.0  0.0364
  H  H271  1  0.685300  0.956200  0.642100  1.0  0.0581
  H  H272  1  0.618700  0.854600  0.616100  1.0  0.0723
  H  H273  1  0.563700  0.745500  0.560600  1.0  0.105
  H  H274  1  0.546600  0.785500  0.491900  1.0  0.0915
  H  H275  1  0.496700  0.718500  0.515100  1.0  0.1062
  H  H276  1  0.354900  0.814200  0.509200  1.0  0.1109
  H  H277  1  0.369600  0.896900  0.528000  1.0  0.111
  H  H278  1  0.379100  0.879300  0.417300  1.0  0.0687
  H  H279  1  0.443600  0.821200  0.428600  1.0  0.0533
  H  H280  1  0.456900  0.904600  0.447100  1.0  0.0606
  C  C281  1  0.936300  0.414200  0.964400  1.0  0.1356
  C  C282  1  0.963700  0.443000  0.024500  1.0  -0.1685
  C  C283  1  0.917100  0.478000  0.066500  1.0  -0.0105
  C  C284  1  0.848800  0.480200  0.046500  1.0  -0.0634
  C  C285  1  0.824100  0.451800  0.989700  1.0  0.0973
  C  C286  1  0.874700  0.541100  0.202100  1.0  -0.2719
  C  C287  1  0.833300  0.602900  0.187800  1.0  -0.1856
  C  C288  1  0.779100  0.623100  0.232000  1.0  0.1388
  C  C289  1  0.800600  0.528700  0.300200  1.0  0.1027
  C  C290  1  0.854600  0.503800  0.258900  1.0  -0.1247
  C  C291  1  0.018000  0.448200  0.185000  1.0  -0.3222
  C  C292  1  0.089800  0.476900  0.198600  1.0  -0.3467
  C  C293  1  0.017300  0.593700  0.125700  1.0  -0.5633
  C  C294  1  0.007000  0.401200  0.787800  1.0  0.1107
  C  C295  1  0.066400  0.428300  0.748900  1.0  -0.1574
  C  C296  1  0.053300  0.461000  0.689500  1.0  -0.1542
  C  C297  1  0.979600  0.464200  0.671900  1.0  -0.1484
  C  C298  1  0.926100  0.435900  0.709700  1.0  0.1281
  C  C299  1  0.128500  0.598100  0.637400  1.0  -0.1792
  C  C300  1  0.101000  0.637600  0.687400  1.0  -0.0869
  C  C301  1  0.106700  0.712700  0.689100  1.0  0.1299
  C  C302  1  0.172100  0.713100  0.592300  1.0  0.1231
  C  C303  1  0.167900  0.638500  0.588900  1.0  -0.143
  C  C304  1  0.218600  0.462100  0.665800  1.0  -0.2792
  C  C305  1  0.125400  0.463400  0.548400  1.0  -0.2919
  C  C306  1  0.196200  0.428400  0.547000  1.0  -0.3462
  C  C307  1  0.244800  0.416800  0.613200  1.0  -0.2876
  C  C308  1  0.563700  0.585800  0.464400  1.0  0.1351
  C  C309  1  0.536300  0.557000  0.524500  1.0  -0.1695
  C  C310  1  0.582900  0.522000  0.566500  1.0  -0.0106
  C  C311  1  0.651200  0.519800  0.546500  1.0  -0.0648
  C  C312  1  0.675900  0.548200  0.489700  1.0  0.0982
  C  C313  1  0.625300  0.458900  0.702100  1.0  -0.2715
  C  C314  1  0.666667  0.397100  0.687800  1.0  -0.1839
  C  C315  1  0.720900  0.376900  0.732000  1.0  0.1387
  C  C316  1  0.699400  0.471300  0.800200  1.0  0.1035
  C  C317  1  0.645400  0.496200  0.758900  1.0  -0.1248
  C  C318  1  0.482000  0.551800  0.685000  1.0  -0.3205
  C  C319  1  0.410200  0.523100  0.698600  1.0  -0.347
  C  C320  1  0.482700  0.406300  0.625700  1.0  -0.566
  C  C321  1  0.493000  0.598800  0.287800  1.0  0.111
  C  C322  1  0.433600  0.571700  0.248900  1.0  -0.1569
  C  C323  1  0.446700  0.539000  0.189500  1.0  -0.1532
  C  C324  1  0.520400  0.535800  0.171900  1.0  -0.1496
  C  C325  1  0.573900  0.564100  0.209700  1.0  0.1282
  C  C326  1  0.371500  0.401900  0.137400  1.0  -0.1787
  C  C327  1  0.399000  0.362400  0.187400  1.0  -0.0866
  C  C328  1  0.393300  0.287300  0.189100  1.0  0.1307
  C  C329  1  0.327900  0.286900  0.092300  1.0  0.1227
  C  C330  1  0.332100  0.361500  0.088900  1.0  -0.1407
  C  C331  1  0.281400  0.537900  0.165800  1.0  -0.2823
  C  C332  1  0.374600  0.536600  0.048400  1.0  -0.2901
  C  C333  1  0.303800  0.571600  0.047000  1.0  -0.3464
  C  C334  1  0.255200  0.583200  0.113200  1.0  -0.2913
  C  C335  1  0.063700  0.914200  0.535600  1.0  0.1351
  C  C336  1  0.036300  0.943000  0.475500  1.0  -0.1693
  C  C337  1  0.082900  0.978000  0.433500  1.0  -0.0099
  C  C338  1  0.151200  0.980200  0.453500  1.0  -0.0652
  C  C339  1  0.175900  0.951800  0.510300  1.0  0.0985
  C  C340  1  0.125300  0.041100  0.297900  1.0  -0.2717
  C  C341  1  0.166700  0.102900  0.312200  1.0  -0.1848
  C  C342  1  0.220900  0.123100  0.268000  1.0  0.139
  C  C343  1  0.199400  0.028700  0.199800  1.0  0.1032
  C  C344  1  0.145400  0.003800  0.241100  1.0  -0.1252
  C  C345  1  0.982000  0.948200  0.315000  1.0  -0.3204
  C  C346  1  0.910200  0.976900  0.301400  1.0  -0.3457
  C  C347  1  0.982700  0.093700  0.374300  1.0  -0.5654
  C  C348  1  0.993000  0.901200  0.712200  1.0  0.1107
  C  C349  1  0.933600  0.928300  0.751100  1.0  -0.1572
  C  C350  1  0.946700  0.961000  0.810500  1.0  -0.1536
  C  C351  1  0.020400  0.964200  0.828100  1.0  -0.1489
  C  C352  1  0.073900  0.935900  0.790300  1.0  0.1275
  C  C353  1  0.871500  0.098100  0.862600  1.0  -0.1789
  C  C354  1  0.899000  0.137600  0.812600  1.0  -0.0872
  C  C355  1  0.893300  0.212700  0.810900  1.0  0.1306
  C  C356  1  0.827900  0.213100  0.907700  1.0  0.1233
  C  C357  1  0.832100  0.138500  0.911100  1.0  -0.1417
  C  C358  1  0.781400  0.962100  0.834200  1.0  -0.2798
  C  C359  1  0.874600  0.963400  0.951600  1.0  -0.2906
  C  C360  1  0.803800  0.928400  0.953000  1.0  -0.3419
  C  C361  1  0.755200  0.916800  0.886800  1.0  -0.2899
  C  C362  1  0.436300  0.085800  0.035600  1.0  0.1362
  C  C363  1  0.463700  0.057000  0.975500  1.0  -0.1685
  C  C364  1  0.417100  0.022000  0.933500  1.0  -0.01
  C  C365  1  0.348800  0.019800  0.953500  1.0  -0.0639
  C  C366  1  0.324100  0.048200  0.010300  1.0  0.0981
  C  C367  1  0.374700  0.958900  0.797900  1.0  -0.2725
  C  C368  1  0.333333  0.897100  0.812200  1.0  -0.183
  C  C369  1  0.279100  0.876900  0.768000  1.0  0.1389
  C  C370  1  0.300600  0.971300  0.699800  1.0  0.103
  C  C371  1  0.354600  0.996200  0.741100  1.0  -0.1242
  C  C372  1  0.518000  0.051800  0.815000  1.0  -0.3198
  C  C373  1  0.589800  0.023100  0.801400  1.0  -0.3467
  C  C374  1  0.517300  0.906300  0.874300  1.0  -0.5644
  C  C375  1  0.507000  0.098800  0.212200  1.0  0.1096
  C  C376  1  0.566400  0.071700  0.251100  1.0  -0.1564
  C  C377  1  0.553300  0.039000  0.310500  1.0  -0.1547
  C  C378  1  0.479600  0.035800  0.328100  1.0  -0.1485
  C  C379  1  0.426100  0.064100  0.290300  1.0  0.1274
  C  C380  1  0.628500  0.901900  0.362600  1.0  -0.1786
  C  C381  1  0.601000  0.862400  0.312600  1.0  -0.0865
  C  C382  1  0.606700  0.787300  0.310900  1.0  0.1298
  C  C383  1  0.672100  0.786900  0.407700  1.0  0.1233
  C  C384  1  0.667900  0.861500  0.411100  1.0  -0.1419
  C  C385  1  0.718600  0.037900  0.334200  1.0  -0.2786
  C  C386  1  0.625400  0.036600  0.451600  1.0  -0.2908
  C  C387  1  0.696200  0.071600  0.453000  1.0  -0.3417
  C  C388  1  0.744800  0.083200  0.386800  1.0  -0.2896
  C  C389  1  0.675300  0.794400  0.140600  1.0  0.1202
  C  C390  1  0.598100  0.783400  0.138600  1.0  -0.1687
  C  C391  1  0.550600  0.841800  0.134700  1.0  -0.1353
  C  C392  1  0.584800  0.908200  0.128600  1.0  -0.1267
  C  C393  1  0.661200  0.915000  0.130900  1.0  0.108
  C  C394  1  0.427200  0.782600  0.051900  1.0  -0.105
  C  C395  1  0.354300  0.776300  0.035600  1.0  -0.131
  C  C396  1  0.333200  0.740000  0.975400  1.0  0.0994
  C  C397  1  0.452000  0.715600  0.954700  1.0  0.133
  C  C398  1  0.473300  0.749400  0.010400  1.0  -0.0966
  C  C399  1  0.397100  0.909200  0.157500  1.0  -0.2435
  C  C400  1  0.420300  0.770000  0.202000  1.0  -0.3466
  C  C401  1  0.377700  0.812400  0.247600  1.0  -0.1682
  C  C402  1  0.360100  0.879300  0.214600  1.0  -0.2542
  C  C403  1  0.931100  0.762600  0.237800  1.0  0.1289
  C  C404  1  0.957300  0.723100  0.291100  1.0  -0.1416
  C  C405  1  0.920600  0.721600  0.350600  1.0  -0.0658
  C  C406  1  0.860100  0.763500  0.351000  1.0  -0.1261
  C  C407  1  0.835300  0.796800  0.298100  1.0  0.1104
  C  C408  1  0.020100  0.596300  0.398300  1.0  -0.1917
  C  C409  1  0.988300  0.528500  0.392900  1.0  -0.1848
  C  C410  1  0.032600  0.469000  0.374600  1.0  0.1418
  C  C411  1  0.133800  0.539100  0.366000  1.0  0.1066
  C  C412  1  0.094400  0.599800  0.382800  1.0  -0.1367
  C  C413  1  0.024500  0.739000  0.469800  1.0  -0.6293
  C  C414  1  0.893600  0.648000  0.488300  1.0  -0.3719
  C  C415  1  0.920400  0.634700  0.554000  1.0  -0.3423
  C  C416  1  0.824700  0.205600  0.640600  1.0  0.1212
  C  C417  1  0.901900  0.216600  0.638600  1.0  -0.1683
  C  C418  1  0.949400  0.158200  0.634700  1.0  -0.1338
  C  C419  1  0.915200  0.091800  0.628600  1.0  -0.1271
  C  C420  1  0.838800  0.085000  0.630900  1.0  0.1072
  C  C421  1  0.072800  0.217400  0.551900  1.0  -0.1046
  C  C422  1  0.145700  0.223700  0.535600  1.0  -0.1301
  C  C423  1  0.166800  0.260000  0.475400  1.0  0.0982
  C  C424  1  0.048000  0.284400  0.454700  1.0  0.1329
  C  C425  1  0.026700  0.250600  0.510400  1.0  -0.0952
  C  C426  1  0.102900  0.090800  0.657500  1.0  -0.2434
  C  C427  1  0.079700  0.230000  0.702000  1.0  -0.3476
  C  C428  1  0.122300  0.187600  0.747600  1.0  -0.1691
  C  C429  1  0.139900  0.120700  0.714600  1.0  -0.2539
  C  C430  1  0.568900  0.237400  0.737800  1.0  0.1293
  C  C431  1  0.542700  0.276900  0.791100  1.0  -0.1423
  C  C432  1  0.579400  0.278400  0.850600  1.0  -0.0664
  C  C433  1  0.639900  0.236500  0.851000  1.0  -0.1265
  C  C434  1  0.664700  0.203200  0.798100  1.0  0.111
  C  C435  1  0.479900  0.403700  0.898300  1.0  -0.191
  C  C436  1  0.511700  0.471500  0.892900  1.0  -0.1839
  C  C437  1  0.467400  0.531000  0.874600  1.0  0.1402
  C  C438  1  0.366200  0.460900  0.866000  1.0  0.106
  C  C439  1  0.405600  0.400200  0.882800  1.0  -0.1363
  C  C440  1  0.475500  0.261000  0.969800  1.0  -0.6289
  C  C441  1  0.606400  0.352000  0.988300  1.0  -0.3712
  C  C442  1  0.579600  0.365300  0.054000  1.0  -0.341
  C  C443  1  0.324700  0.294400  0.359400  1.0  0.1214
  C  C444  1  0.401900  0.283400  0.361400  1.0  -0.1673
  C  C445  1  0.449400  0.341800  0.365300  1.0  -0.1351
  C  C446  1  0.415200  0.408200  0.371400  1.0  -0.126
  C  C447  1  0.338800  0.415000  0.369100  1.0  0.1071
  C  C448  1  0.572800  0.282600  0.448100  1.0  -0.1023
  C  C449  1  0.645700  0.276300  0.464400  1.0  -0.1321
  C  C450  1  0.666800  0.240000  0.524600  1.0  0.0996
  C  C451  1  0.548000  0.215600  0.545300  1.0  0.1342
  C  C452  1  0.526700  0.249400  0.489600  1.0  -0.095
  C  C453  1  0.602900  0.409200  0.342500  1.0  -0.2432
  C  C454  1  0.579700  0.270000  0.298000  1.0  -0.3459
  C  C455  1  0.622300  0.312400  0.252400  1.0  -0.1698
  C  C456  1  0.639900  0.379300  0.285400  1.0  -0.2542
  C  C457  1  0.068900  0.262600  0.262200  1.0  0.129
  C  C458  1  0.042700  0.223100  0.208900  1.0  -0.1415
  C  C459  1  0.079400  0.221600  0.149400  1.0  -0.0658
  C  C460  1  0.139900  0.263500  0.149000  1.0  -0.1272
  C  C461  1  0.164700  0.296800  0.201900  1.0  0.1102
  C  C462  1  0.979900  0.096300  0.101700  1.0  -0.1913
  C  C463  1  0.011700  0.028500  0.107100  1.0  -0.184
  C  C464  1  0.967400  0.969000  0.125400  1.0  0.1413
  C  C465  1  0.866200  0.039100  0.134000  1.0  0.1055
  C  C466  1  0.905600  0.099800  0.117200  1.0  -0.138
  C  C467  1  0.975500  0.239000  0.030200  1.0  -0.6289
  C  C468  1  0.106400  0.148000  0.011700  1.0  -0.3725
  C  C469  1  0.079600  0.134700  0.946000  1.0  -0.3416
  C  C470  1  0.175300  0.705600  0.859400  1.0  0.1216
  C  C471  1  0.098100  0.716600  0.861400  1.0  -0.1689
  C  C472  1  0.050600  0.658200  0.865300  1.0  -0.1366
  C  C473  1  0.084800  0.591800  0.871400  1.0  -0.1264
  C  C474  1  0.161200  0.585000  0.869100  1.0  0.1084
  C  C475  1  0.927200  0.717400  0.948100  1.0  -0.103
  C  C476  1  0.854300  0.723700  0.964400  1.0  -0.1307
  C  C477  1  0.833200  0.760000  0.024600  1.0  0.0991
  C  C478  1  0.952000  0.784400  0.045300  1.0  0.1344
  C  C479  1  0.973300  0.750600  0.989600  1.0  -0.0964
  C  C480  1  0.897100  0.590800  0.842500  1.0  -0.2424
  C  C481  1  0.920300  0.730000  0.798000  1.0  -0.346
  C  C482  1  0.877700  0.687600  0.752400  1.0  -0.1679
  C  C483  1  0.860100  0.620700  0.785400  1.0  -0.2528
  C  C484  1  0.431100  0.737400  0.762200  1.0  0.1287
  C  C485  1  0.457300  0.776900  0.708900  1.0  -0.141
  C  C486  1  0.420600  0.778400  0.649400  1.0  -0.0656
  C  C487  1  0.360100  0.736500  0.649000  1.0  -0.1266
  C  C488  1  0.335300  0.703200  0.701900  1.0  0.1099
  C  C489  1  0.520100  0.903700  0.601700  1.0  -0.1917
  C  C490  1  0.488300  0.971500  0.607100  1.0  -0.1849
  C  C491  1  0.532600  0.031000  0.625400  1.0  0.1406
  C  C492  1  0.633800  0.960900  0.634000  1.0  0.107
  C  C493  1  0.594400  0.900200  0.617200  1.0  -0.1361
  C  C494  1  0.524500  0.761000  0.530200  1.0  -0.6294
  C  C495  1  0.393600  0.852000  0.511700  1.0  -0.3728
  C  C496  1  0.420400  0.865300  0.446000  1.0  -0.3422
  N  N497  1  0.869900  0.420400  0.946300  1.0  -0.3541
  N  N498  1  0.761200  0.587400  0.286100  1.0  -0.3681
  N  N499  1  0.938600  0.406600  0.768500  1.0  -0.4146
  N  N500  1  0.142700  0.750700  0.641800  1.0  -0.4038
  N  N501  1  0.630100  0.579600  0.446300  1.0  -0.3524
  N  N502  1  0.738800  0.412600  0.786100  1.0  -0.3657
  N  N503  1  0.561400  0.593400  0.268500  1.0  -0.4125
  N  N504  1  0.357300  0.249300  0.141800  1.0  -0.4047
  N  N505  1  0.130100  0.920400  0.553700  1.0  -0.3511
  N  N506  1  0.238800  0.087400  0.213900  1.0  -0.3662
  N  N507  1  0.061400  0.906600  0.731500  1.0  -0.413
  N  N508  1  0.857300  0.250700  0.858200  1.0  -0.4036
  N  N509  1  0.369900  0.079600  0.053700  1.0  -0.3522
  N  N510  1  0.261200  0.912600  0.713900  1.0  -0.3689
  N  N511  1  0.438600  0.093400  0.231500  1.0  -0.4141
  N  N512  1  0.642700  0.749300  0.358200  1.0  -0.4037
  N  N513  1  0.707200  0.858800  0.137200  1.0  -0.3826
  N  N514  1  0.382300  0.709700  0.935400  1.0  -0.394
  N  N515  1  0.868800  0.798700  0.238800  1.0  -0.3695
  N  N516  1  0.102000  0.471500  0.360300  1.0  -0.3882
  N  N517  1  0.792800  0.141200  0.637200  1.0  -0.3818
  N  N518  1  0.117700  0.290300  0.435400  1.0  -0.3933
  N  N519  1  0.631200  0.201300  0.738800  1.0  -0.3709
  N  N520  1  0.398000  0.528500  0.860300  1.0  -0.3904
  N  N521  1  0.292800  0.358800  0.362800  1.0  -0.3814
  N  N522  1  0.617700  0.209700  0.564600  1.0  -0.3949
  N  N523  1  0.131200  0.298700  0.261200  1.0  -0.3715
  N  N524  1  0.898000  0.971500  0.139700  1.0  -0.3897
  N  N525  1  0.207200  0.641200  0.862800  1.0  -0.3829
  N  N526  1  0.882300  0.790300  0.064600  1.0  -0.3957
  N  N527  1  0.368800  0.701300  0.761200  1.0  -0.3713
  N  N528  1  0.602000  0.028500  0.639700  1.0  -0.39
