# generated using pymatgen
data_Cu3H34C71NO12
_symmetry_space_group_name_H-M   'P 1'
_cell_length_a   37.70690000
_cell_length_b   37.70690000
_cell_length_c   37.70690000
_cell_angle_alpha   60.07030000
_cell_angle_beta   75.49110000
_cell_angle_gamma   104.50900000
_symmetry_Int_Tables_number   1
_chemical_formula_structural   Cu3H34C71NO12
_chemical_formula_sum   'Cu12 H136 C284 N4 O48'
_cell_volume   40223.25151831
_cell_formula_units_Z   4
loop_
 _symmetry_equiv_pos_site_id
 _symmetry_equiv_pos_as_xyz
  1  'x, y, z'
loop_
 _atom_site_type_symbol
 _atom_site_label
 _atom_site_symmetry_multiplicity
 _atom_site_fract_x
 _atom_site_fract_y
 _atom_site_fract_z
 _atom_site_occupancy
 _atom_site_charge
  Cu  Cu1  1  0.000000  0.215350  0.784650  1.0  0.9071
  Cu  Cu2  1  0.755680  0.127840  0.372160  1.0  0.9225
  Cu  Cu3  1  0.675260  0.087630  0.412370  1.0  0.8802
  Cu  Cu4  1  0.500000  0.372160  0.872160  1.0  0.9227
  Cu  Cu5  1  0.500000  0.627840  0.127840  1.0  0.9221
  Cu  Cu6  1  0.244320  0.872160  0.627840  1.0  0.9221
  Cu  Cu7  1  0.000000  0.784650  0.215350  1.0  0.9061
  Cu  Cu8  1  0.500000  0.412370  0.912370  1.0  0.8799
  Cu  Cu9  1  0.000000  0.715350  0.284650  1.0  0.9233
  Cu  Cu10  1  0.000000  0.284650  0.715350  1.0  0.9239
  Cu  Cu11  1  0.324740  0.912370  0.587630  1.0  0.8795
  Cu  Cu12  1  0.500000  0.587630  0.087630  1.0  0.8807
  H  H13  1  0.781300  0.083400  0.550100  1.0  0.1233
  H  H14  1  0.341600  0.721700  0.650100  1.0  0.1219
  H  H15  1  0.684300  0.750000  0.565700  1.0  0.119
  H  H16  1  0.226100  0.937400  0.316300  1.0  0.1223
  H  H17  1  0.601700  0.019200  0.417500  1.0  0.1204
  H  H18  1  0.527300  0.045600  0.518300  1.0  0.1116
  H  H19  1  0.416100  0.622000  0.032500  1.0  0.1092
  H  H20  1  0.398300  0.980800  0.582500  1.0  0.1214
  H  H21  1  0.658400  0.150100  0.221700  1.0  0.1229
  H  H22  1  0.654500  0.122000  0.294100  1.0  0.1092
  H  H23  1  0.589400  0.330400  0.892200  1.0  0.1145
  H  H24  1  0.366500  0.449900  0.331400  1.0  0.1209
  H  H25  1  0.226100  0.183700  0.562600  1.0  0.1194
  H  H26  1  0.563900  0.545600  0.981700  1.0  0.112
  H  H27  1  0.773900  0.457600  0.288700  1.0  0.1204
  H  H28  1  0.222600  0.741000  0.669600  1.0  0.1206
  H  H29  1  0.253700  0.042400  0.183700  1.0  0.1206
  H  H30  1  0.315700  0.565700  0.750000  1.0  0.1203
  H  H31  1  0.773900  0.211300  0.042400  1.0  0.1224
  H  H32  1  0.093700  0.286900  0.801400  1.0  0.1044
  H  H33  1  0.589400  0.759000  0.018400  1.0  0.1126
  H  H34  1  0.410600  0.392200  0.830400  1.0  0.116
  H  H35  1  0.860600  0.806500  0.335900  1.0  0.1238
  H  H36  1  0.345500  0.051400  0.532500  1.0  0.1111
  H  H37  1  0.857600  0.664100  0.196500  1.0  0.1237
  H  H38  1  0.093700  0.895100  0.193200  1.0  0.1038
  H  H39  1  0.911700  0.604900  0.301400  1.0  0.1051
  H  H40  1  0.777400  0.169600  0.241000  1.0  0.1192
  H  H41  1  0.416100  0.448600  0.205900  1.0  0.1102
  H  H42  1  0.906300  0.713100  0.198600  1.0  0.1036
  H  H43  1  0.253700  0.437400  0.788700  1.0  0.124
  H  H44  1  0.410600  0.518400  0.259000  1.0  0.1191
  H  H45  1  0.589400  0.481600  0.741000  1.0  0.1194
  H  H46  1  0.218700  0.802100  0.831400  1.0  0.1234
  H  H47  1  0.366500  0.416600  0.802100  1.0  0.1216
  H  H48  1  0.746300  0.288700  0.937400  1.0  0.1202
  H  H49  1  0.658400  0.278300  0.349900  1.0  0.1238
  H  H50  1  0.777400  0.018400  0.392200  1.0  0.1206
  H  H51  1  0.139400  0.193500  0.664100  1.0  0.1235
  H  H52  1  0.371800  0.650100  0.008300  1.0  0.1224
  H  H53  1  0.142400  0.696500  0.164100  1.0  0.1256
  H  H54  1  0.684300  0.434300  0.250000  1.0  0.12
  H  H55  1  0.088300  0.801400  0.104900  1.0  0.1035
  H  H56  1  0.911700  0.213100  0.693200  1.0  0.1023
  H  H57  1  0.436100  0.481700  0.045600  1.0  0.1152
  H  H58  1  0.777400  0.259000  0.330400  1.0  0.1206
  H  H59  1  0.226100  0.788700  0.957600  1.0  0.1234
  H  H60  1  0.563300  0.582500  0.019200  1.0  0.122
  H  H61  1  0.633500  0.550100  0.668600  1.0  0.1203
  H  H62  1  0.860600  0.164100  0.693500  1.0  0.1258
  H  H63  1  0.601700  0.082500  0.480800  1.0  0.1212
  H  H64  1  0.371800  0.221700  0.119900  1.0  0.1209
  H  H65  1  0.860600  0.554100  0.303500  1.0  0.1271
  H  H66  1  0.315700  0.250000  0.434300  1.0  0.1185
  H  H67  1  0.658400  0.880100  0.491700  1.0  0.1233
  H  H68  1  0.583900  0.532500  0.122000  1.0  0.1095
  H  H69  1  0.416100  0.467500  0.878000  1.0  0.1095
  H  H70  1  0.226100  0.542400  0.711300  1.0  0.1208
  H  H71  1  0.436700  0.519200  0.082500  1.0  0.1213
  H  H72  1  0.093700  0.698600  0.213100  1.0  0.1033
  H  H73  1  0.341600  0.849900  0.778300  1.0  0.1228
  H  H74  1  0.410600  0.241000  0.981600  1.0  0.113
  H  H75  1  0.583900  0.378000  0.967500  1.0  0.1104
  H  H76  1  0.781300  0.331400  0.302100  1.0  0.123
  H  H77  1  0.746300  0.957600  0.816300  1.0  0.1191
  H  H78  1  0.139400  0.803500  0.054100  1.0  0.125
  H  H79  1  0.906300  0.104900  0.806800  1.0  0.1044
  H  H80  1  0.345500  0.878000  0.705900  1.0  0.1097
  H  H81  1  0.315700  0.065700  0.250000  1.0  0.1177
  H  H82  1  0.746300  0.683700  0.542400  1.0  0.1223
  H  H83  1  0.911700  0.198600  0.895100  1.0  0.1033
  H  H84  1  0.472700  0.954400  0.481700  1.0  0.1092
  H  H85  1  0.857600  0.693500  0.445900  1.0  0.1277
  H  H86  1  0.218700  0.668600  0.697900  1.0  0.1228
  H  H87  1  0.527300  0.981700  0.454400  1.0  0.1102
  H  H88  1  0.633500  0.302100  0.916600  1.0  0.1217
  H  H89  1  0.781300  0.949900  0.416600  1.0  0.1229
  H  H90  1  0.563300  0.480800  0.917500  1.0  0.1213
  H  H91  1  0.093700  0.306800  0.604900  1.0  0.1038
  H  H92  1  0.906300  0.301400  0.786900  1.0  0.1034
  H  H93  1  0.139400  0.445900  0.696500  1.0  0.1261
  H  H94  1  0.654500  0.032500  0.551400  1.0  0.1081
  H  H95  1  0.860600  0.196500  0.945900  1.0  0.1254
  H  H96  1  0.222600  0.892200  0.518400  1.0  0.1196
  H  H97  1  0.583900  0.705900  0.948600  1.0  0.1093
  H  H98  1  0.563900  0.518300  0.954400  1.0  0.1144
  H  H99  1  0.345500  0.794100  0.622000  1.0  0.1097
  H  H100  1  0.345500  0.967500  0.448600  1.0  0.1093
  H  H101  1  0.088300  0.193200  0.713100  1.0  0.1039
  H  H102  1  0.583900  0.551400  0.794100  1.0  0.1105
  H  H103  1  0.773900  0.816300  0.437400  1.0  0.1187
  H  H104  1  0.857600  0.054100  0.806500  1.0  0.1249
  H  H105  1  0.589400  0.607800  0.169600  1.0  0.1159
  H  H106  1  0.371800  0.380100  0.278300  1.0  0.1236
  H  H107  1  0.366500  0.168600  0.050100  1.0  0.1222
  H  H108  1  0.633500  0.831400  0.949900  1.0  0.1228
  H  H109  1  0.773900  0.062600  0.683700  1.0  0.1214
  H  H110  1  0.911700  0.806800  0.286900  1.0  0.1036
  H  H111  1  0.315700  0.750000  0.934300  1.0  0.1193
  H  H112  1  0.857600  0.303500  0.835900  1.0  0.1256
  H  H113  1  0.218700  0.916600  0.449900  1.0  0.1231
  H  H114  1  0.253700  0.316300  0.457600  1.0  0.1225
  H  H115  1  0.436700  0.417500  0.980800  1.0  0.1206
  H  H116  1  0.253700  0.711300  0.062600  1.0  0.1194
  H  H117  1  0.139400  0.835900  0.306500  1.0  0.1261
  H  H118  1  0.633500  0.583400  0.197900  1.0  0.1224
  H  H119  1  0.628200  0.778300  0.880100  1.0  0.1216
  H  H120  1  0.088300  0.786900  0.306800  1.0  0.1027
  H  H121  1  0.366500  0.697900  0.083400  1.0  0.1221
  H  H122  1  0.906300  0.693200  0.395100  1.0  0.1039
  H  H123  1  0.371800  0.491700  0.849900  1.0  0.1231
  H  H124  1  0.654500  0.948600  0.467500  1.0  0.1119
  H  H125  1  0.684300  0.934300  0.750000  1.0  0.1174
  H  H126  1  0.777400  0.107800  0.481600  1.0  0.1201
  H  H127  1  0.088300  0.395100  0.698600  1.0  0.1049
  H  H128  1  0.218700  0.050100  0.583400  1.0  0.124
  H  H129  1  0.341600  0.119900  0.508300  1.0  0.1232
  H  H130  1  0.658400  0.008300  0.619900  1.0  0.1228
  H  H131  1  0.410600  0.669600  0.107800  1.0  0.1144
  H  H132  1  0.781300  0.197900  0.168600  1.0  0.1234
  H  H133  1  0.398300  0.917500  0.519200  1.0  0.1199
  H  H134  1  0.142400  0.945900  0.193500  1.0  0.1245
  H  H135  1  0.654500  0.205900  0.378000  1.0  0.1093
  H  H136  1  0.222600  0.830400  0.759000  1.0  0.1187
  H  H137  1  0.628200  0.619900  0.721700  1.0  0.1238
  H  H138  1  0.142400  0.306500  0.554100  1.0  0.1275
  H  H139  1  0.341600  0.991700  0.380100  1.0  0.1235
  H  H140  1  0.142400  0.335900  0.803500  1.0  0.1234
  H  H141  1  0.628200  0.508300  0.150100  1.0  0.1229
  H  H142  1  0.684300  0.250000  0.065700  1.0  0.12
  H  H143  1  0.222600  0.981600  0.607800  1.0  0.1198
  H  H144  1  0.416100  0.294100  0.051400  1.0  0.1103
  H  H145  1  0.746300  0.562600  0.211300  1.0  0.1226
  H  H146  1  0.436100  0.454400  0.018300  1.0  0.1119
  H  H147  1  0.472700  0.018300  0.545600  1.0  0.1121
  H  H148  1  0.628200  0.349900  0.991700  1.0  0.1227
  C  C149  1  0.447000  0.533300  0.180500  1.0  0.6655
  C  C150  1  0.086100  0.336100  0.750000  1.0  -0.1221
  C  C151  1  0.597180  0.509510  0.737130  1.0  -0.066
  C  C152  1  0.102980  0.718780  0.181200  1.0  -0.0301
  C  C153  1  0.458000  0.998600  0.540600  1.0  -0.1384
  C  C154  1  0.376490  0.682590  0.073100  1.0  -0.1108
  C  C155  1  0.913900  0.750000  0.336100  1.0  -0.1198
  C  C156  1  0.279800  0.688170  0.676750  1.0  0.0112
  C  C157  1  0.500000  0.510480  0.010480  1.0  0.0383
  C  C158  1  0.460800  0.459400  0.998600  1.0  -0.1318
  C  C159  1  0.856300  0.250000  0.893700  1.0  0.014
  C  C160  1  0.620300  0.528250  0.154150  1.0  -0.1075
  C  C161  1  0.947500  0.750000  0.302500  1.0  0.6739
  C  C162  1  0.271400  0.557700  0.729500  1.0  0.0997
  C  C163  1  0.275600  0.172300  0.514300  1.0  0.0049
  C  C164  1  0.868600  0.282700  0.846500  1.0  -0.1341
  C  C165  1  0.763200  0.013200  0.750000  1.0  -0.025
  C  C166  1  0.870800  0.153500  0.715100  1.0  -0.1268
  C  C167  1  0.826500  0.750000  0.423500  1.0  0.0451
  C  C168  1  0.623510  0.550410  0.693900  1.0  -0.1094
  C  C169  1  0.741700  0.968300  0.790200  1.0  -0.1441
  C  C170  1  0.704700  0.954700  0.750000  1.0  -0.14
  C  C171  1  0.286200  0.872500  0.680500  1.0  0.6626
  C  C172  1  0.720200  0.043450  0.591630  1.0  0.0089
  C  C173  1  0.553000  0.466700  0.819500  1.0  0.6661
  C  C174  1  0.258300  0.290200  0.468300  1.0  -0.1409
  C  C175  1  0.313400  0.485700  0.789900  1.0  0.0037
  C  C176  1  0.623510  0.806100  0.949590  1.0  -0.1095
  C  C177  1  0.620300  0.774450  0.907950  1.0  -0.1084
  C  C178  1  0.337200  0.364700  0.357100  1.0  -0.0793
  C  C179  1  0.758500  0.790200  0.468100  1.0  -0.1401
  C  C180  1  0.753360  0.262870  0.334310  1.0  -0.0653
  C  C181  1  0.376490  0.449590  0.306100  1.0  -0.1076
  C  C182  1  0.897020  0.115800  0.784180  1.0  -0.0301
  C  C183  1  0.413100  0.937200  0.524100  1.0  0.1212
  C  C184  1  0.458000  0.959400  0.501400  1.0  -0.1386
  C  C185  1  0.086100  0.836100  0.250000  1.0  -0.1221
  C  C186  1  0.763200  0.250000  0.986800  1.0  -0.0245
  C  C187  1  0.173500  0.423500  0.750000  1.0  0.0433
  C  C188  1  0.406030  0.268770  0.051140  1.0  -0.0526
  C  C189  1  0.704700  0.454700  0.250000  1.0  -0.1439
  C  C190  1  0.724400  0.210100  0.103300  1.0  0.0046
  C  C191  1  0.870800  0.784900  0.346500  1.0  -0.1345
  C  C192  1  0.712800  0.713700  0.557700  1.0  0.0885
  C  C193  1  0.755690  0.949590  0.426900  1.0  -0.1069
  C  C194  1  0.826500  0.250000  0.923500  1.0  0.0451
  C  C195  1  0.856300  0.606300  0.250000  1.0  0.0248
  C  C196  1  0.593970  0.731230  0.948860  1.0  -0.0514
  C  C197  1  0.379700  0.225550  0.092050  1.0  -0.1074
  C  C198  1  0.246640  0.009510  0.587670  1.0  -0.0663
  C  C199  1  0.680090  0.137260  0.268770  1.0  -0.0517
  C  C200  1  0.086100  0.750000  0.163900  1.0  -0.1206
  C  C201  1  0.417590  0.427470  0.856960  1.0  -0.1512
  C  C202  1  0.856300  0.106300  0.750000  1.0  0.0243
  C  C203  1  0.662800  0.527500  0.194300  1.0  -0.0736
  C  C204  1  0.379700  0.471750  0.845850  1.0  -0.1073
  C  C205  1  0.364920  0.456550  0.823250  1.0  0.0029
  C  C206  1  0.236800  0.250000  0.513200  1.0  -0.0264
  C  C207  1  0.899980  0.218780  0.884200  1.0  -0.0283
  C  C208  1  0.131400  0.284900  0.585900  1.0  -0.131
  C  C209  1  0.712800  0.270500  0.000900  1.0  0.0865
  C  C210  1  0.402820  0.237130  0.009510  1.0  -0.0674
  C  C211  1  0.278200  0.642900  0.694300  1.0  -0.077
  C  C212  1  0.713800  0.127500  0.319500  1.0  0.6635
  C  C213  1  0.479040  0.989520  0.510480  1.0  0.0375
  C  C214  1  0.715570  0.225450  0.356960  1.0  -0.1485
  C  C215  1  0.713800  0.086300  0.466700  1.0  0.6566
  C  C216  1  0.284430  0.927470  0.490120  1.0  -0.1486
  C  C217  1  0.797800  0.750000  0.452200  1.0  -0.0937
  C  C218  1  0.129200  0.215100  0.653500  1.0  -0.129
  C  C219  1  0.236800  0.750000  0.013200  1.0  -0.0261
  C  C220  1  0.680090  0.042830  0.551140  1.0  -0.0524
  C  C221  1  0.129200  0.782700  0.085900  1.0  -0.135
  C  C222  1  0.284430  0.774550  0.643040  1.0  -0.1485
  C  C223  1  0.680090  0.231230  0.362740  1.0  -0.0513
  C  C224  1  0.582410  0.572530  0.143040  1.0  -0.1513
  C  C225  1  0.682400  0.154150  0.225550  1.0  -0.1069
  C  C226  1  0.728600  0.442300  0.270500  1.0  0.1024
  C  C227  1  0.287200  0.729500  0.999100  1.0  0.0879
  C  C228  1  0.682400  0.907950  0.471750  1.0  -0.106
  C  C229  1  0.755690  0.073100  0.550410  1.0  -0.1061
  C  C230  1  0.202200  0.250000  0.547800  1.0  -0.0942
  C  C231  1  0.086100  0.250000  0.663900  1.0  -0.1206
  C  C232  1  0.870800  0.217300  0.914100  1.0  -0.1348
  C  C233  1  0.278200  0.972500  0.364700  1.0  -0.0776
  C  C234  1  0.286200  0.913700  0.533300  1.0  0.6558
  C  C235  1  0.500000  0.489520  0.989520  1.0  0.0385
  C  C236  1  0.704700  0.250000  0.045300  1.0  -0.1173
  C  C237  1  0.100020  0.215820  0.681200  1.0  -0.0303
  C  C238  1  0.553000  0.372500  0.913700  1.0  0.6562
  C  C239  1  0.680090  0.948860  0.457170  1.0  -0.0555
  C  C240  1  0.797800  0.250000  0.952200  1.0  -0.0937
  C  C241  1  0.271400  0.213700  0.499100  1.0  0.1004
  C  C242  1  0.447000  0.627500  0.086300  1.0  0.656
  C  C243  1  0.317600  0.845850  0.774450  1.0  -0.1067
  C  C244  1  0.236800  0.486800  0.750000  1.0  -0.0277
  C  C245  1  0.313400  0.327700  0.396700  1.0  0.0044
  C  C246  1  0.337200  0.472500  0.805700  1.0  -0.0765
  C  C247  1  0.758500  0.031900  0.709800  1.0  -0.1372
  C  C248  1  0.052500  0.302500  0.750000  1.0  0.6815
  C  C249  1  0.868600  0.715100  0.414100  1.0  -0.1352
  C  C250  1  0.662800  0.305700  0.972500  1.0  -0.077
  C  C251  1  0.704700  0.750000  0.545300  1.0  -0.1236
  C  C252  1  0.623510  0.317410  0.926900  1.0  -0.1108
  C  C253  1  0.143700  0.893700  0.250000  1.0  0.0183
  C  C254  1  0.202200  0.452200  0.750000  1.0  -0.1017
  C  C255  1  0.715570  0.143040  0.274550  1.0  -0.1498
  C  C256  1  0.897020  0.681200  0.218780  1.0  -0.0304
  C  C257  1  0.376490  0.193900  0.050410  1.0  -0.1099
  C  C258  1  0.271400  0.000900  0.286300  1.0  0.0827
  C  C259  1  0.052500  0.250000  0.697500  1.0  0.6746
  C  C260  1  0.202200  0.952200  0.250000  1.0  -0.1017
  C  C261  1  0.284430  0.856960  0.725450  1.0  -0.1504
  C  C262  1  0.582410  0.509880  0.774550  1.0  -0.1507
  C  C263  1  0.413100  0.975900  0.562800  1.0  0.1205
  C  C264  1  0.635080  0.543450  0.176750  1.0  0.0055
  C  C265  1  0.337200  0.142900  0.135300  1.0  -0.0745
  C  C266  1  0.686600  0.672300  0.603300  1.0  0.0053
  C  C267  1  0.542000  0.040600  0.498600  1.0  -0.1349
  C  C268  1  0.715570  0.072530  0.509880  1.0  -0.1502
  C  C269  1  0.313400  0.103300  0.172300  1.0  0.0051
  C  C270  1  0.720200  0.311830  0.323250  1.0  0.0059
  C  C271  1  0.319910  0.051140  0.542830  1.0  -0.0546
  C  C272  1  0.052500  0.750000  0.197500  1.0  0.6746
  C  C273  1  0.721800  0.357100  0.305700  1.0  -0.0772
  C  C274  1  0.947500  0.250000  0.802500  1.0  0.6739
  C  C275  1  0.100020  0.781220  0.115800  1.0  -0.0295
  C  C276  1  0.947500  0.197500  0.750000  1.0  0.6812
  C  C277  1  0.258300  0.468100  0.773400  1.0  -0.1407
  C  C278  1  0.406030  0.637260  0.042830  1.0  -0.054
  C  C279  1  0.402820  0.490490  0.262870  1.0  -0.0655
  C  C280  1  0.721800  0.864700  0.472500  1.0  -0.0733
  C  C281  1  0.720200  0.176750  0.188170  1.0  0.0091
  C  C282  1  0.947500  0.697500  0.250000  1.0  0.6812
  C  C283  1  0.244310  0.693900  0.682590  1.0  -0.1021
  C  C284  1  0.753360  0.165690  0.237130  1.0  -0.0635
  C  C285  1  0.913900  0.663900  0.250000  1.0  -0.1221
  C  C286  1  0.052500  0.802500  0.250000  1.0  0.6815
  C  C287  1  0.682400  0.274450  0.345850  1.0  -0.1043
  C  C288  1  0.797800  0.047800  0.750000  1.0  -0.1016
  C  C289  1  0.763200  0.513200  0.250000  1.0  -0.0288
  C  C290  1  0.620300  0.592050  0.725550  1.0  -0.1063
  C  C291  1  0.582410  0.725450  0.990120  1.0  -0.1489
  C  C292  1  0.143700  0.250000  0.606300  1.0  0.0126
  C  C293  1  0.586900  0.062800  0.475900  1.0  0.1198
  C  C294  1  0.913900  0.250000  0.836100  1.0  -0.1198
  C  C295  1  0.753360  0.087670  0.509510  1.0  -0.067
  C  C296  1  0.856300  0.750000  0.393700  1.0  0.0141
  C  C297  1  0.539200  0.498600  0.959400  1.0  -0.1307
  C  C298  1  0.379700  0.407950  0.274450  1.0  -0.1074
  C  C299  1  0.287200  0.286300  0.442300  1.0  0.0889
  C  C300  1  0.317600  0.092050  0.528250  1.0  -0.1077
  C  C301  1  0.713800  0.180500  0.372500  1.0  0.6649
  C  C302  1  0.406030  0.448860  0.231230  1.0  -0.0552
  C  C303  1  0.279800  0.823250  0.811830  1.0  0.0105
  C  C304  1  0.724400  0.396700  0.289900  1.0  0.0043
  C  C305  1  0.826500  0.576500  0.250000  1.0  0.043
  C  C306  1  0.129200  0.846500  0.284900  1.0  -0.1297
  C  C307  1  0.278200  0.805700  0.857100  1.0  -0.0731
  C  C308  1  0.241500  0.968100  0.290200  1.0  -0.1369
  C  C309  1  0.295300  0.750000  0.954700  1.0  -0.1133
  C  C310  1  0.100020  0.818800  0.284180  1.0  -0.0306
  C  C311  1  0.364920  0.676750  0.043450  1.0  0.0017
  C  C312  1  0.724400  0.014300  0.672300  1.0  0.0035
  C  C313  1  0.102980  0.884200  0.215820  1.0  -0.0322
  C  C314  1  0.763200  0.750000  0.486800  1.0  -0.0247
  C  C315  1  0.586900  0.024100  0.437200  1.0  0.1211
  C  C316  1  0.287200  0.057700  0.213700  1.0  0.0854
  C  C317  1  0.295300  0.250000  0.454700  1.0  -0.1237
  C  C318  1  0.635080  0.591630  0.688170  1.0  0.004
  C  C319  1  0.319910  0.862740  0.731230  1.0  -0.0515
  C  C320  1  0.402820  0.412330  0.834310  1.0  -0.0692
  C  C321  1  0.131400  0.717300  0.153500  1.0  -0.1327
  C  C322  1  0.364920  0.408370  0.311830  1.0  0.0059
  C  C323  1  0.275600  0.603300  0.710100  1.0  0.0056
  C  C324  1  0.826500  0.076500  0.750000  1.0  0.043
  C  C325  1  0.538700  0.562800  0.024100  1.0  0.1233
  C  C326  1  0.520960  0.010480  0.489520  1.0  0.0376
  C  C327  1  0.582410  0.356960  0.927470  1.0  -0.1501
  C  C328  1  0.417590  0.274550  0.009880  1.0  -0.1498
  C  C329  1  0.721800  0.027500  0.635300  1.0  -0.0778
  C  C330  1  0.868600  0.085900  0.784900  1.0  -0.1272
  C  C331  1  0.286200  0.966700  0.586300  1.0  0.6558
  C  C332  1  0.597180  0.587670  0.165690  1.0  -0.069
  C  C333  1  0.319910  0.768770  0.637260  1.0  -0.0506
  C  C334  1  0.279800  0.956550  0.408370  1.0  0.0076
  C  C335  1  0.236800  0.986800  0.250000  1.0  -0.0257
  C  C336  1  0.287200  0.500900  0.770500  1.0  0.0851
  C  C337  1  0.286200  0.819500  0.627500  1.0  0.6654
  C  C338  1  0.244310  0.817410  0.806100  1.0  -0.1061
  C  C339  1  0.244310  0.050410  0.573100  1.0  -0.1085
  C  C340  1  0.721800  0.194300  0.142900  1.0  -0.0747
  C  C341  1  0.143700  0.393700  0.750000  1.0  0.0218
  C  C342  1  0.313400  0.710100  0.014300  1.0  0.0041
  C  C343  1  0.246640  0.912330  0.490490  1.0  -0.0674
  C  C344  1  0.100020  0.384200  0.718780  1.0  -0.0319
  C  C345  1  0.376490  0.426900  0.817410  1.0  -0.1061
  C  C346  1  0.279800  0.091630  0.543450  1.0  0.0051
  C  C347  1  0.597180  0.334310  0.912330  1.0  -0.0697
  C  C348  1  0.131400  0.914100  0.215100  1.0  -0.1223
  C  C349  1  0.593970  0.542830  0.137260  1.0  -0.0554
  C  C350  1  0.728600  0.229500  0.057700  1.0  0.083
  C  C351  1  0.317600  0.725550  0.654150  1.0  -0.1017
  C  C352  1  0.241500  0.531700  0.726600  1.0  -0.1389
  C  C353  1  0.241500  0.773400  0.968300  1.0  -0.1408
  C  C354  1  0.258300  0.726600  0.031900  1.0  -0.1345
  C  C355  1  0.241500  0.209800  0.531900  1.0  -0.1368
  C  C356  1  0.720200  0.908370  0.456550  1.0  0.0089
  C  C357  1  0.553000  0.586300  0.127500  1.0  0.6603
  C  C358  1  0.538700  0.475900  0.937200  1.0  0.122
  C  C359  1  0.129200  0.414100  0.717300  1.0  -0.1276
  C  C360  1  0.662800  0.635300  0.642900  1.0  -0.0807
  C  C361  1  0.686600  0.514300  0.210100  1.0  0.0008
  C  C362  1  0.897020  0.281220  0.818800  1.0  -0.0317
  C  C363  1  0.275600  0.985700  0.327700  1.0  0.0044
  C  C364  1  0.758500  0.226600  0.031700  1.0  -0.1415
  C  C365  1  0.131400  0.346500  0.782700  1.0  -0.1301
  C  C366  1  0.870800  0.585900  0.282700  1.0  -0.1276
  C  C367  1  0.899980  0.784180  0.318800  1.0  -0.0329
  C  C368  1  0.868600  0.653500  0.217300  1.0  -0.1305
  C  C369  1  0.897020  0.715820  0.384200  1.0  -0.0292
  C  C370  1  0.712800  0.942300  0.786300  1.0  0.0851
  C  C371  1  0.173500  0.923500  0.250000  1.0  0.0433
  C  C372  1  0.460800  0.501400  0.040600  1.0  -0.1355
  C  C373  1  0.712800  0.499100  0.229500  1.0  0.0859
  C  C374  1  0.271400  0.770500  0.942300  1.0  0.0841
  C  C375  1  0.553000  0.680500  0.033300  1.0  0.6656
  C  C376  1  0.202200  0.750000  0.047800  1.0  -0.0942
  C  C377  1  0.686600  0.289900  0.985700  1.0  0.0021
  C  C378  1  0.246640  0.737130  0.665690  1.0  -0.0663
  C  C379  1  0.402820  0.665690  0.087670  1.0  -0.0693
  C  C380  1  0.244310  0.926900  0.449590  1.0  -0.1065
  C  C381  1  0.686600  0.896700  0.827700  1.0  0.005
  C  C382  1  0.682400  0.028250  0.592050  1.0  -0.1067
  C  C383  1  0.741700  0.709800  0.531700  1.0  -0.139
  C  C384  1  0.593970  0.362740  0.957170  1.0  -0.0552
  C  C385  1  0.275600  0.789900  0.896700  1.0  0.0043
  C  C386  1  0.899980  0.181200  0.715820  1.0  -0.0319
  C  C387  1  0.753360  0.990490  0.412330  1.0  -0.0651
  C  C388  1  0.284430  0.009880  0.572530  1.0  -0.1526
  C  C389  1  0.102980  0.318800  0.781220  1.0  -0.0296
  C  C390  1  0.899980  0.615800  0.281220  1.0  -0.0295
  C  C391  1  0.728600  0.786300  0.500900  1.0  0.0989
  C  C392  1  0.364920  0.188170  0.091630  1.0  0.0104
  C  C393  1  0.295300  0.545300  0.750000  1.0  -0.146
  C  C394  1  0.461300  0.437200  0.975900  1.0  0.1241
  C  C395  1  0.662800  0.857100  0.864700  1.0  -0.075
  C  C396  1  0.593970  0.551140  0.768770  1.0  -0.0555
  C  C397  1  0.741700  0.273400  0.968100  1.0  -0.1348
  C  C398  1  0.258300  0.031700  0.209800  1.0  -0.1441
  C  C399  1  0.758500  0.468300  0.273400  1.0  -0.1362
  C  C400  1  0.715570  0.990120  0.427470  1.0  -0.1528
  C  C401  1  0.755690  0.182590  0.193900  1.0  -0.1062
  C  C402  1  0.295300  0.045300  0.250000  1.0  -0.1402
  C  C403  1  0.713800  0.033300  0.413700  1.0  0.6566
  C  C404  1  0.741700  0.531900  0.226600  1.0  -0.1404
  C  C405  1  0.102980  0.284180  0.615800  1.0  -0.0303
  C  C406  1  0.542000  0.001400  0.459400  1.0  -0.1359
  C  C407  1  0.913900  0.163900  0.750000  1.0  -0.1221
  C  C408  1  0.379700  0.654150  0.028250  1.0  -0.1061
  C  C409  1  0.417590  0.643040  0.072530  1.0  -0.15
  C  C410  1  0.728600  0.999100  0.713700  1.0  0.0815
  C  C411  1  0.447000  0.413700  0.872500  1.0  0.6605
  C  C412  1  0.724400  0.827700  0.485700  1.0  0.0033
  C  C413  1  0.620300  0.345850  0.971750  1.0  -0.108
  C  C414  1  0.461300  0.524100  0.062800  1.0  0.1213
  C  C415  1  0.755690  0.306100  0.317410  1.0  -0.1015
  C  C416  1  0.539200  0.540600  0.001400  1.0  -0.1337
  C  C417  1  0.337200  0.694300  0.027500  1.0  -0.0799
  C  C418  1  0.173500  0.250000  0.576500  1.0  0.0458
  C  C419  1  0.246640  0.834310  0.762870  1.0  -0.0653
  C  C420  1  0.623510  0.573100  0.182590  1.0  -0.1064
  C  C421  1  0.597180  0.762870  0.990490  1.0  -0.0673
  C  C422  1  0.143700  0.750000  0.106300  1.0  0.0125
  C  C423  1  0.797800  0.547800  0.250000  1.0  -0.1016
  C  C424  1  0.417590  0.490120  0.225450  1.0  -0.1512
  C  C425  1  0.317600  0.971750  0.407950  1.0  -0.1072
  C  C426  1  0.447000  0.319500  0.966700  1.0  0.6656
  C  C427  1  0.278200  0.135300  0.527500  1.0  -0.0739
  C  C428  1  0.173500  0.750000  0.076500  1.0  0.0458
  C  C429  1  0.406030  0.457170  0.862740  1.0  -0.0543
  C  C430  1  0.635080  0.811830  0.908370  1.0  0.0083
  C  C431  1  0.635080  0.323250  0.956550  1.0  0.0037
  C  C432  1  0.319910  0.957170  0.448860  1.0  -0.0523
  N  N433  1  0.500000  0.554100  0.054100  1.0  -0.3178
  N  N434  1  0.500000  0.445900  0.945900  1.0  -0.3171
  N  N435  1  0.608200  0.054100  0.445900  1.0  -0.3136
  N  N436  1  0.391800  0.945900  0.554100  1.0  -0.3171
  O  O437  1  0.750520  0.182140  0.359120  1.0  -0.5705
  O  O438  1  0.959690  0.238230  0.718660  1.0  -0.561
  O  O439  1  0.043110  0.821650  0.218660  1.0  -0.5621
  O  O440  1  0.249480  0.817860  0.640880  1.0  -0.5751
  O  O441  1  0.680320  0.074600  0.466420  1.0  -0.549
  O  O442  1  0.956890  0.278540  0.761770  1.0  -0.5613
  O  O443  1  0.040310  0.321650  0.721460  1.0  -0.5618
  O  O444  1  0.959690  0.221460  0.821650  1.0  -0.56
  O  O445  1  0.959690  0.678350  0.278540  1.0  -0.5618
  O  O446  1  0.680320  0.146740  0.394280  1.0  -0.5441
  O  O447  1  0.043110  0.261770  0.778540  1.0  -0.561
  O  O448  1  0.249480  0.931620  0.609640  1.0  -0.5741
  O  O449  1  0.541020  0.574600  0.105720  1.0  -0.5587
  O  O450  1  0.541020  0.466420  0.853260  1.0  -0.54
  O  O451  1  0.043110  0.281340  0.678350  1.0  -0.5604
  O  O452  1  0.750520  0.140880  0.317860  1.0  -0.5712
  O  O453  1  0.750520  0.109640  0.431620  1.0  -0.5725
  O  O454  1  0.956890  0.738230  0.221460  1.0  -0.5615
  O  O455  1  0.249480  0.859120  0.682140  1.0  -0.5749
  O  O456  1  0.541260  0.682140  0.068380  1.0  -0.5764
  O  O457  1  0.458740  0.390360  0.859120  1.0  -0.5751
  O  O458  1  0.541020  0.394280  0.925400  1.0  -0.554
  O  O459  1  0.458740  0.317860  0.931620  1.0  -0.5784
  O  O460  1  0.541260  0.431620  0.817860  1.0  -0.5812
  O  O461  1  0.959690  0.781340  0.261770  1.0  -0.5612
  O  O462  1  0.541260  0.609640  0.140880  1.0  -0.5712
  O  O463  1  0.458980  0.353260  0.966420  1.0  -0.5413
  O  O464  1  0.750520  0.068380  0.390360  1.0  -0.5702
  O  O465  1  0.040310  0.761770  0.281340  1.0  -0.5608
  O  O466  1  0.680320  0.033580  0.425400  1.0  -0.5536
  O  O467  1  0.458980  0.605720  0.074600  1.0  -0.5537
  O  O468  1  0.249480  0.890360  0.568380  1.0  -0.5759
  O  O469  1  0.956890  0.178350  0.781340  1.0  -0.5616
  O  O470  1  0.040310  0.778540  0.178350  1.0  -0.5603
  O  O471  1  0.040310  0.218660  0.738230  1.0  -0.5597
  O  O472  1  0.541020  0.646740  0.033580  1.0  -0.5401
  O  O473  1  0.043110  0.721460  0.238230  1.0  -0.5596
  O  O474  1  0.319680  0.966420  0.574600  1.0  -0.5535
  O  O475  1  0.458740  0.568380  0.182140  1.0  -0.5778
  O  O476  1  0.956890  0.718660  0.321650  1.0  -0.5603
  O  O477  1  0.458980  0.425400  0.894280  1.0  -0.5568
  O  O478  1  0.458740  0.640880  0.109640  1.0  -0.5755
  O  O479  1  0.680320  0.105720  0.353260  1.0  -0.5529
  O  O480  1  0.319680  0.894280  0.646740  1.0  -0.5543
  O  O481  1  0.541260  0.359120  0.890360  1.0  -0.576
  O  O482  1  0.458980  0.533580  0.146740  1.0  -0.5401
  O  O483  1  0.319680  0.925400  0.533580  1.0  -0.5484
  O  O484  1  0.319680  0.853260  0.605720  1.0  -0.5442
