# generated using pymatgen
data_CuH10(C11O2)2
_symmetry_space_group_name_H-M   'P 1'
_cell_length_a   34.34600000
_cell_length_b   34.34600000
_cell_length_c   34.34600000
_cell_angle_alpha   90.00000000
_cell_angle_beta   90.00000000
_cell_angle_gamma   90.00000000
_symmetry_Int_Tables_number   1
_chemical_formula_structural   CuH10(C11O2)2
_chemical_formula_sum   'Cu12 H120 C264 O48'
_cell_volume   40516.18045374
_cell_formula_units_Z   12
loop_
 _symmetry_equiv_pos_site_id
 _symmetry_equiv_pos_as_xyz
  1  'x, y, z'
loop_
 _atom_site_type_symbol
 _atom_site_label
 _atom_site_symmetry_multiplicity
 _atom_site_fract_x
 _atom_site_fract_y
 _atom_site_fract_z
 _atom_site_occupancy
 _atom_site_charge
  Cu  Cu1  1  0.500000  0.833630  0.000000  1.0  0.8572
  Cu  Cu2  1  0.000000  0.500000  0.833630  1.0  0.8577
  Cu  Cu3  1  0.000000  0.500000  0.166370  1.0  0.8575
  Cu  Cu4  1  0.000000  0.500000  0.242830  1.0  0.8671
  Cu  Cu5  1  0.757170  0.000000  0.500000  1.0  0.8667
  Cu  Cu6  1  0.242830  0.000000  0.500000  1.0  0.867
  Cu  Cu7  1  0.000000  0.500000  0.757170  1.0  0.8673
  Cu  Cu8  1  0.833630  0.000000  0.500000  1.0  0.857
  Cu  Cu9  1  0.500000  0.242830  0.000000  1.0  0.8659
  Cu  Cu10  1  0.500000  0.757170  0.000000  1.0  0.8667
  Cu  Cu11  1  0.500000  0.166370  0.000000  1.0  0.8573
  Cu  Cu12  1  0.166370  0.000000  0.500000  1.0  0.8563
  H  H13  1  0.265600  0.117600  0.649300  1.0  0.0813
  H  H14  1  0.226300  0.261600  0.831700  1.0  0.0719
  H  H15  1  0.350700  0.265600  0.882400  1.0  0.0836
  H  H16  1  0.590600  0.147300  0.086300  1.0  0.0734
  H  H17  1  0.261600  0.168300  0.773700  1.0  0.0723
  H  H18  1  0.264300  0.923400  0.595200  1.0  0.0764
  H  H19  1  0.127300  0.644700  0.851400  1.0  0.0814
  H  H20  1  0.831700  0.226300  0.738400  1.0  0.0717
  H  H21  1  0.404800  0.735700  0.076600  1.0  0.076
  H  H22  1  0.913700  0.590600  0.147300  1.0  0.0731
  H  H23  1  0.076600  0.404800  0.735700  1.0  0.0761
  H  H24  1  0.852700  0.086300  0.409400  1.0  0.0733
  H  H25  1  0.261600  0.168300  0.226300  1.0  0.0722
  H  H26  1  0.852700  0.913700  0.590600  1.0  0.0735
  H  H27  1  0.409400  0.147300  0.086300  1.0  0.0735
  H  H28  1  0.595200  0.264300  0.923400  1.0  0.0761
  H  H29  1  0.117600  0.649300  0.265600  1.0  0.0824
  H  H30  1  0.872700  0.644700  0.851400  1.0  0.0812
  H  H31  1  0.773700  0.738400  0.831700  1.0  0.0716
  H  H32  1  0.644700  0.148600  0.872700  1.0  0.0832
  H  H33  1  0.595200  0.264300  0.076600  1.0  0.0762
  H  H34  1  0.076600  0.595200  0.735700  1.0  0.076
  H  H35  1  0.831700  0.773700  0.738400  1.0  0.0718
  H  H36  1  0.076600  0.404800  0.264300  1.0  0.0756
  H  H37  1  0.738400  0.168300  0.773700  1.0  0.0715
  H  H38  1  0.872700  0.355300  0.851400  1.0  0.0813
  H  H39  1  0.355300  0.851400  0.872700  1.0  0.0837
  H  H40  1  0.168300  0.773700  0.261600  1.0  0.0723
  H  H41  1  0.147300  0.913700  0.590600  1.0  0.0731
  H  H42  1  0.852700  0.086300  0.590600  1.0  0.0733
  H  H43  1  0.644700  0.851400  0.127300  1.0  0.0843
  H  H44  1  0.147300  0.086300  0.409400  1.0  0.0728
  H  H45  1  0.738400  0.831700  0.226300  1.0  0.0711
  H  H46  1  0.261600  0.831700  0.773700  1.0  0.0719
  H  H47  1  0.409400  0.147300  0.913700  1.0  0.0732
  H  H48  1  0.168300  0.226300  0.261600  1.0  0.072
  H  H49  1  0.923400  0.595200  0.735700  1.0  0.0761
  H  H50  1  0.265600  0.882400  0.649300  1.0  0.0812
  H  H51  1  0.226300  0.738400  0.168300  1.0  0.0718
  H  H52  1  0.404800  0.264300  0.076600  1.0  0.0763
  H  H53  1  0.355300  0.148600  0.872700  1.0  0.0829
  H  H54  1  0.851400  0.127300  0.355300  1.0  0.0832
  H  H55  1  0.350700  0.265600  0.117600  1.0  0.0837
  H  H56  1  0.644700  0.851400  0.872700  1.0  0.0843
  H  H57  1  0.851400  0.872700  0.644700  1.0  0.0821
  H  H58  1  0.076600  0.595200  0.264300  1.0  0.0756
  H  H59  1  0.882400  0.350700  0.265600  1.0  0.0821
  H  H60  1  0.923400  0.404800  0.735700  1.0  0.0761
  H  H61  1  0.649300  0.734400  0.882400  1.0  0.0831
  H  H62  1  0.735700  0.076600  0.595200  1.0  0.0761
  H  H63  1  0.734400  0.882400  0.649300  1.0  0.0818
  H  H64  1  0.735700  0.923400  0.404800  1.0  0.0757
  H  H65  1  0.923400  0.404800  0.264300  1.0  0.0758
  H  H66  1  0.852700  0.913700  0.409400  1.0  0.0735
  H  H67  1  0.590600  0.147300  0.913700  1.0  0.073
  H  H68  1  0.590600  0.852700  0.913700  1.0  0.0735
  H  H69  1  0.127300  0.355300  0.851400  1.0  0.0813
  H  H70  1  0.147300  0.913700  0.409400  1.0  0.0729
  H  H71  1  0.086300  0.409400  0.852700  1.0  0.0726
  H  H72  1  0.086300  0.409400  0.147300  1.0  0.073
  H  H73  1  0.264300  0.923400  0.404800  1.0  0.0761
  H  H74  1  0.404800  0.264300  0.923400  1.0  0.0763
  H  H75  1  0.595200  0.735700  0.076600  1.0  0.0758
  H  H76  1  0.117600  0.350700  0.265600  1.0  0.0821
  H  H77  1  0.264300  0.076600  0.404800  1.0  0.0762
  H  H78  1  0.649300  0.265600  0.882400  1.0  0.0834
  H  H79  1  0.773700  0.738400  0.168300  1.0  0.0719
  H  H80  1  0.148600  0.872700  0.644700  1.0  0.082
  H  H81  1  0.734400  0.117600  0.649300  1.0  0.0817
  H  H82  1  0.265600  0.117600  0.350700  1.0  0.0817
  H  H83  1  0.595200  0.735700  0.923400  1.0  0.0757
  H  H84  1  0.872700  0.355300  0.148600  1.0  0.0819
  H  H85  1  0.644700  0.148600  0.127300  1.0  0.0833
  H  H86  1  0.882400  0.649300  0.265600  1.0  0.0821
  H  H87  1  0.649300  0.265600  0.117600  1.0  0.0834
  H  H88  1  0.831700  0.773700  0.261600  1.0  0.0725
  H  H89  1  0.882400  0.649300  0.734400  1.0  0.0816
  H  H90  1  0.148600  0.127300  0.644700  1.0  0.0819
  H  H91  1  0.350700  0.734400  0.882400  1.0  0.0831
  H  H92  1  0.773700  0.261600  0.831700  1.0  0.0716
  H  H93  1  0.882400  0.350700  0.734400  1.0  0.0814
  H  H94  1  0.409400  0.852700  0.913700  1.0  0.0734
  H  H95  1  0.086300  0.590600  0.852700  1.0  0.0728
  H  H96  1  0.409400  0.852700  0.086300  1.0  0.0737
  H  H97  1  0.923400  0.595200  0.264300  1.0  0.0759
  H  H98  1  0.264300  0.076600  0.595200  1.0  0.0762
  H  H99  1  0.168300  0.226300  0.738400  1.0  0.0713
  H  H100  1  0.913700  0.409400  0.852700  1.0  0.073
  H  H101  1  0.913700  0.409400  0.147300  1.0  0.0731
  H  H102  1  0.261600  0.831700  0.226300  1.0  0.0719
  H  H103  1  0.355300  0.148600  0.127300  1.0  0.0832
  H  H104  1  0.117600  0.350700  0.734400  1.0  0.0817
  H  H105  1  0.590600  0.852700  0.086300  1.0  0.0737
  H  H106  1  0.127300  0.644700  0.148600  1.0  0.0823
  H  H107  1  0.735700  0.923400  0.595200  1.0  0.0761
  H  H108  1  0.738400  0.168300  0.226300  1.0  0.0716
  H  H109  1  0.735700  0.076600  0.404800  1.0  0.0759
  H  H110  1  0.872700  0.644700  0.148600  1.0  0.0821
  H  H111  1  0.147300  0.086300  0.590600  1.0  0.073
  H  H112  1  0.851400  0.872700  0.355300  1.0  0.0829
  H  H113  1  0.851400  0.127300  0.644700  1.0  0.0823
  H  H114  1  0.226300  0.738400  0.831700  1.0  0.0716
  H  H115  1  0.086300  0.590600  0.147300  1.0  0.0731
  H  H116  1  0.355300  0.851400  0.127300  1.0  0.0838
  H  H117  1  0.127300  0.355300  0.148600  1.0  0.0821
  H  H118  1  0.265600  0.882400  0.350700  1.0  0.0813
  H  H119  1  0.148600  0.127300  0.355300  1.0  0.0825
  H  H120  1  0.117600  0.649300  0.734400  1.0  0.082
  H  H121  1  0.738400  0.831700  0.773700  1.0  0.071
  H  H122  1  0.734400  0.882400  0.350700  1.0  0.0816
  H  H123  1  0.773700  0.261600  0.168300  1.0  0.0716
  H  H124  1  0.404800  0.735700  0.923400  1.0  0.0759
  H  H125  1  0.734400  0.117600  0.350700  1.0  0.0817
  H  H126  1  0.649300  0.734400  0.117600  1.0  0.0833
  H  H127  1  0.226300  0.261600  0.168300  1.0  0.0717
  H  H128  1  0.831700  0.226300  0.261600  1.0  0.0722
  H  H129  1  0.148600  0.872700  0.355300  1.0  0.0825
  H  H130  1  0.350700  0.734400  0.117600  1.0  0.0835
  H  H131  1  0.913700  0.590600  0.852700  1.0  0.073
  H  H132  1  0.168300  0.773700  0.738400  1.0  0.0714
  C  C133  1  0.776000  0.754640  0.190200  1.0  -0.0756
  C  C134  1  0.448010  0.203870  0.050970  1.0  0.6356
  C  C135  1  0.224000  0.245360  0.190200  1.0  -0.0764
  C  C136  1  0.747470  0.214660  0.805430  1.0  0.1837
  C  C137  1  0.652180  0.207190  0.126380  1.0  -0.0728
  C  C138  1  0.171910  0.117050  0.365310  1.0  -0.1562
  C  C139  1  0.172380  0.716030  0.212180  1.0  0.4079
  C  C140  1  0.828840  0.092610  0.397570  1.0  -0.0935
  C  C141  1  0.848150  0.310500  0.206440  1.0  -0.0482
  C  C142  1  0.888730  0.637430  0.241720  1.0  -0.1587
  C  C143  1  0.283970  0.787820  0.827620  1.0  0.4077
  C  C144  1  0.077500  0.412320  0.794320  1.0  -0.1548
  C  C145  1  0.785340  0.805430  0.252530  1.0  0.1845
  C  C146  1  0.347820  0.792810  0.126380  1.0  -0.0771
  C  C147  1  0.171160  0.092610  0.397570  1.0  -0.0948
  C  C148  1  0.796130  0.050970  0.551990  1.0  0.6383
  C  C149  1  0.793560  0.848150  0.310500  1.0  -0.0473
  C  C150  1  0.111270  0.637430  0.758280  1.0  -0.1584
  C  C151  1  0.194570  0.747470  0.214660  1.0  0.1868
  C  C152  1  0.203870  0.949030  0.448010  1.0  0.6389
  C  C153  1  0.747470  0.785340  0.805430  1.0  0.1837
  C  C154  1  0.805430  0.747470  0.214660  1.0  0.1857
  C  C155  1  0.203870  0.050970  0.448010  1.0  0.6386
  C  C156  1  0.212180  0.827620  0.716030  1.0  0.4076
  C  C157  1  0.828090  0.117050  0.365310  1.0  -0.1541
  C  C158  1  0.397570  0.171160  0.092610  1.0  -0.094
  C  C159  1  0.310500  0.206440  0.848150  1.0  -0.048
  C  C160  1  0.394830  0.240960  0.086840  1.0  -0.0945
  C  C161  1  0.111270  0.637430  0.241720  1.0  -0.1577
  C  C162  1  0.873620  0.652180  0.792810  1.0  -0.0761
  C  C163  1  0.205680  0.077500  0.587680  1.0  -0.1545
  C  C164  1  0.689500  0.206440  0.848150  1.0  -0.0473
  C  C165  1  0.949030  0.551990  0.203870  1.0  0.6362
  C  C166  1  0.913160  0.605170  0.759040  1.0  -0.0986
  C  C167  1  0.206440  0.151850  0.689500  1.0  -0.0484
  C  C168  1  0.637430  0.758280  0.888730  1.0  -0.1573
  C  C169  1  0.754640  0.809800  0.776000  1.0  -0.0759
  C  C170  1  0.922500  0.412320  0.794320  1.0  -0.1546
  C  C171  1  0.241720  0.111270  0.637430  1.0  -0.1566
  C  C172  1  0.394830  0.759040  0.086840  1.0  -0.0954
  C  C173  1  0.882950  0.365310  0.828090  1.0  -0.1558
  C  C174  1  0.252530  0.785340  0.805430  1.0  0.1821
  C  C175  1  0.117050  0.365310  0.828090  1.0  -0.1548
  C  C176  1  0.587680  0.794320  0.077500  1.0  -0.1559
  C  C177  1  0.907390  0.602430  0.828840  1.0  -0.0975
  C  C178  1  0.754640  0.809800  0.224000  1.0  -0.0754
  C  C179  1  0.283970  0.212180  0.827620  1.0  0.4048
  C  C180  1  0.888730  0.362570  0.758280  1.0  -0.1584
  C  C181  1  0.194570  0.252530  0.785340  1.0  0.1868
  C  C182  1  0.126380  0.347820  0.792810  1.0  -0.0718
  C  C183  1  0.397570  0.171160  0.907390  1.0  -0.0946
  C  C184  1  0.634690  0.828090  0.882950  1.0  -0.1572
  C  C185  1  0.412320  0.794320  0.922500  1.0  -0.156
  C  C186  1  0.077500  0.412320  0.205680  1.0  -0.1549
  C  C187  1  0.605170  0.759040  0.086840  1.0  -0.0966
  C  C188  1  0.605170  0.240960  0.086840  1.0  -0.0952
  C  C189  1  0.241720  0.888730  0.637430  1.0  -0.1567
  C  C190  1  0.602430  0.171160  0.907390  1.0  -0.0955
  C  C191  1  0.362570  0.758280  0.888730  1.0  -0.1581
  C  C192  1  0.776000  0.754640  0.809800  1.0  -0.0758
  C  C193  1  0.652180  0.792810  0.126380  1.0  -0.0728
  C  C194  1  0.907390  0.397570  0.828840  1.0  -0.098
  C  C195  1  0.117050  0.365310  0.171910  1.0  -0.1561
  C  C196  1  0.848150  0.689500  0.206440  1.0  -0.0487
  C  C197  1  0.283970  0.787820  0.172380  1.0  0.4034
  C  C198  1  0.634690  0.171910  0.882950  1.0  -0.1577
  C  C199  1  0.605170  0.240960  0.913160  1.0  -0.0951
  C  C200  1  0.151850  0.310500  0.793560  1.0  -0.0472
  C  C201  1  0.716030  0.787820  0.827620  1.0  0.4062
  C  C202  1  0.205680  0.922500  0.587680  1.0  -0.1537
  C  C203  1  0.448010  0.796130  0.949030  1.0  0.636
  C  C204  1  0.050970  0.448010  0.203870  1.0  0.6364
  C  C205  1  0.759040  0.086840  0.605170  1.0  -0.0963
  C  C206  1  0.637430  0.241720  0.888730  1.0  -0.1562
  C  C207  1  0.190200  0.776000  0.245360  1.0  -0.0764
  C  C208  1  0.190200  0.224000  0.245360  1.0  -0.076
  C  C209  1  0.747470  0.785340  0.194570  1.0  0.1864
  C  C210  1  0.602430  0.828840  0.907390  1.0  -0.0943
  C  C211  1  0.412320  0.205680  0.922500  1.0  -0.156
  C  C212  1  0.605170  0.759040  0.913160  1.0  -0.0965
  C  C213  1  0.362570  0.241720  0.888730  1.0  -0.1575
  C  C214  1  0.310500  0.793560  0.151850  1.0  -0.0483
  C  C215  1  0.587680  0.205680  0.077500  1.0  -0.156
  C  C216  1  0.214660  0.194570  0.252530  1.0  0.1843
  C  C217  1  0.207190  0.126380  0.347820  1.0  -0.0738
  C  C218  1  0.805430  0.252530  0.214660  1.0  0.1859
  C  C219  1  0.776000  0.245360  0.809800  1.0  -0.0766
  C  C220  1  0.949030  0.448010  0.796130  1.0  0.6362
  C  C221  1  0.092610  0.397570  0.828840  1.0  -0.0984
  C  C222  1  0.793560  0.848150  0.689500  1.0  -0.0481
  C  C223  1  0.394830  0.759040  0.913160  1.0  -0.0955
  C  C224  1  0.206440  0.151850  0.310500  1.0  -0.048
  C  C225  1  0.787820  0.172380  0.716030  1.0  0.4031
  C  C226  1  0.050970  0.448010  0.796130  1.0  0.6364
  C  C227  1  0.602430  0.171160  0.092610  1.0  -0.0952
  C  C228  1  0.092610  0.602430  0.828840  1.0  -0.0983
  C  C229  1  0.759040  0.086840  0.394830  1.0  -0.0967
  C  C230  1  0.587680  0.794320  0.922500  1.0  -0.1557
  C  C231  1  0.873620  0.652180  0.207190  1.0  -0.0759
  C  C232  1  0.448010  0.203870  0.949030  1.0  0.636
  C  C233  1  0.551990  0.203870  0.050970  1.0  0.6359
  C  C234  1  0.205680  0.922500  0.412320  1.0  -0.1542
  C  C235  1  0.172380  0.283970  0.212180  1.0  0.4039
  C  C236  1  0.805430  0.252530  0.785340  1.0  0.1853
  C  C237  1  0.203870  0.949030  0.551990  1.0  0.6389
  C  C238  1  0.796130  0.949030  0.551990  1.0  0.6387
  C  C239  1  0.873620  0.347820  0.207190  1.0  -0.0744
  C  C240  1  0.171910  0.117050  0.634690  1.0  -0.1563
  C  C241  1  0.283970  0.212180  0.172380  1.0  0.4061
  C  C242  1  0.412320  0.794320  0.077500  1.0  -0.1558
  C  C243  1  0.190200  0.224000  0.754640  1.0  -0.0764
  C  C244  1  0.758280  0.888730  0.362570  1.0  -0.1582
  C  C245  1  0.827620  0.283970  0.787820  1.0  0.4069
  C  C246  1  0.828090  0.882950  0.365310  1.0  -0.1557
  C  C247  1  0.888730  0.637430  0.758280  1.0  -0.1559
  C  C248  1  0.205680  0.077500  0.412320  1.0  -0.1544
  C  C249  1  0.759040  0.913160  0.605170  1.0  -0.0962
  C  C250  1  0.310500  0.793560  0.848150  1.0  -0.0477
  C  C251  1  0.397570  0.828840  0.907390  1.0  -0.0932
  C  C252  1  0.241720  0.111270  0.362570  1.0  -0.1561
  C  C253  1  0.240960  0.086840  0.394830  1.0  -0.095
  C  C254  1  0.347820  0.207190  0.873620  1.0  -0.0745
  C  C255  1  0.050970  0.551990  0.796130  1.0  0.6365
  C  C256  1  0.362570  0.241720  0.111270  1.0  -0.1572
  C  C257  1  0.758280  0.111270  0.362570  1.0  -0.1579
  C  C258  1  0.117050  0.634690  0.828090  1.0  -0.1552
  C  C259  1  0.050970  0.551990  0.203870  1.0  0.6364
  C  C260  1  0.758280  0.888730  0.637430  1.0  -0.1579
  C  C261  1  0.716030  0.212180  0.172380  1.0  0.4003
  C  C262  1  0.077500  0.587680  0.205680  1.0  -0.1552
  C  C263  1  0.637430  0.241720  0.111270  1.0  -0.154
  C  C264  1  0.365310  0.171910  0.117050  1.0  -0.1546
  C  C265  1  0.194570  0.747470  0.785340  1.0  0.1859
  C  C266  1  0.240960  0.913160  0.605170  1.0  -0.0958
  C  C267  1  0.151850  0.689500  0.793560  1.0  -0.0472
  C  C268  1  0.224000  0.754640  0.190200  1.0  -0.0756
  C  C269  1  0.412320  0.205680  0.077500  1.0  -0.1558
  C  C270  1  0.448010  0.796130  0.050970  1.0  0.6356
  C  C271  1  0.252530  0.214660  0.194570  1.0  0.1856
  C  C272  1  0.086840  0.605170  0.240960  1.0  -0.0994
  C  C273  1  0.347820  0.792810  0.873620  1.0  -0.0746
  C  C274  1  0.551990  0.796130  0.050970  1.0  0.6359
  C  C275  1  0.171160  0.907390  0.397570  1.0  -0.0952
  C  C276  1  0.809800  0.776000  0.245360  1.0  -0.0759
  C  C277  1  0.203870  0.050970  0.551990  1.0  0.6385
  C  C278  1  0.882950  0.365310  0.171910  1.0  -0.155
  C  C279  1  0.207190  0.873620  0.347820  1.0  -0.0732
  C  C280  1  0.828840  0.907390  0.397570  1.0  -0.0937
  C  C281  1  0.587680  0.205680  0.922500  1.0  -0.1557
  C  C282  1  0.214660  0.805430  0.747470  1.0  0.1877
  C  C283  1  0.171910  0.882950  0.365310  1.0  -0.1554
  C  C284  1  0.362570  0.758280  0.111270  1.0  -0.1568
  C  C285  1  0.634690  0.171910  0.117050  1.0  -0.1545
  C  C286  1  0.922500  0.587680  0.205680  1.0  -0.1549
  C  C287  1  0.151850  0.310500  0.206440  1.0  -0.0478
  C  C288  1  0.827620  0.716030  0.787820  1.0  0.4049
  C  C289  1  0.245360  0.809800  0.224000  1.0  -0.0748
  C  C290  1  0.754640  0.190200  0.224000  1.0  -0.0742
  C  C291  1  0.776000  0.245360  0.190200  1.0  -0.0766
  C  C292  1  0.785340  0.805430  0.747470  1.0  0.1869
  C  C293  1  0.922500  0.412320  0.205680  1.0  -0.1547
  C  C294  1  0.888730  0.362570  0.241720  1.0  -0.1595
  C  C295  1  0.245360  0.190200  0.776000  1.0  -0.0743
  C  C296  1  0.809800  0.224000  0.754640  1.0  -0.0773
  C  C297  1  0.716030  0.787820  0.172380  1.0  0.4003
  C  C298  1  0.907390  0.602430  0.171160  1.0  -0.0976
  C  C299  1  0.086840  0.394830  0.759040  1.0  -0.0995
  C  C300  1  0.827620  0.716030  0.212180  1.0  0.4077
  C  C301  1  0.907390  0.397570  0.171160  1.0  -0.0987
  C  C302  1  0.882950  0.634690  0.828090  1.0  -0.1537
  C  C303  1  0.365310  0.828090  0.882950  1.0  -0.1573
  C  C304  1  0.212180  0.172380  0.283970  1.0  0.4071
  C  C305  1  0.077500  0.587680  0.794320  1.0  -0.1552
  C  C306  1  0.241720  0.888730  0.362570  1.0  -0.1573
  C  C307  1  0.551990  0.203870  0.949030  1.0  0.6362
  C  C308  1  0.787820  0.172380  0.283970  1.0  0.4043
  C  C309  1  0.809800  0.224000  0.245360  1.0  -0.0759
  C  C310  1  0.207190  0.873620  0.652180  1.0  -0.0745
  C  C311  1  0.637430  0.758280  0.111270  1.0  -0.1575
  C  C312  1  0.828090  0.882950  0.634690  1.0  -0.1542
  C  C313  1  0.792810  0.126380  0.347820  1.0  -0.0736
  C  C314  1  0.240960  0.913160  0.394830  1.0  -0.0952
  C  C315  1  0.212180  0.827620  0.283970  1.0  0.4036
  C  C316  1  0.787820  0.827620  0.283970  1.0  0.4082
  C  C317  1  0.754640  0.190200  0.776000  1.0  -0.0746
  C  C318  1  0.794320  0.922500  0.587680  1.0  -0.1537
  C  C319  1  0.873620  0.347820  0.792810  1.0  -0.0746
  C  C320  1  0.794320  0.922500  0.412320  1.0  -0.1542
  C  C321  1  0.206440  0.848150  0.689500  1.0  -0.0483
  C  C322  1  0.086840  0.605170  0.759040  1.0  -0.0989
  C  C323  1  0.092610  0.397570  0.171160  1.0  -0.0991
  C  C324  1  0.214660  0.805430  0.252530  1.0  0.1853
  C  C325  1  0.394830  0.240960  0.913160  1.0  -0.0944
  C  C326  1  0.828090  0.117050  0.634690  1.0  -0.1549
  C  C327  1  0.922500  0.587680  0.794320  1.0  -0.1549
  C  C328  1  0.172380  0.716030  0.787820  1.0  0.408
  C  C329  1  0.207190  0.126380  0.652180  1.0  -0.0759
  C  C330  1  0.092610  0.602430  0.171160  1.0  -0.0982
  C  C331  1  0.796130  0.050970  0.448010  1.0  0.6385
  C  C332  1  0.126380  0.652180  0.792810  1.0  -0.074
  C  C333  1  0.793560  0.151850  0.310500  1.0  -0.0476
  C  C334  1  0.245360  0.190200  0.224000  1.0  -0.0757
  C  C335  1  0.652180  0.792810  0.873620  1.0  -0.071
  C  C336  1  0.785340  0.194570  0.747470  1.0  0.1844
  C  C337  1  0.747470  0.214660  0.194570  1.0  0.1871
  C  C338  1  0.151850  0.689500  0.206440  1.0  -0.048
  C  C339  1  0.949030  0.551990  0.796130  1.0  0.6361
  C  C340  1  0.224000  0.245360  0.809800  1.0  -0.0765
  C  C341  1  0.758280  0.111270  0.637430  1.0  -0.1571
  C  C342  1  0.848150  0.689500  0.793560  1.0  -0.0477
  C  C343  1  0.365310  0.171910  0.882950  1.0  -0.156
  C  C344  1  0.794320  0.077500  0.412320  1.0  -0.1545
  C  C345  1  0.787820  0.827620  0.716030  1.0  0.4059
  C  C346  1  0.224000  0.754640  0.809800  1.0  -0.0757
  C  C347  1  0.828840  0.092610  0.602430  1.0  -0.0942
  C  C348  1  0.793560  0.151850  0.689500  1.0  -0.0484
  C  C349  1  0.913160  0.605170  0.240960  1.0  -0.0983
  C  C350  1  0.913160  0.394830  0.759040  1.0  -0.0993
  C  C351  1  0.111270  0.362570  0.758280  1.0  -0.1582
  C  C352  1  0.794320  0.077500  0.587680  1.0  -0.1546
  C  C353  1  0.117050  0.634690  0.171910  1.0  -0.1569
  C  C354  1  0.365310  0.828090  0.117050  1.0  -0.1567
  C  C355  1  0.171160  0.907390  0.602430  1.0  -0.0948
  C  C356  1  0.111270  0.362570  0.241720  1.0  -0.1581
  C  C357  1  0.171160  0.092610  0.602430  1.0  -0.0948
  C  C358  1  0.634690  0.828090  0.117050  1.0  -0.1567
  C  C359  1  0.347820  0.207190  0.126380  1.0  -0.0771
  C  C360  1  0.397570  0.828840  0.092610  1.0  -0.0932
  C  C361  1  0.809800  0.776000  0.754640  1.0  -0.0785
  C  C362  1  0.792810  0.873620  0.347820  1.0  -0.073
  C  C363  1  0.785340  0.194570  0.252530  1.0  0.1831
  C  C364  1  0.828840  0.907390  0.602430  1.0  -0.0942
  C  C365  1  0.212180  0.172380  0.716030  1.0  0.4028
  C  C366  1  0.126380  0.347820  0.207190  1.0  -0.0718
  C  C367  1  0.689500  0.206440  0.151850  1.0  -0.0478
  C  C368  1  0.190200  0.776000  0.754640  1.0  -0.0752
  C  C369  1  0.827620  0.283970  0.212180  1.0  0.4069
  C  C370  1  0.689500  0.793560  0.848150  1.0  -0.0469
  C  C371  1  0.716030  0.212180  0.827620  1.0  0.4053
  C  C372  1  0.171910  0.882950  0.634690  1.0  -0.1555
  C  C373  1  0.310500  0.206440  0.151850  1.0  -0.0487
  C  C374  1  0.949030  0.448010  0.203870  1.0  0.6363
  C  C375  1  0.689500  0.793560  0.151850  1.0  -0.0472
  C  C376  1  0.792810  0.126380  0.652180  1.0  -0.0757
  C  C377  1  0.551990  0.796130  0.949030  1.0  0.6361
  C  C378  1  0.848150  0.310500  0.793560  1.0  -0.0474
  C  C379  1  0.792810  0.873620  0.652180  1.0  -0.0743
  C  C380  1  0.252530  0.785340  0.194570  1.0  0.1851
  C  C381  1  0.805430  0.747470  0.785340  1.0  0.185
  C  C382  1  0.172380  0.283970  0.787820  1.0  0.407
  C  C383  1  0.245360  0.809800  0.776000  1.0  -0.0752
  C  C384  1  0.652180  0.207190  0.873620  1.0  -0.071
  C  C385  1  0.086840  0.394830  0.240960  1.0  -0.0996
  C  C386  1  0.252530  0.214660  0.805430  1.0  0.1821
  C  C387  1  0.126380  0.652180  0.207190  1.0  -0.0739
  C  C388  1  0.796130  0.949030  0.448010  1.0  0.6389
  C  C389  1  0.240960  0.086840  0.605170  1.0  -0.0957
  C  C390  1  0.759040  0.913160  0.394830  1.0  -0.0969
  C  C391  1  0.206440  0.848150  0.310500  1.0  -0.0478
  C  C392  1  0.882950  0.634690  0.171910  1.0  -0.1556
  C  C393  1  0.194570  0.252530  0.214660  1.0  0.1876
  C  C394  1  0.214660  0.194570  0.747470  1.0  0.1856
  C  C395  1  0.602430  0.828840  0.092610  1.0  -0.0942
  C  C396  1  0.913160  0.394830  0.240960  1.0  -0.099
  O  O397  1  0.170490  0.039980  0.459100  1.0  -0.6
  O  O398  1  0.540900  0.170490  0.039980  1.0  -0.5993
  O  O399  1  0.540500  0.761390  0.039640  1.0  -0.5881
  O  O400  1  0.459500  0.238610  0.960360  1.0  -0.5865
  O  O401  1  0.459500  0.761390  0.039640  1.0  -0.5875
  O  O402  1  0.238610  0.960360  0.459500  1.0  -0.5841
  O  O403  1  0.170490  0.960020  0.540900  1.0  -0.6002
  O  O404  1  0.039640  0.540500  0.238610  1.0  -0.5868
  O  O405  1  0.540500  0.238610  0.960360  1.0  -0.5864
  O  O406  1  0.170490  0.039980  0.540900  1.0  -0.6004
  O  O407  1  0.459100  0.170490  0.039980  1.0  -0.5997
  O  O408  1  0.238610  0.960360  0.540500  1.0  -0.5842
  O  O409  1  0.829510  0.039980  0.459100  1.0  -0.6001
  O  O410  1  0.459500  0.238610  0.039640  1.0  -0.5864
  O  O411  1  0.540900  0.829510  0.039980  1.0  -0.5996
  O  O412  1  0.039640  0.540500  0.761390  1.0  -0.5878
  O  O413  1  0.960020  0.540900  0.170490  1.0  -0.5994
  O  O414  1  0.459100  0.829510  0.960020  1.0  -0.5999
  O  O415  1  0.960360  0.540500  0.761390  1.0  -0.5881
  O  O416  1  0.039980  0.540900  0.829510  1.0  -0.5996
  O  O417  1  0.540500  0.761390  0.960360  1.0  -0.5881
  O  O418  1  0.960360  0.459500  0.761390  1.0  -0.5882
  O  O419  1  0.829510  0.039980  0.540900  1.0  -0.6002
  O  O420  1  0.761390  0.039640  0.540500  1.0  -0.5857
  O  O421  1  0.540500  0.238610  0.039640  1.0  -0.5865
  O  O422  1  0.540900  0.829510  0.960020  1.0  -0.5993
  O  O423  1  0.829510  0.960020  0.540900  1.0  -0.5997
  O  O424  1  0.170490  0.960020  0.459100  1.0  -0.5998
  O  O425  1  0.459100  0.170490  0.960020  1.0  -0.6002
  O  O426  1  0.761390  0.960360  0.459500  1.0  -0.5852
  O  O427  1  0.039980  0.540900  0.170490  1.0  -0.5985
  O  O428  1  0.761390  0.960360  0.540500  1.0  -0.585
  O  O429  1  0.540900  0.170490  0.960020  1.0  -0.5995
  O  O430  1  0.960020  0.459100  0.170490  1.0  -0.5991
  O  O431  1  0.960020  0.459100  0.829510  1.0  -0.6004
  O  O432  1  0.039980  0.459100  0.829510  1.0  -0.6
  O  O433  1  0.039980  0.459100  0.170490  1.0  -0.598
  O  O434  1  0.960020  0.540900  0.829510  1.0  -0.6008
  O  O435  1  0.238610  0.039640  0.459500  1.0  -0.5842
  O  O436  1  0.238610  0.039640  0.540500  1.0  -0.5843
  O  O437  1  0.960360  0.540500  0.238610  1.0  -0.5876
  O  O438  1  0.039640  0.459500  0.238610  1.0  -0.5873
  O  O439  1  0.459500  0.761390  0.960360  1.0  -0.588
  O  O440  1  0.459100  0.829510  0.039980  1.0  -0.6002
  O  O441  1  0.829510  0.960020  0.459100  1.0  -0.5994
  O  O442  1  0.039640  0.459500  0.761390  1.0  -0.5875
  O  O443  1  0.960360  0.459500  0.238610  1.0  -0.5876
  O  O444  1  0.761390  0.039640  0.459500  1.0  -0.5856
