# generated using pymatgen
data_Cu3H34C71NO12
_symmetry_space_group_name_H-M   'P 1'
_cell_length_a   29.64250000
_cell_length_b   29.64250000
_cell_length_c   29.64250000
_cell_angle_alpha   101.47300000
_cell_angle_beta   113.61200000
_cell_angle_gamma   113.61200000
_symmetry_Int_Tables_number   1
_chemical_formula_structural   Cu3H34C71NO12
_chemical_formula_sum   'Cu12 H136 C284 N4 O48'
_cell_volume   19763.35675973
_cell_formula_units_Z   4
loop_
 _symmetry_equiv_pos_site_id
 _symmetry_equiv_pos_as_xyz
  1  'x, y, z'
loop_
 _atom_site_type_symbol
 _atom_site_label
 _atom_site_symmetry_multiplicity
 _atom_site_fract_x
 _atom_site_fract_y
 _atom_site_fract_z
 _atom_site_occupancy
 _atom_site_charge
  Cu  Cu1  1  0.350370  0.524480  0.825890  1.0  0.8542
  Cu  Cu2  1  0.500000  0.785040  0.285040  1.0  0.9023
  Cu  Cu3  1  0.206310  0.745560  0.460750  1.0  0.9018
  Cu  Cu4  1  0.649630  0.475520  0.174110  1.0  0.8554
  Cu  Cu5  1  0.301410  0.825890  0.475520  1.0  0.8537
  Cu  Cu6  1  0.500000  0.285040  0.785040  1.0  0.9023
  Cu  Cu7  1  0.793690  0.254440  0.539250  1.0  0.9014
  Cu  Cu8  1  0.500000  0.214960  0.714960  1.0  0.9027
  Cu  Cu9  1  0.698590  0.174110  0.524480  1.0  0.8551
  Cu  Cu10  1  0.284810  0.539250  0.745560  1.0  0.9001
  Cu  Cu11  1  0.500000  0.714960  0.214960  1.0  0.9027
  Cu  Cu12  1  0.715190  0.460750  0.254440  1.0  0.8991
  H  H13  1  0.575600  0.195400  0.128000  1.0  0.114
  H  H14  1  0.316900  0.198300  0.723600  1.0  0.0995
  H  H15  1  0.779100  0.975100  0.409600  1.0  0.1088
  H  H16  1  0.469800  0.694400  0.944400  1.0  0.1067
  H  H17  1  0.547200  0.984900  0.958100  1.0  0.11
  H  H18  1  0.932600  0.128000  0.552400  1.0  0.1129
  H  H19  1  0.781300  0.469200  0.920300  1.0  0.1212
  H  H20  1  0.575600  0.447600  0.380200  1.0  0.1133
  H  H21  1  0.530200  0.474600  0.224600  1.0  0.1069
  H  H22  1  0.319500  0.691800  0.233700  1.0  0.1041
  H  H23  1  0.263600  0.521100  0.915100  1.0  0.115
  H  H24  1  0.627400  0.288900  0.181100  1.0  0.1149
  H  H25  1  0.391700  0.886200  0.907700  1.0  0.1143
  H  H26  1  0.541100  0.565200  0.975900  1.0  0.1179
  H  H27  1  0.425100  0.951000  0.744100  1.0  0.1082
  H  H28  1  0.594700  0.556600  0.038100  1.0  0.1132
  H  H29  1  0.250000  0.944400  0.474600  1.0  0.1072
  H  H30  1  0.067400  0.619800  0.195400  1.0  0.1131
  H  H31  1  0.680500  0.914200  0.372300  1.0  0.1036
  H  H32  1  0.978500  0.494500  0.886200  1.0  0.1164
  H  H33  1  0.932600  0.380200  0.804600  1.0  0.1134
  H  H34  1  0.790900  0.003800  0.527300  1.0  0.112
  H  H35  1  0.541900  0.627700  0.308200  1.0  0.1033
  H  H36  1  0.476500  0.472700  0.263600  1.0  0.1129
  H  H37  1  0.474700  0.276400  0.593300  1.0  0.1001
  H  H38  1  0.589300  0.024100  0.565200  1.0  0.1197
  H  H39  1  0.067400  0.872000  0.447600  1.0  0.1129
  H  H40  1  0.026800  0.437700  0.984900  1.0  0.1116
  H  H41  1  0.736400  0.478900  0.084900  1.0  0.1154
  H  H42  1  0.106000  0.284700  0.569300  1.0  0.1168
  H  H43  1  0.424400  0.552400  0.619800  1.0  0.1134
  H  H44  1  0.793100  0.744100  0.319000  1.0  0.1077
  H  H45  1  0.680500  0.308200  0.766300  1.0  0.1043
  H  H46  1  0.391700  0.484000  0.505500  1.0  0.1162
  H  H47  1  0.973200  0.562300  0.015100  1.0  0.1122
  H  H48  1  0.683100  0.406700  0.881400  1.0  0.0997
  H  H49  1  0.570300  0.473900  0.601600  1.0  0.1128
  H  H50  1  0.892200  0.338500  0.711100  1.0  0.1134
  H  H51  1  0.127700  0.096400  0.526100  1.0  0.1138
  H  H52  1  0.715400  0.430700  0.536700  1.0  0.1146
  H  H53  1  0.209100  0.996200  0.472700  1.0  0.111
  H  H54  1  0.608300  0.516000  0.494500  1.0  0.116
  H  H55  1  0.894000  0.715300  0.430700  1.0  0.1167
  H  H56  1  0.523000  0.429800  0.093200  1.0  0.0796
  H  H57  1  0.747600  0.214000  0.374800  1.0  0.1094
  H  H58  1  0.872300  0.903600  0.473900  1.0  0.1142
  H  H59  1  0.574900  0.049000  0.255900  1.0  0.1078
  H  H60  1  0.458100  0.372300  0.691800  1.0  0.1035
  H  H61  1  0.715400  0.178700  0.284700  1.0  0.1169
  H  H62  1  0.565500  0.196000  0.975100  1.0  0.1088
  H  H63  1  0.574900  0.319000  0.525900  1.0  0.1075
  H  H64  1  0.476500  0.212900  0.003800  1.0  0.1108
  H  H65  1  0.523500  0.787100  0.996200  1.0  0.111
  H  H66  1  0.839200  0.625200  0.372800  1.0  0.1086
  H  H67  1  0.372600  0.553700  0.661500  1.0  0.1135
  H  H68  1  0.518500  0.961900  0.556600  1.0  0.1111
  H  H69  1  0.627400  0.446300  0.338500  1.0  0.1128
  H  H70  1  0.437500  0.892400  0.545100  1.0  0.0853
  H  H71  1  0.779100  0.369500  0.804000  1.0  0.1096
  H  H72  1  0.424400  0.804600  0.872000  1.0  0.1138
  H  H73  1  0.474700  0.881400  0.198300  1.0  0.0993
  H  H74  1  0.562500  0.107600  0.454900  1.0  0.0849
  H  H75  1  0.127700  0.601600  0.031300  1.0  0.1144
  H  H76  1  0.790900  0.263600  0.787100  1.0  0.1109
  H  H77  1  0.319500  0.085800  0.627700  1.0  0.1037
  H  H78  1  0.452800  0.410900  0.437700  1.0  0.1126
  H  H79  1  0.372600  0.711100  0.818900  1.0  0.1147
  H  H80  1  0.477000  0.570200  0.906800  1.0  0.0791
  H  H81  1  0.565500  0.590400  0.369500  1.0  0.1082
  H  H82  1  0.750000  0.055600  0.525400  1.0  0.1068
  H  H83  1  0.220900  0.024900  0.590400  1.0  0.1087
  H  H84  1  0.394000  0.742500  0.478900  1.0  0.1146
  H  H85  1  0.429700  0.526100  0.398400  1.0  0.1131
  H  H86  1  0.160800  0.533600  0.786000  1.0  0.1089
  H  H87  1  0.284600  0.821300  0.715300  1.0  0.1167
  H  H88  1  0.892200  0.181100  0.553700  1.0  0.1141
  H  H89  1  0.218700  0.139000  0.687900  1.0  0.1223
  H  H90  1  0.973200  0.958100  0.410900  1.0  0.1117
  H  H91  1  0.750000  0.224600  0.694400  1.0  0.1079
  H  H92  1  0.347300  0.454900  0.892400  1.0  0.0845
  H  H93  1  0.250000  0.775400  0.305600  1.0  0.1082
  H  H94  1  0.525300  0.118600  0.801700  1.0  0.0995
  H  H95  1  0.606000  0.257500  0.521100  1.0  0.1145
  H  H96  1  0.394000  0.915100  0.651500  1.0  0.1148
  H  H97  1  0.451100  0.312100  0.530800  1.0  0.1218
  H  H98  1  0.206900  0.525900  0.951000  1.0  0.1077
  H  H99  1  0.452800  0.015100  0.041900  1.0  0.1115
  H  H100  1  0.021500  0.907700  0.516000  1.0  0.1159
  H  H101  1  0.652700  0.545100  0.107600  1.0  0.0848
  H  H102  1  0.160800  0.374800  0.627200  1.0  0.1084
  H  H103  1  0.220900  0.630500  0.196000  1.0  0.1089
  H  H104  1  0.107800  0.661500  0.288900  1.0  0.113
  H  H105  1  0.525300  0.723600  0.406700  1.0  0.0999
  H  H106  1  0.425100  0.681000  0.474100  1.0  0.1077
  H  H107  1  0.252400  0.627200  0.466400  1.0  0.1088
  H  H108  1  0.405300  0.443400  0.961900  1.0  0.1136
  H  H109  1  0.458100  0.766300  0.085800  1.0  0.1043
  H  H110  1  0.106000  0.536700  0.821300  1.0  0.1187
  H  H111  1  0.026800  0.041900  0.589100  1.0  0.1133
  H  H112  1  0.458900  0.434800  0.024100  1.0  0.1196
  H  H113  1  0.747600  0.372800  0.533600  1.0  0.1092
  H  H114  1  0.606000  0.084900  0.348500  1.0  0.1145
  H  H115  1  0.451100  0.920300  0.139000  1.0  0.1234
  H  H116  1  0.481500  0.038100  0.443400  1.0  0.1126
  H  H117  1  0.793100  0.474100  0.049000  1.0  0.1075
  H  H118  1  0.284600  0.569300  0.463300  1.0  0.1144
  H  H119  1  0.978500  0.092300  0.484000  1.0  0.1135
  H  H120  1  0.541900  0.233700  0.914200  1.0  0.1035
  H  H121  1  0.608300  0.113800  0.092300  1.0  0.1149
  H  H122  1  0.336600  0.906800  0.429800  1.0  0.0795
  H  H123  1  0.683100  0.801700  0.276400  1.0  0.0994
  H  H124  1  0.410700  0.975900  0.434800  1.0  0.1193
  H  H125  1  0.663400  0.093200  0.570200  1.0  0.0791
  H  H126  1  0.523500  0.527300  0.736400  1.0  0.1124
  H  H127  1  0.530200  0.305600  0.055600  1.0  0.1071
  H  H128  1  0.434500  0.409600  0.630500  1.0  0.1093
  H  H129  1  0.547200  0.589100  0.562300  1.0  0.1143
  H  H130  1  0.839200  0.466400  0.214000  1.0  0.1082
  H  H131  1  0.570300  0.968700  0.096400  1.0  0.1137
  H  H132  1  0.209100  0.736400  0.212900  1.0  0.1115
  H  H133  1  0.206900  0.255900  0.681000  1.0  0.1077
  H  H134  1  0.107800  0.818900  0.446300  1.0  0.1141
  H  H135  1  0.872300  0.398400  0.968700  1.0  0.1149
  H  H136  1  0.894000  0.463300  0.178700  1.0  0.1168
  H  H137  1  0.434500  0.804000  0.024900  1.0  0.1091
  H  H138  1  0.469800  0.525400  0.775400  1.0  0.1061
  H  H139  1  0.548900  0.687900  0.469200  1.0  0.1221
  H  H140  1  0.252400  0.786000  0.625200  1.0  0.1091
  H  H141  1  0.736400  0.651500  0.257500  1.0  0.1134
  H  H142  1  0.263600  0.348500  0.742500  1.0  0.1136
  H  H143  1  0.548900  0.079700  0.861000  1.0  0.1228
  H  H144  1  0.316900  0.593300  0.118600  1.0  0.1
  H  H145  1  0.781300  0.861000  0.312100  1.0  0.1213
  H  H146  1  0.429700  0.031300  0.903600  1.0  0.1144
  H  H147  1  0.218700  0.530800  0.079700  1.0  0.121
  H  H148  1  0.021500  0.505500  0.113800  1.0  0.1174
  C  C149  1  0.422400  0.470600  0.951800  1.0  -0.2306
  C  C150  1  0.416300  0.539260  0.722220  1.0  -0.1405
  C  C151  1  0.403000  0.547560  0.676580  1.0  -0.0601
  C  C152  1  0.945060  0.411200  0.968360  1.0  0.0798
  C  C153  1  0.569320  0.608500  0.461460  1.0  -0.023
  C  C154  1  0.760060  0.377230  0.820370  1.0  -0.1169
  C  C155  1  0.892110  0.028000  0.539050  1.0  -0.0825
  C  C156  1  0.239940  0.060310  0.617170  1.0  -0.117
  C  C157  1  0.870980  0.144560  0.547560  1.0  -0.0654
  C  C158  1  0.595580  0.520620  0.518460  1.0  -0.0966
  C  C159  1  0.357180  0.890950  0.738450  1.0  0.0824
  C  C160  1  0.406950  0.509770  0.451280  1.0  0.0208
  C  C161  1  0.702660  0.399230  0.865590  1.0  -0.0525
  C  C162  1  0.543360  0.202540  0.903360  1.0  -0.0479
  C  C163  1  0.861550  0.465420  0.159010  1.0  -0.1289
  C  C164  1  0.556860  0.179630  0.939690  1.0  -0.1152
  C  C165  1  0.456640  0.360000  0.659180  1.0  -0.0482
  C  C166  1  0.374200  0.917600  0.456600  1.0  0.1881
  C  C167  1  0.434050  0.782300  0.886990  1.0  -0.1339
  C  C168  1  0.306410  0.840990  0.702540  1.0  -0.1305
  C  C169  1  0.152500  0.261550  0.618730  1.0  0.0808
  C  C170  1  0.852960  0.960820  0.391500  1.0  -0.0237
  C  C171  1  0.421090  0.441670  0.475320  1.0  0.0677
  C  C172  1  0.478820  0.804730  0.940050  1.0  0.023
  C  C173  1  0.761440  0.436480  0.889480  1.0  -0.1582
  C  C174  1  0.829350  0.649230  0.361660  1.0  -0.0564
  C  C175  1  0.418800  0.959900  0.458900  1.0  -0.2321
  C  C176  1  0.642820  0.381270  0.533770  1.0  0.0822
  C  C177  1  0.881020  0.795170  0.418170  1.0  -0.1069
  C  C178  1  0.086750  0.582520  0.009330  1.0  -0.0881
  C  C179  1  0.518760  0.496880  0.021880  1.0  0.0942
  C  C180  1  0.002160  0.481540  0.077120  1.0  -0.085
  C  C181  1  0.581200  0.040100  0.541100  1.0  -0.2319
  C  C182  1  0.703160  0.271970  0.527350  1.0  0.6716
  C  C183  1  0.488950  0.460950  0.353060  1.0  -0.089
  C  C184  1  0.442390  0.366530  0.575800  1.0  0.0524
  C  C185  1  0.238560  0.563520  0.110520  1.0  -0.1575
  C  C186  1  0.453000  0.324960  0.563520  1.0  -0.1566
  C  C187  1  0.481200  0.951800  0.529400  1.0  -0.2272
  C  C188  1  0.790730  0.424200  0.866590  1.0  0.0504
  C  C189  1  0.210140  0.842770  0.462110  1.0  0.6688
  C  C190  1  0.107890  0.972000  0.460950  1.0  -0.0825
  C  C191  1  0.892110  0.353060  0.864110  1.0  -0.0707
  C  C192  1  0.557160  0.968360  0.023300  1.0  0.0759
  C  C193  1  0.217970  0.528070  0.847560  1.0  -0.1411
  C  C194  1  0.440790  0.999860  0.005070  1.0  -0.0695
  C  C195  1  0.557610  0.633470  0.424200  1.0  0.0518
  C  C196  1  0.387800  0.478200  0.909600  1.0  0.1757
  C  C197  1  0.005210  0.440930  0.000140  1.0  -0.0695
  C  C198  1  0.466280  0.461890  0.377390  1.0  0.0051
  C  C199  1  0.091740  0.158930  0.549310  1.0  -0.0224
  C  C200  1  0.966350  0.020580  0.441670  1.0  0.0752
  C  C201  1  0.595580  0.077120  0.074960  1.0  -0.0904
  C  C202  1  0.466360  0.865590  0.162930  1.0  -0.0539
  C  C203  1  0.577600  0.529400  0.048200  1.0  -0.2302
  C  C204  1  0.811750  0.279910  0.772000  1.0  -0.1247
  C  C205  1  0.578910  0.558330  0.524680  1.0  0.0708
  C  C206  1  0.547000  0.110520  0.871960  1.0  -0.1549
  C  C207  1  0.480530  0.793810  0.185400  1.0  0.6769
  C  C208  1  0.002160  0.925040  0.520620  1.0  -0.0938
  C  C209  1  0.426810  0.504230  0.417480  1.0  -0.088
  C  C210  1  0.319490  0.847560  0.629590  1.0  -0.141
  C  C211  1  0.239940  0.622770  0.179630  1.0  -0.1164
  C  C212  1  0.511050  0.539050  0.646940  1.0  -0.0918
  C  C213  1  0.118980  0.537150  0.914150  1.0  -0.1089
  C  C214  1  0.488950  0.135890  0.028000  1.0  -0.0757
  C  C215  1  0.811750  0.039750  0.531840  1.0  -0.1266
  C  C216  1  0.693590  0.396130  0.534580  1.0  -0.1307
  C  C217  1  0.198080  0.527990  0.917590  1.0  -0.1201
  C  C218  1  0.680510  0.310100  0.528070  1.0  -0.136
  C  C219  1  0.547000  0.675040  0.436480  1.0  -0.1561
  C  C220  1  0.492090  0.772000  0.960250  1.0  -0.1216
  C  C221  1  0.492090  0.531840  0.720090  1.0  -0.1182
  C  C222  1  0.908260  0.841070  0.450690  1.0  -0.0219
  C  C223  1  0.033650  0.979420  0.558330  1.0  0.0764
  C  C224  1  0.210140  0.748030  0.367370  1.0  0.6759
  C  C225  1  0.913250  0.417480  0.990670  1.0  -0.0889
  C  C226  1  0.440790  0.435720  0.440930  1.0  -0.0623
  C  C227  1  0.380660  0.632630  0.842770  1.0  0.671
  C  C228  1  0.578910  0.054230  0.020580  1.0  0.072
  C  C229  1  0.966350  0.524680  0.945770  1.0  0.0658
  C  C230  1  0.371380  0.896430  0.664150  1.0  -0.0722
  C  C231  1  0.104690  0.886990  0.452940  1.0  -0.1294
  C  C232  1  0.406950  0.955670  0.897180  1.0  0.0259
  C  C233  1  0.423730  0.412520  0.509210  1.0  0.0508
  C  C234  1  0.761440  0.871960  0.324960  1.0  -0.1598
  C  C235  1  0.557610  0.133410  0.924140  1.0  0.0518
  C  C236  1  0.895310  0.348250  0.782300  1.0  -0.1323
  C  C237  1  0.767720  0.664150  0.292770  1.0  -0.0753
  C  C238  1  0.829350  0.467690  0.180120  1.0  -0.0486
  C  C239  1  0.712430  0.180120  0.350770  1.0  -0.0531
  C  C240  1  0.118980  0.204830  0.581830  1.0  -0.1055
  C  C241  1  0.559210  0.000140  0.994930  1.0  -0.0665
  C  C242  1  0.475000  0.978120  0.496880  1.0  0.0944
  C  C243  1  0.054940  0.588800  0.031640  1.0  0.08
  C  C244  1  0.941510  0.897180  0.490230  1.0  0.0243
  C  C245  1  0.790730  0.924140  0.366530  1.0  0.0549
  C  C246  1  0.625800  0.082400  0.543400  1.0  0.1873
  C  C247  1  0.391590  0.185400  0.704870  1.0  0.6764
  C  C248  1  0.377000  0.914150  0.795170  1.0  -0.106
  C  C249  1  0.532210  0.180290  0.852360  1.0  -0.0957
  C  C250  1  0.915500  0.004390  0.538110  1.0  0.0167
  C  C251  1  0.583700  0.305920  0.122960  1.0  -0.1357
  C  C252  1  0.518800  0.048200  0.470600  1.0  -0.2292
  C  C253  1  0.593050  0.044330  0.102820  1.0  0.0241
  C  C254  1  0.129020  0.676580  0.273580  1.0  -0.0652
  C  C255  1  0.135320  0.674090  0.195270  1.0  0.0321
  C  C256  1  0.610400  0.082410  0.280490  1.0  -0.1204
  C  C257  1  0.287570  0.819880  0.649230  1.0  -0.0539
  C  C258  1  0.287570  0.638340  0.467690  1.0  -0.0506
  C  C259  1  0.461000  0.543400  0.917600  1.0  0.1862
  C  C260  1  0.084500  0.995610  0.461890  1.0  0.015
  C  C261  1  0.091740  0.542430  0.932810  1.0  -0.0236
  C  C262  1  0.817040  0.122960  0.539260  1.0  -0.1363
  C  C263  1  0.404420  0.922880  0.925040  1.0  -0.0914
  C  C264  1  0.559210  0.564280  0.559070  1.0  -0.0626
  C  C265  1  0.327930  0.648080  0.180290  1.0  -0.0935
  C  C266  1  0.521180  0.461230  0.325910  1.0  0.0301
  C  C267  1  0.188250  0.960250  0.468160  1.0  -0.1275
  C  C268  1  0.403000  0.726420  0.855440  1.0  -0.0601
  C  C269  1  0.389600  0.917590  0.719510  1.0  -0.1221
  C  C270  1  0.608410  0.814600  0.295130  1.0  0.6768
  C  C271  1  0.533720  0.911110  0.995610  1.0  0.016
  C  C272  1  0.619340  0.462110  0.251970  1.0  0.6708
  C  C273  1  0.442840  0.466140  0.411200  1.0  0.0797
  C  C274  1  0.532210  0.679850  0.351920  1.0  -0.0951
  C  C275  1  0.994790  0.559070  0.999860  1.0  -0.0682
  C  C276  1  0.430680  0.391500  0.538540  1.0  -0.0255
  C  C277  1  0.232280  0.525050  0.896430  1.0  -0.0738
  C  C278  1  0.107890  0.646940  0.135890  1.0  -0.0698
  C  C279  1  0.597000  0.273580  0.144560  1.0  -0.0608
  C  C280  1  0.789860  0.251970  0.632630  1.0  0.6772
  C  C281  1  0.442390  0.866590  0.075860  1.0  0.054
  C  C282  1  0.787570  0.256240  0.716690  1.0  -0.0652
  C  C283  1  0.327930  0.147640  0.679850  1.0  -0.0935
  C  C284  1  0.539550  0.468670  0.256240  1.0  -0.0649
  C  C285  1  0.608410  0.313280  0.793810  1.0  0.6769
  C  C286  1  0.232280  0.335850  0.707230  1.0  -0.0749
  C  C287  1  0.543360  0.640000  0.340820  1.0  -0.0457
  C  C288  1  0.612200  0.521800  0.090400  1.0  0.1743
  C  C289  1  0.507910  0.468160  0.279910  1.0  -0.1191
  C  C290  1  0.299180  0.659180  0.202540  1.0  -0.0481
  C  C291  1  0.255380  0.527350  0.824190  1.0  0.6683
  C  C292  1  0.903310  0.988790  0.412520  1.0  0.0528
  C  C293  1  0.198080  0.280490  0.670090  1.0  -0.12
  C  C294  1  0.390380  0.932810  0.841070  1.0  -0.023
  C  C295  1  0.693590  0.159010  0.297460  1.0  -0.1284
  C  C296  1  0.609620  0.450690  0.542430  1.0  -0.0209
  C  C297  1  0.744620  0.472650  0.175810  1.0  0.6684
  C  C298  1  0.997840  0.518460  0.922880  1.0  -0.0901
  C  C299  1  0.434050  0.547060  0.651750  1.0  -0.1321
  C  C300  1  0.597000  0.452440  0.323420  1.0  -0.0587
  C  C301  1  0.238560  0.128040  0.675040  1.0  -0.1601
  C  C302  1  0.533720  0.538110  0.622610  1.0  0.0079
  C  C303  1  0.573190  0.990670  0.077420  1.0  -0.0902
  C  C304  1  0.357180  0.618730  0.466230  1.0  0.0824
  C  C305  1  0.702660  0.837070  0.303430  1.0  -0.0532
  C  C306  1  0.306410  0.603870  0.465420  1.0  -0.1315
  C  C307  1  0.680510  0.152440  0.370410  1.0  -0.1414
  C  C308  1  0.610400  0.329910  0.527990  1.0  -0.1198
  C  C309  1  0.539000  0.456600  0.082400  1.0  0.1854
  C  C310  1  0.895310  0.113010  0.547060  1.0  -0.13
  C  C311  1  0.712430  0.361660  0.532310  1.0  -0.0504
  C  C312  1  0.147040  0.538540  0.107860  1.0  -0.0241
  C  C313  1  0.672070  0.852360  0.320150  1.0  -0.0934
  C  C314  1  0.782030  0.471930  0.152440  1.0  -0.1409
  C  C315  1  0.480530  0.295130  0.686720  1.0  0.6768
  C  C316  1  0.058490  0.548720  0.955670  1.0  0.0264
  C  C317  1  0.852960  0.461460  0.892140  1.0  -0.0257
  C  C318  1  0.533640  0.134410  0.837070  1.0  -0.054
  C  C319  1  0.188250  0.720090  0.228000  1.0  -0.1242
  C  C320  1  0.568600  0.090400  0.478200  1.0  0.1743
  C  C321  1  0.994790  0.994930  0.435720  1.0  -0.0659
  C  C322  1  0.431400  0.909600  0.521800  1.0  0.1753
  C  C323  1  0.096690  0.509210  0.085480  1.0  0.0508
  C  C324  1  0.908260  0.457570  0.067190  1.0  -0.0243
  C  C325  1  0.593050  0.490230  0.548720  1.0  0.0197
  C  C326  1  0.147040  0.039180  0.608500  1.0  -0.025
  C  C327  1  0.847500  0.466230  0.109050  1.0  0.0824
  C  C328  1  0.209270  0.075860  0.633470  1.0  0.0506
  C  C329  1  0.380660  0.537890  0.748030  1.0  0.6701
  C  C330  1  0.703160  0.175810  0.431190  1.0  0.6702
  C  C331  1  0.404420  0.479380  0.481540  1.0  -0.0978
  C  C332  1  0.086750  0.077420  0.504230  1.0  -0.0901
  C  C333  1  0.297340  0.162930  0.696570  1.0  -0.0532
  C  C334  1  0.182960  0.722220  0.305920  1.0  -0.1397
  C  C335  1  0.033650  0.475320  0.054230  1.0  0.0673
  C  C336  1  0.700820  0.340820  0.797460  1.0  -0.0475
  C  C337  1  0.576270  0.587480  0.490790  1.0  0.0506
  C  C338  1  0.519470  0.206190  0.814600  1.0  0.6771
  C  C339  1  0.573190  0.495770  0.582520  1.0  -0.0883
  C  C340  1  0.801920  0.472010  0.082410  1.0  -0.1198
  C  C341  1  0.084500  0.622610  0.088890  1.0  0.0082
  C  C342  1  0.170650  0.350770  0.638340  1.0  -0.0543
  C  C343  1  0.466280  0.088890  0.004390  1.0  0.016
  C  C344  1  0.913250  0.922580  0.495770  1.0  -0.092
  C  C345  1  0.104690  0.651750  0.217700  1.0  -0.1325
  C  C346  1  0.209270  0.575800  0.133410  1.0  0.0487
  C  C347  1  0.058490  0.102820  0.509770  1.0  0.0235
  C  C348  1  0.628620  0.103570  0.335850  1.0  -0.0746
  C  C349  1  0.443140  0.820370  0.060310  1.0  -0.1176
  C  C350  1  0.817040  0.277780  0.694080  1.0  -0.1389
  C  C351  1  0.212430  0.929120  0.468670  1.0  -0.0661
  C  C352  1  0.767720  0.474950  0.103570  1.0  -0.0744
  C  C353  1  0.511050  0.864110  0.972000  1.0  -0.0726
  C  C354  1  0.903310  0.490790  0.914520  1.0  0.0531
  C  C355  1  0.787570  0.070880  0.531330  1.0  -0.0717
  C  C356  1  0.569320  0.107860  0.960820  1.0  -0.0212
  C  C357  1  0.501000  0.541100  0.959900  1.0  -0.2351
  C  C358  1  0.881020  0.462850  0.085850  1.0  -0.1074
  C  C359  1  0.521180  0.195270  0.059950  1.0  0.0269
  C  C360  1  0.525000  0.021880  0.503120  1.0  0.0939
  C  C361  1  0.861550  0.702540  0.396130  1.0  -0.1289
  C  C362  1  0.296840  0.824190  0.568810  1.0  0.6704
  C  C363  1  0.507910  0.228000  0.039750  1.0  -0.12
  C  C364  1  0.426810  0.009330  0.922580  1.0  -0.0904
  C  C365  1  0.390380  0.549310  0.457570  1.0  -0.0235
  C  C366  1  0.583700  0.460740  0.277780  1.0  -0.1403
  C  C367  1  0.533640  0.696570  0.399230  1.0  -0.0524
  C  C368  1  0.416300  0.694080  0.877040  1.0  -0.1363
  C  C369  1  0.430680  0.892140  0.039180  1.0  -0.0268
  C  C370  1  0.135320  0.940050  0.461230  1.0  0.0314
  C  C371  1  0.864680  0.325910  0.804730  1.0  0.0316
  C  C372  1  0.129020  0.855440  0.452440  1.0  -0.0646
  C  C373  1  0.442840  0.031640  0.976700  1.0  0.0764
  C  C374  1  0.870980  0.323420  0.726420  1.0  -0.0652
  C  C375  1  0.623000  0.418170  0.537150  1.0  -0.1092
  C  C376  1  0.377000  0.581830  0.462850  1.0  -0.1069
  C  C377  1  0.789860  0.157230  0.537890  1.0  0.6691
  C  C378  1  0.628620  0.292770  0.525050  1.0  -0.074
  C  C379  1  0.619340  0.367370  0.157230  1.0  0.6713
  C  C380  1  0.296840  0.728030  0.472650  1.0  0.6722
  C  C381  1  0.054940  0.023300  0.466140  1.0  0.0798
  C  C382  1  0.801920  0.719510  0.329910  1.0  -0.1225
  C  C383  1  0.478820  0.538770  0.674090  1.0  0.0308
  C  C384  1  0.319490  0.689900  0.471930  1.0  -0.1362
  C  C385  1  0.389600  0.670090  0.472010  1.0  -0.1206
  C  C386  1  0.423730  0.914520  0.011210  1.0  0.0543
  C  C387  1  0.565950  0.217700  0.113010  1.0  -0.1347
  C  C388  1  0.915500  0.377390  0.911110  1.0  0.0071
  C  C389  1  0.299180  0.096640  0.640000  1.0  -0.0469
  C  C390  1  0.421090  0.945770  0.979420  1.0  0.0669
  C  C391  1  0.847500  0.738450  0.381270  1.0  0.0818
  C  C392  1  0.576270  0.085480  0.988790  1.0  0.0541
  C  C393  1  0.760060  0.939690  0.382830  1.0  -0.1164
  C  C394  1  0.519470  0.704870  0.313280  1.0  0.6775
  C  C395  1  0.255380  0.431190  0.728030  1.0  0.6775
  C  C396  1  0.096690  0.011210  0.587480  1.0  0.0526
  C  C397  1  0.556860  0.617170  0.377230  1.0  -0.115
  C  C398  1  0.138450  0.297460  0.603870  1.0  -0.1283
  C  C399  1  0.460450  0.531330  0.743760  1.0  -0.07
  C  C400  1  0.453000  0.889480  0.128040  1.0  -0.1585
  C  C401  1  0.138450  0.534580  0.840990  1.0  -0.1289
  C  C402  1  0.941510  0.451280  0.044330  1.0  0.0274
  C  C403  1  0.997840  0.074960  0.479380  1.0  -0.0963
  C  C404  1  0.557160  0.533860  0.588800  1.0  0.0814
  C  C405  1  0.456640  0.797460  0.096640  1.0  -0.0484
  C  C406  1  0.217970  0.370410  0.689900  1.0  -0.1362
  C  C407  1  0.467790  0.819710  0.147640  1.0  -0.0942
  C  C408  1  0.481240  0.503120  0.978120  1.0  0.0944
  C  C409  1  0.152500  0.533770  0.890950  1.0  0.0822
  C  C410  1  0.782030  0.629590  0.310100  1.0  -0.1373
  C  C411  1  0.297340  0.600770  0.134410  1.0  -0.051
  C  C412  1  0.467790  0.320150  0.648080  1.0  -0.0939
  C  C413  1  0.945060  0.976700  0.533860  1.0  0.0811
  C  C414  1  0.005210  0.005070  0.564280  1.0  -0.0659
  C  C415  1  0.700820  0.903360  0.360000  1.0  -0.0472
  C  C416  1  0.609620  0.067190  0.158930  1.0  -0.0195
  C  C417  1  0.565950  0.452940  0.348250  1.0  -0.1315
  C  C418  1  0.466360  0.303430  0.600770  1.0  -0.0544
  C  C419  1  0.642820  0.109050  0.261550  1.0  0.0823
  C  C420  1  0.170650  0.532310  0.819880  1.0  -0.0509
  C  C421  1  0.182960  0.877040  0.460740  1.0  -0.1357
  C  C422  1  0.539550  0.283310  0.070880  1.0  -0.0627
  C  C423  1  0.391590  0.686720  0.206190  1.0  0.6769
  C  C424  1  0.212430  0.743760  0.283310  1.0  -0.0661
  C  C425  1  0.371380  0.707230  0.474950  1.0  -0.0733
  C  C426  1  0.672070  0.351920  0.819710  1.0  -0.0937
  C  C427  1  0.623000  0.085850  0.204830  1.0  -0.1076
  C  C428  1  0.864680  0.059950  0.538770  1.0  0.0353
  C  C429  1  0.744620  0.568810  0.271970  1.0  0.677
  C  C430  1  0.460450  0.716690  0.929120  1.0  -0.0626
  C  C431  1  0.499000  0.458900  0.040100  1.0  -0.2335
  C  C432  1  0.443140  0.382830  0.622770  1.0  -0.1162
  N  N433  1  0.376030  0.890530  0.485500  1.0  -0.2862
  N  N434  1  0.405030  0.514500  0.890530  1.0  -0.2845
  N  N435  1  0.623970  0.109470  0.514500  1.0  -0.2859
  N  N436  1  0.594970  0.485500  0.109470  1.0  -0.2855
  O  O437  1  0.394120  0.604150  0.863650  1.0  -0.5746
  O  O438  1  0.514810  0.185850  0.769200  1.0  -0.5976
  O  O439  1  0.605880  0.469530  0.210030  1.0  -0.5736
  O  O440  1  0.327860  0.849110  0.552850  1.0  -0.5711
  O  O441  1  0.416650  0.230800  0.745610  1.0  -0.5985
  O  O442  1  0.259500  0.789970  0.395850  1.0  -0.5692
  O  O443  1  0.416320  0.170380  0.685820  1.0  -0.5703
  O  O444  1  0.672140  0.150890  0.447150  1.0  -0.5731
  O  O445  1  0.583680  0.269500  0.754060  1.0  -0.5715
  O  O446  1  0.296260  0.447150  0.775010  1.0  -0.568
  O  O447  1  0.583680  0.829620  0.314180  1.0  -0.5718
  O  O448  1  0.759180  0.539700  0.292540  1.0  -0.5837
  O  O449  1  0.515440  0.245940  0.829620  1.0  -0.5712
  O  O450  1  0.259500  0.863650  0.469530  1.0  -0.5824
  O  O451  1  0.416320  0.730500  0.245940  1.0  -0.5714
  O  O452  1  0.416650  0.671040  0.185850  1.0  -0.598
  O  O453  1  0.240820  0.533360  0.780520  1.0  -0.5777
  O  O454  1  0.247160  0.780520  0.539700  1.0  -0.5799
  O  O455  1  0.484560  0.314180  0.730500  1.0  -0.5728
  O  O456  1  0.178860  0.795100  0.456360  1.0  -0.589
  O  O457  1  0.821140  0.277500  0.616240  1.0  -0.59
  O  O458  1  0.759180  0.466640  0.219480  1.0  -0.5786
  O  O459  1  0.485190  0.814150  0.230800  1.0  -0.5982
  O  O460  1  0.661260  0.456360  0.277500  1.0  -0.5878
  O  O461  1  0.752840  0.219480  0.460300  1.0  -0.5809
  O  O462  1  0.703740  0.478750  0.150890  1.0  -0.5727
  O  O463  1  0.514810  0.745610  0.328960  1.0  -0.5988
  O  O464  1  0.672140  0.224990  0.521250  1.0  -0.5711
  O  O465  1  0.752840  0.292540  0.533360  1.0  -0.582
  O  O466  1  0.338740  0.543640  0.722500  1.0  -0.5877
  O  O467  1  0.338740  0.616240  0.795100  1.0  -0.5883
  O  O468  1  0.515440  0.685820  0.269500  1.0  -0.5712
  O  O469  1  0.821140  0.204900  0.543640  1.0  -0.5886
  O  O470  1  0.327860  0.775010  0.478750  1.0  -0.5702
  O  O471  1  0.661260  0.383760  0.204900  1.0  -0.5868
  O  O472  1  0.703740  0.552850  0.224990  1.0  -0.5673
  O  O473  1  0.240820  0.460300  0.707460  1.0  -0.5825
  O  O474  1  0.484560  0.754060  0.170380  1.0  -0.5709
  O  O475  1  0.583350  0.769200  0.254390  1.0  -0.5979
  O  O476  1  0.178860  0.722500  0.383760  1.0  -0.5914
  O  O477  1  0.247160  0.707460  0.466640  1.0  -0.5825
  O  O478  1  0.485190  0.254390  0.671040  1.0  -0.5986
  O  O479  1  0.583350  0.328960  0.814150  1.0  -0.5981
  O  O480  1  0.296260  0.521250  0.849110  1.0  -0.5731
  O  O481  1  0.394120  0.530470  0.789970  1.0  -0.5753
  O  O482  1  0.740500  0.210030  0.604150  1.0  -0.5687
  O  O483  1  0.605880  0.395850  0.136350  1.0  -0.5725
  O  O484  1  0.740500  0.136350  0.530470  1.0  -0.5827
