# generated using pymatgen
data_CuH10(C11O2)2
_symmetry_space_group_name_H-M   'P 1'
_cell_length_a   29.54970000
_cell_length_b   29.54970000
_cell_length_c   29.54970000
_cell_angle_alpha   109.47100000
_cell_angle_beta   109.47100000
_cell_angle_gamma   109.47100000
_symmetry_Int_Tables_number   1
_chemical_formula_structural   CuH10(C11O2)2
_chemical_formula_sum   'Cu12 H120 C264 O48'
_cell_volume   19862.81900388
_cell_formula_units_Z   12
loop_
 _symmetry_equiv_pos_site_id
 _symmetry_equiv_pos_as_xyz
  1  'x, y, z'
loop_
 _atom_site_type_symbol
 _atom_site_label
 _atom_site_symmetry_multiplicity
 _atom_site_fract_x
 _atom_site_fract_y
 _atom_site_fract_z
 _atom_site_occupancy
 _atom_site_charge
  Cu  Cu1  1  0.257050  0.757050  0.500000  1.0  0.8883
  Cu  Cu2  1  0.742950  0.242950  0.500000  1.0  0.8891
  Cu  Cu3  1  0.242950  0.500000  0.742950  1.0  0.8899
  Cu  Cu4  1  0.166440  0.500000  0.666440  1.0  0.8796
  Cu  Cu5  1  0.666440  0.166440  0.500000  1.0  0.8793
  Cu  Cu6  1  0.500000  0.742950  0.242950  1.0  0.8881
  Cu  Cu7  1  0.757050  0.500000  0.257050  1.0  0.8898
  Cu  Cu8  1  0.833560  0.500000  0.333560  1.0  0.8795
  Cu  Cu9  1  0.500000  0.257050  0.757050  1.0  0.8888
  Cu  Cu10  1  0.500000  0.666440  0.166440  1.0  0.878
  Cu  Cu11  1  0.333560  0.833560  0.500000  1.0  0.8791
  Cu  Cu12  1  0.500000  0.333560  0.833560  1.0  0.8798
  H  H13  1  0.400800  0.965200  0.906200  1.0  0.0861
  H  H14  1  0.059000  0.965200  0.564400  1.0  0.0842
  H  H15  1  0.508700  0.740100  0.059600  1.0  0.0938
  H  H16  1  0.913600  0.386900  0.766100  1.0  0.0954
  H  H17  1  0.233900  0.086400  0.613100  1.0  0.0935
  H  H18  1  0.500800  0.021600  0.223800  1.0  0.1004
  H  H19  1  0.814400  0.485400  0.144000  1.0  0.1011
  H  H20  1  0.550900  0.059600  0.319500  1.0  0.0925
  H  H21  1  0.941000  0.034800  0.435600  1.0  0.084
  H  H22  1  0.491300  0.550900  0.231400  1.0  0.0917
  H  H23  1  0.965200  0.906200  0.400800  1.0  0.0859
  H  H24  1  0.852500  0.766100  0.379200  1.0  0.0948
  H  H25  1  0.479200  0.202200  0.978400  1.0  0.0968
  H  H26  1  0.526700  0.379200  0.613100  1.0  0.095
  H  H27  1  0.599200  0.034800  0.093800  1.0  0.0866
  H  H28  1  0.449100  0.768600  0.508700  1.0  0.0924
  H  H29  1  0.550900  0.231400  0.491300  1.0  0.0919
  H  H30  1  0.740100  0.231400  0.680500  1.0  0.0929
  H  H31  1  0.435600  0.400800  0.494600  1.0  0.0866
  H  H32  1  0.723000  0.223800  0.202200  1.0  0.1001
  H  H33  1  0.852500  0.473300  0.086400  1.0  0.0946
  H  H34  1  0.473300  0.086400  0.852500  1.0  0.0952
  H  H35  1  0.435600  0.941000  0.034800  1.0  0.0844
  H  H36  1  0.277000  0.776200  0.797800  1.0  0.0997
  H  H37  1  0.491300  0.259900  0.940400  1.0  0.0937
  H  H38  1  0.329600  0.144000  0.658600  1.0  0.0996
  H  H39  1  0.233900  0.620800  0.147500  1.0  0.0957
  H  H40  1  0.766100  0.379200  0.852500  1.0  0.0948
  H  H41  1  0.277000  0.479200  0.500800  1.0  0.0999
  H  H42  1  0.940400  0.491300  0.259900  1.0  0.0927
  H  H43  1  0.319500  0.259900  0.768600  1.0  0.0932
  H  H44  1  0.613100  0.526700  0.379200  1.0  0.0973
  H  H45  1  0.144000  0.814400  0.485400  1.0  0.1008
  H  H46  1  0.906200  0.400800  0.965200  1.0  0.0858
  H  H47  1  0.671000  0.341400  0.485400  1.0  0.1002
  H  H48  1  0.658600  0.514600  0.329000  1.0  0.1003
  H  H49  1  0.505400  0.564400  0.599200  1.0  0.0871
  H  H50  1  0.329000  0.814400  0.670400  1.0  0.1007
  H  H51  1  0.500800  0.277000  0.479200  1.0  0.101
  H  H52  1  0.202200  0.723000  0.223800  1.0  0.0986
  H  H53  1  0.978400  0.776200  0.499200  1.0  0.1002
  H  H54  1  0.494600  0.435600  0.400800  1.0  0.0862
  H  H55  1  0.658600  0.329600  0.144000  1.0  0.0993
  H  H56  1  0.520800  0.499200  0.723000  1.0  0.1022
  H  H57  1  0.086400  0.852500  0.473300  1.0  0.0941
  H  H58  1  0.740100  0.059600  0.508700  1.0  0.0932
  H  H59  1  0.499200  0.978400  0.776200  1.0  0.1011
  H  H60  1  0.564400  0.599200  0.505400  1.0  0.0855
  H  H61  1  0.185600  0.514600  0.856000  1.0  0.1013
  H  H62  1  0.670400  0.856000  0.341400  1.0  0.0997
  H  H63  1  0.093800  0.599200  0.034800  1.0  0.086
  H  H64  1  0.059000  0.494600  0.093800  1.0  0.0866
  H  H65  1  0.680500  0.449100  0.940400  1.0  0.0919
  H  H66  1  0.259900  0.940400  0.491300  1.0  0.093
  H  H67  1  0.505400  0.906200  0.941000  1.0  0.0843
  H  H68  1  0.319500  0.550900  0.059600  1.0  0.0915
  H  H69  1  0.514600  0.329000  0.658600  1.0  0.1011
  H  H70  1  0.021600  0.223800  0.500800  1.0  0.0999
  H  H71  1  0.386900  0.766100  0.913600  1.0  0.0943
  H  H72  1  0.514600  0.856000  0.185600  1.0  0.101
  H  H73  1  0.379200  0.852500  0.766100  1.0  0.0952
  H  H74  1  0.856000  0.185600  0.514600  1.0  0.1008
  H  H75  1  0.473300  0.620800  0.386900  1.0  0.0949
  H  H76  1  0.941000  0.505400  0.906200  1.0  0.0857
  H  H77  1  0.231400  0.491300  0.550900  1.0  0.0953
  H  H78  1  0.494600  0.093800  0.059000  1.0  0.0844
  H  H79  1  0.086400  0.613100  0.233900  1.0  0.095
  H  H80  1  0.329000  0.658600  0.514600  1.0  0.1
  H  H81  1  0.223800  0.500800  0.021600  1.0  0.0996
  H  H82  1  0.978400  0.479200  0.202200  1.0  0.0974
  H  H83  1  0.144000  0.658600  0.329600  1.0  0.0995
  H  H84  1  0.479200  0.500800  0.277000  1.0  0.1018
  H  H85  1  0.814400  0.670400  0.329000  1.0  0.1007
  H  H86  1  0.797800  0.021600  0.520800  1.0  0.0965
  H  H87  1  0.913600  0.147500  0.526700  1.0  0.0946
  H  H88  1  0.906200  0.941000  0.505400  1.0  0.0867
  H  H89  1  0.400800  0.494600  0.435600  1.0  0.0857
  H  H90  1  0.231400  0.680500  0.740100  1.0  0.0922
  H  H91  1  0.034800  0.435600  0.941000  1.0  0.085
  H  H92  1  0.147500  0.233900  0.620800  1.0  0.0948
  H  H93  1  0.485400  0.671000  0.341400  1.0  0.1003
  H  H94  1  0.599200  0.505400  0.564400  1.0  0.085
  H  H95  1  0.768600  0.508700  0.449100  1.0  0.0935
  H  H96  1  0.202200  0.978400  0.479200  1.0  0.0971
  H  H97  1  0.564400  0.059000  0.965200  1.0  0.0839
  H  H98  1  0.680500  0.740100  0.231400  1.0  0.0931
  H  H99  1  0.940400  0.680500  0.449100  1.0  0.0931
  H  H100  1  0.329600  0.671000  0.185600  1.0  0.0999
  H  H101  1  0.021600  0.520800  0.797800  1.0  0.0996
  H  H102  1  0.670400  0.329000  0.814400  1.0  0.0999
  H  H103  1  0.259900  0.768600  0.319500  1.0  0.0939
  H  H104  1  0.671000  0.185600  0.329600  1.0  0.1009
  H  H105  1  0.386900  0.473300  0.620800  1.0  0.0948
  H  H106  1  0.620800  0.386900  0.473300  1.0  0.0952
  H  H107  1  0.034800  0.093800  0.599200  1.0  0.0858
  H  H108  1  0.059600  0.319500  0.550900  1.0  0.0925
  H  H109  1  0.059600  0.508700  0.740100  1.0  0.0921
  H  H110  1  0.379200  0.613100  0.526700  1.0  0.0953
  H  H111  1  0.526700  0.913600  0.147500  1.0  0.0955
  H  H112  1  0.723000  0.520800  0.499200  1.0  0.1004
  H  H113  1  0.147500  0.526700  0.913600  1.0  0.094
  H  H114  1  0.499200  0.723000  0.520800  1.0  0.1006
  H  H115  1  0.485400  0.144000  0.814400  1.0  0.101
  H  H116  1  0.776200  0.499200  0.978400  1.0  0.0999
  H  H117  1  0.093800  0.059000  0.494600  1.0  0.0867
  H  H118  1  0.965200  0.564400  0.059000  1.0  0.0857
  H  H119  1  0.185600  0.329600  0.671000  1.0  0.101
  H  H120  1  0.520800  0.797800  0.021600  1.0  0.0972
  H  H121  1  0.508700  0.449100  0.768600  1.0  0.0921
  H  H122  1  0.768600  0.319500  0.259900  1.0  0.0928
  H  H123  1  0.620800  0.147500  0.233900  1.0  0.0948
  H  H124  1  0.223800  0.202200  0.723000  1.0  0.0996
  H  H125  1  0.449100  0.940400  0.680500  1.0  0.0924
  H  H126  1  0.766100  0.913600  0.386900  1.0  0.0935
  H  H127  1  0.341400  0.670400  0.856000  1.0  0.0994
  H  H128  1  0.341400  0.485400  0.671000  1.0  0.1001
  H  H129  1  0.797800  0.277000  0.776200  1.0  0.0989
  H  H130  1  0.856000  0.341400  0.670400  1.0  0.0997
  H  H131  1  0.613100  0.233900  0.086400  1.0  0.0944
  H  H132  1  0.776200  0.797800  0.277000  1.0  0.0985
  C  C133  1  0.384290  0.718060  0.510550  1.0  -0.1366
  C  C134  1  0.639100  0.160300  0.107400  1.0  0.2571
  C  C135  1  0.054600  0.519500  0.809500  1.0  -0.2409
  C  C136  1  0.496200  0.243500  0.842900  1.0  0.5491
  C  C137  1  0.809500  0.054600  0.519500  1.0  -0.2398
  C  C138  1  0.444030  0.919100  0.780330  1.0  0.0233
  C  C139  1  0.748900  0.878700  0.355600  1.0  -0.1384
  C  C140  1  0.333770  0.615710  0.126260  1.0  -0.1363
  C  C141  1  0.697800  0.435100  0.922700  1.0  -0.0717
  C  C142  1  0.965400  0.413800  0.943800  1.0  0.0108
  C  C143  1  0.885300  0.502900  0.960400  1.0  0.1651
  C  C144  1  0.524930  0.444030  0.663700  1.0  0.0228
  C  C145  1  0.861230  0.336300  0.780330  1.0  0.0214
  C  C146  1  0.400600  0.653300  0.157100  1.0  0.5518
  C  C147  1  0.034600  0.586200  0.056200  1.0  0.0156
  C  C148  1  0.792490  0.281940  0.666230  1.0  -0.1424
  C  C149  1  0.581300  0.526000  0.560900  1.0  -0.0943
  C  C150  1  0.502900  0.960400  0.885300  1.0  0.1634
  C  C151  1  0.965400  0.021600  0.551600  1.0  0.0144
  C  C152  1  0.360900  0.839700  0.892600  1.0  0.2602
  C  C153  1  0.207510  0.718060  0.333770  1.0  -0.1406
  C  C154  1  0.080900  0.524930  0.861230  1.0  0.019
  C  C155  1  0.484100  0.155800  0.847500  1.0  -0.0867
  C  C156  1  0.839700  0.892600  0.360900  1.0  0.262
  C  C157  1  0.056200  0.034600  0.586200  1.0  0.0146
  C  C158  1  0.523100  0.393300  0.644400  1.0  -0.1395
  C  C159  1  0.542500  0.502900  0.617600  1.0  0.1625
  C  C160  1  0.474000  0.055300  0.034900  1.0  -0.1005
  C  C161  1  0.052900  0.160300  0.521200  1.0  0.262
  C  C162  1  0.535100  0.290000  0.480500  1.0  -0.2421
  C  C163  1  0.636600  0.152500  0.308300  1.0  -0.0837
  C  C164  1  0.308300  0.155800  0.671700  1.0  -0.0865
  C  C165  1  0.224900  0.922700  0.487600  1.0  -0.0761
  C  C166  1  0.842900  0.599400  0.346700  1.0  0.5526
  C  C167  1  0.615710  0.281940  0.489450  1.0  -0.1365
  C  C168  1  0.666230  0.792490  0.281940  1.0  -0.1399
  C  C169  1  0.328300  0.691700  0.844200  1.0  -0.0842
  C  C170  1  0.878700  0.129800  0.523100  1.0  -0.1342
  C  C171  1  0.519500  0.464900  0.710000  1.0  -0.2455
  C  C172  1  0.844200  0.152500  0.515900  1.0  -0.0877
  C  C173  1  0.413800  0.943800  0.965400  1.0  0.0116
  C  C174  1  0.251100  0.606700  0.129800  1.0  -0.142
  C  C175  1  0.121300  0.644400  0.251100  1.0  -0.1364
  C  C176  1  0.336300  0.780330  0.861230  1.0  0.0224
  C  C177  1  0.644400  0.251100  0.121300  1.0  -0.1422
  C  C178  1  0.413800  0.448400  0.470000  1.0  0.0121
  C  C179  1  0.055300  0.581300  0.020400  1.0  -0.0956
  C  C180  1  0.360900  0.468300  0.521200  1.0  0.2608
  C  C181  1  0.671700  0.308300  0.155800  1.0  -0.0861
  C  C182  1  0.252700  0.496200  0.653300  1.0  0.5541
  C  C183  1  0.718060  0.333770  0.207510  1.0  -0.1395
  C  C184  1  0.644400  0.523100  0.393300  1.0  -0.1366
  C  C185  1  0.077300  0.512400  0.775100  1.0  -0.0753
  C  C186  1  0.718060  0.510550  0.384290  1.0  -0.1393
  C  C187  1  0.756500  0.157100  0.503800  1.0  0.5493
  C  C188  1  0.020400  0.055300  0.581300  1.0  -0.1016
  C  C189  1  0.870200  0.476900  0.121300  1.0  -0.1351
  C  C190  1  0.190500  0.710000  0.245100  1.0  -0.2403
  C  C191  1  0.480500  0.535100  0.290000  1.0  -0.2489
  C  C192  1  0.480500  0.190500  0.945400  1.0  -0.2424
  C  C193  1  0.960400  0.885300  0.502900  1.0  0.1668
  C  C194  1  0.484100  0.636600  0.328300  1.0  -0.0853
  C  C195  1  0.219670  0.138770  0.663700  1.0  0.0241
  C  C196  1  0.468300  0.521200  0.360900  1.0  0.2598
  C  C197  1  0.346700  0.747300  0.503800  1.0  0.5541
  C  C198  1  0.475070  0.138770  0.919100  1.0  0.0195
  C  C199  1  0.885300  0.924900  0.382400  1.0  0.1585
  C  C200  1  0.251100  0.121300  0.644400  1.0  -0.1395
  C  C201  1  0.207510  0.873740  0.489450  1.0  -0.1393
  C  C202  1  0.965100  0.526000  0.944700  1.0  -0.0923
  C  C203  1  0.947100  0.839700  0.478800  1.0  0.2631
  C  C204  1  0.489450  0.207510  0.873740  1.0  -0.1423
  C  C205  1  0.302200  0.564900  0.077300  1.0  -0.0727
  C  C206  1  0.444030  0.663700  0.524930  1.0  0.0208
  C  C207  1  0.710000  0.245100  0.190500  1.0  -0.2416
  C  C208  1  0.737300  0.512400  0.435100  1.0  -0.0762
  C  C209  1  0.160300  0.107400  0.639100  1.0  0.2582
  C  C210  1  0.138770  0.919100  0.475070  1.0  0.0195
  C  C211  1  0.114700  0.075100  0.617600  1.0  0.1582
  C  C212  1  0.333770  0.207510  0.718060  1.0  -0.1382
  C  C213  1  0.418700  0.474000  0.439100  1.0  -0.0926
  C  C214  1  0.336300  0.475070  0.555970  1.0  0.0237
  C  C215  1  0.564900  0.262700  0.487600  1.0  -0.0744
  C  C216  1  0.792490  0.126260  0.510550  1.0  -0.1405
  C  C217  1  0.497100  0.039600  0.114700  1.0  0.1649
  C  C218  1  0.155800  0.847500  0.484100  1.0  -0.0856
  C  C219  1  0.290000  0.480500  0.535100  1.0  -0.2409
  C  C220  1  0.470000  0.413800  0.448400  1.0  0.0134
  C  C221  1  0.710000  0.519500  0.464900  1.0  -0.2415
  C  C222  1  0.075100  0.960400  0.457500  1.0  0.1617
  C  C223  1  0.418700  0.979600  0.944700  1.0  -0.0988
  C  C224  1  0.464900  0.710000  0.519500  1.0  -0.2454
  C  C225  1  0.756500  0.252700  0.599400  1.0  0.5543
  C  C226  1  0.691700  0.363400  0.847500  1.0  -0.082
  C  C227  1  0.476900  0.606700  0.355600  1.0  -0.1407
  C  C228  1  0.077300  0.302200  0.564900  1.0  -0.0723
  C  C229  1  0.960400  0.457500  0.075100  1.0  0.161
  C  C230  1  0.586200  0.551600  0.530000  1.0  0.0124
  C  C231  1  0.363400  0.671700  0.515900  1.0  -0.0856
  C  C232  1  0.943800  0.965400  0.413800  1.0  0.0137
  C  C233  1  0.523100  0.878700  0.129800  1.0  -0.1333
  C  C234  1  0.107400  0.947100  0.468300  1.0  0.2625
  C  C235  1  0.363400  0.847500  0.691700  1.0  -0.0813
  C  C236  1  0.551600  0.965400  0.021600  1.0  0.0125
  C  C237  1  0.555970  0.080900  0.219670  1.0  0.0251
  C  C238  1  0.039600  0.542500  0.924900  1.0  0.1619
  C  C239  1  0.157100  0.400600  0.653300  1.0  0.5535
  C  C240  1  0.435100  0.737300  0.512400  1.0  -0.0753
  C  C241  1  0.599400  0.756500  0.252700  1.0  0.5536
  C  C242  1  0.219670  0.555970  0.080900  1.0  0.0256
  C  C243  1  0.478800  0.639100  0.531700  1.0  0.2594
  C  C244  1  0.697800  0.775100  0.262700  1.0  -0.0684
  C  C245  1  0.653300  0.252700  0.496200  1.0  0.5526
  C  C246  1  0.943800  0.530000  0.978400  1.0  0.0171
  C  C247  1  0.054600  0.245100  0.535100  1.0  -0.2471
  C  C248  1  0.873740  0.666230  0.384290  1.0  -0.1396
  C  C249  1  0.468300  0.107400  0.947100  1.0  0.2637
  C  C250  1  0.355600  0.748900  0.878700  1.0  -0.1384
  C  C251  1  0.606700  0.355600  0.476900  1.0  -0.1404
  C  C252  1  0.129800  0.251100  0.606700  1.0  -0.1412
  C  C253  1  0.639100  0.531700  0.478800  1.0  0.2601
  C  C254  1  0.663700  0.524930  0.444030  1.0  0.0207
  C  C255  1  0.945400  0.754900  0.464900  1.0  -0.2451
  C  C256  1  0.671700  0.515900  0.363400  1.0  -0.0842
  C  C257  1  0.302200  0.224900  0.737300  1.0  -0.0678
  C  C258  1  0.075100  0.617600  0.114700  1.0  0.1595
  C  C259  1  0.489450  0.615710  0.281940  1.0  -0.1386
  C  C260  1  0.775100  0.262700  0.697800  1.0  -0.0668
  C  C261  1  0.328300  0.484100  0.636600  1.0  -0.0846
  C  C262  1  0.945400  0.480500  0.190500  1.0  -0.2337
  C  C263  1  0.464900  0.945400  0.754900  1.0  -0.2451
  C  C264  1  0.979600  0.560900  0.034900  1.0  -0.1059
  C  C265  1  0.114700  0.497100  0.039600  1.0  0.1641
  C  C266  1  0.448400  0.034600  0.978400  1.0  0.0155
  C  C267  1  0.965100  0.020400  0.439100  1.0  -0.0979
  C  C268  1  0.510550  0.384290  0.718060  1.0  -0.1394
  C  C269  1  0.055300  0.034900  0.474000  1.0  -0.097
  C  C270  1  0.224900  0.737300  0.302200  1.0  -0.0682
  C  C271  1  0.487600  0.564900  0.262700  1.0  -0.0769
  C  C272  1  0.470000  0.021600  0.056200  1.0  0.0261
  C  C273  1  0.439100  0.418700  0.474000  1.0  -0.0992
  C  C274  1  0.666230  0.384290  0.873740  1.0  -0.1384
  C  C275  1  0.870200  0.748900  0.393300  1.0  -0.1428
  C  C276  1  0.599400  0.346700  0.842900  1.0  0.5524
  C  C277  1  0.944700  0.418700  0.979600  1.0  -0.096
  C  C278  1  0.919100  0.475070  0.138770  1.0  0.0211
  C  C279  1  0.478800  0.947100  0.839700  1.0  0.2622
  C  C280  1  0.560900  0.581300  0.526000  1.0  -0.098
  C  C281  1  0.530000  0.586200  0.551600  1.0  0.0165
  C  C282  1  0.052900  0.531700  0.892600  1.0  0.2634
  C  C283  1  0.519500  0.809500  0.054600  1.0  -0.2433
  C  C284  1  0.530000  0.978400  0.943800  1.0  0.0207
  C  C285  1  0.400600  0.243500  0.747300  1.0  0.5533
  C  C286  1  0.190500  0.945400  0.480500  1.0  -0.2356
  C  C287  1  0.503800  0.346700  0.747300  1.0  0.5539
  C  C288  1  0.393300  0.870200  0.748900  1.0  -0.1405
  C  C289  1  0.780330  0.861230  0.336300  1.0  0.0248
  C  C290  1  0.747300  0.400600  0.243500  1.0  0.5536
  C  C291  1  0.617600  0.114700  0.075100  1.0  0.1609
  C  C292  1  0.384290  0.873740  0.666230  1.0  -0.1388
  C  C293  1  0.107400  0.639100  0.160300  1.0  0.257
  C  C294  1  0.245100  0.190500  0.710000  1.0  -0.2426
  C  C295  1  0.056200  0.470000  0.021600  1.0  0.0172
  C  C296  1  0.521200  0.360900  0.468300  1.0  0.2575
  C  C297  1  0.346700  0.842900  0.599400  1.0  0.5538
  C  C298  1  0.152500  0.308300  0.636600  1.0  -0.0805
  C  C299  1  0.034600  0.978400  0.448400  1.0  0.0125
  C  C300  1  0.245100  0.535100  0.054600  1.0  -0.2492
  C  C301  1  0.496200  0.653300  0.252700  1.0  0.5527
  C  C302  1  0.497100  0.382400  0.457500  1.0  0.1629
  C  C303  1  0.281940  0.489450  0.615710  1.0  -0.1392
  C  C304  1  0.121300  0.870200  0.476900  1.0  -0.1342
  C  C305  1  0.512400  0.775100  0.077300  1.0  -0.0763
  C  C306  1  0.780330  0.444030  0.919100  1.0  0.0274
  C  C307  1  0.922700  0.697800  0.435100  1.0  -0.0715
  C  C308  1  0.308300  0.636600  0.152500  1.0  -0.0815
  C  C309  1  0.535100  0.054600  0.245100  1.0  -0.2455
  C  C310  1  0.474000  0.439100  0.418700  1.0  -0.0913
  C  C311  1  0.439100  0.965100  0.020400  1.0  -0.1006
  C  C312  1  0.243500  0.842900  0.496200  1.0  0.5484
  C  C313  1  0.615710  0.126260  0.333770  1.0  -0.1401
  C  C314  1  0.847500  0.484100  0.155800  1.0  -0.0877
  C  C315  1  0.281940  0.666230  0.792490  1.0  -0.1401
  C  C316  1  0.126260  0.333770  0.615710  1.0  -0.1388
  C  C317  1  0.393300  0.644400  0.523100  1.0  -0.1368
  C  C318  1  0.809500  0.290000  0.754900  1.0  -0.2358
  C  C319  1  0.586200  0.056200  0.034600  1.0  0.0116
  C  C320  1  0.892600  0.052900  0.531700  1.0  0.2672
  C  C321  1  0.775100  0.077300  0.512400  1.0  -0.0749
  C  C322  1  0.978400  0.943800  0.530000  1.0  0.0234
  C  C323  1  0.617600  0.542500  0.502900  1.0  0.1609
  C  C324  1  0.663700  0.219670  0.138770  1.0  0.0237
  C  C325  1  0.978400  0.448400  0.034600  1.0  0.0162
  C  C326  1  0.039600  0.114700  0.497100  1.0  0.1668
  C  C327  1  0.435100  0.922700  0.697800  1.0  -0.0726
  C  C328  1  0.382400  0.457500  0.497100  1.0  0.1591
  C  C329  1  0.653300  0.157100  0.400600  1.0  0.5542
  C  C330  1  0.979600  0.944700  0.418700  1.0  -0.1023
  C  C331  1  0.636600  0.328300  0.484100  1.0  -0.0862
  C  C332  1  0.355600  0.476900  0.606700  1.0  -0.1384
  C  C333  1  0.839700  0.478800  0.947100  1.0  0.2614
  C  C334  1  0.892600  0.360900  0.839700  1.0  0.2597
  C  C335  1  0.510550  0.792490  0.126260  1.0  -0.1428
  C  C336  1  0.861230  0.080900  0.524930  1.0  0.0201
  C  C337  1  0.487600  0.224900  0.922700  1.0  -0.0755
  C  C338  1  0.754900  0.809500  0.290000  1.0  -0.242
  C  C339  1  0.555970  0.336300  0.475070  1.0  0.0189
  C  C340  1  0.754900  0.464900  0.945400  1.0  -0.2433
  C  C341  1  0.524930  0.861230  0.080900  1.0  0.0208
  C  C342  1  0.157100  0.503800  0.756500  1.0  0.5497
  C  C343  1  0.919100  0.780330  0.444030  1.0  0.0238
  C  C344  1  0.581300  0.020400  0.055300  1.0  -0.1018
  C  C345  1  0.531700  0.478800  0.639100  1.0  0.2599
  C  C346  1  0.521200  0.052900  0.160300  1.0  0.2627
  C  C347  1  0.126260  0.510550  0.792490  1.0  -0.1422
  C  C348  1  0.844200  0.328300  0.691700  1.0  -0.0868
  C  C349  1  0.457500  0.075100  0.960400  1.0  0.1599
  C  C350  1  0.503800  0.756500  0.157100  1.0  0.5487
  C  C351  1  0.606700  0.129800  0.251100  1.0  -0.1404
  C  C352  1  0.252700  0.599400  0.756500  1.0  0.5536
  C  C353  1  0.020400  0.439100  0.965100  1.0  -0.1032
  C  C354  1  0.243500  0.747300  0.400600  1.0  0.5545
  C  C355  1  0.138770  0.663700  0.219670  1.0  0.0235
  C  C356  1  0.475070  0.555970  0.336300  1.0  0.0194
  C  C357  1  0.290000  0.754900  0.809500  1.0  -0.2395
  C  C358  1  0.924900  0.039600  0.542500  1.0  0.1615
  C  C359  1  0.847500  0.691700  0.363400  1.0  -0.0824
  C  C360  1  0.873740  0.489450  0.207510  1.0  -0.1434
  C  C361  1  0.457500  0.497100  0.382400  1.0  0.1592
  C  C362  1  0.448400  0.470000  0.413800  1.0  0.0143
  C  C363  1  0.748900  0.393300  0.870200  1.0  -0.1426
  C  C364  1  0.262700  0.697800  0.775100  1.0  -0.0707
  C  C365  1  0.526000  0.944700  0.965100  1.0  -0.0996
  C  C366  1  0.152500  0.515900  0.844200  1.0  -0.0846
  C  C367  1  0.526000  0.560900  0.581300  1.0  -0.0959
  C  C368  1  0.021600  0.551600  0.965400  1.0  0.0158
  C  C369  1  0.747300  0.503800  0.346700  1.0  0.5534
  C  C370  1  0.560900  0.034900  0.979600  1.0  -0.1012
  C  C371  1  0.155800  0.671700  0.308300  1.0  -0.0846
  C  C372  1  0.476900  0.121300  0.870200  1.0  -0.1337
  C  C373  1  0.034900  0.979600  0.560900  1.0  -0.1015
  C  C374  1  0.515900  0.844200  0.152500  1.0  -0.0857
  C  C375  1  0.021600  0.056200  0.470000  1.0  0.0229
  C  C376  1  0.382400  0.885300  0.924900  1.0  0.1594
  C  C377  1  0.160300  0.521200  0.052900  1.0  0.2615
  C  C378  1  0.947100  0.468300  0.107400  1.0  0.2643
  C  C379  1  0.515900  0.363400  0.671700  1.0  -0.0861
  C  C380  1  0.922700  0.487600  0.224900  1.0  -0.0746
  C  C381  1  0.262700  0.487600  0.564900  1.0  -0.0769
  C  C382  1  0.502900  0.617600  0.542500  1.0  0.1615
  C  C383  1  0.531700  0.892600  0.052900  1.0  0.2625
  C  C384  1  0.034900  0.474000  0.055300  1.0  -0.0966
  C  C385  1  0.691700  0.844200  0.328300  1.0  -0.0861
  C  C386  1  0.512400  0.435100  0.737300  1.0  -0.0761
  C  C387  1  0.944700  0.965100  0.526000  1.0  -0.0976
  C  C388  1  0.080900  0.219670  0.555970  1.0  0.0255
  C  C389  1  0.842900  0.496200  0.243500  1.0  0.5504
  C  C390  1  0.129800  0.523100  0.878700  1.0  -0.1357
  C  C391  1  0.737300  0.302200  0.224900  1.0  -0.0705
  C  C392  1  0.564900  0.077300  0.302200  1.0  -0.0717
  C  C393  1  0.878700  0.355600  0.748900  1.0  -0.1375
  C  C394  1  0.551600  0.530000  0.586200  1.0  0.0185
  C  C395  1  0.924900  0.382400  0.885300  1.0  0.1596
  C  C396  1  0.542500  0.924900  0.039600  1.0  0.1619
  O  O397  1  0.700630  0.280180  0.500790  1.0  -0.5769
  O  O398  1  0.789740  0.501330  0.370910  1.0  -0.5765
  O  O399  1  0.789740  0.418830  0.288410  1.0  -0.5719
  O  O400  1  0.199840  0.420450  0.700630  1.0  -0.5815
  O  O401  1  0.581170  0.370910  0.869580  1.0  -0.5716
  O  O402  1  0.499210  0.299370  0.719820  1.0  -0.5764
  O  O403  1  0.370910  0.789740  0.501330  1.0  -0.5731
  O  O404  1  0.579550  0.299370  0.800160  1.0  -0.5815
  O  O405  1  0.500790  0.220610  0.800160  1.0  -0.579
  O  O406  1  0.629090  0.130420  0.418830  1.0  -0.5723
  O  O407  1  0.280180  0.500790  0.700630  1.0  -0.5764
  O  O408  1  0.220610  0.719820  0.420450  1.0  -0.577
  O  O409  1  0.800160  0.579550  0.299370  1.0  -0.5816
  O  O410  1  0.288410  0.789740  0.418830  1.0  -0.573
  O  O411  1  0.498670  0.288410  0.869580  1.0  -0.5765
  O  O412  1  0.420450  0.220610  0.719820  1.0  -0.5764
  O  O413  1  0.869580  0.581170  0.370910  1.0  -0.5708
  O  O414  1  0.418830  0.629090  0.130420  1.0  -0.5728
  O  O415  1  0.629090  0.210260  0.498670  1.0  -0.576
  O  O416  1  0.299370  0.800160  0.579550  1.0  -0.5827
  O  O417  1  0.418830  0.288410  0.789740  1.0  -0.5713
  O  O418  1  0.711590  0.210260  0.581170  1.0  -0.5737
  O  O419  1  0.420450  0.700630  0.199840  1.0  -0.5814
  O  O420  1  0.288410  0.869580  0.498670  1.0  -0.5749
  O  O421  1  0.500790  0.700630  0.280180  1.0  -0.576
  O  O422  1  0.581170  0.711590  0.210260  1.0  -0.572
  O  O423  1  0.280180  0.579550  0.779390  1.0  -0.5745
  O  O424  1  0.210260  0.581170  0.711590  1.0  -0.5708
  O  O425  1  0.130420  0.418830  0.629090  1.0  -0.572
  O  O426  1  0.210260  0.498670  0.629090  1.0  -0.5752
  O  O427  1  0.299370  0.719820  0.499210  1.0  -0.578
  O  O428  1  0.501330  0.370910  0.789740  1.0  -0.574
  O  O429  1  0.501330  0.711590  0.130420  1.0  -0.575
  O  O430  1  0.779390  0.280180  0.579550  1.0  -0.5757
  O  O431  1  0.130420  0.501330  0.711590  1.0  -0.5752
  O  O432  1  0.779390  0.199840  0.499210  1.0  -0.5796
  O  O433  1  0.869580  0.498670  0.288410  1.0  -0.5738
  O  O434  1  0.498670  0.629090  0.210260  1.0  -0.5741
  O  O435  1  0.719820  0.420450  0.220610  1.0  -0.5754
  O  O436  1  0.499210  0.779390  0.199840  1.0  -0.5804
  O  O437  1  0.700630  0.199840  0.420450  1.0  -0.5809
  O  O438  1  0.370910  0.869580  0.581170  1.0  -0.5702
  O  O439  1  0.711590  0.130420  0.501330  1.0  -0.5757
  O  O440  1  0.199840  0.499210  0.779390  1.0  -0.58
  O  O441  1  0.220610  0.800160  0.500790  1.0  -0.5816
  O  O442  1  0.579550  0.779390  0.280180  1.0  -0.5751
  O  O443  1  0.800160  0.500790  0.220610  1.0  -0.5785
  O  O444  1  0.719820  0.499210  0.299370  1.0  -0.5766
