# generated using pymatgen
data_LaH5(CO)6
_symmetry_space_group_name_H-M   'P 1'
_cell_length_a   9.53860000
_cell_length_b   14.06790000
_cell_length_c   17.06790000
_cell_angle_alpha   90.00000000
_cell_angle_beta   97.46600000
_cell_angle_gamma   90.00000000
_symmetry_Int_Tables_number   1
_chemical_formula_structural   LaH5(CO)6
_chemical_formula_sum   'La8 H40 C48 O48'
_cell_volume   2270.89166651
_cell_formula_units_Z   8
loop_
 _symmetry_equiv_pos_site_id
 _symmetry_equiv_pos_as_xyz
  1  'x, y, z'
loop_
 _atom_site_type_symbol
 _atom_site_label
 _atom_site_symmetry_multiplicity
 _atom_site_fract_x
 _atom_site_fract_y
 _atom_site_fract_z
 _atom_site_occupancy
 _atom_site_charge
  La  La1  1  0.882730  0.870410  0.528560  1.0  2.1551
  La  La2  1  0.682300  0.628920  0.640400  1.0  2.0641
  La  La3  1  0.617270  0.370410  0.971440  1.0  2.1554
  La  La4  1  0.817700  0.128920  0.859600  1.0  2.0604
  La  La5  1  0.117270  0.129590  0.471440  1.0  2.1552
  La  La6  1  0.317700  0.371080  0.359600  1.0  2.0579
  La  La7  1  0.382730  0.629590  0.028560  1.0  2.1552
  La  La8  1  0.182300  0.871080  0.140400  1.0  2.0612
  H  H9  1  0.349500  0.925400  0.433400  1.0  0.1013
  H  H10  1  0.384500  0.775800  0.546900  1.0  0.1166
  H  H11  1  0.388300  0.883500  0.570600  1.0  0.1617
  H  H12  1  0.293700  0.730800  0.403400  1.0  0.13
  H  H13  1  0.437100  0.777400  0.389300  1.0  0.1336
  H  H14  1  0.180400  0.617500  0.596000  1.0  0.1415
  H  H15  1  0.179700  0.723900  0.622800  1.0  0.1197
  H  H16  1  0.219100  0.570600  0.732100  1.0  0.1083
  H  H17  1  0.123100  0.714800  0.778300  1.0  0.1293
  H  H18  1  0.262200  0.767100  0.764000  1.0  0.138
  H  H19  1  0.150500  0.425400  0.066600  1.0  0.1007
  H  H20  1  0.115500  0.275800  0.953100  1.0  0.1162
  H  H21  1  0.111700  0.383500  0.929400  1.0  0.1639
  H  H22  1  0.206300  0.230800  0.096600  1.0  0.1288
  H  H23  1  0.062900  0.277400  0.110700  1.0  0.1327
  H  H24  1  0.319600  0.117500  0.904000  1.0  0.1416
  H  H25  1  0.320300  0.223900  0.877200  1.0  0.1195
  H  H26  1  0.280900  0.070600  0.767900  1.0  0.1076
  H  H27  1  0.376900  0.214800  0.721700  1.0  0.1302
  H  H28  1  0.237800  0.267100  0.736000  1.0  0.1377
  H  H29  1  0.650500  0.074600  0.566600  1.0  0.101
  H  H30  1  0.615500  0.224200  0.453100  1.0  0.1165
  H  H31  1  0.611700  0.116500  0.429400  1.0  0.1642
  H  H32  1  0.706300  0.269200  0.596600  1.0  0.1325
  H  H33  1  0.562900  0.222600  0.610700  1.0  0.1322
  H  H34  1  0.819600  0.382500  0.404000  1.0  0.141
  H  H35  1  0.820300  0.276100  0.377200  1.0  0.1188
  H  H36  1  0.780900  0.429400  0.267900  1.0  0.1074
  H  H37  1  0.876900  0.285200  0.221700  1.0  0.1298
  H  H38  1  0.737800  0.232900  0.236000  1.0  0.1385
  H  H39  1  0.849500  0.574600  0.933400  1.0  0.1007
  H  H40  1  0.884500  0.724200  0.046900  1.0  0.1163
  H  H41  1  0.888300  0.616500  0.070600  1.0  0.163
  H  H42  1  0.793700  0.769200  0.903400  1.0  0.1318
  H  H43  1  0.937100  0.722600  0.889300  1.0  0.1337
  H  H44  1  0.680400  0.882500  0.096000  1.0  0.1409
  H  H45  1  0.679700  0.776100  0.122800  1.0  0.1189
  H  H46  1  0.719100  0.929400  0.232100  1.0  0.1084
  H  H47  1  0.623100  0.785200  0.278300  1.0  0.1294
  H  H48  1  0.762200  0.732900  0.264000  1.0  0.1376
  C  C49  1  0.168800  0.870800  0.468200  1.0  0.7317
  C  C50  1  0.319600  0.863500  0.451600  1.0  -0.0851
  C  C51  1  0.409900  0.838900  0.530500  1.0  -0.3535
  C  C52  1  0.566500  0.841600  0.525700  1.0  0.7839
  C  C53  1  0.336900  0.789500  0.388800  1.0  -0.3331
  C  C54  1  0.274700  0.814400  0.304900  1.0  0.7414
  C  C55  1  0.999600  0.653800  0.640300  1.0  0.7822
  C  C56  1  0.156400  0.659700  0.637200  1.0  -0.3457
  C  C57  1  0.247600  0.633400  0.715000  1.0  -0.0603
  C  C58  1  0.224100  0.706600  0.778400  1.0  -0.3367
  C  C59  1  0.289500  0.682100  0.862000  1.0  0.7421
  C  C60  1  0.399100  0.629100  0.699300  1.0  0.6916
  C  C61  1  0.331200  0.370800  0.031800  1.0  0.7327
  C  C62  1  0.180400  0.363500  0.048400  1.0  -0.0849
  C  C63  1  0.090100  0.338900  0.969500  1.0  -0.3526
  C  C64  1  0.933500  0.341600  0.974300  1.0  0.7859
  C  C65  1  0.163100  0.289500  0.111200  1.0  -0.3338
  C  C66  1  0.225300  0.314400  0.195100  1.0  0.74
  C  C67  1  0.500400  0.153800  0.859700  1.0  0.7816
  C  C68  1  0.343600  0.159700  0.862800  1.0  -0.348
  C  C69  1  0.252400  0.133400  0.785000  1.0  -0.0597
  C  C70  1  0.275900  0.206600  0.721600  1.0  -0.3353
  C  C71  1  0.210500  0.182100  0.638000  1.0  0.7423
  C  C72  1  0.100900  0.129100  0.800700  1.0  0.6927
  C  C73  1  0.831200  0.129200  0.531800  1.0  0.7339
  C  C74  1  0.680400  0.136500  0.548400  1.0  -0.0856
  C  C75  1  0.590100  0.161100  0.469500  1.0  -0.3531
  C  C76  1  0.433500  0.158400  0.474300  1.0  0.7858
  C  C77  1  0.663100  0.210500  0.611200  1.0  -0.3348
  C  C78  1  0.725300  0.185600  0.695100  1.0  0.7398
  C  C79  1  0.000400  0.346200  0.359700  1.0  0.7808
  C  C80  1  0.843600  0.340300  0.362800  1.0  -0.348
  C  C81  1  0.752400  0.366600  0.285000  1.0  -0.0615
  C  C82  1  0.775900  0.293400  0.221600  1.0  -0.3351
  C  C83  1  0.710500  0.317900  0.138000  1.0  0.7422
  C  C84  1  0.600900  0.370900  0.300700  1.0  0.6921
  C  C85  1  0.668800  0.629200  0.968200  1.0  0.7319
  C  C86  1  0.819600  0.636500  0.951600  1.0  -0.0857
  C  C87  1  0.909900  0.661100  0.030500  1.0  -0.3533
  C  C88  1  0.066500  0.658400  0.025700  1.0  0.7834
  C  C89  1  0.836900  0.710500  0.888800  1.0  -0.3348
  C  C90  1  0.774700  0.685600  0.804900  1.0  0.741
  C  C91  1  0.499600  0.846200  0.140300  1.0  0.7825
  C  C92  1  0.656400  0.840300  0.137200  1.0  -0.3451
  C  C93  1  0.747600  0.866600  0.215000  1.0  -0.062
  C  C94  1  0.724100  0.793400  0.278400  1.0  -0.3362
  C  C95  1  0.789500  0.817900  0.362000  1.0  0.7423
  C  C96  1  0.899100  0.870900  0.199300  1.0  0.6902
  O  O97  1  0.115900  0.952100  0.479100  1.0  -0.8263
  O  O98  1  0.098200  0.797200  0.476100  1.0  -0.6422
  O  O99  1  0.647300  0.780800  0.563600  1.0  -0.8242
  O  O100  1  0.618400  0.907100  0.488900  1.0  -0.6304
  O  O101  1  0.223400  0.896900  0.289400  1.0  -0.6644
  O  O102  1  0.278900  0.753000  0.252200  1.0  -0.6571
  O  O103  1  0.919300  0.715300  0.601500  1.0  -0.824
  O  O104  1  0.950000  0.590900  0.679600  1.0  -0.6418
  O  O105  1  0.283500  0.744200  0.914600  1.0  -0.6971
  O  O106  1  0.344200  0.602200  0.877900  1.0  -0.6694
  O  O107  1  0.451200  0.550600  0.683300  1.0  -0.7125
  O  O108  1  0.470400  0.704800  0.696700  1.0  -0.6625
  O  O109  1  0.384100  0.452100  0.020900  1.0  -0.8248
  O  O110  1  0.401800  0.297200  0.023900  1.0  -0.6426
  O  O111  1  0.852700  0.280800  0.936400  1.0  -0.8275
  O  O112  1  0.881600  0.407100  0.011100  1.0  -0.631
  O  O113  1  0.276600  0.396900  0.210600  1.0  -0.6632
  O  O114  1  0.221100  0.253000  0.247800  1.0  -0.6568
  O  O115  1  0.580700  0.215300  0.898500  1.0  -0.8236
  O  O116  1  0.550000  0.090900  0.820400  1.0  -0.6418
  O  O117  1  0.216500  0.244200  0.585400  1.0  -0.6958
  O  O118  1  0.155800  0.102200  0.622100  1.0  -0.6705
  O  O119  1  0.048800  0.050600  0.816700  1.0  -0.7133
  O  O120  1  0.029600  0.204800  0.803300  1.0  -0.6633
  O  O121  1  0.884100  0.047900  0.520900  1.0  -0.8277
  O  O122  1  0.901800  0.202800  0.523900  1.0  -0.6425
  O  O123  1  0.352700  0.219200  0.436400  1.0  -0.8293
  O  O124  1  0.381600  0.092900  0.511100  1.0  -0.6297
  O  O125  1  0.776600  0.103100  0.710600  1.0  -0.6626
  O  O126  1  0.721100  0.247000  0.747800  1.0  -0.6583
  O  O127  1  0.080700  0.284700  0.398500  1.0  -0.8225
  O  O128  1  0.050000  0.409100  0.320400  1.0  -0.64
  O  O129  1  0.716500  0.255800  0.085400  1.0  -0.6954
  O  O130  1  0.655800  0.397800  0.122100  1.0  -0.671
  O  O131  1  0.548800  0.449400  0.316700  1.0  -0.7172
  O  O132  1  0.529600  0.295200  0.303300  1.0  -0.661
  O  O133  1  0.615900  0.547900  0.979100  1.0  -0.827
  O  O134  1  0.598200  0.702800  0.976100  1.0  -0.6431
  O  O135  1  0.147300  0.719200  0.063600  1.0  -0.8256
  O  O136  1  0.118400  0.592900  0.988900  1.0  -0.6295
  O  O137  1  0.723400  0.603100  0.789400  1.0  -0.6634
  O  O138  1  0.778900  0.747000  0.752200  1.0  -0.657
  O  O139  1  0.419300  0.784700  0.101500  1.0  -0.8223
  O  O140  1  0.450000  0.909100  0.179600  1.0  -0.6417
  O  O141  1  0.783500  0.755800  0.414600  1.0  -0.6946
  O  O142  1  0.844200  0.897800  0.377900  1.0  -0.6708
  O  O143  1  0.951200  0.949400  0.183300  1.0  -0.7168
  O  O144  1  0.970400  0.795200  0.196700  1.0  -0.6616
