# generated using pymatgen
data_Cu4H6C18SeO15
_symmetry_space_group_name_H-M   'P 1'
_cell_length_a   41.03630000
_cell_length_b   12.17330000
_cell_length_c   14.16090000
_cell_angle_alpha   90.00000000
_cell_angle_beta   100.86900000
_cell_angle_gamma   90.00000000
_symmetry_Int_Tables_number   1
_chemical_formula_structural   Cu4H6C18SeO15
_chemical_formula_sum   'Cu32 H48 C144 Se8 O120'
_cell_volume   6947.13579689
_cell_formula_units_Z   8
loop_
 _symmetry_equiv_pos_site_id
 _symmetry_equiv_pos_as_xyz
  1  'x, y, z'
loop_
 _atom_site_type_symbol
 _atom_site_label
 _atom_site_symmetry_multiplicity
 _atom_site_fract_x
 _atom_site_fract_y
 _atom_site_fract_z
 _atom_site_occupancy
 _atom_site_charge
  Cu  Cu1  1  0.725450  0.320850  0.492660  1.0  0.938
  Cu  Cu2  1  0.561960  0.997220  0.954260  1.0  1.0385
  Cu  Cu3  1  0.549280  0.225120  0.079500  1.0  1.028
  Cu  Cu4  1  0.541050  0.218160  0.323170  1.0  1.0469
  Cu  Cu5  1  0.225450  0.820850  0.492660  1.0  0.938
  Cu  Cu6  1  0.061960  0.497220  0.954260  1.0  1.0385
  Cu  Cu7  1  0.049280  0.725120  0.079500  1.0  1.028
  Cu  Cu8  1  0.041050  0.718160  0.323170  1.0  1.0469
  Cu  Cu9  1  0.274550  0.320850  0.007340  1.0  0.9378
  Cu  Cu10  1  0.438040  0.997220  0.545740  1.0  1.0389
  Cu  Cu11  1  0.450720  0.225120  0.420500  1.0  1.0288
  Cu  Cu12  1  0.458950  0.218160  0.176830  1.0  1.049
  Cu  Cu13  1  0.774550  0.820850  0.007340  1.0  0.9378
  Cu  Cu14  1  0.938040  0.497220  0.545740  1.0  1.0389
  Cu  Cu15  1  0.950720  0.725120  0.420500  1.0  1.0288
  Cu  Cu16  1  0.958950  0.718160  0.176830  1.0  1.049
  Cu  Cu17  1  0.274550  0.679150  0.507340  1.0  0.938
  Cu  Cu18  1  0.438040  0.002780  0.045740  1.0  1.04
  Cu  Cu19  1  0.450720  0.774880  0.920500  1.0  1.0285
  Cu  Cu20  1  0.458950  0.781840  0.676830  1.0  1.049
  Cu  Cu21  1  0.774550  0.179150  0.507340  1.0  0.938
  Cu  Cu22  1  0.938040  0.502780  0.045740  1.0  1.04
  Cu  Cu23  1  0.950720  0.274880  0.920500  1.0  1.0285
  Cu  Cu24  1  0.958950  0.281840  0.676830  1.0  1.049
  Cu  Cu25  1  0.725450  0.679150  0.992660  1.0  0.9393
  Cu  Cu26  1  0.561960  0.002780  0.454260  1.0  1.0393
  Cu  Cu27  1  0.549280  0.774880  0.579500  1.0  1.0281
  Cu  Cu28  1  0.541050  0.781840  0.823170  1.0  1.047
  Cu  Cu29  1  0.225450  0.179150  0.992660  1.0  0.9393
  Cu  Cu30  1  0.061960  0.502780  0.454260  1.0  1.0393
  Cu  Cu31  1  0.049280  0.274880  0.579500  1.0  1.0281
  Cu  Cu32  1  0.041050  0.281840  0.823170  1.0  1.047
  H  H33  1  0.656400  0.933100  0.057600  1.0  0.1496
  H  H34  1  0.655100  0.172600  0.253500  1.0  0.1509
  H  H35  1  0.739400  0.005400  0.248000  1.0  0.151
  H  H36  1  0.558600  0.159500  0.706500  1.0  0.1339
  H  H37  1  0.550000  0.443100  0.561100  1.0  0.1454
  H  H38  1  0.551300  0.442600  0.846800  1.0  0.1477
  H  H39  1  0.156400  0.433100  0.057600  1.0  0.1496
  H  H40  1  0.155100  0.672600  0.253500  1.0  0.1509
  H  H41  1  0.239400  0.505400  0.248000  1.0  0.151
  H  H42  1  0.058600  0.659500  0.706500  1.0  0.1339
  H  H43  1  0.050000  0.943100  0.561100  1.0  0.1454
  H  H44  1  0.051300  0.942600  0.846800  1.0  0.1477
  H  H45  1  0.343600  0.933100  0.442400  1.0  0.149
  H  H46  1  0.344900  0.172600  0.246500  1.0  0.1513
  H  H47  1  0.260600  0.005400  0.252000  1.0  0.1519
  H  H48  1  0.441400  0.159500  0.793500  1.0  0.1329
  H  H49  1  0.450000  0.443100  0.938900  1.0  0.1452
  H  H50  1  0.448700  0.442600  0.653200  1.0  0.1472
  H  H51  1  0.843600  0.433100  0.442400  1.0  0.149
  H  H52  1  0.844900  0.672600  0.246500  1.0  0.1513
  H  H53  1  0.760600  0.505400  0.252000  1.0  0.1519
  H  H54  1  0.941400  0.659500  0.793500  1.0  0.1329
  H  H55  1  0.950000  0.943100  0.938900  1.0  0.1452
  H  H56  1  0.948700  0.942600  0.653200  1.0  0.1472
  H  H57  1  0.343600  0.066900  0.942400  1.0  0.1491
  H  H58  1  0.344900  0.827400  0.746500  1.0  0.151
  H  H59  1  0.260600  0.994600  0.752000  1.0  0.1519
  H  H60  1  0.441400  0.840500  0.293500  1.0  0.1348
  H  H61  1  0.450000  0.556900  0.438900  1.0  0.1454
  H  H62  1  0.448700  0.557400  0.153200  1.0  0.1469
  H  H63  1  0.843600  0.566900  0.942400  1.0  0.1491
  H  H64  1  0.844900  0.327400  0.746500  1.0  0.151
  H  H65  1  0.760600  0.494600  0.752000  1.0  0.1519
  H  H66  1  0.941400  0.340500  0.293500  1.0  0.1348
  H  H67  1  0.950000  0.056900  0.438900  1.0  0.1454
  H  H68  1  0.948700  0.057400  0.153200  1.0  0.1469
  H  H69  1  0.656400  0.066900  0.557600  1.0  0.1497
  H  H70  1  0.655100  0.827400  0.753500  1.0  0.151
  H  H71  1  0.739400  0.994600  0.748000  1.0  0.151
  H  H72  1  0.558600  0.840500  0.206500  1.0  0.134
  H  H73  1  0.550000  0.556900  0.061100  1.0  0.1451
  H  H74  1  0.551300  0.557400  0.346800  1.0  0.1477
  H  H75  1  0.156400  0.566900  0.557600  1.0  0.1497
  H  H76  1  0.155100  0.327400  0.753500  1.0  0.151
  H  H77  1  0.239400  0.494600  0.748000  1.0  0.151
  H  H78  1  0.058600  0.340500  0.206500  1.0  0.134
  H  H79  1  0.050000  0.056900  0.061100  1.0  0.1451
  H  H80  1  0.051300  0.057400  0.346800  1.0  0.1477
  C  C81  1  0.719800  0.875900  0.096600  1.0  0.7305
  C  C82  1  0.700800  0.956700  0.145500  1.0  -0.0923
  C  C83  1  0.667400  0.975200  0.108600  1.0  0.046
  C  C84  1  0.650600  0.057000  0.148400  1.0  -0.1192
  C  C85  1  0.666500  0.118500  0.226700  1.0  0.05
  C  C86  1  0.699800  0.097400  0.264200  1.0  -0.1207
  C  C87  1  0.717100  0.017800  0.223400  1.0  0.0371
  C  C88  1  0.717700  0.160000  0.350500  1.0  0.717
  C  C89  1  0.614200  0.077100  0.102800  1.0  0.7503
  C  C90  1  0.557600  0.224400  0.881000  1.0  0.7675
  C  C91  1  0.555900  0.291100  0.791200  1.0  -0.1413
  C  C92  1  0.556400  0.235500  0.705800  1.0  0.0432
  C  C93  1  0.553800  0.292000  0.619500  1.0  -0.1139
  C  C94  1  0.551500  0.404900  0.618600  1.0  0.0657
  C  C95  1  0.551300  0.462300  0.704700  1.0  -0.1184
  C  C96  1  0.552600  0.405000  0.790400  1.0  0.0692
  C  C97  1  0.551300  0.585600  0.706000  1.0  0.7423
  C  C98  1  0.553600  0.226600  0.528800  1.0  0.75
  C  C99  1  0.219800  0.375900  0.096600  1.0  0.7305
  C  C100  1  0.200800  0.456700  0.145500  1.0  -0.0923
  C  C101  1  0.167400  0.475200  0.108600  1.0  0.046
  C  C102  1  0.150600  0.557000  0.148400  1.0  -0.1192
  C  C103  1  0.166500  0.618500  0.226700  1.0  0.05
  C  C104  1  0.199800  0.597400  0.264200  1.0  -0.1207
  C  C105  1  0.217100  0.517800  0.223400  1.0  0.0371
  C  C106  1  0.217700  0.660000  0.350500  1.0  0.717
  C  C107  1  0.114200  0.577100  0.102800  1.0  0.7503
  C  C108  1  0.057600  0.724400  0.881000  1.0  0.7675
  C  C109  1  0.055900  0.791100  0.791200  1.0  -0.1413
  C  C110  1  0.056400  0.735500  0.705800  1.0  0.0432
  C  C111  1  0.053800  0.792000  0.619500  1.0  -0.1139
  C  C112  1  0.051500  0.904900  0.618600  1.0  0.0657
  C  C113  1  0.051300  0.962300  0.704700  1.0  -0.1184
  C  C114  1  0.052600  0.905000  0.790400  1.0  0.0692
  C  C115  1  0.051300  0.085600  0.706000  1.0  0.7423
  C  C116  1  0.053600  0.726600  0.528800  1.0  0.75
  C  C117  1  0.280200  0.875900  0.403400  1.0  0.7313
  C  C118  1  0.299200  0.956700  0.354500  1.0  -0.0921
  C  C119  1  0.332600  0.975200  0.391400  1.0  0.0468
  C  C120  1  0.349400  0.057000  0.351600  1.0  -0.1192
  C  C121  1  0.333500  0.118500  0.273300  1.0  0.0501
  C  C122  1  0.300200  0.097400  0.235800  1.0  -0.1211
  C  C123  1  0.282900  0.017800  0.276600  1.0  0.0338
  C  C124  1  0.282300  0.160000  0.149500  1.0  0.7169
  C  C125  1  0.385800  0.077100  0.397200  1.0  0.7493
  C  C126  1  0.442400  0.224400  0.619000  1.0  0.7671
  C  C127  1  0.444100  0.291100  0.708800  1.0  -0.1415
  C  C128  1  0.443600  0.235500  0.794200  1.0  0.0424
  C  C129  1  0.446200  0.292000  0.880500  1.0  -0.1147
  C  C130  1  0.448500  0.404900  0.881400  1.0  0.0664
  C  C131  1  0.448700  0.462300  0.795300  1.0  -0.1197
  C  C132  1  0.447400  0.405000  0.709600  1.0  0.0714
  C  C133  1  0.448700  0.585600  0.794000  1.0  0.7426
  C  C134  1  0.446400  0.226600  0.971200  1.0  0.7491
  C  C135  1  0.780200  0.375900  0.403400  1.0  0.7313
  C  C136  1  0.799200  0.456700  0.354500  1.0  -0.0921
  C  C137  1  0.832600  0.475200  0.391400  1.0  0.0468
  C  C138  1  0.849400  0.557000  0.351600  1.0  -0.1192
  C  C139  1  0.833500  0.618500  0.273300  1.0  0.0501
  C  C140  1  0.800200  0.597400  0.235800  1.0  -0.1211
  C  C141  1  0.782900  0.517800  0.276600  1.0  0.0338
  C  C142  1  0.782300  0.660000  0.149500  1.0  0.7169
  C  C143  1  0.885800  0.577100  0.397200  1.0  0.7493
  C  C144  1  0.942400  0.724400  0.619000  1.0  0.7671
  C  C145  1  0.944100  0.791100  0.708800  1.0  -0.1415
  C  C146  1  0.943600  0.735500  0.794200  1.0  0.0424
  C  C147  1  0.946200  0.792000  0.880500  1.0  -0.1147
  C  C148  1  0.948500  0.904900  0.881400  1.0  0.0664
  C  C149  1  0.948700  0.962300  0.795300  1.0  -0.1197
  C  C150  1  0.947400  0.905000  0.709600  1.0  0.0714
  C  C151  1  0.948700  0.085600  0.794000  1.0  0.7426
  C  C152  1  0.946400  0.726600  0.971200  1.0  0.7491
  C  C153  1  0.280200  0.124100  0.903400  1.0  0.7315
  C  C154  1  0.299200  0.043300  0.854500  1.0  -0.0917
  C  C155  1  0.332600  0.024800  0.891400  1.0  0.0464
  C  C156  1  0.349400  0.943000  0.851600  1.0  -0.1192
  C  C157  1  0.333500  0.881500  0.773300  1.0  0.0503
  C  C158  1  0.300200  0.902600  0.735800  1.0  -0.1216
  C  C159  1  0.282900  0.982200  0.776600  1.0  0.0335
  C  C160  1  0.282300  0.840000  0.649500  1.0  0.7166
  C  C161  1  0.385800  0.922900  0.897200  1.0  0.7497
  C  C162  1  0.442400  0.775600  0.119000  1.0  0.7672
  C  C163  1  0.444100  0.708900  0.208800  1.0  -0.1411
  C  C164  1  0.443600  0.764500  0.294200  1.0  0.0412
  C  C165  1  0.446200  0.708000  0.380500  1.0  -0.1147
  C  C166  1  0.448500  0.595100  0.381400  1.0  0.0663
  C  C167  1  0.448700  0.537700  0.295300  1.0  -0.12
  C  C168  1  0.447400  0.595000  0.209600  1.0  0.0707
  C  C169  1  0.448700  0.414400  0.294000  1.0  0.7415
  C  C170  1  0.446400  0.773400  0.471200  1.0  0.7501
  C  C171  1  0.780200  0.624100  0.903400  1.0  0.7315
  C  C172  1  0.799200  0.543300  0.854500  1.0  -0.0917
  C  C173  1  0.832600  0.524800  0.891400  1.0  0.0464
  C  C174  1  0.849400  0.443000  0.851600  1.0  -0.1192
  C  C175  1  0.833500  0.381500  0.773300  1.0  0.0503
  C  C176  1  0.800200  0.402600  0.735800  1.0  -0.1216
  C  C177  1  0.782900  0.482200  0.776600  1.0  0.0335
  C  C178  1  0.782300  0.340000  0.649500  1.0  0.7166
  C  C179  1  0.885800  0.422900  0.897200  1.0  0.7497
  C  C180  1  0.942400  0.275600  0.119000  1.0  0.7672
  C  C181  1  0.944100  0.208900  0.208800  1.0  -0.1411
  C  C182  1  0.943600  0.264500  0.294200  1.0  0.0412
  C  C183  1  0.946200  0.208000  0.380500  1.0  -0.1147
  C  C184  1  0.948500  0.095100  0.381400  1.0  0.0663
  C  C185  1  0.948700  0.037700  0.295300  1.0  -0.12
  C  C186  1  0.947400  0.095000  0.209600  1.0  0.0707
  C  C187  1  0.948700  0.914400  0.294000  1.0  0.7415
  C  C188  1  0.946400  0.273400  0.471200  1.0  0.7501
  C  C189  1  0.719800  0.124100  0.596600  1.0  0.7308
  C  C190  1  0.700800  0.043300  0.645500  1.0  -0.0921
  C  C191  1  0.667400  0.024800  0.608600  1.0  0.046
  C  C192  1  0.650600  0.943000  0.648400  1.0  -0.1191
  C  C193  1  0.666500  0.881500  0.726700  1.0  0.0512
  C  C194  1  0.699800  0.902600  0.764200  1.0  -0.1208
  C  C195  1  0.717100  0.982200  0.723400  1.0  0.0368
  C  C196  1  0.717700  0.840000  0.850500  1.0  0.7167
  C  C197  1  0.614200  0.922900  0.602800  1.0  0.7506
  C  C198  1  0.557600  0.775600  0.381000  1.0  0.7676
  C  C199  1  0.555900  0.708900  0.291200  1.0  -0.1414
  C  C200  1  0.556400  0.764500  0.205800  1.0  0.0408
  C  C201  1  0.553800  0.708000  0.119500  1.0  -0.1136
  C  C202  1  0.551500  0.595100  0.118600  1.0  0.0658
  C  C203  1  0.551300  0.537700  0.204700  1.0  -0.1186
  C  C204  1  0.552600  0.595000  0.290400  1.0  0.0694
  C  C205  1  0.551300  0.414400  0.206000  1.0  0.7424
  C  C206  1  0.553600  0.773400  0.028800  1.0  0.7503
  C  C207  1  0.219800  0.624100  0.596600  1.0  0.7308
  C  C208  1  0.200800  0.543300  0.645500  1.0  -0.0921
  C  C209  1  0.167400  0.524800  0.608600  1.0  0.046
  C  C210  1  0.150600  0.443000  0.648400  1.0  -0.1191
  C  C211  1  0.166500  0.381500  0.726700  1.0  0.0512
  C  C212  1  0.199800  0.402600  0.764200  1.0  -0.1208
  C  C213  1  0.217100  0.482200  0.723400  1.0  0.0368
  C  C214  1  0.217700  0.340000  0.850500  1.0  0.7167
  C  C215  1  0.114200  0.422900  0.602800  1.0  0.7506
  C  C216  1  0.057600  0.275600  0.381000  1.0  0.7676
  C  C217  1  0.055900  0.208900  0.291200  1.0  -0.1414
  C  C218  1  0.056400  0.264500  0.205800  1.0  0.0408
  C  C219  1  0.053800  0.208000  0.119500  1.0  -0.1136
  C  C220  1  0.051500  0.095100  0.118600  1.0  0.0658
  C  C221  1  0.051300  0.037700  0.204700  1.0  -0.1186
  C  C222  1  0.052600  0.095000  0.290400  1.0  0.0694
  C  C223  1  0.051300  0.914400  0.206000  1.0  0.7424
  C  C224  1  0.053600  0.273400  0.028800  1.0  0.7503
  Se  Se225  1  0.516360  0.047160  0.138020  1.0  0.4099
  Se  Se226  1  0.016360  0.547160  0.138020  1.0  0.4099
  Se  Se227  1  0.483640  0.047160  0.361980  1.0  0.4105
  Se  Se228  1  0.983640  0.547160  0.361980  1.0  0.4105
  Se  Se229  1  0.483640  0.952840  0.861980  1.0  0.4111
  Se  Se230  1  0.983640  0.452840  0.861980  1.0  0.4111
  Se  Se231  1  0.516360  0.952840  0.638020  1.0  0.41
  Se  Se232  1  0.016360  0.452840  0.638020  1.0  0.41
  O  O233  1  0.705300  0.786500  0.068200  1.0  -0.546
  O  O234  1  0.748450  0.903100  0.086600  1.0  -0.5502
  O  O235  1  0.745910  0.124400  0.390000  1.0  -0.5655
  O  O236  1  0.703490  0.242900  0.377100  1.0  -0.5319
  O  O237  1  0.605570  0.037600  0.019800  1.0  -0.5748
  O  O238  1  0.596280  0.130500  0.148200  1.0  -0.5465
  O  O239  1  0.557900  0.276400  0.959100  1.0  -0.5886
  O  O240  1  0.558380  0.122800  0.870800  1.0  -0.5603
  O  O241  1  0.557800  0.630800  0.630700  1.0  -0.5684
  O  O242  1  0.545170  0.631400  0.779100  1.0  -0.5787
  O  O243  1  0.545660  0.276700  0.450400  1.0  -0.5551
  O  O244  1  0.562140  0.127300  0.540400  1.0  -0.55
  O  O245  1  0.523110  0.089900  0.029500  1.0  -0.8163
  O  O246  1  0.530710  0.171100  0.190500  1.0  -0.9372
  O  O247  1  0.475780  0.069900  0.138200  1.0  -0.9314
  O  O248  1  0.205300  0.286500  0.068200  1.0  -0.546
  O  O249  1  0.248450  0.403100  0.086600  1.0  -0.5502
  O  O250  1  0.245910  0.624400  0.390000  1.0  -0.5655
  O  O251  1  0.203490  0.742900  0.377100  1.0  -0.5319
  O  O252  1  0.105570  0.537600  0.019800  1.0  -0.5748
  O  O253  1  0.096280  0.630500  0.148200  1.0  -0.5465
  O  O254  1  0.057900  0.776400  0.959100  1.0  -0.5886
  O  O255  1  0.058380  0.622800  0.870800  1.0  -0.5603
  O  O256  1  0.057800  0.130800  0.630700  1.0  -0.5684
  O  O257  1  0.045170  0.131400  0.779100  1.0  -0.5787
  O  O258  1  0.045660  0.776700  0.450400  1.0  -0.5551
  O  O259  1  0.062140  0.627300  0.540400  1.0  -0.55
  O  O260  1  0.023110  0.589900  0.029500  1.0  -0.8163
  O  O261  1  0.030710  0.671100  0.190500  1.0  -0.9372
  O  O262  1  0.975780  0.569900  0.138200  1.0  -0.9314
  O  O263  1  0.294700  0.786500  0.431800  1.0  -0.5473
  O  O264  1  0.251550  0.903100  0.413400  1.0  -0.5493
  O  O265  1  0.254090  0.124400  0.110000  1.0  -0.5645
  O  O266  1  0.296510  0.242900  0.122900  1.0  -0.5326
  O  O267  1  0.394430  0.037600  0.480200  1.0  -0.5755
  O  O268  1  0.403720  0.130500  0.351800  1.0  -0.5454
  O  O269  1  0.442100  0.276400  0.540900  1.0  -0.5897
  O  O270  1  0.441620  0.122800  0.629200  1.0  -0.5612
  O  O271  1  0.442200  0.630800  0.869300  1.0  -0.5695
  O  O272  1  0.454830  0.631400  0.720900  1.0  -0.5787
  O  O273  1  0.454340  0.276700  0.049600  1.0  -0.5552
  O  O274  1  0.437860  0.127300  0.959600  1.0  -0.5506
  O  O275  1  0.476890  0.089900  0.470500  1.0  -0.8171
  O  O276  1  0.469290  0.171100  0.309500  1.0  -0.9364
  O  O277  1  0.524220  0.069900  0.361800  1.0  -0.9319
  O  O278  1  0.794700  0.286500  0.431800  1.0  -0.5473
  O  O279  1  0.751550  0.403100  0.413400  1.0  -0.5493
  O  O280  1  0.754090  0.624400  0.110000  1.0  -0.5645
  O  O281  1  0.796510  0.742900  0.122900  1.0  -0.5326
  O  O282  1  0.894430  0.537600  0.480200  1.0  -0.5755
  O  O283  1  0.903720  0.630500  0.351800  1.0  -0.5454
  O  O284  1  0.942100  0.776400  0.540900  1.0  -0.5897
  O  O285  1  0.941620  0.622800  0.629200  1.0  -0.5612
  O  O286  1  0.942200  0.130800  0.869300  1.0  -0.5695
  O  O287  1  0.954830  0.131400  0.720900  1.0  -0.5787
  O  O288  1  0.954340  0.776700  0.049600  1.0  -0.5552
  O  O289  1  0.937860  0.627300  0.959600  1.0  -0.5506
  O  O290  1  0.976890  0.589900  0.470500  1.0  -0.8171
  O  O291  1  0.969290  0.671100  0.309500  1.0  -0.9364
  O  O292  1  0.024220  0.569900  0.361800  1.0  -0.9319
  O  O293  1  0.294700  0.213500  0.931800  1.0  -0.5466
  O  O294  1  0.251550  0.096900  0.913400  1.0  -0.5497
  O  O295  1  0.254090  0.875600  0.610000  1.0  -0.5653
  O  O296  1  0.296510  0.757100  0.622900  1.0  -0.5331
  O  O297  1  0.394430  0.962400  0.980200  1.0  -0.5757
  O  O298  1  0.403720  0.869500  0.851800  1.0  -0.5461
  O  O299  1  0.442100  0.723600  0.040900  1.0  -0.5882
  O  O300  1  0.441620  0.877200  0.129200  1.0  -0.5604
  O  O301  1  0.442200  0.369200  0.369300  1.0  -0.5695
  O  O302  1  0.454830  0.368600  0.220900  1.0  -0.5791
  O  O303  1  0.454340  0.723300  0.549600  1.0  -0.5544
  O  O304  1  0.437860  0.872700  0.459600  1.0  -0.5507
  O  O305  1  0.476890  0.910100  0.970500  1.0  -0.8164
  O  O306  1  0.469290  0.828900  0.809500  1.0  -0.9379
  O  O307  1  0.524220  0.930100  0.861800  1.0  -0.9315
  O  O308  1  0.794700  0.713500  0.931800  1.0  -0.5466
  O  O309  1  0.751550  0.596900  0.913400  1.0  -0.5497
  O  O310  1  0.754090  0.375600  0.610000  1.0  -0.5653
  O  O311  1  0.796510  0.257100  0.622900  1.0  -0.5331
  O  O312  1  0.894430  0.462400  0.980200  1.0  -0.5757
  O  O313  1  0.903720  0.369500  0.851800  1.0  -0.5461
  O  O314  1  0.942100  0.223600  0.040900  1.0  -0.5882
  O  O315  1  0.941620  0.377200  0.129200  1.0  -0.5604
  O  O316  1  0.942200  0.869200  0.369300  1.0  -0.5695
  O  O317  1  0.954830  0.868600  0.220900  1.0  -0.5791
  O  O318  1  0.954340  0.223300  0.549600  1.0  -0.5544
  O  O319  1  0.937860  0.372700  0.459600  1.0  -0.5507
  O  O320  1  0.976890  0.410100  0.970500  1.0  -0.8164
  O  O321  1  0.969290  0.328900  0.809500  1.0  -0.9379
  O  O322  1  0.024220  0.430100  0.861800  1.0  -0.9315
  O  O323  1  0.705300  0.213500  0.568200  1.0  -0.5475
  O  O324  1  0.748450  0.096900  0.586600  1.0  -0.5502
  O  O325  1  0.745910  0.875600  0.890000  1.0  -0.5659
  O  O326  1  0.703490  0.757100  0.877100  1.0  -0.5315
  O  O327  1  0.605570  0.962400  0.519800  1.0  -0.5751
  O  O328  1  0.596280  0.869500  0.648200  1.0  -0.5471
  O  O329  1  0.557900  0.723600  0.459100  1.0  -0.5872
  O  O330  1  0.558380  0.877200  0.370800  1.0  -0.559
  O  O331  1  0.557800  0.369200  0.130700  1.0  -0.5689
  O  O332  1  0.545170  0.368600  0.279100  1.0  -0.5795
  O  O333  1  0.545660  0.723300  0.950400  1.0  -0.5548
  O  O334  1  0.562140  0.872700  0.040400  1.0  -0.5508
  O  O335  1  0.523110  0.910100  0.529500  1.0  -0.8155
  O  O336  1  0.530710  0.828900  0.690500  1.0  -0.9373
  O  O337  1  0.475780  0.930100  0.638200  1.0  -0.9309
  O  O338  1  0.205300  0.713500  0.568200  1.0  -0.5475
  O  O339  1  0.248450  0.596900  0.586600  1.0  -0.5502
  O  O340  1  0.245910  0.375600  0.890000  1.0  -0.5659
  O  O341  1  0.203490  0.257100  0.877100  1.0  -0.5315
  O  O342  1  0.105570  0.462400  0.519800  1.0  -0.5751
  O  O343  1  0.096280  0.369500  0.648200  1.0  -0.5471
  O  O344  1  0.057900  0.223600  0.459100  1.0  -0.5872
  O  O345  1  0.058380  0.377200  0.370800  1.0  -0.559
  O  O346  1  0.057800  0.869200  0.130700  1.0  -0.5689
  O  O347  1  0.045170  0.868600  0.279100  1.0  -0.5795
  O  O348  1  0.045660  0.223300  0.950400  1.0  -0.5548
  O  O349  1  0.062140  0.372700  0.040400  1.0  -0.5508
  O  O350  1  0.023110  0.410100  0.529500  1.0  -0.8155
  O  O351  1  0.030710  0.328900  0.690500  1.0  -0.9373
  O  O352  1  0.975780  0.430100  0.638200  1.0  -0.9309
