# generated using pymatgen
data_ZnH2(C5O4)2
_symmetry_space_group_name_H-M   'P 1'
_cell_length_a   18.93810000
_cell_length_b   18.93810000
_cell_length_c   21.20080000
_cell_angle_alpha   90.00000000
_cell_angle_beta   90.00000000
_cell_angle_gamma   90.00000000
_symmetry_Int_Tables_number   1
_chemical_formula_structural   ZnH2(C5O4)2
_chemical_formula_sum   'Zn16 H32 C160 O128'
_cell_volume   7603.70151144
_cell_formula_units_Z   16
loop_
 _symmetry_equiv_pos_site_id
 _symmetry_equiv_pos_as_xyz
  1  'x, y, z'
loop_
 _atom_site_type_symbol
 _atom_site_label
 _atom_site_symmetry_multiplicity
 _atom_site_fract_x
 _atom_site_fract_y
 _atom_site_fract_z
 _atom_site_occupancy
 _atom_site_charge
  Zn  Zn1  1  0.276470  0.473530  0.125000  1.0  1.0945
  Zn  Zn2  1  0.223530  0.526470  0.625000  1.0  1.0944
  Zn  Zn3  1  0.776470  0.026470  0.375000  1.0  1.0945
  Zn  Zn4  1  0.723530  0.973530  0.875000  1.0  1.0944
  Zn  Zn5  1  0.223530  0.473530  0.375000  1.0  1.0944
  Zn  Zn6  1  0.276470  0.526470  0.875000  1.0  1.0945
  Zn  Zn7  1  0.723530  0.026470  0.125000  1.0  1.0944
  Zn  Zn8  1  0.776470  0.973530  0.625000  1.0  1.0945
  Zn  Zn9  1  0.723530  0.526470  0.875000  1.0  1.0944
  Zn  Zn10  1  0.776470  0.473530  0.375000  1.0  1.0945
  Zn  Zn11  1  0.223530  0.973530  0.625000  1.0  1.0944
  Zn  Zn12  1  0.276470  0.026470  0.125000  1.0  1.0945
  Zn  Zn13  1  0.776470  0.526470  0.625000  1.0  1.0945
  Zn  Zn14  1  0.723530  0.473530  0.125000  1.0  1.0944
  Zn  Zn15  1  0.276470  0.973530  0.875000  1.0  1.0945
  Zn  Zn16  1  0.223530  0.026470  0.375000  1.0  1.0944
  H  H17  1  0.271200  0.750000  0.142700  1.0  0.128
  H  H18  1  0.334200  0.750000  0.934000  1.0  0.1263
  H  H19  1  0.228800  0.250000  0.642700  1.0  0.1281
  H  H20  1  0.165800  0.250000  0.434000  1.0  0.1262
  H  H21  1  0.500000  0.021200  0.392700  1.0  0.1281
  H  H22  1  0.500000  0.084200  0.184000  1.0  0.1259
  H  H23  1  0.000000  0.521200  0.892700  1.0  0.1272
  H  H24  1  0.000000  0.584200  0.684000  1.0  0.1259
  H  H25  1  0.000000  0.978800  0.892700  1.0  0.1285
  H  H26  1  0.000000  0.915800  0.684000  1.0  0.1257
  H  H27  1  0.500000  0.478800  0.392700  1.0  0.1276
  H  H28  1  0.500000  0.415800  0.184000  1.0  0.1257
  H  H29  1  0.228800  0.750000  0.357300  1.0  0.128
  H  H30  1  0.165800  0.750000  0.566000  1.0  0.1262
  H  H31  1  0.271200  0.250000  0.857300  1.0  0.1282
  H  H32  1  0.334200  0.250000  0.066000  1.0  0.1261
  H  H33  1  0.000000  0.021200  0.107300  1.0  0.1288
  H  H34  1  0.000000  0.084200  0.316000  1.0  0.1254
  H  H35  1  0.500000  0.521200  0.607300  1.0  0.1278
  H  H36  1  0.500000  0.584200  0.816000  1.0  0.1254
  H  H37  1  0.500000  0.978800  0.607300  1.0  0.1288
  H  H38  1  0.500000  0.915800  0.816000  1.0  0.1256
  H  H39  1  0.000000  0.478800  0.107300  1.0  0.1278
  H  H40  1  0.000000  0.415800  0.316000  1.0  0.1256
  H  H41  1  0.728800  0.250000  0.857300  1.0  0.128
  H  H42  1  0.665800  0.250000  0.066000  1.0  0.1262
  H  H43  1  0.771200  0.750000  0.357300  1.0  0.1282
  H  H44  1  0.834200  0.750000  0.566000  1.0  0.1261
  H  H45  1  0.771200  0.250000  0.642700  1.0  0.128
  H  H46  1  0.834200  0.250000  0.434000  1.0  0.1263
  H  H47  1  0.728800  0.750000  0.142700  1.0  0.1281
  H  H48  1  0.665800  0.750000  0.934000  1.0  0.1262
  C  C49  1  0.279100  0.618800  0.106500  1.0  0.7464
  C  C50  1  0.292300  0.685950  0.070390  1.0  -0.1215
  C  C51  1  0.311900  0.685970  0.006580  1.0  -0.0144
  C  C52  1  0.322600  0.621290  0.965870  1.0  0.7329
  C  C53  1  0.779100  0.118800  0.606500  1.0  0.7464
  C  C54  1  0.792300  0.185950  0.570390  1.0  -0.1215
  C  C55  1  0.811900  0.185970  0.506580  1.0  -0.0144
  C  C56  1  0.822600  0.121290  0.465870  1.0  0.7329
  C  C57  1  0.220900  0.381200  0.606500  1.0  0.7463
  C  C58  1  0.207700  0.314050  0.570390  1.0  -0.122
  C  C59  1  0.188100  0.314030  0.506580  1.0  -0.0146
  C  C60  1  0.177400  0.378710  0.465870  1.0  0.7336
  C  C61  1  0.720900  0.881200  0.106500  1.0  0.7463
  C  C62  1  0.707700  0.814050  0.070390  1.0  -0.122
  C  C63  1  0.688100  0.814030  0.006580  1.0  -0.0146
  C  C64  1  0.677400  0.878710  0.965870  1.0  0.7336
  C  C65  1  0.631200  0.029100  0.356500  1.0  0.7446
  C  C66  1  0.564050  0.042300  0.320390  1.0  -0.1219
  C  C67  1  0.564030  0.061900  0.256580  1.0  -0.0137
  C  C68  1  0.628710  0.072600  0.215870  1.0  0.7333
  C  C69  1  0.131200  0.529100  0.856500  1.0  0.7446
  C  C70  1  0.064050  0.542300  0.820390  1.0  -0.1219
  C  C71  1  0.064030  0.561900  0.756580  1.0  -0.0137
  C  C72  1  0.128710  0.572600  0.715870  1.0  0.7333
  C  C73  1  0.868800  0.970900  0.856500  1.0  0.7428
  C  C74  1  0.935950  0.957700  0.820390  1.0  -0.1212
  C  C75  1  0.935970  0.938100  0.756580  1.0  -0.0141
  C  C76  1  0.871290  0.927400  0.715870  1.0  0.7341
  C  C77  1  0.368800  0.470900  0.356500  1.0  0.7428
  C  C78  1  0.435950  0.457700  0.320390  1.0  -0.1212
  C  C79  1  0.435970  0.438100  0.256580  1.0  -0.0141
  C  C80  1  0.371290  0.427400  0.215870  1.0  0.7341
  C  C81  1  0.220900  0.618800  0.393500  1.0  0.7447
  C  C82  1  0.207700  0.685950  0.429610  1.0  -0.1234
  C  C83  1  0.188100  0.685970  0.493420  1.0  -0.0142
  C  C84  1  0.177400  0.621290  0.534130  1.0  0.7337
  C  C85  1  0.720900  0.118800  0.893500  1.0  0.7447
  C  C86  1  0.707700  0.185950  0.929610  1.0  -0.1234
  C  C87  1  0.688100  0.185970  0.993420  1.0  -0.0142
  C  C88  1  0.677400  0.121290  0.034130  1.0  0.7337
  C  C89  1  0.279100  0.381200  0.893500  1.0  0.7451
  C  C90  1  0.292300  0.314050  0.929610  1.0  -0.1232
  C  C91  1  0.311900  0.314030  0.993420  1.0  -0.0141
  C  C92  1  0.322600  0.378710  0.034130  1.0  0.7331
  C  C93  1  0.779100  0.881200  0.393500  1.0  0.7451
  C  C94  1  0.792300  0.814050  0.429610  1.0  -0.1232
  C  C95  1  0.811900  0.814030  0.493420  1.0  -0.0141
  C  C96  1  0.822600  0.878710  0.534130  1.0  0.7331
  C  C97  1  0.868800  0.029100  0.143500  1.0  0.7418
  C  C98  1  0.935950  0.042300  0.179610  1.0  -0.1224
  C  C99  1  0.935970  0.061900  0.243420  1.0  -0.0135
  C  C100  1  0.871290  0.072600  0.284130  1.0  0.7335
  C  C101  1  0.368800  0.529100  0.643500  1.0  0.7418
  C  C102  1  0.435950  0.542300  0.679610  1.0  -0.1224
  C  C103  1  0.435970  0.561900  0.743420  1.0  -0.0135
  C  C104  1  0.371290  0.572600  0.784130  1.0  0.7335
  C  C105  1  0.631200  0.970900  0.643500  1.0  0.7429
  C  C106  1  0.564050  0.957700  0.679610  1.0  -0.1228
  C  C107  1  0.564030  0.938100  0.743420  1.0  -0.0129
  C  C108  1  0.628710  0.927400  0.784130  1.0  0.734
  C  C109  1  0.131200  0.470900  0.143500  1.0  0.7429
  C  C110  1  0.064050  0.457700  0.179610  1.0  -0.1228
  C  C111  1  0.064030  0.438100  0.243420  1.0  -0.0129
  C  C112  1  0.128710  0.427400  0.284130  1.0  0.734
  C  C113  1  0.720900  0.381200  0.893500  1.0  0.7449
  C  C114  1  0.707700  0.314050  0.929610  1.0  -0.1231
  C  C115  1  0.688100  0.314030  0.993420  1.0  -0.0141
  C  C116  1  0.677400  0.378710  0.034130  1.0  0.7333
  C  C117  1  0.220900  0.881200  0.393500  1.0  0.7449
  C  C118  1  0.207700  0.814050  0.429610  1.0  -0.1231
  C  C119  1  0.188100  0.814030  0.493420  1.0  -0.0141
  C  C120  1  0.177400  0.878710  0.534130  1.0  0.7333
  C  C121  1  0.779100  0.618800  0.393500  1.0  0.7449
  C  C122  1  0.792300  0.685950  0.429610  1.0  -0.1231
  C  C123  1  0.811900  0.685970  0.493420  1.0  -0.014
  C  C124  1  0.822600  0.621290  0.534130  1.0  0.7334
  C  C125  1  0.279100  0.118800  0.893500  1.0  0.7449
  C  C126  1  0.292300  0.185950  0.929610  1.0  -0.1231
  C  C127  1  0.311900  0.185970  0.993420  1.0  -0.014
  C  C128  1  0.322600  0.121290  0.034130  1.0  0.7334
  C  C129  1  0.368800  0.970900  0.643500  1.0  0.742
  C  C130  1  0.435950  0.957700  0.679610  1.0  -0.1221
  C  C131  1  0.435970  0.938100  0.743420  1.0  -0.0135
  C  C132  1  0.371290  0.927400  0.784130  1.0  0.734
  C  C133  1  0.868800  0.470900  0.143500  1.0  0.742
  C  C134  1  0.935950  0.457700  0.179610  1.0  -0.1221
  C  C135  1  0.935970  0.438100  0.243420  1.0  -0.0135
  C  C136  1  0.871290  0.427400  0.284130  1.0  0.734
  C  C137  1  0.131200  0.029100  0.143500  1.0  0.7428
  C  C138  1  0.064050  0.042300  0.179610  1.0  -0.1228
  C  C139  1  0.064030  0.061900  0.243420  1.0  -0.0135
  C  C140  1  0.128710  0.072600  0.284130  1.0  0.7335
  C  C141  1  0.631200  0.529100  0.643500  1.0  0.7428
  C  C142  1  0.564050  0.542300  0.679610  1.0  -0.1228
  C  C143  1  0.564030  0.561900  0.743420  1.0  -0.0135
  C  C144  1  0.628710  0.572600  0.784130  1.0  0.7335
  C  C145  1  0.779100  0.381200  0.606500  1.0  0.7464
  C  C146  1  0.792300  0.314050  0.570390  1.0  -0.1219
  C  C147  1  0.811900  0.314030  0.506580  1.0  -0.0145
  C  C148  1  0.822600  0.378710  0.465870  1.0  0.7328
  C  C149  1  0.279100  0.881200  0.106500  1.0  0.7464
  C  C150  1  0.292300  0.814050  0.070390  1.0  -0.1219
  C  C151  1  0.311900  0.814030  0.006580  1.0  -0.0145
  C  C152  1  0.322600  0.878710  0.965870  1.0  0.7328
  C  C153  1  0.720900  0.618800  0.106500  1.0  0.7463
  C  C154  1  0.707700  0.685950  0.070390  1.0  -0.1215
  C  C155  1  0.688100  0.685970  0.006580  1.0  -0.0147
  C  C156  1  0.677400  0.621290  0.965870  1.0  0.7336
  C  C157  1  0.220900  0.118800  0.606500  1.0  0.7463
  C  C158  1  0.207700  0.185950  0.570390  1.0  -0.1215
  C  C159  1  0.188100  0.185970  0.506580  1.0  -0.0147
  C  C160  1  0.177400  0.121290  0.465870  1.0  0.7336
  C  C161  1  0.131200  0.970900  0.856500  1.0  0.7445
  C  C162  1  0.064050  0.957700  0.820390  1.0  -0.1218
  C  C163  1  0.064030  0.938100  0.756580  1.0  -0.0132
  C  C164  1  0.128710  0.927400  0.715870  1.0  0.7337
  C  C165  1  0.631200  0.470900  0.356500  1.0  0.7445
  C  C166  1  0.564050  0.457700  0.320390  1.0  -0.1218
  C  C167  1  0.564030  0.438100  0.256580  1.0  -0.0132
  C  C168  1  0.628710  0.427400  0.215870  1.0  0.7337
  C  C169  1  0.368800  0.029100  0.356500  1.0  0.7428
  C  C170  1  0.435950  0.042300  0.320390  1.0  -0.1212
  C  C171  1  0.435970  0.061900  0.256580  1.0  -0.0139
  C  C172  1  0.371290  0.072600  0.215870  1.0  0.7338
  C  C173  1  0.868800  0.529100  0.856500  1.0  0.7428
  C  C174  1  0.935950  0.542300  0.820390  1.0  -0.1212
  C  C175  1  0.935970  0.561900  0.756580  1.0  -0.0139
  C  C176  1  0.871290  0.572600  0.715870  1.0  0.7338
  C  C177  1  0.283600  0.750000  0.100200  1.0  0.0121
  C  C178  1  0.321200  0.750000  0.976300  1.0  -0.0437
  C  C179  1  0.216400  0.250000  0.600200  1.0  0.0127
  C  C180  1  0.178800  0.250000  0.476300  1.0  -0.0449
  C  C181  1  0.500000  0.033600  0.350200  1.0  0.0126
  C  C182  1  0.500000  0.071200  0.226300  1.0  -0.0428
  C  C183  1  0.000000  0.533600  0.850200  1.0  0.0126
  C  C184  1  0.000000  0.571200  0.726300  1.0  -0.0428
  C  C185  1  0.000000  0.966400  0.850200  1.0  0.0114
  C  C186  1  0.000000  0.928800  0.726300  1.0  -0.042
  C  C187  1  0.500000  0.466400  0.350200  1.0  0.0114
  C  C188  1  0.500000  0.428800  0.226300  1.0  -0.042
  C  C189  1  0.216400  0.750000  0.399800  1.0  0.0118
  C  C190  1  0.178800  0.750000  0.523700  1.0  -0.0454
  C  C191  1  0.283600  0.250000  0.899800  1.0  0.0117
  C  C192  1  0.321200  0.250000  0.023700  1.0  -0.0426
  C  C193  1  0.000000  0.033600  0.149800  1.0  0.0121
  C  C194  1  0.000000  0.071200  0.273700  1.0  -0.0428
  C  C195  1  0.500000  0.533600  0.649800  1.0  0.0121
  C  C196  1  0.500000  0.571200  0.773700  1.0  -0.0428
  C  C197  1  0.500000  0.966400  0.649800  1.0  0.0111
  C  C198  1  0.500000  0.928800  0.773700  1.0  -0.0423
  C  C199  1  0.000000  0.466400  0.149800  1.0  0.0111
  C  C200  1  0.000000  0.428800  0.273700  1.0  -0.0423
  C  C201  1  0.716400  0.250000  0.899800  1.0  0.0118
  C  C202  1  0.678800  0.250000  0.023700  1.0  -0.0454
  C  C203  1  0.783600  0.750000  0.399800  1.0  0.0117
  C  C204  1  0.821200  0.750000  0.523700  1.0  -0.0426
  C  C205  1  0.783600  0.250000  0.600200  1.0  0.0121
  C  C206  1  0.821200  0.250000  0.476300  1.0  -0.0437
  C  C207  1  0.716400  0.750000  0.100200  1.0  0.0127
  C  C208  1  0.678800  0.750000  0.976300  1.0  -0.0449
  O  O209  1  0.285060  0.561370  0.075990  1.0  -0.5524
  O  O210  1  0.264600  0.621560  0.163660  1.0  -0.4679
  O  O211  1  0.266620  0.597920  0.940170  1.0  -0.565
  O  O212  1  0.381710  0.599700  0.955160  1.0  -0.4211
  O  O213  1  0.785060  0.061370  0.575990  1.0  -0.5524
  O  O214  1  0.764600  0.121560  0.663660  1.0  -0.4679
  O  O215  1  0.766620  0.097920  0.440170  1.0  -0.565
  O  O216  1  0.881710  0.099700  0.455160  1.0  -0.4211
  O  O217  1  0.214940  0.438630  0.575990  1.0  -0.5527
  O  O218  1  0.235400  0.378440  0.663660  1.0  -0.4654
  O  O219  1  0.233380  0.402080  0.440170  1.0  -0.5646
  O  O220  1  0.118290  0.400300  0.455160  1.0  -0.4184
  O  O221  1  0.714940  0.938630  0.075990  1.0  -0.5527
  O  O222  1  0.735400  0.878440  0.163660  1.0  -0.4654
  O  O223  1  0.733380  0.902080  0.940170  1.0  -0.5646
  O  O224  1  0.618290  0.900300  0.955160  1.0  -0.4184
  O  O225  1  0.688630  0.035060  0.325990  1.0  -0.552
  O  O226  1  0.628440  0.014600  0.413660  1.0  -0.471
  O  O227  1  0.652080  0.016620  0.190170  1.0  -0.5664
  O  O228  1  0.650300  0.131710  0.205160  1.0  -0.4108
  O  O229  1  0.188630  0.535060  0.825990  1.0  -0.552
  O  O230  1  0.128440  0.514600  0.913660  1.0  -0.471
  O  O231  1  0.152080  0.516620  0.690170  1.0  -0.5664
  O  O232  1  0.150300  0.631710  0.705160  1.0  -0.4108
  O  O233  1  0.811370  0.964940  0.825990  1.0  -0.5511
  O  O234  1  0.871560  0.985400  0.913660  1.0  -0.4698
  O  O235  1  0.847920  0.983380  0.690170  1.0  -0.566
  O  O236  1  0.849700  0.868290  0.705160  1.0  -0.4095
  O  O237  1  0.311370  0.464940  0.325990  1.0  -0.5511
  O  O238  1  0.371560  0.485400  0.413660  1.0  -0.4698
  O  O239  1  0.347920  0.483380  0.190170  1.0  -0.566
  O  O240  1  0.349700  0.368290  0.205160  1.0  -0.4095
  O  O241  1  0.214940  0.561370  0.424010  1.0  -0.5516
  O  O242  1  0.235400  0.621560  0.336340  1.0  -0.4651
  O  O243  1  0.233380  0.597920  0.559830  1.0  -0.5645
  O  O244  1  0.118290  0.599700  0.544840  1.0  -0.4181
  O  O245  1  0.714940  0.061370  0.924010  1.0  -0.5516
  O  O246  1  0.735400  0.121560  0.836340  1.0  -0.4651
  O  O247  1  0.733380  0.097920  0.059830  1.0  -0.5645
  O  O248  1  0.618290  0.099700  0.044840  1.0  -0.4181
  O  O249  1  0.285060  0.438630  0.924010  1.0  -0.5525
  O  O250  1  0.264600  0.378440  0.836340  1.0  -0.4661
  O  O251  1  0.266620  0.402080  0.059830  1.0  -0.5646
  O  O252  1  0.381710  0.400300  0.044840  1.0  -0.4214
  O  O253  1  0.785060  0.938630  0.424010  1.0  -0.5525
  O  O254  1  0.764600  0.878440  0.336340  1.0  -0.4661
  O  O255  1  0.766620  0.902080  0.559830  1.0  -0.5646
  O  O256  1  0.881710  0.900300  0.544840  1.0  -0.4214
  O  O257  1  0.811370  0.035060  0.174010  1.0  -0.5509
  O  O258  1  0.871560  0.014600  0.086340  1.0  -0.4688
  O  O259  1  0.847920  0.016620  0.309830  1.0  -0.5656
  O  O260  1  0.849700  0.131710  0.294840  1.0  -0.4121
  O  O261  1  0.311370  0.535060  0.674010  1.0  -0.5509
  O  O262  1  0.371560  0.514600  0.586340  1.0  -0.4688
  O  O263  1  0.347920  0.516620  0.809830  1.0  -0.5656
  O  O264  1  0.349700  0.631710  0.794840  1.0  -0.4121
  O  O265  1  0.688630  0.964940  0.674010  1.0  -0.5518
  O  O266  1  0.628440  0.985400  0.586340  1.0  -0.4696
  O  O267  1  0.652080  0.983380  0.809830  1.0  -0.5666
  O  O268  1  0.650300  0.868290  0.794840  1.0  -0.4081
  O  O269  1  0.188630  0.464940  0.174010  1.0  -0.5518
  O  O270  1  0.128440  0.485400  0.086340  1.0  -0.4696
  O  O271  1  0.152080  0.483380  0.309830  1.0  -0.5666
  O  O272  1  0.150300  0.368290  0.294840  1.0  -0.4081
  O  O273  1  0.714940  0.438630  0.924010  1.0  -0.5519
  O  O274  1  0.735400  0.378440  0.836340  1.0  -0.4647
  O  O275  1  0.733380  0.402080  0.059830  1.0  -0.5648
  O  O276  1  0.618290  0.400300  0.044840  1.0  -0.4184
  O  O277  1  0.214940  0.938630  0.424010  1.0  -0.5519
  O  O278  1  0.235400  0.878440  0.336340  1.0  -0.4647
  O  O279  1  0.233380  0.902080  0.559830  1.0  -0.5648
  O  O280  1  0.118290  0.900300  0.544840  1.0  -0.4184
  O  O281  1  0.785060  0.561370  0.424010  1.0  -0.5521
  O  O282  1  0.764600  0.621560  0.336340  1.0  -0.4664
  O  O283  1  0.766620  0.597920  0.559830  1.0  -0.565
  O  O284  1  0.881710  0.599700  0.544840  1.0  -0.4221
  O  O285  1  0.285060  0.061370  0.924010  1.0  -0.5521
  O  O286  1  0.264600  0.121560  0.836340  1.0  -0.4664
  O  O287  1  0.266620  0.097920  0.059830  1.0  -0.565
  O  O288  1  0.381710  0.099700  0.044840  1.0  -0.4221
  O  O289  1  0.311370  0.964940  0.674010  1.0  -0.5509
  O  O290  1  0.371560  0.985400  0.586340  1.0  -0.4684
  O  O291  1  0.347920  0.983380  0.809830  1.0  -0.5663
  O  O292  1  0.349700  0.868290  0.794840  1.0  -0.4096
  O  O293  1  0.811370  0.464940  0.174010  1.0  -0.5509
  O  O294  1  0.871560  0.485400  0.086340  1.0  -0.4684
  O  O295  1  0.847920  0.483380  0.309830  1.0  -0.5663
  O  O296  1  0.849700  0.368290  0.294840  1.0  -0.4096
  O  O297  1  0.188630  0.035060  0.174010  1.0  -0.5517
  O  O298  1  0.128440  0.014600  0.086340  1.0  -0.4699
  O  O299  1  0.152080  0.016620  0.309830  1.0  -0.5664
  O  O300  1  0.150300  0.131710  0.294840  1.0  -0.4112
  O  O301  1  0.688630  0.535060  0.674010  1.0  -0.5517
  O  O302  1  0.628440  0.514600  0.586340  1.0  -0.4699
  O  O303  1  0.652080  0.516620  0.809830  1.0  -0.5664
  O  O304  1  0.650300  0.631710  0.794840  1.0  -0.4112
  O  O305  1  0.785060  0.438630  0.575990  1.0  -0.5531
  O  O306  1  0.764600  0.378440  0.663660  1.0  -0.467
  O  O307  1  0.766620  0.402080  0.440170  1.0  -0.5647
  O  O308  1  0.881710  0.400300  0.455160  1.0  -0.4205
  O  O309  1  0.285060  0.938630  0.075990  1.0  -0.5531
  O  O310  1  0.264600  0.878440  0.163660  1.0  -0.467
  O  O311  1  0.266620  0.902080  0.940170  1.0  -0.5647
  O  O312  1  0.381710  0.900300  0.955160  1.0  -0.4205
  O  O313  1  0.714940  0.561370  0.075990  1.0  -0.5521
  O  O314  1  0.735400  0.621560  0.163660  1.0  -0.4663
  O  O315  1  0.733380  0.597920  0.940170  1.0  -0.564
  O  O316  1  0.618290  0.599700  0.955160  1.0  -0.4179
  O  O317  1  0.214940  0.061370  0.575990  1.0  -0.5521
  O  O318  1  0.235400  0.121560  0.663660  1.0  -0.4663
  O  O319  1  0.233380  0.097920  0.440170  1.0  -0.564
  O  O320  1  0.118290  0.099700  0.455160  1.0  -0.4179
  O  O321  1  0.188630  0.964940  0.825990  1.0  -0.552
  O  O322  1  0.128440  0.985400  0.913660  1.0  -0.4708
  O  O323  1  0.152080  0.983380  0.690170  1.0  -0.5665
  O  O324  1  0.150300  0.868290  0.705160  1.0  -0.408
  O  O325  1  0.688630  0.464940  0.325990  1.0  -0.552
  O  O326  1  0.628440  0.485400  0.413660  1.0  -0.4708
  O  O327  1  0.652080  0.483380  0.190170  1.0  -0.5665
  O  O328  1  0.650300  0.368290  0.205160  1.0  -0.408
  O  O329  1  0.311370  0.035060  0.325990  1.0  -0.5512
  O  O330  1  0.371560  0.014600  0.413660  1.0  -0.4701
  O  O331  1  0.347920  0.016620  0.190170  1.0  -0.5655
  O  O332  1  0.349700  0.131710  0.205160  1.0  -0.4117
  O  O333  1  0.811370  0.535060  0.825990  1.0  -0.5512
  O  O334  1  0.871560  0.514600  0.913660  1.0  -0.4701
  O  O335  1  0.847920  0.516620  0.690170  1.0  -0.5655
  O  O336  1  0.849700  0.631710  0.705160  1.0  -0.4117
