# generated using pymatgen
data_Be3P3H2O13
_symmetry_space_group_name_H-M   'P 1'
_cell_length_a   25.09860000
_cell_length_b   4.86660000
_cell_length_c   24.03590000
_cell_angle_alpha   90.00000000
_cell_angle_beta   117.20000000
_cell_angle_gamma   90.00000000
_symmetry_Int_Tables_number   1
_chemical_formula_structural   Be3P3H2O13
_chemical_formula_sum   'Be24 P24 H16 O104'
_cell_volume   2611.20312971
_cell_formula_units_Z   8
loop_
 _symmetry_equiv_pos_site_id
 _symmetry_equiv_pos_as_xyz
  1  'x, y, z'
loop_
 _atom_site_type_symbol
 _atom_site_label
 _atom_site_symmetry_multiplicity
 _atom_site_fract_x
 _atom_site_fract_y
 _atom_site_fract_z
 _atom_site_occupancy
 _atom_site_charge
  Be  Be1  1  0.182850  0.670600  0.249330  1.0  1.1551
  Be  Be2  1  0.059900  0.653200  0.340500  1.0  1.1611
  Be  Be3  1  0.260600  0.517500  0.570710  1.0  1.1302
  Be  Be4  1  0.682850  0.170600  0.249330  1.0  1.1551
  Be  Be5  1  0.559900  0.153200  0.340500  1.0  1.1611
  Be  Be6  1  0.760600  0.017500  0.570710  1.0  1.1302
  Be  Be7  1  0.817150  0.670600  0.250670  1.0  1.1547
  Be  Be8  1  0.940100  0.653200  0.159500  1.0  1.1662
  Be  Be9  1  0.739400  0.517500  0.929290  1.0  1.1304
  Be  Be10  1  0.317150  0.170600  0.250670  1.0  1.1547
  Be  Be11  1  0.440100  0.153200  0.159500  1.0  1.1662
  Be  Be12  1  0.239400  0.017500  0.929290  1.0  1.1304
  Be  Be13  1  0.817150  0.329400  0.750670  1.0  1.1546
  Be  Be14  1  0.940100  0.346800  0.659500  1.0  1.1655
  Be  Be15  1  0.739400  0.482500  0.429290  1.0  1.13
  Be  Be16  1  0.317150  0.829400  0.750670  1.0  1.1546
  Be  Be17  1  0.440100  0.846800  0.659500  1.0  1.1655
  Be  Be18  1  0.239400  0.982500  0.429290  1.0  1.13
  Be  Be19  1  0.182850  0.329400  0.749330  1.0  1.1547
  Be  Be20  1  0.059900  0.346800  0.840500  1.0  1.1631
  Be  Be21  1  0.260600  0.482500  0.070710  1.0  1.1299
  Be  Be22  1  0.682850  0.829400  0.749330  1.0  1.1547
  Be  Be23  1  0.559900  0.846800  0.840500  1.0  1.1631
  Be  Be24  1  0.760600  0.982500  0.070710  1.0  1.1299
  P  P25  1  0.237470  0.162660  0.314870  1.0  1.8469
  P  P26  1  0.065650  0.487250  0.223320  1.0  1.6473
  P  P27  1  0.176590  0.473970  0.436450  1.0  1.8345
  P  P28  1  0.737470  0.662660  0.314870  1.0  1.8469
  P  P29  1  0.565650  0.987250  0.223320  1.0  1.6473
  P  P30  1  0.676590  0.973970  0.436450  1.0  1.8345
  P  P31  1  0.762530  0.162660  0.185130  1.0  1.8436
  P  P32  1  0.934350  0.487250  0.276680  1.0  1.6482
  P  P33  1  0.823410  0.473970  0.063550  1.0  1.8339
  P  P34  1  0.262530  0.662660  0.185130  1.0  1.8436
  P  P35  1  0.434350  0.987250  0.276680  1.0  1.6482
  P  P36  1  0.323410  0.973970  0.063550  1.0  1.8339
  P  P37  1  0.762530  0.837340  0.685130  1.0  1.8436
  P  P38  1  0.934350  0.512750  0.776680  1.0  1.6484
  P  P39  1  0.823410  0.526030  0.563550  1.0  1.8343
  P  P40  1  0.262530  0.337340  0.685130  1.0  1.8436
  P  P41  1  0.434350  0.012750  0.776680  1.0  1.6484
  P  P42  1  0.323410  0.026030  0.563550  1.0  1.8343
  P  P43  1  0.237470  0.837340  0.814870  1.0  1.8468
  P  P44  1  0.065650  0.512750  0.723320  1.0  1.6465
  P  P45  1  0.176590  0.526030  0.936450  1.0  1.8344
  P  P46  1  0.737470  0.337340  0.814870  1.0  1.8468
  P  P47  1  0.565650  0.012750  0.723320  1.0  1.6465
  P  P48  1  0.676590  0.026030  0.936450  1.0  1.8344
  H  H49  1  0.105000  0.120100  0.240900  1.0  0.3878
  H  H50  1  0.023900  0.045500  0.332800  1.0  0.4493
  H  H51  1  0.605000  0.620100  0.240900  1.0  0.3878
  H  H52  1  0.523900  0.545500  0.332800  1.0  0.4493
  H  H53  1  0.895000  0.120100  0.259100  1.0  0.3869
  H  H54  1  0.976100  0.045500  0.167200  1.0  0.4506
  H  H55  1  0.395000  0.620100  0.259100  1.0  0.3869
  H  H56  1  0.476100  0.545500  0.167200  1.0  0.4506
  H  H57  1  0.895000  0.879900  0.759100  1.0  0.387
  H  H58  1  0.976100  0.954500  0.667200  1.0  0.45
  H  H59  1  0.395000  0.379900  0.759100  1.0  0.387
  H  H60  1  0.476100  0.454500  0.667200  1.0  0.45
  H  H61  1  0.105000  0.879900  0.740900  1.0  0.3882
  H  H62  1  0.023900  0.954500  0.832800  1.0  0.4512
  H  H63  1  0.605000  0.379900  0.740900  1.0  0.3882
  H  H64  1  0.523900  0.454500  0.832800  1.0  0.4512
  O  O65  1  0.214130  0.462800  0.310770  1.0  -0.8772
  O  O66  1  0.264610  0.072800  0.382920  1.0  -0.6863
  O  O67  1  0.285410  0.147200  0.294150  1.0  -0.774
  O  O68  1  0.183510  0.983200  0.274040  1.0  -0.7469
  O  O69  1  0.112580  0.594500  0.205280  1.0  -0.7525
  O  O70  1  0.069750  0.167000  0.226100  1.0  -0.6087
  O  O71  1  0.003440  0.535900  0.171150  1.0  -0.6814
  O  O72  1  0.076110  0.599000  0.285340  1.0  -0.7425
  O  O73  1  0.110570  0.535000  0.405230  1.0  -0.6988
  O  O74  1  0.203380  0.558600  0.503840  1.0  -0.74
  O  O75  1  0.209110  0.657200  0.405550  1.0  -0.892
  O  O76  1  0.186600  0.176500  0.426680  1.0  -0.728
  O  O77  1  0.058070  0.987500  0.353560  1.0  -0.6887
  O  O78  1  0.714130  0.962800  0.310770  1.0  -0.8772
  O  O79  1  0.764610  0.572800  0.382920  1.0  -0.6863
  O  O80  1  0.785410  0.647200  0.294150  1.0  -0.774
  O  O81  1  0.683510  0.483200  0.274040  1.0  -0.7469
  O  O82  1  0.612580  0.094500  0.205280  1.0  -0.7525
  O  O83  1  0.569750  0.667000  0.226100  1.0  -0.6087
  O  O84  1  0.503440  0.035900  0.171150  1.0  -0.6814
  O  O85  1  0.576110  0.099000  0.285340  1.0  -0.7425
  O  O86  1  0.610570  0.035000  0.405230  1.0  -0.6988
  O  O87  1  0.703380  0.058600  0.503840  1.0  -0.74
  O  O88  1  0.709110  0.157200  0.405550  1.0  -0.892
  O  O89  1  0.686600  0.676500  0.426680  1.0  -0.728
  O  O90  1  0.558070  0.487500  0.353560  1.0  -0.6887
  O  O91  1  0.785870  0.462800  0.189230  1.0  -0.8773
  O  O92  1  0.735390  0.072800  0.117080  1.0  -0.6853
  O  O93  1  0.714590  0.147200  0.205850  1.0  -0.7736
  O  O94  1  0.816490  0.983200  0.225960  1.0  -0.7485
  O  O95  1  0.887420  0.594500  0.294720  1.0  -0.7501
  O  O96  1  0.930250  0.167000  0.273900  1.0  -0.6091
  O  O97  1  0.996560  0.535900  0.328850  1.0  -0.6841
  O  O98  1  0.923890  0.599000  0.214660  1.0  -0.7424
  O  O99  1  0.889430  0.535000  0.094770  1.0  -0.6946
  O  O100  1  0.796620  0.558600  0.996160  1.0  -0.7392
  O  O101  1  0.790890  0.657200  0.094450  1.0  -0.8923
  O  O102  1  0.813400  0.176500  0.073320  1.0  -0.7265
  O  O103  1  0.941930  0.987500  0.146440  1.0  -0.6866
  O  O104  1  0.285870  0.962800  0.189230  1.0  -0.8773
  O  O105  1  0.235390  0.572800  0.117080  1.0  -0.6853
  O  O106  1  0.214590  0.647200  0.205850  1.0  -0.7736
  O  O107  1  0.316490  0.483200  0.225960  1.0  -0.7485
  O  O108  1  0.387420  0.094500  0.294720  1.0  -0.7501
  O  O109  1  0.430250  0.667000  0.273900  1.0  -0.6091
  O  O110  1  0.496560  0.035900  0.328850  1.0  -0.6841
  O  O111  1  0.423890  0.099000  0.214660  1.0  -0.7424
  O  O112  1  0.389430  0.035000  0.094770  1.0  -0.6946
  O  O113  1  0.296620  0.058600  0.996160  1.0  -0.7392
  O  O114  1  0.290890  0.157200  0.094450  1.0  -0.8923
  O  O115  1  0.313400  0.676500  0.073320  1.0  -0.7265
  O  O116  1  0.441930  0.487500  0.146440  1.0  -0.6866
  O  O117  1  0.785870  0.537200  0.689230  1.0  -0.8776
  O  O118  1  0.735390  0.927200  0.617080  1.0  -0.6855
  O  O119  1  0.714590  0.852800  0.705850  1.0  -0.7735
  O  O120  1  0.816490  0.016800  0.725960  1.0  -0.7485
  O  O121  1  0.887420  0.405500  0.794720  1.0  -0.7506
  O  O122  1  0.930250  0.833000  0.773900  1.0  -0.6098
  O  O123  1  0.996560  0.464100  0.828850  1.0  -0.6843
  O  O124  1  0.923890  0.401000  0.714660  1.0  -0.7422
  O  O125  1  0.889430  0.465000  0.594770  1.0  -0.6943
  O  O126  1  0.796620  0.441400  0.496160  1.0  -0.7405
  O  O127  1  0.790890  0.342800  0.594450  1.0  -0.8922
  O  O128  1  0.813400  0.823500  0.573320  1.0  -0.7251
  O  O129  1  0.941930  0.012500  0.646440  1.0  -0.6868
  O  O130  1  0.285870  0.037200  0.689230  1.0  -0.8776
  O  O131  1  0.235390  0.427200  0.617080  1.0  -0.6855
  O  O132  1  0.214590  0.352800  0.705850  1.0  -0.7735
  O  O133  1  0.316490  0.516800  0.725960  1.0  -0.7485
  O  O134  1  0.387420  0.905500  0.794720  1.0  -0.7506
  O  O135  1  0.430250  0.333000  0.773900  1.0  -0.6098
  O  O136  1  0.496560  0.964100  0.828850  1.0  -0.6843
  O  O137  1  0.423890  0.901000  0.714660  1.0  -0.7422
  O  O138  1  0.389430  0.965000  0.594770  1.0  -0.6943
  O  O139  1  0.296620  0.941400  0.496160  1.0  -0.7405
  O  O140  1  0.290890  0.842800  0.594450  1.0  -0.8922
  O  O141  1  0.313400  0.323500  0.573320  1.0  -0.7251
  O  O142  1  0.441930  0.512500  0.646440  1.0  -0.6868
  O  O143  1  0.214130  0.537200  0.810770  1.0  -0.8778
  O  O144  1  0.264610  0.927200  0.882920  1.0  -0.6864
  O  O145  1  0.285410  0.852800  0.794150  1.0  -0.7739
  O  O146  1  0.183510  0.016800  0.774040  1.0  -0.7469
  O  O147  1  0.112580  0.405500  0.705280  1.0  -0.7522
  O  O148  1  0.069750  0.833000  0.726100  1.0  -0.6083
  O  O149  1  0.003440  0.464100  0.671150  1.0  -0.6817
  O  O150  1  0.076110  0.401000  0.785340  1.0  -0.743
  O  O151  1  0.110570  0.465000  0.905230  1.0  -0.6988
  O  O152  1  0.203380  0.441400  0.003840  1.0  -0.7414
  O  O153  1  0.209110  0.342800  0.905550  1.0  -0.8918
  O  O154  1  0.186600  0.823500  0.926680  1.0  -0.7265
  O  O155  1  0.058070  0.012500  0.853560  1.0  -0.6886
  O  O156  1  0.714130  0.037200  0.810770  1.0  -0.8778
  O  O157  1  0.764610  0.427200  0.882920  1.0  -0.6864
  O  O158  1  0.785410  0.352800  0.794150  1.0  -0.7739
  O  O159  1  0.683510  0.516800  0.774040  1.0  -0.7469
  O  O160  1  0.612580  0.905500  0.705280  1.0  -0.7522
  O  O161  1  0.569750  0.333000  0.726100  1.0  -0.6083
  O  O162  1  0.503440  0.964100  0.671150  1.0  -0.6817
  O  O163  1  0.576110  0.901000  0.785340  1.0  -0.743
  O  O164  1  0.610570  0.965000  0.905230  1.0  -0.6988
  O  O165  1  0.703380  0.941400  0.003840  1.0  -0.7414
  O  O166  1  0.709110  0.842800  0.905550  1.0  -0.8918
  O  O167  1  0.686600  0.323500  0.926680  1.0  -0.7265
  O  O168  1  0.558070  0.512500  0.853560  1.0  -0.6886
