# generated using pymatgen
data_Zn5P5HO20
_symmetry_space_group_name_H-M   'P 1'
_cell_length_a   9.29940000
_cell_length_b   9.75100000
_cell_length_c   14.33480000
_cell_angle_alpha   90.00000000
_cell_angle_beta   90.97400000
_cell_angle_gamma   90.00000000
_symmetry_Int_Tables_number   1
_chemical_formula_structural   Zn5P5HO20
_chemical_formula_sum   'Zn10 P10 H2 O40'
_cell_volume   1299.66962248
_cell_formula_units_Z   2
loop_
 _symmetry_equiv_pos_site_id
 _symmetry_equiv_pos_as_xyz
  1  'x, y, z'
loop_
 _atom_site_type_symbol
 _atom_site_label
 _atom_site_symmetry_multiplicity
 _atom_site_fract_x
 _atom_site_fract_y
 _atom_site_fract_z
 _atom_site_occupancy
 _atom_site_charge
  Zn  Zn1  1  0.532270  0.885320  0.267250  1.0  1.1537
  Zn  Zn2  1  0.228360  0.376900  0.375460  1.0  1.181
  Zn  Zn3  1  0.756330  0.903950  0.870030  1.0  1.1785
  Zn  Zn4  1  0.929390  0.113510  0.245610  1.0  1.1865
  Zn  Zn5  1  0.923020  0.739650  0.226990  1.0  1.0231
  Zn  Zn6  1  0.467730  0.385320  0.732750  1.0  1.1538
  Zn  Zn7  1  0.771640  0.876900  0.624540  1.0  1.178
  Zn  Zn8  1  0.243670  0.403950  0.129970  1.0  1.1769
  Zn  Zn9  1  0.070610  0.613510  0.754390  1.0  1.1864
  Zn  Zn10  1  0.076980  0.239650  0.773010  1.0  1.0251
  P  P11  1  0.795400  0.926200  0.393490  1.0  1.7362
  P  P12  1  0.756200  0.916500  0.098640  1.0  1.7685
  P  P13  1  0.955600  0.428900  0.237830  1.0  1.7808
  P  P14  1  0.264600  0.122000  0.242290  1.0  1.815
  P  P15  1  0.444400  0.562800  0.272540  1.0  1.6963
  P  P16  1  0.204600  0.426200  0.606510  1.0  1.7529
  P  P17  1  0.243800  0.416500  0.901360  1.0  1.7699
  P  P18  1  0.044400  0.928900  0.762170  1.0  1.7811
  P  P19  1  0.735400  0.622000  0.757710  1.0  1.8149
  P  P20  1  0.555600  0.062800  0.727460  1.0  1.6849
  H  H21  1  0.563600  0.423200  0.201900  1.0  0.4605
  H  H22  1  0.436400  0.923200  0.798100  1.0  0.4627
  O  O23  1  0.628200  0.860600  0.150600  1.0  -0.7804
  O  O24  1  0.638900  0.969900  0.370900  1.0  -0.719
  O  O25  1  0.475500  0.704500  0.308700  1.0  -0.7998
  O  O26  1  0.364500  0.001200  0.248300  1.0  -0.8385
  O  O27  1  0.241600  0.185700  0.337800  1.0  -0.7404
  O  O28  1  0.412300  0.462900  0.351800  1.0  -0.7323
  O  O29  1  0.816600  0.888300  0.495500  1.0  -0.7994
  O  O30  1  0.058200  0.460800  0.319300  1.0  -0.7781
  O  O31  1  0.037700  0.407400  0.146700  1.0  -0.7395
  O  O32  1  0.713700  0.940100  0.997400  1.0  -0.7814
  O  O33  1  0.324200  0.561800  0.199400  1.0  -0.719
  O  O34  1  0.323800  0.229200  0.174000  1.0  -0.7321
  O  O35  1  0.899000  0.044300  0.370000  1.0  -0.7146
  O  O36  1  0.863100  0.302500  0.257900  1.0  -0.7058
  O  O37  1  0.119600  0.069900  0.203000  1.0  -0.73
  O  O38  1  0.806000  0.054000  0.142500  1.0  -0.7548
  O  O39  1  0.831300  0.798700  0.336300  1.0  -0.8106
  O  O40  1  0.882200  0.813500  0.104300  1.0  -0.7255
  O  O41  1  0.852900  0.551100  0.225000  1.0  -0.7398
  O  O42  1  0.582000  0.502400  0.221900  1.0  -0.6387
  O  O43  1  0.371800  0.360600  0.849400  1.0  -0.78
  O  O44  1  0.361100  0.469900  0.629100  1.0  -0.7191
  O  O45  1  0.524500  0.204500  0.691300  1.0  -0.8015
  O  O46  1  0.635500  0.501200  0.751700  1.0  -0.8392
  O  O47  1  0.758400  0.685700  0.662200  1.0  -0.7383
  O  O48  1  0.587700  0.962900  0.648200  1.0  -0.7325
  O  O49  1  0.183400  0.388300  0.504500  1.0  -0.8007
  O  O50  1  0.941800  0.960800  0.680700  1.0  -0.7782
  O  O51  1  0.962300  0.907400  0.853300  1.0  -0.7398
  O  O52  1  0.286300  0.440100  0.002600  1.0  -0.7807
  O  O53  1  0.675800  0.061800  0.800600  1.0  -0.72
  O  O54  1  0.676200  0.729200  0.826000  1.0  -0.7323
  O  O55  1  0.101000  0.544300  0.630000  1.0  -0.7166
  O  O56  1  0.136900  0.802500  0.742100  1.0  -0.7083
  O  O57  1  0.880400  0.569900  0.797000  1.0  -0.7305
  O  O58  1  0.194000  0.554000  0.857500  1.0  -0.7531
  O  O59  1  0.168700  0.298700  0.663700  1.0  -0.8118
  O  O60  1  0.117800  0.313500  0.895700  1.0  -0.7242
  O  O61  1  0.147100  0.051100  0.775000  1.0  -0.7392
  O  O62  1  0.418000  0.002400  0.778100  1.0  -0.641
