# generated using pymatgen
data_ZnPO4
_symmetry_space_group_name_H-M   'P 1'
_cell_length_a   10.20000000
_cell_length_b   9.99800000
_cell_length_c   10.44710000
_cell_angle_alpha   90.00000000
_cell_angle_beta   92.24200000
_cell_angle_gamma   90.00000000
_symmetry_Int_Tables_number   1
_chemical_formula_structural   ZnPO4
_chemical_formula_sum   'Zn8 P8 O32'
_cell_volume   1064.57553103
_cell_formula_units_Z   8
loop_
 _symmetry_equiv_pos_site_id
 _symmetry_equiv_pos_as_xyz
  1  'x, y, z'
loop_
 _atom_site_type_symbol
 _atom_site_label
 _atom_site_symmetry_multiplicity
 _atom_site_fract_x
 _atom_site_fract_y
 _atom_site_fract_z
 _atom_site_occupancy
 _atom_site_charge
  Zn  Zn1  1  0.137200  0.423500  0.892700  1.0  1.1877
  Zn  Zn2  1  0.372400  0.098900  0.121100  1.0  1.1594
  Zn  Zn3  1  0.083000  0.150100  0.398800  1.0  1.1767
  Zn  Zn4  1  0.579200  0.814300  0.375000  1.0  1.1638
  Zn  Zn5  1  0.862800  0.923500  0.107300  1.0  1.1876
  Zn  Zn6  1  0.627600  0.598900  0.878900  1.0  1.1591
  Zn  Zn7  1  0.917000  0.650100  0.601200  1.0  1.177
  Zn  Zn8  1  0.420800  0.314300  0.625000  1.0  1.1641
  P  P9  1  0.928200  0.671300  0.905800  1.0  1.7383
  P  P10  1  0.384100  0.063700  0.431300  1.0  1.7633
  P  P11  1  0.114400  0.396800  0.587800  1.0  1.8387
  P  P12  1  0.432700  0.354600  0.929300  1.0  1.7321
  P  P13  1  0.071800  0.171300  0.094200  1.0  1.7326
  P  P14  1  0.615900  0.563700  0.568700  1.0  1.7769
  P  P15  1  0.885600  0.896800  0.412200  1.0  1.8387
  P  P16  1  0.567300  0.854600  0.070700  1.0  1.7319
  O  O17  1  0.319400  0.456800  0.930900  1.0  -0.6957
  O  O18  1  0.059100  0.597300  0.917000  1.0  -0.7651
  O  O19  1  0.100900  0.344800  0.724200  1.0  -0.7333
  O  O20  1  0.061800  0.286700  0.998900  1.0  -0.7917
  O  O21  1  0.429700  0.262000  0.045900  1.0  -0.7938
  O  O22  1  0.408400  0.130200  0.302200  1.0  -0.7613
  O  O23  1  0.563100  0.429400  0.938400  1.0  -0.7396
  O  O24  1  0.815500  0.574200  0.937600  1.0  -0.6979
  O  O25  1  0.236700  0.055300  0.456600  1.0  -0.753
  O  O26  1  0.070600  0.539700  0.576600  1.0  -0.7244
  O  O27  1  0.032700  0.308900  0.496700  1.0  -0.6972
  O  O28  1  0.904000  0.729700  0.771900  1.0  -0.7134
  O  O29  1  0.434500  0.920000  0.434500  1.0  -0.7448
  O  O30  1  0.423600  0.269400  0.805700  1.0  -0.7147
  O  O31  1  0.261000  0.395300  0.552700  1.0  -0.7281
  O  O32  1  0.454800  0.143700  0.537200  1.0  -0.7103
  O  O33  1  0.680600  0.956800  0.069100  1.0  -0.6969
  O  O34  1  0.940900  0.097300  0.083000  1.0  -0.7654
  O  O35  1  0.899100  0.844800  0.275800  1.0  -0.7327
  O  O36  1  0.938200  0.786700  0.001100  1.0  -0.7913
  O  O37  1  0.570300  0.762000  0.954100  1.0  -0.7927
  O  O38  1  0.591600  0.630200  0.697800  1.0  -0.7626
  O  O39  1  0.436900  0.929400  0.061600  1.0  -0.741
  O  O40  1  0.184500  0.074200  0.062400  1.0  -0.6967
  O  O41  1  0.763300  0.555300  0.543400  1.0  -0.7527
  O  O42  1  0.929400  0.039700  0.423400  1.0  -0.7237
  O  O43  1  0.967300  0.808900  0.503300  1.0  -0.6957
  O  O44  1  0.096000  0.229700  0.228100  1.0  -0.7128
  O  O45  1  0.565500  0.420000  0.565500  1.0  -0.7458
  O  O46  1  0.576400  0.769400  0.194300  1.0  -0.7139
  O  O47  1  0.739000  0.895300  0.447300  1.0  -0.7288
  O  O48  1  0.545200  0.643700  0.462800  1.0  -0.7107
