# generated using pymatgen
data_ZnPO4
_symmetry_space_group_name_H-M   'P 1'
_cell_length_a   10.18420000
_cell_length_b   9.98030000
_cell_length_c   10.43750000
_cell_angle_alpha   90.00000000
_cell_angle_beta   92.31200000
_cell_angle_gamma   90.00000000
_symmetry_Int_Tables_number   1
_chemical_formula_structural   ZnPO4
_chemical_formula_sum   'Zn8 P8 O32'
_cell_volume   1060.01822080
_cell_formula_units_Z   8
loop_
 _symmetry_equiv_pos_site_id
 _symmetry_equiv_pos_as_xyz
  1  'x, y, z'
loop_
 _atom_site_type_symbol
 _atom_site_label
 _atom_site_symmetry_multiplicity
 _atom_site_fract_x
 _atom_site_fract_y
 _atom_site_fract_z
 _atom_site_occupancy
 _atom_site_charge
  Zn  Zn1  1  0.872280  0.288570  0.121080  1.0  1.1759
  Zn  Zn2  1  0.583060  0.237460  0.398690  1.0  1.1938
  Zn  Zn3  1  0.362640  0.464050  0.107140  1.0  1.192
  Zn  Zn4  1  0.079180  0.573070  0.375210  1.0  1.1702
  Zn  Zn5  1  0.127720  0.788570  0.878920  1.0  1.1759
  Zn  Zn6  1  0.416940  0.737460  0.601310  1.0  1.1943
  Zn  Zn7  1  0.637360  0.964050  0.892860  1.0  1.1925
  Zn  Zn8  1  0.920820  0.073070  0.624790  1.0  1.1705
  P  P9  1  0.067460  0.532830  0.070530  1.0  1.7656
  P  P10  1  0.883730  0.323790  0.431320  1.0  1.7693
  P  P11  1  0.385510  0.490480  0.412350  1.0  1.7857
  P  P12  1  0.571830  0.216280  0.094120  1.0  1.7409
  P  P13  1  0.932540  0.032830  0.929470  1.0  1.7661
  P  P14  1  0.116270  0.823790  0.568680  1.0  1.7796
  P  P15  1  0.614490  0.990480  0.587650  1.0  1.7848
  P  P16  1  0.428170  0.716280  0.905880  1.0  1.7412
  O  O17  1  0.936200  0.457400  0.061900  1.0  -0.745
  O  O18  1  0.908000  0.257300  0.302000  1.0  -0.7632
  O  O19  1  0.684500  0.313600  0.063000  1.0  -0.7048
  O  O20  1  0.069100  0.624300  0.954500  1.0  -0.7931
  O  O21  1  0.596700  0.158400  0.228500  1.0  -0.7288
  O  O22  1  0.430200  0.345200  0.424200  1.0  -0.7361
  O  O23  1  0.467400  0.579400  0.503700  1.0  -0.6927
  O  O24  1  0.737100  0.331500  0.457200  1.0  -0.7535
  O  O25  1  0.440700  0.290800  0.083200  1.0  -0.7658
  O  O26  1  0.561600  0.100900  0.998500  1.0  -0.79
  O  O27  1  0.398200  0.543000  0.275500  1.0  -0.7299
  O  O28  1  0.179100  0.429900  0.070000  1.0  -0.7027
  O  O29  1  0.934700  0.468500  0.435100  1.0  -0.731
  O  O30  1  0.956500  0.242400  0.536700  1.0  -0.7075
  O  O31  1  0.239200  0.492500  0.448100  1.0  -0.7328
  O  O32  1  0.076600  0.618100  0.193800  1.0  -0.7184
  O  O33  1  0.063800  0.957400  0.938100  1.0  -0.7446
  O  O34  1  0.092000  0.757300  0.698000  1.0  -0.764
  O  O35  1  0.315500  0.813600  0.937000  1.0  -0.7052
  O  O36  1  0.930900  0.124300  0.045500  1.0  -0.7961
  O  O37  1  0.403300  0.658400  0.771500  1.0  -0.7301
  O  O38  1  0.569800  0.845200  0.575800  1.0  -0.7389
  O  O39  1  0.532600  0.079400  0.496300  1.0  -0.6935
  O  O40  1  0.262900  0.831500  0.542800  1.0  -0.7522
  O  O41  1  0.559300  0.790800  0.916800  1.0  -0.7649
  O  O42  1  0.438400  0.600900  0.001500  1.0  -0.7892
  O  O43  1  0.601800  0.043000  0.724500  1.0  -0.7307
  O  O44  1  0.820900  0.929900  0.930000  1.0  -0.7027
  O  O45  1  0.065300  0.968500  0.564900  1.0  -0.7313
  O  O46  1  0.043500  0.742400  0.463300  1.0  -0.7078
  O  O47  1  0.760800  0.992500  0.551900  1.0  -0.7326
  O  O48  1  0.923400  0.118100  0.806200  1.0  -0.7192
