# generated using pymatgen
data_Zn5P5HO20
_symmetry_space_group_name_H-M   'P 1'
_cell_length_a   9.29940000
_cell_length_b   9.75100000
_cell_length_c   14.33480000
_cell_angle_alpha   90.00000000
_cell_angle_beta   90.97400000
_cell_angle_gamma   90.00000000
_symmetry_Int_Tables_number   1
_chemical_formula_structural   Zn5P5HO20
_chemical_formula_sum   'Zn10 P10 H2 O40'
_cell_volume   1299.66962248
_cell_formula_units_Z   2
loop_
 _symmetry_equiv_pos_site_id
 _symmetry_equiv_pos_as_xyz
  1  'x, y, z'
loop_
 _atom_site_type_symbol
 _atom_site_label
 _atom_site_symmetry_multiplicity
 _atom_site_fract_x
 _atom_site_fract_y
 _atom_site_fract_z
 _atom_site_occupancy
 _atom_site_charge
  Zn  Zn1  1  0.532300  0.885300  0.267300  1.0  1.1538
  Zn  Zn2  1  0.228400  0.376900  0.375500  1.0  1.1811
  Zn  Zn3  1  0.756300  0.904000  0.870000  1.0  1.1781
  Zn  Zn4  1  0.929400  0.113500  0.245600  1.0  1.1863
  Zn  Zn5  1  0.923000  0.739600  0.227000  1.0  1.0225
  Zn  Zn6  1  0.467700  0.385300  0.732700  1.0  1.1539
  Zn  Zn7  1  0.771600  0.876900  0.624500  1.0  1.1782
  Zn  Zn8  1  0.243700  0.404000  0.130000  1.0  1.1766
  Zn  Zn9  1  0.070600  0.613500  0.754400  1.0  1.1862
  Zn  Zn10  1  0.077000  0.239600  0.773000  1.0  1.0246
  P  P11  1  0.795400  0.926200  0.393500  1.0  1.7361
  P  P12  1  0.756200  0.916500  0.098600  1.0  1.766
  P  P13  1  0.955600  0.428900  0.237800  1.0  1.7809
  P  P14  1  0.264600  0.122000  0.242300  1.0  1.8151
  P  P15  1  0.444400  0.562800  0.272500  1.0  1.6969
  P  P16  1  0.204600  0.426200  0.606500  1.0  1.7528
  P  P17  1  0.243800  0.416500  0.901400  1.0  1.7673
  P  P18  1  0.044400  0.928900  0.762200  1.0  1.7811
  P  P19  1  0.735400  0.622000  0.757700  1.0  1.815
  P  P20  1  0.555600  0.062800  0.727500  1.0  1.6855
  H  H21  1  0.563600  0.423200  0.201900  1.0  0.4606
  H  H22  1  0.436400  0.923200  0.798100  1.0  0.4628
  O  O23  1  0.628200  0.860600  0.150600  1.0  -0.7803
  O  O24  1  0.638900  0.969900  0.370900  1.0  -0.7193
  O  O25  1  0.475500  0.704500  0.308700  1.0  -0.7989
  O  O26  1  0.364500  0.001200  0.248300  1.0  -0.8384
  O  O27  1  0.241600  0.185700  0.337800  1.0  -0.7404
  O  O28  1  0.412300  0.462900  0.351800  1.0  -0.7324
  O  O29  1  0.816600  0.888300  0.495500  1.0  -0.7992
  O  O30  1  0.058200  0.460800  0.319300  1.0  -0.7781
  O  O31  1  0.037700  0.407400  0.146700  1.0  -0.7394
  O  O32  1  0.713700  0.940100  0.997400  1.0  -0.7804
  O  O33  1  0.324200  0.561800  0.199400  1.0  -0.7191
  O  O34  1  0.323800  0.229200  0.174000  1.0  -0.732
  O  O35  1  0.899000  0.044300  0.370000  1.0  -0.7145
  O  O36  1  0.863100  0.302500  0.257900  1.0  -0.7057
  O  O37  1  0.119600  0.069900  0.203000  1.0  -0.7302
  O  O38  1  0.806000  0.054000  0.142500  1.0  -0.7545
  O  O39  1  0.831300  0.798700  0.336300  1.0  -0.8108
  O  O40  1  0.882200  0.813500  0.104300  1.0  -0.7253
  O  O41  1  0.852900  0.551100  0.225000  1.0  -0.7397
  O  O42  1  0.582000  0.502400  0.221900  1.0  -0.6384
  O  O43  1  0.371800  0.360600  0.849400  1.0  -0.7799
  O  O44  1  0.361100  0.469900  0.629100  1.0  -0.7193
  O  O45  1  0.524500  0.204500  0.691300  1.0  -0.8008
  O  O46  1  0.635500  0.501200  0.751700  1.0  -0.8391
  O  O47  1  0.758400  0.685700  0.662200  1.0  -0.7383
  O  O48  1  0.587700  0.962900  0.648200  1.0  -0.7326
  O  O49  1  0.183400  0.388300  0.504500  1.0  -0.8006
  O  O50  1  0.941800  0.960800  0.680700  1.0  -0.7782
  O  O51  1  0.962300  0.907400  0.853300  1.0  -0.7398
  O  O52  1  0.286300  0.440100  0.002600  1.0  -0.7796
  O  O53  1  0.675800  0.061800  0.800600  1.0  -0.72
  O  O54  1  0.676200  0.729200  0.826000  1.0  -0.7323
  O  O55  1  0.101000  0.544300  0.630000  1.0  -0.7165
  O  O56  1  0.136900  0.802500  0.742100  1.0  -0.7082
  O  O57  1  0.880400  0.569900  0.797000  1.0  -0.7308
  O  O58  1  0.194000  0.554000  0.857500  1.0  -0.7528
  O  O59  1  0.168700  0.298700  0.663700  1.0  -0.812
  O  O60  1  0.117800  0.313500  0.895700  1.0  -0.7239
  O  O61  1  0.147100  0.051100  0.775000  1.0  -0.7391
  O  O62  1  0.418000  0.002400  0.778100  1.0  -0.6407
