# generated using pymatgen
data_Be3P3H2O13
_symmetry_space_group_name_H-M   'P 1'
_cell_length_a   25.29700000
_cell_length_b   4.88610000
_cell_length_c   24.26800000
_cell_angle_alpha   90.00000000
_cell_angle_beta   118.28500000
_cell_angle_gamma   90.00000000
_symmetry_Int_Tables_number   1
_chemical_formula_structural   Be3P3H2O13
_chemical_formula_sum   'Be24 P24 H16 O104'
_cell_volume   2641.46432204
_cell_formula_units_Z   8
loop_
 _symmetry_equiv_pos_site_id
 _symmetry_equiv_pos_as_xyz
  1  'x, y, z'
loop_
 _atom_site_type_symbol
 _atom_site_label
 _atom_site_symmetry_multiplicity
 _atom_site_fract_x
 _atom_site_fract_y
 _atom_site_fract_z
 _atom_site_occupancy
 _atom_site_charge
  Be  Be1  1  0.182250  0.324000  0.748030  1.0  1.1279
  Be  Be2  1  0.059090  0.339800  0.840700  1.0  1.211
  Be  Be3  1  0.262660  0.483100  0.072070  1.0  1.1542
  Be  Be4  1  0.682250  0.824000  0.748030  1.0  1.1279
  Be  Be5  1  0.559090  0.839800  0.840700  1.0  1.211
  Be  Be6  1  0.762660  0.983100  0.072070  1.0  1.1542
  Be  Be7  1  0.817750  0.324000  0.751970  1.0  1.1285
  Be  Be8  1  0.940910  0.339800  0.659300  1.0  1.2137
  Be  Be9  1  0.737340  0.483100  0.427930  1.0  1.1538
  Be  Be10  1  0.317750  0.824000  0.751970  1.0  1.1285
  Be  Be11  1  0.440910  0.839800  0.659300  1.0  1.2137
  Be  Be12  1  0.237340  0.983100  0.427930  1.0  1.1538
  Be  Be13  1  0.817750  0.676000  0.251970  1.0  1.1288
  Be  Be14  1  0.940910  0.660200  0.159300  1.0  1.2131
  Be  Be15  1  0.737340  0.516900  0.927930  1.0  1.154
  Be  Be16  1  0.317750  0.176000  0.251970  1.0  1.1288
  Be  Be17  1  0.440910  0.160200  0.159300  1.0  1.2131
  Be  Be18  1  0.237340  0.016900  0.927930  1.0  1.154
  Be  Be19  1  0.182250  0.676000  0.248030  1.0  1.1281
  Be  Be20  1  0.059090  0.660200  0.340700  1.0  1.212
  Be  Be21  1  0.262660  0.516900  0.572070  1.0  1.1544
  Be  Be22  1  0.682250  0.176000  0.248030  1.0  1.1281
  Be  Be23  1  0.559090  0.160200  0.340700  1.0  1.212
  Be  Be24  1  0.762660  0.016900  0.572070  1.0  1.1544
  P  P25  1  0.239520  0.837720  0.815490  1.0  1.7737
  P  P26  1  0.066010  0.511330  0.725430  1.0  1.682
  P  P27  1  0.177400  0.522700  0.934600  1.0  1.7878
  P  P28  1  0.739520  0.337720  0.815490  1.0  1.7737
  P  P29  1  0.566010  0.011330  0.725430  1.0  1.682
  P  P30  1  0.677400  0.022700  0.934600  1.0  1.7878
  P  P31  1  0.760480  0.837720  0.684510  1.0  1.7727
  P  P32  1  0.933990  0.511330  0.774570  1.0  1.684
  P  P33  1  0.822600  0.522700  0.565400  1.0  1.7875
  P  P34  1  0.260480  0.337720  0.684510  1.0  1.7727
  P  P35  1  0.433990  0.011330  0.774570  1.0  1.684
  P  P36  1  0.322600  0.022700  0.565400  1.0  1.7875
  P  P37  1  0.760480  0.162280  0.184510  1.0  1.7728
  P  P38  1  0.933990  0.488670  0.274570  1.0  1.6832
  P  P39  1  0.822600  0.477300  0.065400  1.0  1.7872
  P  P40  1  0.260480  0.662280  0.184510  1.0  1.7728
  P  P41  1  0.433990  0.988670  0.274570  1.0  1.6832
  P  P42  1  0.322600  0.977300  0.065400  1.0  1.7872
  P  P43  1  0.239520  0.162280  0.315490  1.0  1.7738
  P  P44  1  0.066010  0.488670  0.225430  1.0  1.6844
  P  P45  1  0.177400  0.477300  0.434600  1.0  1.7875
  P  P46  1  0.739520  0.662280  0.315490  1.0  1.7738
  P  P47  1  0.566010  0.988670  0.225430  1.0  1.6844
  P  P48  1  0.677400  0.977300  0.434600  1.0  1.7875
  H  H49  1  0.104200  0.882800  0.745000  1.0  0.4169
  H  H50  1  0.053900  0.979600  0.883600  1.0  0.464
  H  H51  1  0.604200  0.382800  0.745000  1.0  0.4169
  H  H52  1  0.553900  0.479600  0.883600  1.0  0.464
  H  H53  1  0.895800  0.882800  0.755000  1.0  0.4165
  H  H54  1  0.946100  0.979600  0.616400  1.0  0.4626
  H  H55  1  0.395800  0.382800  0.755000  1.0  0.4165
  H  H56  1  0.446100  0.479600  0.616400  1.0  0.4626
  H  H57  1  0.895800  0.117200  0.255000  1.0  0.4167
  H  H58  1  0.946100  0.020400  0.116400  1.0  0.4638
  H  H59  1  0.395800  0.617200  0.255000  1.0  0.4167
  H  H60  1  0.446100  0.520400  0.116400  1.0  0.4638
  H  H61  1  0.104200  0.117200  0.245000  1.0  0.417
  H  H62  1  0.053900  0.020400  0.383600  1.0  0.4631
  H  H63  1  0.604200  0.617200  0.245000  1.0  0.417
  H  H64  1  0.553900  0.520400  0.383600  1.0  0.4631
  O  O65  1  0.217500  0.533900  0.811910  1.0  -0.898
  O  O66  1  0.266170  0.930400  0.883710  1.0  -0.7724
  O  O67  1  0.287710  0.853900  0.796290  1.0  -0.7414
  O  O68  1  0.185000  0.013300  0.773670  1.0  -0.7259
  O  O69  1  0.113610  0.415700  0.708840  1.0  -0.6489
  O  O70  1  0.069120  0.833200  0.730250  1.0  -0.6759
  O  O71  1  0.003880  0.461900  0.671460  1.0  -0.6948
  O  O72  1  0.075750  0.393700  0.786110  1.0  -0.7418
  O  O73  1  0.111630  0.450100  0.906210  1.0  -0.6721
  O  O74  1  0.207350  0.459200  0.003460  1.0  -0.751
  O  O75  1  0.209330  0.340600  0.904690  1.0  -0.8723
  O  O76  1  0.183620  0.820900  0.920300  1.0  -0.7818
  O  O77  1  0.056560  0.006100  0.851640  1.0  -0.6466
  O  O78  1  0.717500  0.033900  0.811910  1.0  -0.898
  O  O79  1  0.766170  0.430400  0.883710  1.0  -0.7724
  O  O80  1  0.787710  0.353900  0.796290  1.0  -0.7414
  O  O81  1  0.685000  0.513300  0.773670  1.0  -0.7259
  O  O82  1  0.613610  0.915700  0.708840  1.0  -0.6489
  O  O83  1  0.569120  0.333200  0.730250  1.0  -0.6759
  O  O84  1  0.503880  0.961900  0.671460  1.0  -0.6948
  O  O85  1  0.575750  0.893700  0.786110  1.0  -0.7418
  O  O86  1  0.611630  0.950100  0.906210  1.0  -0.6721
  O  O87  1  0.707350  0.959200  0.003460  1.0  -0.751
  O  O88  1  0.709330  0.840600  0.904690  1.0  -0.8723
  O  O89  1  0.683620  0.320900  0.920300  1.0  -0.7818
  O  O90  1  0.556560  0.506100  0.851640  1.0  -0.6466
  O  O91  1  0.782500  0.533900  0.688090  1.0  -0.8978
  O  O92  1  0.733830  0.930400  0.616290  1.0  -0.7683
  O  O93  1  0.712290  0.853900  0.703710  1.0  -0.7411
  O  O94  1  0.815000  0.013300  0.726330  1.0  -0.7266
  O  O95  1  0.886390  0.415700  0.791160  1.0  -0.6476
  O  O96  1  0.930880  0.833200  0.769750  1.0  -0.6745
  O  O97  1  0.996120  0.461900  0.828540  1.0  -0.6915
  O  O98  1  0.924250  0.393700  0.713890  1.0  -0.741
  O  O99  1  0.888370  0.450100  0.593790  1.0  -0.6758
  O  O100  1  0.792650  0.459200  0.496540  1.0  -0.751
  O  O101  1  0.790670  0.340600  0.595310  1.0  -0.873
  O  O102  1  0.816380  0.820900  0.579700  1.0  -0.7821
  O  O103  1  0.943440  0.006100  0.648360  1.0  -0.6458
  O  O104  1  0.282500  0.033900  0.688090  1.0  -0.8978
  O  O105  1  0.233830  0.430400  0.616290  1.0  -0.7683
  O  O106  1  0.212290  0.353900  0.703710  1.0  -0.7411
  O  O107  1  0.315000  0.513300  0.726330  1.0  -0.7266
  O  O108  1  0.386390  0.915700  0.791160  1.0  -0.6476
  O  O109  1  0.430880  0.333200  0.769750  1.0  -0.6745
  O  O110  1  0.496120  0.961900  0.828540  1.0  -0.6915
  O  O111  1  0.424250  0.893700  0.713890  1.0  -0.741
  O  O112  1  0.388370  0.950100  0.593790  1.0  -0.6758
  O  O113  1  0.292650  0.959200  0.496540  1.0  -0.751
  O  O114  1  0.290670  0.840600  0.595310  1.0  -0.873
  O  O115  1  0.316380  0.320900  0.579700  1.0  -0.7821
  O  O116  1  0.443440  0.506100  0.648360  1.0  -0.6458
  O  O117  1  0.782500  0.466100  0.188090  1.0  -0.8973
  O  O118  1  0.733830  0.069600  0.116290  1.0  -0.768
  O  O119  1  0.712290  0.146100  0.203710  1.0  -0.741
  O  O120  1  0.815000  0.986700  0.226330  1.0  -0.7266
  O  O121  1  0.886390  0.584300  0.291160  1.0  -0.6473
  O  O122  1  0.930880  0.166800  0.269750  1.0  -0.6743
  O  O123  1  0.996120  0.538100  0.328540  1.0  -0.6913
  O  O124  1  0.924250  0.606300  0.213890  1.0  -0.7414
  O  O125  1  0.888370  0.549900  0.093790  1.0  -0.676
  O  O126  1  0.792650  0.540800  0.996540  1.0  -0.7494
  O  O127  1  0.790670  0.659400  0.095310  1.0  -0.8732
  O  O128  1  0.816380  0.179100  0.079700  1.0  -0.7825
  O  O129  1  0.943440  0.993900  0.148360  1.0  -0.647
  O  O130  1  0.282500  0.966100  0.188090  1.0  -0.8973
  O  O131  1  0.233830  0.569600  0.116290  1.0  -0.768
  O  O132  1  0.212290  0.646100  0.203710  1.0  -0.741
  O  O133  1  0.315000  0.486700  0.226330  1.0  -0.7266
  O  O134  1  0.386390  0.084300  0.291160  1.0  -0.6473
  O  O135  1  0.430880  0.666800  0.269750  1.0  -0.6743
  O  O136  1  0.496120  0.038100  0.328540  1.0  -0.6913
  O  O137  1  0.424250  0.106300  0.213890  1.0  -0.7414
  O  O138  1  0.388370  0.049900  0.093790  1.0  -0.676
  O  O139  1  0.292650  0.040800  0.996540  1.0  -0.7494
  O  O140  1  0.290670  0.159400  0.095310  1.0  -0.8732
  O  O141  1  0.316380  0.679100  0.079700  1.0  -0.7825
  O  O142  1  0.443440  0.493900  0.148360  1.0  -0.647
  O  O143  1  0.217500  0.466100  0.311910  1.0  -0.8971
  O  O144  1  0.266170  0.069600  0.383710  1.0  -0.7724
  O  O145  1  0.287710  0.146100  0.296290  1.0  -0.7412
  O  O146  1  0.185000  0.986700  0.273670  1.0  -0.7259
  O  O147  1  0.113610  0.584300  0.208840  1.0  -0.6488
  O  O148  1  0.069120  0.166800  0.230250  1.0  -0.6763
  O  O149  1  0.003880  0.538100  0.171460  1.0  -0.6948
  O  O150  1  0.075750  0.606300  0.286110  1.0  -0.7417
  O  O151  1  0.111630  0.549900  0.406210  1.0  -0.672
  O  O152  1  0.207350  0.540800  0.503460  1.0  -0.7505
  O  O153  1  0.209330  0.659400  0.404690  1.0  -0.8725
  O  O154  1  0.183620  0.179100  0.420300  1.0  -0.7822
  O  O155  1  0.056560  0.993900  0.351640  1.0  -0.6469
  O  O156  1  0.717500  0.966100  0.311910  1.0  -0.8971
  O  O157  1  0.766170  0.569600  0.383710  1.0  -0.7724
  O  O158  1  0.787710  0.646100  0.296290  1.0  -0.7412
  O  O159  1  0.685000  0.486700  0.273670  1.0  -0.7259
  O  O160  1  0.613610  0.084300  0.208840  1.0  -0.6488
  O  O161  1  0.569120  0.666800  0.230250  1.0  -0.6763
  O  O162  1  0.503880  0.038100  0.171460  1.0  -0.6948
  O  O163  1  0.575750  0.106300  0.286110  1.0  -0.7417
  O  O164  1  0.611630  0.049900  0.406210  1.0  -0.672
  O  O165  1  0.707350  0.040800  0.503460  1.0  -0.7505
  O  O166  1  0.709330  0.159400  0.404690  1.0  -0.8725
  O  O167  1  0.683620  0.679100  0.420300  1.0  -0.7822
  O  O168  1  0.556560  0.493900  0.351640  1.0  -0.6469
