# generated using pymatgen
data_LaH6(C2O)6
_symmetry_space_group_name_H-M   'P 1'
_cell_length_a   9.91000000
_cell_length_b   10.74500000
_cell_length_c   11.07900000
_cell_angle_alpha   63.17700000
_cell_angle_beta   65.55600000
_cell_angle_gamma   66.66400000
_symmetry_Int_Tables_number   1
_chemical_formula_structural   LaH6(C2O)6
_chemical_formula_sum   'La2 H12 C24 O12'
_cell_volume   926.04257758
_cell_formula_units_Z   2
loop_
 _symmetry_equiv_pos_site_id
 _symmetry_equiv_pos_as_xyz
  1  'x, y, z'
loop_
 _atom_site_type_symbol
 _atom_site_label
 _atom_site_symmetry_multiplicity
 _atom_site_fract_x
 _atom_site_fract_y
 _atom_site_fract_z
 _atom_site_occupancy
 _atom_site_charge
  La  La1  1  0.282810  0.009470  0.510300  1.0  2.1958
  La  La2  1  0.717190  0.990530  0.489700  1.0  2.1959
  H  H3  1  0.528300  0.605600  0.330400  1.0  0.1149
  H  H4  1  0.679300  0.372000  0.341000  1.0  0.0973
  H  H5  1  0.001300  0.447400  0.415900  1.0  0.0994
  H  H6  1  0.845700  0.678600  0.411500  1.0  0.1099
  H  H7  1  0.705100  0.606000  0.889500  1.0  0.1119
  H  H8  1  0.287900  0.601100  0.914100  1.0  0.1057
  H  H9  1  0.471700  0.394400  0.669600  1.0  0.1147
  H  H10  1  0.320700  0.628000  0.659000  1.0  0.0972
  H  H11  1  0.998700  0.552600  0.584100  1.0  0.0995
  H  H12  1  0.154300  0.321400  0.588500  1.0  0.11
  H  H13  1  0.294900  0.394000  0.110500  1.0  0.1119
  H  H14  1  0.712100  0.398900  0.085900  1.0  0.106
  C  C15  1  0.559000  0.802000  0.391100  1.0  0.7349
  C  C16  1  0.669100  0.660100  0.377500  1.0  -0.1282
  C  C17  1  0.622900  0.571700  0.351600  1.0  -0.0445
  C  C18  1  0.713500  0.433300  0.356300  1.0  -0.0354
  C  C19  1  0.853900  0.384600  0.383400  1.0  -0.1394
  C  C20  1  0.903400  0.478100  0.401500  1.0  -0.0421
  C  C21  1  0.811200  0.615700  0.398800  1.0  -0.0494
  C  C22  1  0.055400  0.769800  0.596100  1.0  0.7987
  C  C23  1  0.486300  0.764500  0.757600  1.0  0.7733
  C  C24  1  0.494200  0.626200  0.882200  1.0  -0.124
  C  C25  1  0.621400  0.563100  0.934700  1.0  -0.0633
  C  C26  1  0.374300  0.560100  0.949300  1.0  -0.0527
  C  C27  1  0.441000  0.198000  0.608900  1.0  0.7328
  C  C28  1  0.330900  0.339900  0.622500  1.0  -0.1286
  C  C29  1  0.377100  0.428300  0.648400  1.0  -0.0444
  C  C30  1  0.286500  0.566700  0.643700  1.0  -0.0376
  C  C31  1  0.146100  0.615400  0.616600  1.0  -0.1376
  C  C32  1  0.096600  0.521900  0.598500  1.0  -0.0426
  C  C33  1  0.188800  0.384300  0.601200  1.0  -0.0478
  C  C34  1  0.944600  0.230200  0.403900  1.0  0.7946
  C  C35  1  0.513700  0.235500  0.242400  1.0  0.7712
  C  C36  1  0.505800  0.373800  0.117800  1.0  -0.127
  C  C37  1  0.378600  0.436900  0.065300  1.0  -0.0626
  C  C38  1  0.625700  0.439900  0.050700  1.0  -0.0533
  O  O39  1  0.430900  0.838300  0.372400  1.0  -0.6824
  O  O40  1  0.597000  0.876900  0.426900  1.0  -0.8188
  O  O41  1  0.922600  0.805100  0.584000  1.0  -0.7643
  O  O42  1  0.113600  0.854200  0.593300  1.0  -0.7509
  O  O43  1  0.374800  0.808700  0.708800  1.0  -0.7264
  O  O44  1  0.591900  0.824800  0.711000  1.0  -0.7137
  O  O45  1  0.569100  0.161700  0.627600  1.0  -0.6826
  O  O46  1  0.403000  0.123100  0.573100  1.0  -0.8183
  O  O47  1  0.077400  0.194900  0.416000  1.0  -0.7651
  O  O48  1  0.886400  0.145800  0.406700  1.0  -0.7535
  O  O49  1  0.625200  0.191300  0.291200  1.0  -0.7243
  O  O50  1  0.408100  0.175200  0.289000  1.0  -0.7149
