# generated using pymatgen
data_NdH6(C2O)6
_symmetry_space_group_name_H-M   'P 1'
_cell_length_a   9.76100000
_cell_length_b   10.64500000
_cell_length_c   10.95600000
_cell_angle_alpha   63.33100000
_cell_angle_beta   65.96900000
_cell_angle_gamma   67.12800000
_symmetry_Int_Tables_number   1
_chemical_formula_structural   NdH6(C2O)6
_chemical_formula_sum   'Nd2 H12 C24 O12'
_cell_volume   899.06031692
_cell_formula_units_Z   2
loop_
 _symmetry_equiv_pos_site_id
 _symmetry_equiv_pos_as_xyz
  1  'x, y, z'
loop_
 _atom_site_type_symbol
 _atom_site_label
 _atom_site_symmetry_multiplicity
 _atom_site_fract_x
 _atom_site_fract_y
 _atom_site_fract_z
 _atom_site_occupancy
 _atom_site_charge
  Nd  Nd1  1  0.714210  0.992320  0.492490  1.0  2.3041
  Nd  Nd2  1  0.285790  0.007680  0.507510  1.0  2.3043
  H  H3  1  0.476000  0.397400  0.665400  1.0  0.1156
  H  H4  1  0.321300  0.632200  0.655600  1.0  0.0946
  H  H5  1  0.984000  0.548800  0.599400  1.0  0.1022
  H  H6  1  0.143100  0.316800  0.600300  1.0  0.1052
  H  H7  1  0.298000  0.384800  0.107900  1.0  0.1118
  H  H8  1  0.714200  0.401300  0.089200  1.0  0.1094
  H  H9  1  0.524000  0.602600  0.334600  1.0  0.1158
  H  H10  1  0.678700  0.367800  0.344400  1.0  0.094
  H  H11  1  0.016000  0.451200  0.400600  1.0  0.1022
  H  H12  1  0.856900  0.683200  0.399700  1.0  0.1047
  H  H13  1  0.702000  0.615200  0.892100  1.0  0.1114
  H  H14  1  0.285800  0.598700  0.910800  1.0  0.1092
  C  C15  1  0.438800  0.199400  0.607400  1.0  0.7281
  C  C16  1  0.327200  0.338800  0.624900  1.0  -0.1267
  C  C17  1  0.378400  0.429800  0.647200  1.0  -0.0539
  C  C18  1  0.285400  0.569000  0.642800  1.0  -0.0323
  C  C19  1  0.141100  0.616200  0.620100  1.0  -0.1263
  C  C20  1  0.085600  0.520000  0.608300  1.0  -0.0585
  C  C21  1  0.180000  0.381500  0.609800  1.0  -0.0624
  C  C22  1  0.049300  0.771500  0.599100  1.0  0.7471
  C  C23  1  0.516200  0.231700  0.242300  1.0  0.7908
  C  C24  1  0.508200  0.371800  0.116300  1.0  -0.1133
  C  C25  1  0.380200  0.431400  0.063800  1.0  -0.0482
  C  C26  1  0.627300  0.441200  0.052700  1.0  -0.0452
  C  C27  1  0.561200  0.800600  0.392600  1.0  0.7301
  C  C28  1  0.672800  0.661200  0.375100  1.0  -0.1251
  C  C29  1  0.621600  0.570200  0.352800  1.0  -0.0555
  C  C30  1  0.714600  0.431000  0.357200  1.0  -0.0308
  C  C31  1  0.858900  0.383800  0.379900  1.0  -0.127
  C  C32  1  0.914400  0.480000  0.391700  1.0  -0.0576
  C  C33  1  0.820000  0.618500  0.390200  1.0  -0.0639
  C  C34  1  0.950700  0.228500  0.400900  1.0  0.7443
  C  C35  1  0.483800  0.768300  0.757700  1.0  0.793
  C  C36  1  0.491800  0.628200  0.883700  1.0  -0.1103
  C  C37  1  0.619800  0.568600  0.936200  1.0  -0.048
  C  C38  1  0.372700  0.558800  0.947300  1.0  -0.0465
  O  O39  1  0.570100  0.162400  0.625700  1.0  -0.7028
  O  O40  1  0.402300  0.124600  0.567200  1.0  -0.8594
  O  O41  1  0.914900  0.805700  0.588700  1.0  -0.767
  O  O42  1  0.112900  0.858400  0.590400  1.0  -0.7645
  O  O43  1  0.628400  0.188100  0.293500  1.0  -0.7331
  O  O44  1  0.413100  0.166600  0.285500  1.0  -0.7165
  O  O45  1  0.429900  0.837600  0.374300  1.0  -0.7021
  O  O46  1  0.597700  0.875400  0.432800  1.0  -0.8589
  O  O47  1  0.085100  0.194300  0.411300  1.0  -0.7672
  O  O48  1  0.887100  0.141600  0.409600  1.0  -0.7654
  O  O49  1  0.371600  0.811900  0.706500  1.0  -0.7329
  O  O50  1  0.586900  0.833400  0.714500  1.0  -0.7168
