# generated using pymatgen
data_CeH6(C2O)6
_symmetry_space_group_name_H-M   'P 1'
_cell_length_a   9.85550000
_cell_length_b   10.70500000
_cell_length_c   11.10600000
_cell_angle_alpha   62.94700000
_cell_angle_beta   65.65300000
_cell_angle_gamma   66.64700000
_symmetry_Int_Tables_number   1
_chemical_formula_structural   CeH6(C2O)6
_chemical_formula_sum   'Ce2 H12 C24 O12'
_cell_volume   918.66347658
_cell_formula_units_Z   2
loop_
 _symmetry_equiv_pos_site_id
 _symmetry_equiv_pos_as_xyz
  1  'x, y, z'
loop_
 _atom_site_type_symbol
 _atom_site_label
 _atom_site_symmetry_multiplicity
 _atom_site_fract_x
 _atom_site_fract_y
 _atom_site_fract_z
 _atom_site_occupancy
 _atom_site_charge
  Ce  Ce1  1  0.783010  0.509300  0.510340  1.0  2.293
  Ce  Ce2  1  0.216990  0.490700  0.489660  1.0  2.293
  H  H3  1  0.025300  0.106300  0.332200  1.0  0.1148
  H  H4  1  0.179300  0.872700  0.340400  1.0  0.0984
  H  H5  1  0.785100  0.103200  0.915400  1.0  0.1058
  H  H6  1  0.204300  0.109900  0.888600  1.0  0.114
  H  H7  1  0.350600  0.179900  0.405500  1.0  0.1085
  H  H8  1  0.504100  0.945800  0.414100  1.0  0.1003
  H  H9  1  0.974700  0.893700  0.667800  1.0  0.1147
  H  H10  1  0.820700  0.127300  0.659600  1.0  0.098
  H  H11  1  0.214900  0.896800  0.084600  1.0  0.1063
  H  H12  1  0.795700  0.890100  0.111400  1.0  0.114
  H  H13  1  0.649400  0.820100  0.594500  1.0  0.1078
  H  H14  1  0.495900  0.054200  0.585900  1.0  0.1006
  C  C15  1  0.985900  0.264600  0.756400  1.0  0.7726
  C  C16  1  0.121000  0.072700  0.352500  1.0  -0.0573
  C  C17  1  0.213200  0.933800  0.356700  1.0  -0.0468
  C  C18  1  0.353900  0.884000  0.384600  1.0  -0.134
  C  C19  1  0.168000  0.161900  0.377600  1.0  -0.1295
  C  C20  1  0.993100  0.126300  0.882200  1.0  -0.1248
  C  C21  1  0.872900  0.061000  0.949600  1.0  -0.0473
  C  C22  1  0.121500  0.065200  0.933600  1.0  -0.0525
  C  C23  1  0.313600  0.116200  0.395900  1.0  -0.0595
  C  C24  1  0.405300  0.977000  0.400300  1.0  -0.048
  C  C25  1  0.059600  0.302300  0.391800  1.0  0.716
  C  C26  1  0.554700  0.270900  0.595300  1.0  0.8072
  C  C27  1  0.014100  0.735400  0.243600  1.0  0.7695
  C  C28  1  0.879000  0.927300  0.647500  1.0  -0.0568
  C  C29  1  0.786800  0.066200  0.643300  1.0  -0.0517
  C  C30  1  0.646100  0.116000  0.615400  1.0  -0.1335
  C  C31  1  0.832000  0.838100  0.622400  1.0  -0.1306
  C  C32  1  0.006900  0.873700  0.117800  1.0  -0.1265
  C  C33  1  0.127100  0.939000  0.050400  1.0  -0.0483
  C  C34  1  0.878500  0.934800  0.066400  1.0  -0.053
  C  C35  1  0.686400  0.883800  0.604100  1.0  -0.0587
  C  C36  1  0.594700  0.023000  0.599700  1.0  -0.0488
  C  C37  1  0.940400  0.697700  0.608200  1.0  0.7153
  C  C38  1  0.445300  0.729100  0.404700  1.0  0.8014
  O  O39  1  0.421800  0.306000  0.585700  1.0  -0.7683
  O  O40  1  0.613400  0.356500  0.593300  1.0  -0.7595
  O  O41  1  0.929600  0.340100  0.373500  1.0  -0.6893
  O  O42  1  0.096700  0.377100  0.429100  1.0  -0.8641
  O  O43  1  0.875300  0.308100  0.707100  1.0  -0.7205
  O  O44  1  0.092500  0.325200  0.709300  1.0  -0.7194
  O  O45  1  0.578200  0.694000  0.414300  1.0  -0.769
  O  O46  1  0.386600  0.643500  0.406700  1.0  -0.76
  O  O47  1  0.070400  0.659900  0.626500  1.0  -0.6914
  O  O48  1  0.903300  0.622900  0.570900  1.0  -0.8626
  O  O49  1  0.124700  0.691900  0.292900  1.0  -0.719
  O  O50  1  0.907500  0.674800  0.290700  1.0  -0.7203
