# generated using pymatgen
data_AgH12(C3N)6
_symmetry_space_group_name_H-M   'P 1'
_cell_length_a   22.08700000
_cell_length_b   16.31720000
_cell_length_c   25.62790000
_cell_angle_alpha   90.00000000
_cell_angle_beta   115.26500000
_cell_angle_gamma   90.00000000
_symmetry_Int_Tables_number   1
_chemical_formula_structural   AgH12(C3N)6
_chemical_formula_sum   'Ag16 H192 C288 N96'
_cell_volume   8352.73649257
_cell_formula_units_Z   16
loop_
 _symmetry_equiv_pos_site_id
 _symmetry_equiv_pos_as_xyz
  1  'x, y, z'
loop_
 _atom_site_type_symbol
 _atom_site_label
 _atom_site_symmetry_multiplicity
 _atom_site_fract_x
 _atom_site_fract_y
 _atom_site_fract_z
 _atom_site_occupancy
 _atom_site_charge
  Ag  Ag1  1  0.822960  0.252120  0.867230  1.0  0.2858
  Ag  Ag2  1  0.343970  0.457170  0.367760  1.0  0.3355
  Ag  Ag3  1  0.322960  0.752120  0.867230  1.0  0.2858
  Ag  Ag4  1  0.843970  0.957170  0.367760  1.0  0.3355
  Ag  Ag5  1  0.177040  0.252120  0.632770  1.0  0.2853
  Ag  Ag6  1  0.656030  0.457170  0.132240  1.0  0.3357
  Ag  Ag7  1  0.677040  0.752120  0.632770  1.0  0.2853
  Ag  Ag8  1  0.156030  0.957170  0.132240  1.0  0.3357
  Ag  Ag9  1  0.177040  0.747880  0.132770  1.0  0.2852
  Ag  Ag10  1  0.656030  0.542830  0.632240  1.0  0.3356
  Ag  Ag11  1  0.677040  0.247880  0.132770  1.0  0.2852
  Ag  Ag12  1  0.156030  0.042830  0.632240  1.0  0.3356
  Ag  Ag13  1  0.822960  0.747880  0.367230  1.0  0.2858
  Ag  Ag14  1  0.343970  0.542830  0.867760  1.0  0.3355
  Ag  Ag15  1  0.322960  0.247880  0.367230  1.0  0.2858
  Ag  Ag16  1  0.843970  0.042830  0.867760  1.0  0.3355
  H  H17  1  0.713400  0.058600  0.348400  1.0  0.0852
  H  H18  1  0.298500  0.634000  0.048900  1.0  0.1263
  H  H19  1  0.022800  0.382200  0.036600  1.0  0.13
  H  H20  1  0.923300  0.315200  0.984800  1.0  0.0811
  H  H21  1  0.199600  0.656500  0.851900  1.0  0.094
  H  H22  1  0.555000  0.291200  0.390000  1.0  0.1235
  H  H23  1  0.820400  0.088300  0.544900  1.0  0.1249
  H  H24  1  0.135200  0.438800  0.161600  1.0  0.1191
  H  H25  1  0.543000  0.330500  0.540000  1.0  0.1325
  H  H26  1  0.868000  0.017600  0.494400  1.0  0.0749
  H  H27  1  0.143500  0.587500  0.896300  1.0  0.1264
  H  H28  1  0.352100  0.521200  0.263400  1.0  0.085
  H  H29  1  0.444300  0.397600  0.489600  1.0  0.0757
  H  H30  1  0.349700  0.703600  0.999900  1.0  0.0822
  H  H31  1  0.455300  0.362100  0.344300  1.0  0.0839
  H  H32  1  0.923900  0.382400  0.839400  1.0  0.0778
  H  H33  1  0.020500  0.456500  0.886100  1.0  0.1281
  H  H34  1  0.662100  0.133400  0.393900  1.0  0.1261
  H  H35  1  0.302200  0.540200  0.164800  1.0  0.1154
  H  H36  1  0.867700  0.179500  0.767200  1.0  0.0864
  H  H37  1  0.677300  0.319800  0.656300  1.0  0.1247
  H  H38  1  0.824000  0.165100  0.668500  1.0  0.1251
  H  H39  1  0.189000  0.422100  0.259500  1.0  0.084
  H  H40  1  0.725700  0.330000  0.754700  1.0  0.0737
  H  H41  1  0.213400  0.558600  0.348400  1.0  0.0852
  H  H42  1  0.798500  0.134000  0.048900  1.0  0.1263
  H  H43  1  0.522800  0.882200  0.036600  1.0  0.13
  H  H44  1  0.423300  0.815200  0.984800  1.0  0.0812
  H  H45  1  0.699600  0.156500  0.851900  1.0  0.094
  H  H46  1  0.055000  0.791200  0.390000  1.0  0.1235
  H  H47  1  0.320400  0.588300  0.544900  1.0  0.1249
  H  H48  1  0.635200  0.938800  0.161600  1.0  0.1191
  H  H49  1  0.043000  0.830500  0.540000  1.0  0.1325
  H  H50  1  0.368000  0.517600  0.494400  1.0  0.0749
  H  H51  1  0.643500  0.087500  0.896300  1.0  0.1264
  H  H52  1  0.852100  0.021200  0.263400  1.0  0.085
  H  H53  1  0.944300  0.897600  0.489600  1.0  0.0757
  H  H54  1  0.849700  0.203600  0.999900  1.0  0.0822
  H  H55  1  0.955300  0.862100  0.344300  1.0  0.0839
  H  H56  1  0.423900  0.882400  0.839400  1.0  0.0778
  H  H57  1  0.520500  0.956500  0.886100  1.0  0.1281
  H  H58  1  0.162100  0.633400  0.393900  1.0  0.1261
  H  H59  1  0.802200  0.040200  0.164800  1.0  0.1154
  H  H60  1  0.367700  0.679500  0.767200  1.0  0.0864
  H  H61  1  0.177300  0.819800  0.656300  1.0  0.1247
  H  H62  1  0.324000  0.665100  0.668500  1.0  0.1251
  H  H63  1  0.689000  0.922100  0.259500  1.0  0.0839
  H  H64  1  0.225700  0.830000  0.754700  1.0  0.0737
  H  H65  1  0.286600  0.058600  0.151600  1.0  0.0838
  H  H66  1  0.701500  0.634000  0.451100  1.0  0.1261
  H  H67  1  0.977200  0.382200  0.463400  1.0  0.1304
  H  H68  1  0.076700  0.315200  0.515200  1.0  0.0819
  H  H69  1  0.800400  0.656500  0.648100  1.0  0.0935
  H  H70  1  0.445000  0.291200  0.110000  1.0  0.1228
  H  H71  1  0.179600  0.088300  0.955100  1.0  0.1255
  H  H72  1  0.864800  0.438800  0.338400  1.0  0.118
  H  H73  1  0.457000  0.330500  0.960000  1.0  0.1328
  H  H74  1  0.132000  0.017600  0.005600  1.0  0.0741
  H  H75  1  0.856500  0.587500  0.603700  1.0  0.1271
  H  H76  1  0.647900  0.521200  0.236600  1.0  0.0837
  H  H77  1  0.555700  0.397600  0.010400  1.0  0.0758
  H  H78  1  0.650300  0.703600  0.500100  1.0  0.0815
  H  H79  1  0.544700  0.362100  0.155700  1.0  0.0843
  H  H80  1  0.076100  0.382400  0.660600  1.0  0.0779
  H  H81  1  0.979500  0.456500  0.613900  1.0  0.1275
  H  H82  1  0.337900  0.133400  0.106100  1.0  0.1256
  H  H83  1  0.697800  0.540200  0.335200  1.0  0.1158
  H  H84  1  0.132300  0.179500  0.732800  1.0  0.0865
  H  H85  1  0.322700  0.319800  0.843700  1.0  0.1253
  H  H86  1  0.176000  0.165100  0.831500  1.0  0.1249
  H  H87  1  0.811000  0.422100  0.240500  1.0  0.0833
  H  H88  1  0.274300  0.330000  0.745300  1.0  0.0722
  H  H89  1  0.786600  0.558600  0.151600  1.0  0.0838
  H  H90  1  0.201500  0.134000  0.451100  1.0  0.1261
  H  H91  1  0.477200  0.882200  0.463400  1.0  0.1304
  H  H92  1  0.576700  0.815200  0.515200  1.0  0.082
  H  H93  1  0.300400  0.156500  0.648100  1.0  0.0935
  H  H94  1  0.945000  0.791200  0.110000  1.0  0.1228
  H  H95  1  0.679600  0.588300  0.955100  1.0  0.1255
  H  H96  1  0.364800  0.938800  0.338400  1.0  0.118
  H  H97  1  0.957000  0.830500  0.960000  1.0  0.1328
  H  H98  1  0.632000  0.517600  0.005600  1.0  0.0741
  H  H99  1  0.356500  0.087500  0.603700  1.0  0.1271
  H  H100  1  0.147900  0.021200  0.236600  1.0  0.0837
  H  H101  1  0.055700  0.897600  0.010400  1.0  0.0758
  H  H102  1  0.150300  0.203600  0.500100  1.0  0.0815
  H  H103  1  0.044700  0.862100  0.155700  1.0  0.0843
  H  H104  1  0.576100  0.882400  0.660600  1.0  0.0779
  H  H105  1  0.479500  0.956500  0.613900  1.0  0.1275
  H  H106  1  0.837900  0.633400  0.106100  1.0  0.1256
  H  H107  1  0.197800  0.040200  0.335200  1.0  0.1158
  H  H108  1  0.632300  0.679500  0.732800  1.0  0.0865
  H  H109  1  0.822700  0.819800  0.843700  1.0  0.1253
  H  H110  1  0.676000  0.665100  0.831500  1.0  0.1249
  H  H111  1  0.311000  0.922100  0.240500  1.0  0.0832
  H  H112  1  0.774300  0.830000  0.745300  1.0  0.0722
  H  H113  1  0.286600  0.941400  0.651600  1.0  0.0835
  H  H114  1  0.701500  0.366000  0.951100  1.0  0.1259
  H  H115  1  0.977200  0.617800  0.963400  1.0  0.1307
  H  H116  1  0.076700  0.684800  0.015200  1.0  0.082
  H  H117  1  0.800400  0.343500  0.148100  1.0  0.0932
  H  H118  1  0.445000  0.708800  0.610000  1.0  0.1226
  H  H119  1  0.179600  0.911700  0.455100  1.0  0.1257
  H  H120  1  0.864800  0.561200  0.838400  1.0  0.1186
  H  H121  1  0.457000  0.669500  0.460000  1.0  0.1326
  H  H122  1  0.132000  0.982400  0.505600  1.0  0.074
  H  H123  1  0.856500  0.412500  0.103700  1.0  0.1271
  H  H124  1  0.647900  0.478800  0.736600  1.0  0.084
  H  H125  1  0.555700  0.602400  0.510400  1.0  0.0761
  H  H126  1  0.650300  0.296400  0.000100  1.0  0.0815
  H  H127  1  0.544700  0.637900  0.655700  1.0  0.0844
  H  H128  1  0.076100  0.617600  0.160600  1.0  0.0779
  H  H129  1  0.979500  0.543500  0.113900  1.0  0.1278
  H  H130  1  0.337900  0.866600  0.606100  1.0  0.1257
  H  H131  1  0.697800  0.459800  0.835200  1.0  0.1158
  H  H132  1  0.132300  0.820500  0.232800  1.0  0.0863
  H  H133  1  0.322700  0.680200  0.343700  1.0  0.1252
  H  H134  1  0.176000  0.834900  0.331500  1.0  0.1249
  H  H135  1  0.811000  0.577900  0.740500  1.0  0.0824
  H  H136  1  0.274300  0.670000  0.245300  1.0  0.0725
  H  H137  1  0.786600  0.441400  0.651600  1.0  0.0835
  H  H138  1  0.201500  0.866000  0.951100  1.0  0.1259
  H  H139  1  0.477200  0.117800  0.963400  1.0  0.1307
  H  H140  1  0.576700  0.184800  0.015200  1.0  0.0822
  H  H141  1  0.300400  0.843500  0.148100  1.0  0.0932
  H  H142  1  0.945000  0.208800  0.610000  1.0  0.1226
  H  H143  1  0.679600  0.411700  0.455100  1.0  0.1257
  H  H144  1  0.364800  0.061200  0.838400  1.0  0.1186
  H  H145  1  0.957000  0.169500  0.460000  1.0  0.1326
  H  H146  1  0.632000  0.482400  0.505600  1.0  0.074
  H  H147  1  0.356500  0.912500  0.103700  1.0  0.1271
  H  H148  1  0.147900  0.978800  0.736600  1.0  0.084
  H  H149  1  0.055700  0.102400  0.510400  1.0  0.0761
  H  H150  1  0.150300  0.796400  0.000100  1.0  0.0815
  H  H151  1  0.044700  0.137900  0.655700  1.0  0.0844
  H  H152  1  0.576100  0.117600  0.160600  1.0  0.0779
  H  H153  1  0.479500  0.043500  0.113900  1.0  0.1278
  H  H154  1  0.837900  0.366600  0.606100  1.0  0.1257
  H  H155  1  0.197800  0.959800  0.835200  1.0  0.1158
  H  H156  1  0.632300  0.320500  0.232800  1.0  0.0863
  H  H157  1  0.822700  0.180200  0.343700  1.0  0.1252
  H  H158  1  0.676000  0.334900  0.331500  1.0  0.1249
  H  H159  1  0.311000  0.077900  0.740500  1.0  0.0823
  H  H160  1  0.774300  0.170000  0.245300  1.0  0.0725
  H  H161  1  0.713400  0.941400  0.848400  1.0  0.0849
  H  H162  1  0.298500  0.366000  0.548900  1.0  0.1264
  H  H163  1  0.022800  0.617800  0.536600  1.0  0.1298
  H  H164  1  0.923300  0.684800  0.484800  1.0  0.081
  H  H165  1  0.199600  0.343500  0.351900  1.0  0.0938
  H  H166  1  0.555000  0.708800  0.890000  1.0  0.123
  H  H167  1  0.820400  0.911700  0.044900  1.0  0.1247
  H  H168  1  0.135200  0.561200  0.661600  1.0  0.1192
  H  H169  1  0.543000  0.669500  0.040000  1.0  0.1325
  H  H170  1  0.868000  0.982400  0.994400  1.0  0.0747
  H  H171  1  0.143500  0.412500  0.396300  1.0  0.1262
  H  H172  1  0.352100  0.478800  0.763400  1.0  0.0847
  H  H173  1  0.444300  0.602400  0.989600  1.0  0.0761
  H  H174  1  0.349700  0.296400  0.499900  1.0  0.0823
  H  H175  1  0.455300  0.637900  0.844300  1.0  0.0838
  H  H176  1  0.923900  0.617600  0.339400  1.0  0.0778
  H  H177  1  0.020500  0.543500  0.386100  1.0  0.1277
  H  H178  1  0.662100  0.866600  0.893900  1.0  0.1263
  H  H179  1  0.302200  0.459800  0.664800  1.0  0.1153
  H  H180  1  0.867700  0.820500  0.267200  1.0  0.0863
  H  H181  1  0.677300  0.680200  0.156300  1.0  0.125
  H  H182  1  0.824000  0.834900  0.168500  1.0  0.1255
  H  H183  1  0.189000  0.577900  0.759500  1.0  0.083
  H  H184  1  0.725700  0.670000  0.254700  1.0  0.0738
  H  H185  1  0.213400  0.441400  0.848400  1.0  0.0849
  H  H186  1  0.798500  0.866000  0.548900  1.0  0.1264
  H  H187  1  0.522800  0.117800  0.536600  1.0  0.1298
  H  H188  1  0.423300  0.184800  0.484800  1.0  0.0811
  H  H189  1  0.699600  0.843500  0.351900  1.0  0.0938
  H  H190  1  0.055000  0.208800  0.890000  1.0  0.123
  H  H191  1  0.320400  0.411700  0.044900  1.0  0.1247
  H  H192  1  0.635200  0.061200  0.661600  1.0  0.1192
  H  H193  1  0.043000  0.169500  0.040000  1.0  0.1325
  H  H194  1  0.368000  0.482400  0.994400  1.0  0.0747
  H  H195  1  0.643500  0.912500  0.396300  1.0  0.1262
  H  H196  1  0.852100  0.978800  0.763400  1.0  0.0847
  H  H197  1  0.944300  0.102400  0.989600  1.0  0.0761
  H  H198  1  0.849700  0.796400  0.499900  1.0  0.0823
  H  H199  1  0.955300  0.137900  0.844300  1.0  0.0838
  H  H200  1  0.423900  0.117600  0.339400  1.0  0.0778
  H  H201  1  0.520500  0.043500  0.386100  1.0  0.1277
  H  H202  1  0.162100  0.366600  0.893900  1.0  0.1263
  H  H203  1  0.802200  0.959800  0.664800  1.0  0.1153
  H  H204  1  0.367700  0.320500  0.267200  1.0  0.0863
  H  H205  1  0.177300  0.180200  0.156300  1.0  0.125
  H  H206  1  0.324000  0.334900  0.168500  1.0  0.1255
  H  H207  1  0.689000  0.077900  0.759500  1.0  0.083
  H  H208  1  0.225700  0.170000  0.254700  1.0  0.0738
  C  C209  1  0.623700  0.256800  0.502400  1.0  0.3737
  C  C210  1  0.735300  0.065200  0.388200  1.0  0.171
  C  C211  1  0.277600  0.637700  0.008900  1.0  -0.1438
  C  C212  1  0.003300  0.383700  0.996500  1.0  -0.1412
  C  C213  1  0.943500  0.343300  0.964800  1.0  0.175
  C  C214  1  0.219600  0.652100  0.891900  1.0  0.1577
  C  C215  1  0.533200  0.312100  0.411200  1.0  -0.1392
  C  C216  1  0.097700  0.469900  0.001000  1.0  0.3773
  C  C217  1  0.798100  0.084000  0.504900  1.0  -0.1648
  C  C218  1  0.559800  0.301900  0.470100  1.0  -0.0894
  C  C219  1  0.179200  0.456300  0.181500  1.0  -0.1077
  C  C220  1  0.033400  0.426200  0.967100  1.0  -0.0798
  C  C221  1  0.709800  0.226900  0.587600  1.0  0.3866
  C  C222  1  0.743300  0.237300  0.651400  1.0  -0.059
  C  C223  1  0.525900  0.335200  0.500100  1.0  -0.1641
  C  C224  1  0.180400  0.502300  0.088400  1.0  0.3631
  C  C225  1  0.182500  0.551700  0.006700  1.0  0.3596
  C  C226  1  0.826000  0.040800  0.474100  1.0  0.1735
  C  C227  1  0.215100  0.601300  0.977400  1.0  -0.0634
  C  C228  1  0.185500  0.609800  0.918200  1.0  -0.1454
  C  C229  1  0.736200  0.120900  0.474900  1.0  -0.1151
  C  C230  1  0.307900  0.504800  0.242700  1.0  0.1759
  C  C231  1  0.466600  0.375300  0.469300  1.0  0.1755
  C  C232  1  0.705600  0.172100  0.505200  1.0  0.3665
  C  C233  1  0.308100  0.679700  0.978900  1.0  0.1752
  C  C234  1  0.472800  0.354400  0.384000  1.0  0.1752
  C  C235  1  0.943600  0.383500  0.879600  1.0  0.1793
  C  C236  1  0.002300  0.427200  0.907100  1.0  -0.1588
  C  C237  1  0.704000  0.110300  0.415200  1.0  -0.1465
  C  C238  1  0.278200  0.516600  0.183300  1.0  -0.154
  C  C239  1  0.212300  0.492400  0.152000  1.0  -0.0909
  C  C240  1  0.828300  0.207100  0.744600  1.0  0.184
  C  C241  1  0.715400  0.289400  0.678100  1.0  -0.1615
  C  C242  1  0.802300  0.197500  0.685100  1.0  -0.1518
  C  C243  1  0.211900  0.446500  0.240400  1.0  0.1767
  C  C244  1  0.745000  0.295300  0.737200  1.0  0.1744
  C  C245  1  0.123700  0.756800  0.502400  1.0  0.3737
  C  C246  1  0.235300  0.565200  0.388200  1.0  0.171
  C  C247  1  0.777600  0.137700  0.008900  1.0  -0.1438
  C  C248  1  0.503300  0.883700  0.996500  1.0  -0.1412
  C  C249  1  0.443500  0.843300  0.964800  1.0  0.175
  C  C250  1  0.719600  0.152100  0.891900  1.0  0.1577
  C  C251  1  0.033200  0.812100  0.411200  1.0  -0.1392
  C  C252  1  0.597700  0.969900  0.001000  1.0  0.3773
  C  C253  1  0.298100  0.584000  0.504900  1.0  -0.1648
  C  C254  1  0.059800  0.801900  0.470100  1.0  -0.0894
  C  C255  1  0.679200  0.956300  0.181500  1.0  -0.1077
  C  C256  1  0.533400  0.926200  0.967100  1.0  -0.0798
  C  C257  1  0.209800  0.726900  0.587600  1.0  0.3866
  C  C258  1  0.243300  0.737300  0.651400  1.0  -0.059
  C  C259  1  0.025900  0.835200  0.500100  1.0  -0.1641
  C  C260  1  0.680400  0.002300  0.088400  1.0  0.3631
  C  C261  1  0.682500  0.051700  0.006700  1.0  0.3596
  C  C262  1  0.326000  0.540800  0.474100  1.0  0.1735
  C  C263  1  0.715100  0.101300  0.977400  1.0  -0.0634
  C  C264  1  0.685500  0.109800  0.918200  1.0  -0.1454
  C  C265  1  0.236200  0.620900  0.474900  1.0  -0.1151
  C  C266  1  0.807900  0.004800  0.242700  1.0  0.1759
  C  C267  1  0.966600  0.875300  0.469300  1.0  0.1755
  C  C268  1  0.205600  0.672100  0.505200  1.0  0.3665
  C  C269  1  0.808100  0.179700  0.978900  1.0  0.1752
  C  C270  1  0.972800  0.854400  0.384000  1.0  0.1752
  C  C271  1  0.443600  0.883500  0.879600  1.0  0.1793
  C  C272  1  0.502300  0.927200  0.907100  1.0  -0.1588
  C  C273  1  0.204000  0.610300  0.415200  1.0  -0.1465
  C  C274  1  0.778200  0.016600  0.183300  1.0  -0.154
  C  C275  1  0.712300  0.992400  0.152000  1.0  -0.0909
  C  C276  1  0.328300  0.707100  0.744600  1.0  0.184
  C  C277  1  0.215400  0.789400  0.678100  1.0  -0.1615
  C  C278  1  0.302300  0.697500  0.685100  1.0  -0.1518
  C  C279  1  0.711900  0.946500  0.240400  1.0  0.1767
  C  C280  1  0.245000  0.795300  0.737200  1.0  0.1744
  C  C281  1  0.376300  0.256800  0.997600  1.0  0.3741
  C  C282  1  0.264700  0.065200  0.111800  1.0  0.1693
  C  C283  1  0.722400  0.637700  0.491100  1.0  -0.1439
  C  C284  1  0.996700  0.383700  0.503500  1.0  -0.143
  C  C285  1  0.056500  0.343300  0.535200  1.0  0.1746
  C  C286  1  0.780400  0.652100  0.608100  1.0  0.1577
  C  C287  1  0.466800  0.312100  0.088800  1.0  -0.1411
  C  C288  1  0.902300  0.469900  0.499000  1.0  0.3766
  C  C289  1  0.201900  0.084000  0.995100  1.0  -0.163
  C  C290  1  0.440200  0.301900  0.029900  1.0  -0.089
  C  C291  1  0.820800  0.456300  0.318500  1.0  -0.109
  C  C292  1  0.966600  0.426200  0.532900  1.0  -0.0811
  C  C293  1  0.290200  0.226900  0.912400  1.0  0.3854
  C  C294  1  0.256700  0.237300  0.848600  1.0  -0.0579
  C  C295  1  0.474100  0.335200  0.999900  1.0  -0.1643
  C  C296  1  0.819600  0.502300  0.411600  1.0  0.3625
  C  C297  1  0.817500  0.551700  0.493300  1.0  0.3606
  C  C298  1  0.174000  0.040800  0.025900  1.0  0.1738
  C  C299  1  0.784900  0.601300  0.522600  1.0  -0.0619
  C  C300  1  0.814500  0.609800  0.581800  1.0  -0.1463
  C  C301  1  0.263800  0.120900  0.025100  1.0  -0.1143
  C  C302  1  0.692100  0.504800  0.257300  1.0  0.1748
  C  C303  1  0.533400  0.375300  0.030700  1.0  0.1752
  C  C304  1  0.294400  0.172100  0.994800  1.0  0.3663
  C  C305  1  0.691900  0.679700  0.521100  1.0  0.1745
  C  C306  1  0.527200  0.354400  0.116000  1.0  0.1742
  C  C307  1  0.056400  0.383500  0.620400  1.0  0.1796
  C  C308  1  0.997700  0.427200  0.592900  1.0  -0.1624
  C  C309  1  0.296000  0.110300  0.084800  1.0  -0.1472
  C  C310  1  0.721800  0.516600  0.316700  1.0  -0.1556
  C  C311  1  0.787700  0.492400  0.348000  1.0  -0.0896
  C  C312  1  0.171700  0.207100  0.755400  1.0  0.1841
  C  C313  1  0.284600  0.289400  0.821900  1.0  -0.1619
  C  C314  1  0.197700  0.197500  0.814900  1.0  -0.1506
  C  C315  1  0.788100  0.446500  0.259600  1.0  0.1774
  C  C316  1  0.255000  0.295300  0.762800  1.0  0.1734
  C  C317  1  0.876300  0.756800  0.997600  1.0  0.3741
  C  C318  1  0.764700  0.565200  0.111800  1.0  0.1693
  C  C319  1  0.222400  0.137700  0.491100  1.0  -0.1439
  C  C320  1  0.496700  0.883700  0.503500  1.0  -0.143
  C  C321  1  0.556500  0.843300  0.535200  1.0  0.1746
  C  C322  1  0.280400  0.152100  0.608100  1.0  0.1577
  C  C323  1  0.966800  0.812100  0.088800  1.0  -0.1411
  C  C324  1  0.402300  0.969900  0.499000  1.0  0.3766
  C  C325  1  0.701900  0.584000  0.995100  1.0  -0.163
  C  C326  1  0.940200  0.801900  0.029900  1.0  -0.089
  C  C327  1  0.320800  0.956300  0.318500  1.0  -0.109
  C  C328  1  0.466600  0.926200  0.532900  1.0  -0.0811
  C  C329  1  0.790200  0.726900  0.912400  1.0  0.3854
  C  C330  1  0.756700  0.737300  0.848600  1.0  -0.0579
  C  C331  1  0.974100  0.835200  0.999900  1.0  -0.1643
  C  C332  1  0.319600  0.002300  0.411600  1.0  0.3625
  C  C333  1  0.317500  0.051700  0.493300  1.0  0.3606
  C  C334  1  0.674000  0.540800  0.025900  1.0  0.1738
  C  C335  1  0.284900  0.101300  0.522600  1.0  -0.0619
  C  C336  1  0.314500  0.109800  0.581800  1.0  -0.1463
  C  C337  1  0.763800  0.620900  0.025100  1.0  -0.1143
  C  C338  1  0.192100  0.004800  0.257300  1.0  0.1748
  C  C339  1  0.033400  0.875300  0.030700  1.0  0.1752
  C  C340  1  0.794400  0.672100  0.994800  1.0  0.3663
  C  C341  1  0.191900  0.179700  0.521100  1.0  0.1745
  C  C342  1  0.027200  0.854400  0.116000  1.0  0.1742
  C  C343  1  0.556400  0.883500  0.620400  1.0  0.1796
  C  C344  1  0.497700  0.927200  0.592900  1.0  -0.1624
  C  C345  1  0.796000  0.610300  0.084800  1.0  -0.1472
  C  C346  1  0.221800  0.016600  0.316700  1.0  -0.1556
  C  C347  1  0.287700  0.992400  0.348000  1.0  -0.0896
  C  C348  1  0.671700  0.707100  0.755400  1.0  0.1841
  C  C349  1  0.784600  0.789400  0.821900  1.0  -0.1619
  C  C350  1  0.697700  0.697500  0.814900  1.0  -0.1506
  C  C351  1  0.288100  0.946500  0.259600  1.0  0.1774
  C  C352  1  0.755000  0.795300  0.762800  1.0  0.1734
  C  C353  1  0.376300  0.743200  0.497600  1.0  0.3743
  C  C354  1  0.264700  0.934800  0.611800  1.0  0.169
  C  C355  1  0.722400  0.362300  0.991100  1.0  -0.1433
  C  C356  1  0.996700  0.616300  0.003500  1.0  -0.1436
  C  C357  1  0.056500  0.656700  0.035200  1.0  0.1744
  C  C358  1  0.780400  0.347900  0.108100  1.0  0.1582
  C  C359  1  0.466800  0.687900  0.588800  1.0  -0.1403
  C  C360  1  0.902300  0.530100  0.999000  1.0  0.3772
  C  C361  1  0.201900  0.916000  0.495100  1.0  -0.1633
  C  C362  1  0.440200  0.698100  0.529900  1.0  -0.0897
  C  C363  1  0.820800  0.543700  0.818500  1.0  -0.1091
  C  C364  1  0.966600  0.573800  0.032900  1.0  -0.0812
  C  C365  1  0.290200  0.773100  0.412400  1.0  0.3858
  C  C366  1  0.256700  0.762700  0.348600  1.0  -0.0578
  C  C367  1  0.474100  0.664800  0.499900  1.0  -0.1643
  C  C368  1  0.819600  0.497700  0.911600  1.0  0.3629
  C  C369  1  0.817500  0.448300  0.993300  1.0  0.3604
  C  C370  1  0.174000  0.959200  0.525900  1.0  0.1731
  C  C371  1  0.784900  0.398700  0.022600  1.0  -0.0627
  C  C372  1  0.814500  0.390200  0.081800  1.0  -0.1458
  C  C373  1  0.263800  0.879100  0.525100  1.0  -0.1147
  C  C374  1  0.692100  0.495200  0.757300  1.0  0.1745
  C  C375  1  0.533400  0.624700  0.530700  1.0  0.1744
  C  C376  1  0.294400  0.827900  0.494800  1.0  0.3662
  C  C377  1  0.691900  0.320300  0.021100  1.0  0.1753
  C  C378  1  0.527200  0.645600  0.616000  1.0  0.1744
  C  C379  1  0.056400  0.616500  0.120400  1.0  0.1796
  C  C380  1  0.997700  0.572800  0.092900  1.0  -0.1625
  C  C381  1  0.296000  0.889700  0.584800  1.0  -0.1475
  C  C382  1  0.721800  0.483400  0.816700  1.0  -0.1541
  C  C383  1  0.787700  0.507600  0.848000  1.0  -0.0892
  C  C384  1  0.171700  0.792900  0.255400  1.0  0.1845
  C  C385  1  0.284600  0.710600  0.321900  1.0  -0.1621
  C  C386  1  0.197700  0.802500  0.314900  1.0  -0.15
  C  C387  1  0.788100  0.553500  0.759600  1.0  0.1775
  C  C388  1  0.255000  0.704700  0.262800  1.0  0.1736
  C  C389  1  0.876300  0.243200  0.497600  1.0  0.3743
  C  C390  1  0.764700  0.434800  0.611800  1.0  0.169
  C  C391  1  0.222400  0.862300  0.991100  1.0  -0.1433
  C  C392  1  0.496700  0.116300  0.003500  1.0  -0.1436
  C  C393  1  0.556500  0.156700  0.035200  1.0  0.1744
  C  C394  1  0.280400  0.847900  0.108100  1.0  0.1582
  C  C395  1  0.966800  0.187900  0.588800  1.0  -0.1403
  C  C396  1  0.402300  0.030100  0.999000  1.0  0.3772
  C  C397  1  0.701900  0.416000  0.495100  1.0  -0.1633
  C  C398  1  0.940200  0.198100  0.529900  1.0  -0.0897
  C  C399  1  0.320800  0.043700  0.818500  1.0  -0.1091
  C  C400  1  0.466600  0.073800  0.032900  1.0  -0.0812
  C  C401  1  0.790200  0.273100  0.412400  1.0  0.3858
  C  C402  1  0.756700  0.262700  0.348600  1.0  -0.0578
  C  C403  1  0.974100  0.164800  0.499900  1.0  -0.1643
  C  C404  1  0.319600  0.997700  0.911600  1.0  0.3629
  C  C405  1  0.317500  0.948300  0.993300  1.0  0.3604
  C  C406  1  0.674000  0.459200  0.525900  1.0  0.1731
  C  C407  1  0.284900  0.898700  0.022600  1.0  -0.0627
  C  C408  1  0.314500  0.890200  0.081800  1.0  -0.1458
  C  C409  1  0.763800  0.379100  0.525100  1.0  -0.1147
  C  C410  1  0.192100  0.995200  0.757300  1.0  0.1745
  C  C411  1  0.033400  0.124700  0.530700  1.0  0.1744
  C  C412  1  0.794400  0.327900  0.494800  1.0  0.3662
  C  C413  1  0.191900  0.820300  0.021100  1.0  0.1753
  C  C414  1  0.027200  0.145600  0.616000  1.0  0.1744
  C  C415  1  0.556400  0.116500  0.120400  1.0  0.1796
  C  C416  1  0.497700  0.072800  0.092900  1.0  -0.1625
  C  C417  1  0.796000  0.389700  0.584800  1.0  -0.1475
  C  C418  1  0.221800  0.983400  0.816700  1.0  -0.1541
  C  C419  1  0.287700  0.007600  0.848000  1.0  -0.0892
  C  C420  1  0.671700  0.292900  0.255400  1.0  0.1845
  C  C421  1  0.784600  0.210600  0.321900  1.0  -0.1621
  C  C422  1  0.697700  0.302500  0.314900  1.0  -0.15
  C  C423  1  0.288100  0.053500  0.759600  1.0  0.1775
  C  C424  1  0.755000  0.204700  0.262800  1.0  0.1736
  C  C425  1  0.623700  0.743200  0.002400  1.0  0.374
  C  C426  1  0.735300  0.934800  0.888200  1.0  0.1706
  C  C427  1  0.277600  0.362300  0.508900  1.0  -0.1441
  C  C428  1  0.003300  0.616300  0.496500  1.0  -0.1418
  C  C429  1  0.943500  0.656700  0.464800  1.0  0.1744
  C  C430  1  0.219600  0.347900  0.391900  1.0  0.1577
  C  C431  1  0.533200  0.687900  0.911200  1.0  -0.1392
  C  C432  1  0.097700  0.530100  0.501000  1.0  0.378
  C  C433  1  0.798100  0.916000  0.004900  1.0  -0.1645
  C  C434  1  0.559800  0.698100  0.970100  1.0  -0.0889
  C  C435  1  0.179200  0.543700  0.681500  1.0  -0.1079
  C  C436  1  0.033400  0.573800  0.467100  1.0  -0.0806
  C  C437  1  0.709800  0.773100  0.087600  1.0  0.387
  C  C438  1  0.743300  0.762700  0.151400  1.0  -0.0589
  C  C439  1  0.525900  0.664800  0.000100  1.0  -0.1642
  C  C440  1  0.180400  0.497700  0.588400  1.0  0.3636
  C  C441  1  0.182500  0.448300  0.506700  1.0  0.3594
  C  C442  1  0.826000  0.959200  0.974100  1.0  0.173
  C  C443  1  0.215100  0.398700  0.477400  1.0  -0.0636
  C  C444  1  0.185500  0.390200  0.418200  1.0  -0.1456
  C  C445  1  0.736200  0.879100  0.974900  1.0  -0.1153
  C  C446  1  0.307900  0.495200  0.742700  1.0  0.1754
  C  C447  1  0.466600  0.624700  0.969300  1.0  0.1764
  C  C448  1  0.705600  0.827900  0.005200  1.0  0.3663
  C  C449  1  0.308100  0.320300  0.478900  1.0  0.1753
  C  C450  1  0.472800  0.645600  0.884000  1.0  0.1747
  C  C451  1  0.943600  0.616500  0.379600  1.0  0.1795
  C  C452  1  0.002300  0.572800  0.407100  1.0  -0.1592
  C  C453  1  0.704000  0.889700  0.915200  1.0  -0.146
  C  C454  1  0.278200  0.483400  0.683300  1.0  -0.1532
  C  C455  1  0.212300  0.507600  0.652000  1.0  -0.0908
  C  C456  1  0.828300  0.792900  0.244600  1.0  0.1846
  C  C457  1  0.715400  0.710600  0.178100  1.0  -0.1616
  C  C458  1  0.802300  0.802500  0.185100  1.0  -0.1513
  C  C459  1  0.211900  0.553500  0.740400  1.0  0.1771
  C  C460  1  0.745000  0.704700  0.237200  1.0  0.1742
  C  C461  1  0.123700  0.243200  0.002400  1.0  0.374
  C  C462  1  0.235300  0.434800  0.888200  1.0  0.1706
  C  C463  1  0.777600  0.862300  0.508900  1.0  -0.1441
  C  C464  1  0.503300  0.116300  0.496500  1.0  -0.1418
  C  C465  1  0.443500  0.156700  0.464800  1.0  0.1744
  C  C466  1  0.719600  0.847900  0.391900  1.0  0.1577
  C  C467  1  0.033200  0.187900  0.911200  1.0  -0.1392
  C  C468  1  0.597700  0.030100  0.501000  1.0  0.378
  C  C469  1  0.298100  0.416000  0.004900  1.0  -0.1645
  C  C470  1  0.059800  0.198100  0.970100  1.0  -0.0889
  C  C471  1  0.679200  0.043700  0.681500  1.0  -0.1079
  C  C472  1  0.533400  0.073800  0.467100  1.0  -0.0806
  C  C473  1  0.209800  0.273100  0.087600  1.0  0.387
  C  C474  1  0.243300  0.262700  0.151400  1.0  -0.0589
  C  C475  1  0.025900  0.164800  0.000100  1.0  -0.1642
  C  C476  1  0.680400  0.997700  0.588400  1.0  0.3636
  C  C477  1  0.682500  0.948300  0.506700  1.0  0.3594
  C  C478  1  0.326000  0.459200  0.974100  1.0  0.173
  C  C479  1  0.715100  0.898700  0.477400  1.0  -0.0636
  C  C480  1  0.685500  0.890200  0.418200  1.0  -0.1456
  C  C481  1  0.236200  0.379100  0.974900  1.0  -0.1153
  C  C482  1  0.807900  0.995200  0.742700  1.0  0.1754
  C  C483  1  0.966600  0.124700  0.969300  1.0  0.1764
  C  C484  1  0.205600  0.327900  0.005200  1.0  0.3663
  C  C485  1  0.808100  0.820300  0.478900  1.0  0.1753
  C  C486  1  0.972800  0.145600  0.884000  1.0  0.1747
  C  C487  1  0.443600  0.116500  0.379600  1.0  0.1795
  C  C488  1  0.502300  0.072800  0.407100  1.0  -0.1592
  C  C489  1  0.204000  0.389700  0.915200  1.0  -0.146
  C  C490  1  0.778200  0.983400  0.683300  1.0  -0.1532
  C  C491  1  0.712300  0.007600  0.652000  1.0  -0.0908
  C  C492  1  0.328300  0.292900  0.244600  1.0  0.1846
  C  C493  1  0.215400  0.210600  0.178100  1.0  -0.1616
  C  C494  1  0.302300  0.302500  0.185100  1.0  -0.1513
  C  C495  1  0.711900  0.053500  0.740400  1.0  0.1771
  C  C496  1  0.245000  0.204700  0.237200  1.0  0.1742
  N  N497  1  0.913300  0.342600  0.907220  1.0  -0.353
  N  N498  1  0.280000  0.687200  0.921400  1.0  -0.3271
  N  N499  1  0.275900  0.470900  0.271700  1.0  -0.3643
  N  N500  1  0.122800  0.462700  0.058900  1.0  -0.5038
  N  N501  1  0.126300  0.511200  0.973150  1.0  -0.4892
  N  N502  1  0.211500  0.549900  0.064850  1.0  -0.4986
  N  N503  1  0.439000  0.384300  0.412100  1.0  -0.3179
  N  N504  1  0.795700  0.030300  0.416560  1.0  -0.3665
  N  N505  1  0.800400  0.253600  0.771300  1.0  -0.3442
  N  N506  1  0.648000  0.210500  0.472600  1.0  -0.5242
  N  N507  1  0.738200  0.177500  0.563140  1.0  -0.5243
  N  N508  1  0.652900  0.268100  0.559230  1.0  -0.5268
  N  N509  1  0.413300  0.842600  0.907220  1.0  -0.353
  N  N510  1  0.780000  0.187200  0.921400  1.0  -0.3271
  N  N511  1  0.775900  0.970900  0.271700  1.0  -0.3643
  N  N512  1  0.622800  0.962700  0.058900  1.0  -0.5038
  N  N513  1  0.626300  0.011200  0.973150  1.0  -0.4892
  N  N514  1  0.711500  0.049900  0.064850  1.0  -0.4986
  N  N515  1  0.939000  0.884300  0.412100  1.0  -0.3179
  N  N516  1  0.295700  0.530300  0.416560  1.0  -0.3665
  N  N517  1  0.300400  0.753600  0.771300  1.0  -0.3442
  N  N518  1  0.148000  0.710500  0.472600  1.0  -0.5242
  N  N519  1  0.238200  0.677500  0.563140  1.0  -0.5243
  N  N520  1  0.152900  0.768100  0.559230  1.0  -0.5268
  N  N521  1  0.086700  0.342600  0.592780  1.0  -0.3496
  N  N522  1  0.720000  0.687200  0.578600  1.0  -0.329
  N  N523  1  0.724100  0.470900  0.228300  1.0  -0.3648
  N  N524  1  0.877200  0.462700  0.441100  1.0  -0.5031
  N  N525  1  0.873700  0.511200  0.526850  1.0  -0.4885
  N  N526  1  0.788500  0.549900  0.435150  1.0  -0.4982
  N  N527  1  0.561000  0.384300  0.087900  1.0  -0.3191
  N  N528  1  0.204300  0.030300  0.083440  1.0  -0.3668
  N  N529  1  0.199600  0.253600  0.728700  1.0  -0.3474
  N  N530  1  0.352000  0.210500  0.027400  1.0  -0.5247
  N  N531  1  0.261800  0.177500  0.936860  1.0  -0.5264
  N  N532  1  0.347100  0.268100  0.940770  1.0  -0.5238
  N  N533  1  0.586700  0.842600  0.592780  1.0  -0.3496
  N  N534  1  0.220000  0.187200  0.578600  1.0  -0.329
  N  N535  1  0.224100  0.970900  0.228300  1.0  -0.3648
  N  N536  1  0.377200  0.962700  0.441100  1.0  -0.5031
  N  N537  1  0.373700  0.011200  0.526850  1.0  -0.4885
  N  N538  1  0.288500  0.049900  0.435150  1.0  -0.4982
  N  N539  1  0.061000  0.884300  0.087900  1.0  -0.3191
  N  N540  1  0.704300  0.530300  0.083440  1.0  -0.3668
  N  N541  1  0.699600  0.753600  0.728700  1.0  -0.3474
  N  N542  1  0.852000  0.710500  0.027400  1.0  -0.5247
  N  N543  1  0.761800  0.677500  0.936860  1.0  -0.5264
  N  N544  1  0.847100  0.768100  0.940770  1.0  -0.5238
  N  N545  1  0.086700  0.657400  0.092780  1.0  -0.351
  N  N546  1  0.720000  0.312800  0.078600  1.0  -0.3299
  N  N547  1  0.724100  0.529100  0.728300  1.0  -0.3642
  N  N548  1  0.877200  0.537300  0.941100  1.0  -0.503
  N  N549  1  0.873700  0.488800  0.026850  1.0  -0.4866
  N  N550  1  0.788500  0.450100  0.935150  1.0  -0.5004
  N  N551  1  0.561000  0.615700  0.587900  1.0  -0.3185
  N  N552  1  0.204300  0.969700  0.583440  1.0  -0.3681
  N  N553  1  0.199600  0.746400  0.228700  1.0  -0.3478
  N  N554  1  0.352000  0.789500  0.527400  1.0  -0.5244
  N  N555  1  0.261800  0.822500  0.436860  1.0  -0.5254
  N  N556  1  0.347100  0.731900  0.440770  1.0  -0.525
  N  N557  1  0.586700  0.157400  0.092780  1.0  -0.351
  N  N558  1  0.220000  0.812800  0.078600  1.0  -0.3299
  N  N559  1  0.224100  0.029100  0.728300  1.0  -0.3642
  N  N560  1  0.377200  0.037300  0.941100  1.0  -0.503
  N  N561  1  0.373700  0.988800  0.026850  1.0  -0.4866
  N  N562  1  0.288500  0.950100  0.935150  1.0  -0.5004
  N  N563  1  0.061000  0.115700  0.587900  1.0  -0.3185
  N  N564  1  0.704300  0.469700  0.583440  1.0  -0.3681
  N  N565  1  0.699600  0.246400  0.228700  1.0  -0.3478
  N  N566  1  0.852000  0.289500  0.527400  1.0  -0.5244
  N  N567  1  0.761800  0.322500  0.436860  1.0  -0.5254
  N  N568  1  0.847100  0.231900  0.440770  1.0  -0.525
  N  N569  1  0.913300  0.657400  0.407220  1.0  -0.3521
  N  N570  1  0.280000  0.312800  0.421400  1.0  -0.3304
  N  N571  1  0.275900  0.529100  0.771700  1.0  -0.364
  N  N572  1  0.122800  0.537300  0.558900  1.0  -0.5039
  N  N573  1  0.126300  0.488800  0.473150  1.0  -0.4888
  N  N574  1  0.211500  0.450100  0.564850  1.0  -0.4988
  N  N575  1  0.439000  0.615700  0.912100  1.0  -0.3216
  N  N576  1  0.795700  0.969700  0.916560  1.0  -0.3655
  N  N577  1  0.800400  0.746400  0.271300  1.0  -0.3436
  N  N578  1  0.648000  0.789500  0.972600  1.0  -0.5237
  N  N579  1  0.738200  0.822500  0.063140  1.0  -0.5246
  N  N580  1  0.652900  0.731900  0.059230  1.0  -0.5269
  N  N581  1  0.413300  0.157400  0.407220  1.0  -0.3521
  N  N582  1  0.780000  0.812800  0.421400  1.0  -0.3304
  N  N583  1  0.775900  0.029100  0.771700  1.0  -0.364
  N  N584  1  0.622800  0.037300  0.558900  1.0  -0.5039
  N  N585  1  0.626300  0.988800  0.473150  1.0  -0.4888
  N  N586  1  0.711500  0.950100  0.564850  1.0  -0.4988
  N  N587  1  0.939000  0.115700  0.912100  1.0  -0.3216
  N  N588  1  0.295700  0.469700  0.916560  1.0  -0.3655
  N  N589  1  0.300400  0.246400  0.271300  1.0  -0.3436
  N  N590  1  0.148000  0.289500  0.972600  1.0  -0.5237
  N  N591  1  0.238200  0.322500  0.063140  1.0  -0.5246
  N  N592  1  0.152900  0.231900  0.059230  1.0  -0.5269
