# generated using pymatgen
data_AgH12(C3N)6
_symmetry_space_group_name_H-M   'P 1'
_cell_length_a   22.02900000
_cell_length_b   16.48610000
_cell_length_c   25.58870000
_cell_angle_alpha   90.00000000
_cell_angle_beta   115.23300000
_cell_angle_gamma   90.00000000
_symmetry_Int_Tables_number   1
_chemical_formula_structural   AgH12(C3N)6
_chemical_formula_sum   'Ag16 H192 C288 N96'
_cell_volume   8406.37421819
_cell_formula_units_Z   16
loop_
 _symmetry_equiv_pos_site_id
 _symmetry_equiv_pos_as_xyz
  1  'x, y, z'
loop_
 _atom_site_type_symbol
 _atom_site_label
 _atom_site_symmetry_multiplicity
 _atom_site_fract_x
 _atom_site_fract_y
 _atom_site_fract_z
 _atom_site_occupancy
 _atom_site_charge
  Ag  Ag1  1  0.344270  0.042570  0.367630  1.0  0.3354
  Ag  Ag2  1  0.822660  0.246230  0.867050  1.0  0.2418
  Ag  Ag3  1  0.844270  0.542570  0.367630  1.0  0.3354
  Ag  Ag4  1  0.322660  0.746230  0.867050  1.0  0.2418
  Ag  Ag5  1  0.655730  0.042570  0.132370  1.0  0.335
  Ag  Ag6  1  0.177340  0.246230  0.632950  1.0  0.2414
  Ag  Ag7  1  0.155730  0.542570  0.132370  1.0  0.335
  Ag  Ag8  1  0.677340  0.746230  0.632950  1.0  0.2414
  Ag  Ag9  1  0.655730  0.957430  0.632370  1.0  0.3354
  Ag  Ag10  1  0.177340  0.753770  0.132950  1.0  0.2415
  Ag  Ag11  1  0.155730  0.457430  0.632370  1.0  0.3354
  Ag  Ag12  1  0.677340  0.253770  0.132950  1.0  0.2415
  Ag  Ag13  1  0.344270  0.957430  0.867630  1.0  0.3355
  Ag  Ag14  1  0.822660  0.753770  0.367050  1.0  0.2419
  Ag  Ag15  1  0.844270  0.457430  0.867630  1.0  0.3355
  Ag  Ag16  1  0.322660  0.253770  0.367050  1.0  0.2419
  H  H17  1  0.298300  0.865400  0.048800  1.0  0.1259
  H  H18  1  0.713700  0.442700  0.348400  1.0  0.0739
  H  H19  1  0.820000  0.412100  0.544700  1.0  0.125
  H  H20  1  0.923900  0.184300  0.984200  1.0  0.0787
  H  H21  1  0.199900  0.842500  0.851700  1.0  0.0851
  H  H22  1  0.554400  0.209100  0.388900  1.0  0.1265
  H  H23  1  0.023200  0.117100  0.036000  1.0  0.1285
  H  H24  1  0.135400  0.062000  0.160700  1.0  0.1194
  H  H25  1  0.543500  0.168800  0.539100  1.0  0.1314
  H  H26  1  0.661800  0.367500  0.393000  1.0  0.1281
  H  H27  1  0.144200  0.912100  0.895800  1.0  0.1147
  H  H28  1  0.867600  0.482100  0.493900  1.0  0.0709
  H  H29  1  0.456100  0.138500  0.343900  1.0  0.0806
  H  H30  1  0.349400  0.795500  0.999500  1.0  0.0807
  H  H31  1  0.444800  0.102200  0.488900  1.0  0.0784
  H  H32  1  0.019500  0.042400  0.885300  1.0  0.1281
  H  H33  1  0.351200  0.977800  0.262600  1.0  0.0808
  H  H34  1  0.824000  0.333400  0.667800  1.0  0.1167
  H  H35  1  0.925300  0.119300  0.838800  1.0  0.0743
  H  H36  1  0.726500  0.170100  0.754300  1.0  0.0766
  H  H37  1  0.189000  0.077600  0.258700  1.0  0.0766
  H  H38  1  0.302400  0.959600  0.164600  1.0  0.1229
  H  H39  1  0.676500  0.182000  0.655300  1.0  0.1237
  H  H40  1  0.867900  0.319300  0.766600  1.0  0.0761
  H  H41  1  0.798300  0.365400  0.048800  1.0  0.1259
  H  H42  1  0.213700  0.942700  0.348400  1.0  0.0739
  H  H43  1  0.320000  0.912100  0.544700  1.0  0.125
  H  H44  1  0.423900  0.684300  0.984200  1.0  0.0785
  H  H45  1  0.699900  0.342500  0.851700  1.0  0.0851
  H  H46  1  0.054400  0.709100  0.388900  1.0  0.1265
  H  H47  1  0.523200  0.617100  0.036000  1.0  0.1285
  H  H48  1  0.635400  0.562000  0.160700  1.0  0.1194
  H  H49  1  0.043500  0.668800  0.539100  1.0  0.1314
  H  H50  1  0.161800  0.867500  0.393000  1.0  0.1281
  H  H51  1  0.644200  0.412100  0.895800  1.0  0.1147
  H  H52  1  0.367600  0.982100  0.493900  1.0  0.0709
  H  H53  1  0.956100  0.638500  0.343900  1.0  0.0806
  H  H54  1  0.849400  0.295500  0.999500  1.0  0.0807
  H  H55  1  0.944800  0.602200  0.488900  1.0  0.0784
  H  H56  1  0.519500  0.542400  0.885300  1.0  0.1281
  H  H57  1  0.851200  0.477800  0.262600  1.0  0.0808
  H  H58  1  0.324000  0.833400  0.667800  1.0  0.1167
  H  H59  1  0.425300  0.619300  0.838800  1.0  0.0743
  H  H60  1  0.226500  0.670100  0.754300  1.0  0.0766
  H  H61  1  0.689000  0.577600  0.258700  1.0  0.0765
  H  H62  1  0.802400  0.459600  0.164600  1.0  0.1228
  H  H63  1  0.176500  0.682000  0.655300  1.0  0.1237
  H  H64  1  0.367900  0.819300  0.766600  1.0  0.0761
  H  H65  1  0.701700  0.865400  0.451200  1.0  0.1256
  H  H66  1  0.286300  0.442700  0.151600  1.0  0.0722
  H  H67  1  0.180000  0.412100  0.955300  1.0  0.1255
  H  H68  1  0.076100  0.184300  0.515800  1.0  0.0798
  H  H69  1  0.800100  0.842500  0.648300  1.0  0.0842
  H  H70  1  0.445600  0.209100  0.111100  1.0  0.1261
  H  H71  1  0.976800  0.117100  0.464000  1.0  0.1293
  H  H72  1  0.864600  0.062000  0.339300  1.0  0.1189
  H  H73  1  0.456500  0.168800  0.960900  1.0  0.1314
  H  H74  1  0.338200  0.367500  0.107000  1.0  0.1274
  H  H75  1  0.855800  0.912100  0.604200  1.0  0.1154
  H  H76  1  0.132400  0.482100  0.006100  1.0  0.0704
  H  H77  1  0.543900  0.138500  0.156100  1.0  0.0812
  H  H78  1  0.650600  0.795500  0.500500  1.0  0.0798
  H  H79  1  0.555200  0.102200  0.011100  1.0  0.0783
  H  H80  1  0.980500  0.042400  0.614700  1.0  0.1276
  H  H81  1  0.648800  0.977800  0.237400  1.0  0.0803
  H  H82  1  0.176000  0.333400  0.832200  1.0  0.1161
  H  H83  1  0.074700  0.119300  0.661200  1.0  0.0747
  H  H84  1  0.273500  0.170100  0.745700  1.0  0.0755
  H  H85  1  0.811000  0.077600  0.241300  1.0  0.0765
  H  H86  1  0.697600  0.959600  0.335400  1.0  0.1234
  H  H87  1  0.323500  0.182000  0.844700  1.0  0.1237
  H  H88  1  0.132100  0.319300  0.733400  1.0  0.0775
  H  H89  1  0.201700  0.365400  0.451200  1.0  0.1256
  H  H90  1  0.786300  0.942700  0.151600  1.0  0.0722
  H  H91  1  0.680000  0.912100  0.955300  1.0  0.1255
  H  H92  1  0.576100  0.684300  0.515800  1.0  0.0796
  H  H93  1  0.300100  0.342500  0.648300  1.0  0.0842
  H  H94  1  0.945600  0.709100  0.111100  1.0  0.1261
  H  H95  1  0.476800  0.617100  0.464000  1.0  0.1293
  H  H96  1  0.364600  0.562000  0.339300  1.0  0.1189
  H  H97  1  0.956500  0.668800  0.960900  1.0  0.1314
  H  H98  1  0.838200  0.867500  0.107000  1.0  0.1274
  H  H99  1  0.355800  0.412100  0.604200  1.0  0.1154
  H  H100  1  0.632400  0.982100  0.006100  1.0  0.0704
  H  H101  1  0.043900  0.638500  0.156100  1.0  0.0812
  H  H102  1  0.150600  0.295500  0.500500  1.0  0.0798
  H  H103  1  0.055200  0.602200  0.011100  1.0  0.0783
  H  H104  1  0.480500  0.542400  0.614700  1.0  0.1276
  H  H105  1  0.148800  0.477800  0.237400  1.0  0.0803
  H  H106  1  0.676000  0.833400  0.832200  1.0  0.1161
  H  H107  1  0.574700  0.619300  0.661200  1.0  0.0747
  H  H108  1  0.773500  0.670100  0.745700  1.0  0.0755
  H  H109  1  0.311000  0.577600  0.241300  1.0  0.0762
  H  H110  1  0.197600  0.459600  0.335400  1.0  0.1234
  H  H111  1  0.823500  0.682000  0.844700  1.0  0.1237
  H  H112  1  0.632100  0.819300  0.733400  1.0  0.0775
  H  H113  1  0.701700  0.134600  0.951200  1.0  0.1257
  H  H114  1  0.286300  0.557300  0.651600  1.0  0.0722
  H  H115  1  0.180000  0.587900  0.455300  1.0  0.1254
  H  H116  1  0.076100  0.815700  0.015800  1.0  0.0796
  H  H117  1  0.800100  0.157500  0.148300  1.0  0.0846
  H  H118  1  0.445600  0.790900  0.611100  1.0  0.1262
  H  H119  1  0.976800  0.882900  0.964000  1.0  0.1289
  H  H120  1  0.864600  0.938000  0.839300  1.0  0.1183
  H  H121  1  0.456500  0.831200  0.460900  1.0  0.1315
  H  H122  1  0.338200  0.632500  0.607000  1.0  0.1274
  H  H123  1  0.855800  0.087900  0.104200  1.0  0.1152
  H  H124  1  0.132400  0.517900  0.506100  1.0  0.0703
  H  H125  1  0.543900  0.861500  0.656100  1.0  0.0813
  H  H126  1  0.650600  0.204500  0.000500  1.0  0.0798
  H  H127  1  0.555200  0.897800  0.511100  1.0  0.0781
  H  H128  1  0.980500  0.957600  0.114700  1.0  0.1274
  H  H129  1  0.648800  0.022200  0.737400  1.0  0.08
  H  H130  1  0.176000  0.666667  0.332200  1.0  0.1188
  H  H131  1  0.074700  0.880700  0.161200  1.0  0.0747
  H  H132  1  0.273500  0.829900  0.245700  1.0  0.0751
  H  H133  1  0.811000  0.922400  0.741300  1.0  0.0763
  H  H134  1  0.697600  0.040400  0.835400  1.0  0.1234
  H  H135  1  0.323500  0.818000  0.344700  1.0  0.1237
  H  H136  1  0.132100  0.680700  0.233400  1.0  0.0766
  H  H137  1  0.201700  0.634600  0.951200  1.0  0.1257
  H  H138  1  0.786300  0.057300  0.651600  1.0  0.0722
  H  H139  1  0.680000  0.087900  0.455300  1.0  0.1254
  H  H140  1  0.576100  0.315700  0.015800  1.0  0.0794
  H  H141  1  0.300100  0.657500  0.148300  1.0  0.0846
  H  H142  1  0.945600  0.290900  0.611100  1.0  0.1262
  H  H143  1  0.476800  0.382900  0.964000  1.0  0.1289
  H  H144  1  0.364600  0.438000  0.839300  1.0  0.1183
  H  H145  1  0.956500  0.331200  0.460900  1.0  0.1315
  H  H146  1  0.838200  0.132500  0.607000  1.0  0.1274
  H  H147  1  0.355800  0.587900  0.104200  1.0  0.1152
  H  H148  1  0.632400  0.017900  0.506100  1.0  0.0703
  H  H149  1  0.043900  0.361500  0.656100  1.0  0.0813
  H  H150  1  0.150600  0.704500  0.000500  1.0  0.0798
  H  H151  1  0.055200  0.397800  0.511100  1.0  0.0781
  H  H152  1  0.480500  0.457600  0.114700  1.0  0.1274
  H  H153  1  0.148800  0.522200  0.737400  1.0  0.08
  H  H154  1  0.676000  0.166600  0.332200  1.0  0.1161
  H  H155  1  0.574700  0.380700  0.161200  1.0  0.0747
  H  H156  1  0.773500  0.329900  0.245700  1.0  0.0751
  H  H157  1  0.311000  0.422400  0.741300  1.0  0.0763
  H  H158  1  0.197600  0.540400  0.835400  1.0  0.1234
  H  H159  1  0.823500  0.318000  0.344700  1.0  0.1237
  H  H160  1  0.632100  0.180700  0.233400  1.0  0.0767
  H  H161  1  0.298300  0.134600  0.548800  1.0  0.1258
  H  H162  1  0.713700  0.557300  0.848400  1.0  0.074
  H  H163  1  0.820000  0.587900  0.044700  1.0  0.1253
  H  H164  1  0.923900  0.815700  0.484200  1.0  0.0787
  H  H165  1  0.199900  0.157500  0.351700  1.0  0.0852
  H  H166  1  0.554400  0.790900  0.888900  1.0  0.1268
  H  H167  1  0.023200  0.882900  0.536000  1.0  0.1287
  H  H168  1  0.135400  0.938000  0.660700  1.0  0.1192
  H  H169  1  0.543500  0.831200  0.039100  1.0  0.1313
  H  H170  1  0.661800  0.632500  0.893000  1.0  0.1279
  H  H171  1  0.144200  0.087900  0.395800  1.0  0.1147
  H  H172  1  0.867600  0.517900  0.993900  1.0  0.071
  H  H173  1  0.456100  0.861500  0.843900  1.0  0.0811
  H  H174  1  0.349400  0.204500  0.499500  1.0  0.0806
  H  H175  1  0.444800  0.897800  0.988900  1.0  0.078
  H  H176  1  0.019500  0.957600  0.385300  1.0  0.1283
  H  H177  1  0.351200  0.022200  0.762600  1.0  0.0811
  H  H178  1  0.824000  0.666667  0.167800  1.0  0.1194
  H  H179  1  0.925300  0.880700  0.338800  1.0  0.0743
  H  H180  1  0.726500  0.829900  0.254300  1.0  0.076
  H  H181  1  0.189000  0.922400  0.758700  1.0  0.0768
  H  H182  1  0.302400  0.040400  0.664600  1.0  0.123
  H  H183  1  0.676500  0.818000  0.155300  1.0  0.1235
  H  H184  1  0.867900  0.680700  0.266600  1.0  0.075
  H  H185  1  0.798300  0.634600  0.548800  1.0  0.1258
  H  H186  1  0.213700  0.057300  0.848400  1.0  0.074
  H  H187  1  0.320000  0.087900  0.044700  1.0  0.1253
  H  H188  1  0.423900  0.315700  0.484200  1.0  0.0785
  H  H189  1  0.699900  0.657500  0.351700  1.0  0.0852
  H  H190  1  0.054400  0.290900  0.888900  1.0  0.1268
  H  H191  1  0.523200  0.382900  0.536000  1.0  0.1287
  H  H192  1  0.635400  0.438000  0.660700  1.0  0.1192
  H  H193  1  0.043500  0.331200  0.039100  1.0  0.1313
  H  H194  1  0.161800  0.132500  0.893000  1.0  0.1279
  H  H195  1  0.644200  0.587900  0.395800  1.0  0.1147
  H  H196  1  0.367600  0.017900  0.993900  1.0  0.071
  H  H197  1  0.956100  0.361500  0.843900  1.0  0.0811
  H  H198  1  0.849400  0.704500  0.499500  1.0  0.0806
  H  H199  1  0.944800  0.397800  0.988900  1.0  0.078
  H  H200  1  0.519500  0.457600  0.385300  1.0  0.1283
  H  H201  1  0.851200  0.522200  0.762600  1.0  0.0811
  H  H202  1  0.324000  0.166600  0.167800  1.0  0.1164
  H  H203  1  0.425300  0.380700  0.338800  1.0  0.0743
  H  H204  1  0.226500  0.329900  0.254300  1.0  0.076
  H  H205  1  0.689000  0.422400  0.758700  1.0  0.0768
  H  H206  1  0.802400  0.540400  0.664600  1.0  0.123
  H  H207  1  0.176500  0.318000  0.155300  1.0  0.1235
  H  H208  1  0.367900  0.180700  0.266600  1.0  0.075
  C  C209  1  0.097700  0.029300  0.000300  1.0  0.3797
  C  C210  1  0.277500  0.861900  0.008700  1.0  -0.1373
  C  C211  1  0.623700  0.243200  0.501500  1.0  0.368
  C  C212  1  0.559800  0.198300  0.469100  1.0  -0.0472
  C  C213  1  0.735500  0.435600  0.388200  1.0  0.1726
  C  C214  1  0.797800  0.416100  0.504700  1.0  -0.1603
  C  C215  1  0.943900  0.156300  0.964200  1.0  0.1698
  C  C216  1  0.219900  0.847300  0.891700  1.0  0.1502
  C  C217  1  0.532900  0.188100  0.410300  1.0  -0.1669
  C  C218  1  0.709800  0.273300  0.586800  1.0  0.3857
  C  C219  1  0.003600  0.115800  0.995800  1.0  -0.1597
  C  C220  1  0.743500  0.263300  0.650900  1.0  -0.0298
  C  C221  1  0.180200  0.997700  0.087400  1.0  0.3684
  C  C222  1  0.182300  0.948200  0.006300  1.0  0.3691
  C  C223  1  0.179300  0.043900  0.180700  1.0  -0.1287
  C  C224  1  0.033400  0.073600  0.966100  1.0  -0.0857
  C  C225  1  0.526100  0.164500  0.499100  1.0  -0.1653
  C  C226  1  0.735700  0.378900  0.474100  1.0  -0.1107
  C  C227  1  0.215100  0.898500  0.977000  1.0  -0.0461
  C  C228  1  0.703800  0.390200  0.414600  1.0  -0.1558
  C  C229  1  0.705400  0.327800  0.504600  1.0  0.3889
  C  C230  1  0.212300  0.007500  0.151400  1.0  -0.0865
  C  C231  1  0.186100  0.889700  0.918000  1.0  -0.1378
  C  C232  1  0.825500  0.459200  0.473700  1.0  0.1723
  C  C233  1  0.473400  0.146300  0.383600  1.0  0.1721
  C  C234  1  0.307900  0.819800  0.978600  1.0  0.1736
  C  C235  1  0.467000  0.124700  0.468500  1.0  0.1709
  C  C236  1  0.002000  0.072500  0.906300  1.0  -0.1651
  C  C237  1  0.307000  0.994700  0.241700  1.0  0.163
  C  C238  1  0.802100  0.301500  0.684400  1.0  -0.1671
  C  C239  1  0.944200  0.116900  0.878900  1.0  0.1772
  C  C240  1  0.745500  0.204900  0.736700  1.0  0.1674
  C  C241  1  0.211900  0.053300  0.239600  1.0  0.1715
  C  C242  1  0.278200  0.983200  0.182800  1.0  -0.1778
  C  C243  1  0.715000  0.211400  0.677200  1.0  -0.1537
  C  C244  1  0.828500  0.291900  0.744000  1.0  0.1832
  C  C245  1  0.597700  0.529300  0.000300  1.0  0.3797
  C  C246  1  0.777500  0.361900  0.008700  1.0  -0.1373
  C  C247  1  0.123700  0.743200  0.501500  1.0  0.368
  C  C248  1  0.059800  0.698300  0.469100  1.0  -0.0472
  C  C249  1  0.235500  0.935600  0.388200  1.0  0.1726
  C  C250  1  0.297800  0.916100  0.504700  1.0  -0.1603
  C  C251  1  0.443900  0.656300  0.964200  1.0  0.1698
  C  C252  1  0.719900  0.347300  0.891700  1.0  0.1502
  C  C253  1  0.032900  0.688100  0.410300  1.0  -0.1669
  C  C254  1  0.209800  0.773300  0.586800  1.0  0.3857
  C  C255  1  0.503600  0.615800  0.995800  1.0  -0.1597
  C  C256  1  0.243500  0.763300  0.650900  1.0  -0.0298
  C  C257  1  0.680200  0.497700  0.087400  1.0  0.3684
  C  C258  1  0.682300  0.448200  0.006300  1.0  0.3691
  C  C259  1  0.679300  0.543900  0.180700  1.0  -0.1287
  C  C260  1  0.533400  0.573600  0.966100  1.0  -0.0857
  C  C261  1  0.026100  0.664500  0.499100  1.0  -0.1653
  C  C262  1  0.235700  0.878900  0.474100  1.0  -0.1107
  C  C263  1  0.715100  0.398500  0.977000  1.0  -0.0461
  C  C264  1  0.203800  0.890200  0.414600  1.0  -0.1558
  C  C265  1  0.205400  0.827800  0.504600  1.0  0.3889
  C  C266  1  0.712300  0.507500  0.151400  1.0  -0.0865
  C  C267  1  0.686100  0.389700  0.918000  1.0  -0.1378
  C  C268  1  0.325500  0.959200  0.473700  1.0  0.1723
  C  C269  1  0.973400  0.646300  0.383600  1.0  0.1721
  C  C270  1  0.807900  0.319800  0.978600  1.0  0.1736
  C  C271  1  0.967000  0.624700  0.468500  1.0  0.1709
  C  C272  1  0.502000  0.572500  0.906300  1.0  -0.1651
  C  C273  1  0.807000  0.494700  0.241700  1.0  0.163
  C  C274  1  0.302100  0.801500  0.684400  1.0  -0.1671
  C  C275  1  0.444200  0.616900  0.878900  1.0  0.1772
  C  C276  1  0.245500  0.704900  0.736700  1.0  0.1674
  C  C277  1  0.711900  0.553300  0.239600  1.0  0.1716
  C  C278  1  0.778200  0.483200  0.182800  1.0  -0.1778
  C  C279  1  0.215000  0.711400  0.677200  1.0  -0.1537
  C  C280  1  0.328500  0.791900  0.744000  1.0  0.1832
  C  C281  1  0.902300  0.029300  0.499700  1.0  0.3796
  C  C282  1  0.722500  0.861900  0.491300  1.0  -0.1378
  C  C283  1  0.376300  0.243200  0.998500  1.0  0.368
  C  C284  1  0.440200  0.198300  0.030900  1.0  -0.0482
  C  C285  1  0.264500  0.435600  0.111800  1.0  0.1715
  C  C286  1  0.202200  0.416100  0.995300  1.0  -0.1585
  C  C287  1  0.056100  0.156300  0.535800  1.0  0.1705
  C  C288  1  0.780100  0.847300  0.608300  1.0  0.1525
  C  C289  1  0.467100  0.188100  0.089700  1.0  -0.1681
  C  C290  1  0.290200  0.273300  0.913200  1.0  0.3847
  C  C291  1  0.996400  0.115800  0.504200  1.0  -0.1611
  C  C292  1  0.256500  0.263300  0.849100  1.0  -0.0298
  C  C293  1  0.819800  0.997700  0.412600  1.0  0.3688
  C  C294  1  0.817700  0.948200  0.493700  1.0  0.3695
  C  C295  1  0.820700  0.043900  0.319300  1.0  -0.132
  C  C296  1  0.966600  0.073600  0.533900  1.0  -0.0867
  C  C297  1  0.473900  0.164500  0.000900  1.0  -0.164
  C  C298  1  0.264300  0.378900  0.025900  1.0  -0.1102
  C  C299  1  0.784900  0.898500  0.523000  1.0  -0.0443
  C  C300  1  0.296200  0.390200  0.085400  1.0  -0.1574
  C  C301  1  0.294600  0.327800  0.995400  1.0  0.3887
  C  C302  1  0.787700  0.007500  0.348600  1.0  -0.0857
  C  C303  1  0.813900  0.889700  0.582000  1.0  -0.1389
  C  C304  1  0.174500  0.459200  0.026300  1.0  0.173
  C  C305  1  0.526600  0.146300  0.116400  1.0  0.1719
  C  C306  1  0.692100  0.819800  0.521400  1.0  0.1732
  C  C307  1  0.533000  0.124700  0.031500  1.0  0.1703
  C  C308  1  0.998000  0.072500  0.593700  1.0  -0.1696
  C  C309  1  0.693000  0.994700  0.258300  1.0  0.1631
  C  C310  1  0.197900  0.301500  0.815600  1.0  -0.1651
  C  C311  1  0.055800  0.116900  0.621100  1.0  0.1769
  C  C312  1  0.254500  0.204900  0.763300  1.0  0.167
  C  C313  1  0.788100  0.053300  0.260400  1.0  0.1714
  C  C314  1  0.721800  0.983200  0.317200  1.0  -0.1775
  C  C315  1  0.285000  0.211400  0.822800  1.0  -0.1538
  C  C316  1  0.171500  0.291900  0.756000  1.0  0.1828
  C  C317  1  0.402300  0.529300  0.499700  1.0  0.3796
  C  C318  1  0.222500  0.361900  0.491300  1.0  -0.1378
  C  C319  1  0.876300  0.743200  0.998500  1.0  0.368
  C  C320  1  0.940200  0.698300  0.030900  1.0  -0.0482
  C  C321  1  0.764500  0.935600  0.111800  1.0  0.1715
  C  C322  1  0.702200  0.916100  0.995300  1.0  -0.1585
  C  C323  1  0.556100  0.656300  0.535800  1.0  0.1705
  C  C324  1  0.280100  0.347300  0.608300  1.0  0.1525
  C  C325  1  0.967100  0.688100  0.089700  1.0  -0.1681
  C  C326  1  0.790200  0.773300  0.913200  1.0  0.3847
  C  C327  1  0.496400  0.615800  0.504200  1.0  -0.1611
  C  C328  1  0.756500  0.763300  0.849100  1.0  -0.0298
  C  C329  1  0.319800  0.497700  0.412600  1.0  0.3688
  C  C330  1  0.317700  0.448200  0.493700  1.0  0.3695
  C  C331  1  0.320700  0.543900  0.319300  1.0  -0.132
  C  C332  1  0.466600  0.573600  0.533900  1.0  -0.0867
  C  C333  1  0.973900  0.664500  0.000900  1.0  -0.164
  C  C334  1  0.764300  0.878900  0.025900  1.0  -0.1102
  C  C335  1  0.284900  0.398500  0.523000  1.0  -0.0443
  C  C336  1  0.796200  0.890200  0.085400  1.0  -0.1574
  C  C337  1  0.794600  0.827800  0.995400  1.0  0.3887
  C  C338  1  0.287700  0.507500  0.348600  1.0  -0.0857
  C  C339  1  0.313900  0.389700  0.582000  1.0  -0.1389
  C  C340  1  0.674500  0.959200  0.026300  1.0  0.173
  C  C341  1  0.026600  0.646300  0.116400  1.0  0.1719
  C  C342  1  0.192100  0.319800  0.521400  1.0  0.1732
  C  C343  1  0.033000  0.624700  0.031500  1.0  0.1703
  C  C344  1  0.498000  0.572500  0.593700  1.0  -0.1696
  C  C345  1  0.193000  0.494700  0.258300  1.0  0.1631
  C  C346  1  0.697900  0.801500  0.815600  1.0  -0.1651
  C  C347  1  0.555800  0.616900  0.621100  1.0  0.1769
  C  C348  1  0.754500  0.704900  0.763300  1.0  0.167
  C  C349  1  0.288100  0.553300  0.260400  1.0  0.1714
  C  C350  1  0.221800  0.483200  0.317200  1.0  -0.1775
  C  C351  1  0.785000  0.711400  0.822800  1.0  -0.1538
  C  C352  1  0.671500  0.791900  0.756000  1.0  0.1828
  C  C353  1  0.902300  0.970700  0.999700  1.0  0.3799
  C  C354  1  0.722500  0.138100  0.991300  1.0  -0.1383
  C  C355  1  0.376300  0.756800  0.498500  1.0  0.3675
  C  C356  1  0.440200  0.801700  0.530900  1.0  -0.0478
  C  C357  1  0.264500  0.564400  0.611800  1.0  0.1719
  C  C358  1  0.202200  0.583900  0.495300  1.0  -0.1583
  C  C359  1  0.056100  0.843700  0.035800  1.0  0.1705
  C  C360  1  0.780100  0.152700  0.108300  1.0  0.1516
  C  C361  1  0.467100  0.811900  0.589700  1.0  -0.1683
  C  C362  1  0.290200  0.726700  0.413200  1.0  0.3846
  C  C363  1  0.996400  0.884200  0.004200  1.0  -0.1606
  C  C364  1  0.256500  0.736700  0.349100  1.0  -0.0297
  C  C365  1  0.819800  0.002300  0.912600  1.0  0.3689
  C  C366  1  0.817700  0.051800  0.993700  1.0  0.3696
  C  C367  1  0.820700  0.956100  0.819300  1.0  -0.1318
  C  C368  1  0.966600  0.926400  0.033900  1.0  -0.0865
  C  C369  1  0.473900  0.835500  0.500900  1.0  -0.1645
  C  C370  1  0.264300  0.621100  0.525900  1.0  -0.1097
  C  C371  1  0.784900  0.101500  0.023000  1.0  -0.0436
  C  C372  1  0.296200  0.609800  0.585400  1.0  -0.1567
  C  C373  1  0.294600  0.672200  0.495400  1.0  0.3887
  C  C374  1  0.787700  0.992500  0.848600  1.0  -0.0862
  C  C375  1  0.813900  0.110300  0.082000  1.0  -0.139
  C  C376  1  0.174500  0.540800  0.526300  1.0  0.1738
  C  C377  1  0.526600  0.853700  0.616400  1.0  0.1705
  C  C378  1  0.692100  0.180200  0.021400  1.0  0.1727
  C  C379  1  0.533000  0.875300  0.531500  1.0  0.1712
  C  C380  1  0.998000  0.927500  0.093700  1.0  -0.1698
  C  C381  1  0.693000  0.005300  0.758300  1.0  0.1629
  C  C382  1  0.197900  0.698500  0.315600  1.0  -0.1645
  C  C383  1  0.055800  0.883100  0.121100  1.0  0.1767
  C  C384  1  0.254500  0.795100  0.263300  1.0  0.1667
  C  C385  1  0.788100  0.946700  0.760400  1.0  0.1712
  C  C386  1  0.721800  0.016800  0.817200  1.0  -0.1778
  C  C387  1  0.285000  0.788600  0.322800  1.0  -0.1543
  C  C388  1  0.171500  0.708100  0.256000  1.0  0.1823
  C  C389  1  0.402300  0.470700  0.999700  1.0  0.3799
  C  C390  1  0.222500  0.638100  0.991300  1.0  -0.1383
  C  C391  1  0.876300  0.256800  0.498500  1.0  0.3675
  C  C392  1  0.940200  0.301700  0.530900  1.0  -0.0478
  C  C393  1  0.764500  0.064400  0.611800  1.0  0.1719
  C  C394  1  0.702200  0.083900  0.495300  1.0  -0.1583
  C  C395  1  0.556100  0.343700  0.035800  1.0  0.1705
  C  C396  1  0.280100  0.652700  0.108300  1.0  0.1516
  C  C397  1  0.967100  0.311900  0.589700  1.0  -0.1683
  C  C398  1  0.790200  0.226700  0.413200  1.0  0.3845
  C  C399  1  0.496400  0.384200  0.004200  1.0  -0.1606
  C  C400  1  0.756500  0.236700  0.349100  1.0  -0.0302
  C  C401  1  0.319800  0.502300  0.912600  1.0  0.3689
  C  C402  1  0.317700  0.551800  0.993700  1.0  0.3696
  C  C403  1  0.320700  0.456100  0.819300  1.0  -0.1318
  C  C404  1  0.466600  0.426400  0.033900  1.0  -0.0865
  C  C405  1  0.973900  0.335500  0.500900  1.0  -0.1645
  C  C406  1  0.764300  0.121100  0.525900  1.0  -0.1097
  C  C407  1  0.284900  0.601500  0.023000  1.0  -0.0436
  C  C408  1  0.796200  0.109800  0.585400  1.0  -0.1567
  C  C409  1  0.794600  0.172200  0.495400  1.0  0.3887
  C  C410  1  0.287700  0.492500  0.848600  1.0  -0.0862
  C  C411  1  0.313900  0.610300  0.082000  1.0  -0.139
  C  C412  1  0.674500  0.040800  0.526300  1.0  0.1738
  C  C413  1  0.026600  0.353700  0.616400  1.0  0.1705
  C  C414  1  0.192100  0.680200  0.021400  1.0  0.1727
  C  C415  1  0.033000  0.375300  0.531500  1.0  0.1712
  C  C416  1  0.498000  0.427500  0.093700  1.0  -0.1698
  C  C417  1  0.193000  0.505300  0.758300  1.0  0.1629
  C  C418  1  0.697900  0.198500  0.315600  1.0  -0.1657
  C  C419  1  0.555800  0.383100  0.121100  1.0  0.1767
  C  C420  1  0.754500  0.295100  0.263300  1.0  0.1667
  C  C421  1  0.288100  0.446700  0.760400  1.0  0.1712
  C  C422  1  0.221800  0.516800  0.817200  1.0  -0.1778
  C  C423  1  0.785000  0.288600  0.322800  1.0  -0.1543
  C  C424  1  0.671500  0.208100  0.256000  1.0  0.1822
  C  C425  1  0.097700  0.970700  0.500300  1.0  0.3801
  C  C426  1  0.277500  0.138100  0.508700  1.0  -0.1369
  C  C427  1  0.623700  0.756800  0.001500  1.0  0.3673
  C  C428  1  0.559800  0.801700  0.969100  1.0  -0.0476
  C  C429  1  0.735500  0.564400  0.888200  1.0  0.1729
  C  C430  1  0.797800  0.583900  0.004700  1.0  -0.1607
  C  C431  1  0.943900  0.843700  0.464200  1.0  0.1702
  C  C432  1  0.219900  0.152700  0.391700  1.0  0.1505
  C  C433  1  0.532900  0.811900  0.910300  1.0  -0.1667
  C  C434  1  0.709800  0.726700  0.086800  1.0  0.3854
  C  C435  1  0.003600  0.884200  0.495800  1.0  -0.1592
  C  C436  1  0.743500  0.736700  0.150900  1.0  -0.0295
  C  C437  1  0.180200  0.002300  0.587400  1.0  0.3684
  C  C438  1  0.182300  0.051800  0.506300  1.0  0.369
  C  C439  1  0.179300  0.956100  0.680700  1.0  -0.1287
  C  C440  1  0.033400  0.926400  0.466100  1.0  -0.085
  C  C441  1  0.526100  0.835500  0.999100  1.0  -0.1654
  C  C442  1  0.735700  0.621100  0.974100  1.0  -0.1103
  C  C443  1  0.215100  0.101500  0.477000  1.0  -0.0456
  C  C444  1  0.703800  0.609800  0.914600  1.0  -0.156
  C  C445  1  0.705400  0.672200  0.004600  1.0  0.3888
  C  C446  1  0.212300  0.992500  0.651400  1.0  -0.0869
  C  C447  1  0.186100  0.110300  0.418000  1.0  -0.1378
  C  C448  1  0.825500  0.540800  0.973700  1.0  0.1727
  C  C449  1  0.473400  0.853700  0.883600  1.0  0.172
  C  C450  1  0.307900  0.180200  0.478600  1.0  0.1738
  C  C451  1  0.467000  0.875300  0.968500  1.0  0.1704
  C  C452  1  0.002000  0.927500  0.406300  1.0  -0.1652
  C  C453  1  0.307000  0.005300  0.741700  1.0  0.1624
  C  C454  1  0.802100  0.698500  0.184400  1.0  -0.1663
  C  C455  1  0.944200  0.883100  0.378900  1.0  0.1768
  C  C456  1  0.745500  0.795100  0.236700  1.0  0.1673
  C  C457  1  0.211900  0.946700  0.739600  1.0  0.1713
  C  C458  1  0.278200  0.016800  0.682800  1.0  -0.1777
  C  C459  1  0.715000  0.788600  0.177200  1.0  -0.1543
  C  C460  1  0.828500  0.708100  0.244000  1.0  0.1827
  C  C461  1  0.597700  0.470700  0.500300  1.0  0.3801
  C  C462  1  0.777500  0.638100  0.508700  1.0  -0.1369
  C  C463  1  0.123700  0.256800  0.001500  1.0  0.3673
  C  C464  1  0.059800  0.301700  0.969100  1.0  -0.0476
  C  C465  1  0.235500  0.064400  0.888200  1.0  0.1729
  C  C466  1  0.297800  0.083900  0.004700  1.0  -0.1607
  C  C467  1  0.443900  0.343700  0.464200  1.0  0.1702
  C  C468  1  0.719900  0.652700  0.391700  1.0  0.1505
  C  C469  1  0.032900  0.311900  0.910300  1.0  -0.1667
  C  C470  1  0.209800  0.226700  0.086800  1.0  0.3854
  C  C471  1  0.503600  0.384200  0.495800  1.0  -0.1592
  C  C472  1  0.243500  0.236700  0.150900  1.0  -0.0301
  C  C473  1  0.680200  0.502300  0.587400  1.0  0.3684
  C  C474  1  0.682300  0.551800  0.506300  1.0  0.369
  C  C475  1  0.679300  0.456100  0.680700  1.0  -0.1287
  C  C476  1  0.533400  0.426400  0.466100  1.0  -0.085
  C  C477  1  0.026100  0.335500  0.999100  1.0  -0.1654
  C  C478  1  0.235700  0.121100  0.974100  1.0  -0.1103
  C  C479  1  0.715100  0.601500  0.477000  1.0  -0.0456
  C  C480  1  0.203800  0.109800  0.914600  1.0  -0.156
  C  C481  1  0.205400  0.172200  0.004600  1.0  0.3888
  C  C482  1  0.712300  0.492500  0.651400  1.0  -0.0869
  C  C483  1  0.686100  0.610300  0.418000  1.0  -0.1378
  C  C484  1  0.325500  0.040800  0.973700  1.0  0.1727
  C  C485  1  0.973400  0.353700  0.883600  1.0  0.172
  C  C486  1  0.807900  0.680200  0.478600  1.0  0.1738
  C  C487  1  0.967000  0.375300  0.968500  1.0  0.1704
  C  C488  1  0.502000  0.427500  0.406300  1.0  -0.1652
  C  C489  1  0.807000  0.505300  0.741700  1.0  0.1624
  C  C490  1  0.302100  0.198500  0.184400  1.0  -0.1675
  C  C491  1  0.444200  0.383100  0.378900  1.0  0.1768
  C  C492  1  0.245500  0.295100  0.236700  1.0  0.1673
  C  C493  1  0.711900  0.446700  0.739600  1.0  0.1713
  C  C494  1  0.778200  0.516800  0.682800  1.0  -0.1777
  C  C495  1  0.215000  0.288600  0.177200  1.0  -0.1543
  C  C496  1  0.328500  0.208100  0.244000  1.0  0.1827
  N  N497  1  0.439400  0.116400  0.411300  1.0  -0.3219
  N  N498  1  0.795400  0.469800  0.416600  1.0  -0.3584
  N  N499  1  0.800800  0.246000  0.770400  1.0  -0.3284
  N  N500  1  0.652900  0.232700  0.558500  1.0  -0.4649
  N  N501  1  0.737800  0.322400  0.562100  1.0  -0.5063
  N  N502  1  0.647900  0.289700  0.471900  1.0  -0.5127
  N  N503  1  0.913500  0.157100  0.906400  1.0  -0.3441
  N  N504  1  0.279700  0.813000  0.921200  1.0  -0.3145
  N  N505  1  0.275600  0.028800  0.271000  1.0  -0.3622
  N  N506  1  0.122700  0.037300  0.058000  1.0  -0.5111
  N  N507  1  0.126100  0.987700  0.972600  1.0  -0.4931
  N  N508  1  0.211400  0.950100  0.064100  1.0  -0.5019
  N  N509  1  0.939400  0.616400  0.411300  1.0  -0.3219
  N  N510  1  0.295400  0.969800  0.416600  1.0  -0.3584
  N  N511  1  0.300800  0.746000  0.770400  1.0  -0.3284
  N  N512  1  0.152900  0.732700  0.558500  1.0  -0.4649
  N  N513  1  0.237800  0.822400  0.562100  1.0  -0.5063
  N  N514  1  0.147900  0.789700  0.471900  1.0  -0.5128
  N  N515  1  0.413500  0.657100  0.906400  1.0  -0.3441
  N  N516  1  0.779700  0.313000  0.921200  1.0  -0.3145
  N  N517  1  0.775600  0.528800  0.271000  1.0  -0.3622
  N  N518  1  0.622700  0.537300  0.058000  1.0  -0.5111
  N  N519  1  0.626100  0.487700  0.972600  1.0  -0.4931
  N  N520  1  0.711400  0.450100  0.064100  1.0  -0.5019
  N  N521  1  0.560600  0.116400  0.088700  1.0  -0.3188
  N  N522  1  0.204600  0.469800  0.083400  1.0  -0.3586
  N  N523  1  0.199200  0.246000  0.729600  1.0  -0.331
  N  N524  1  0.347100  0.232700  0.941500  1.0  -0.464
  N  N525  1  0.262200  0.322400  0.937900  1.0  -0.5067
  N  N526  1  0.352100  0.289700  0.028100  1.0  -0.514
  N  N527  1  0.086500  0.157100  0.593600  1.0  -0.3427
  N  N528  1  0.720300  0.813000  0.578800  1.0  -0.314
  N  N529  1  0.724400  0.028800  0.229000  1.0  -0.3622
  N  N530  1  0.877300  0.037300  0.442000  1.0  -0.5104
  N  N531  1  0.873900  0.987700  0.527400  1.0  -0.4911
  N  N532  1  0.788600  0.950100  0.435900  1.0  -0.5041
  N  N533  1  0.060600  0.616400  0.088700  1.0  -0.3188
  N  N534  1  0.704600  0.969800  0.083400  1.0  -0.3586
  N  N535  1  0.699200  0.746000  0.729600  1.0  -0.331
  N  N536  1  0.847100  0.732700  0.941500  1.0  -0.464
  N  N537  1  0.762200  0.822400  0.937900  1.0  -0.5067
  N  N538  1  0.852100  0.789700  0.028100  1.0  -0.5141
  N  N539  1  0.586500  0.657100  0.593600  1.0  -0.3427
  N  N540  1  0.220300  0.313000  0.578800  1.0  -0.314
  N  N541  1  0.224400  0.528800  0.229000  1.0  -0.3622
  N  N542  1  0.377300  0.537300  0.442000  1.0  -0.5104
  N  N543  1  0.373900  0.487700  0.527400  1.0  -0.4911
  N  N544  1  0.288600  0.450100  0.435900  1.0  -0.5041
  N  N545  1  0.560600  0.883600  0.588700  1.0  -0.3194
  N  N546  1  0.204600  0.530200  0.583400  1.0  -0.3565
  N  N547  1  0.199200  0.754000  0.229600  1.0  -0.3303
  N  N548  1  0.347100  0.767300  0.441500  1.0  -0.4633
  N  N549  1  0.262200  0.677600  0.437900  1.0  -0.5083
  N  N550  1  0.352100  0.710300  0.528100  1.0  -0.5141
  N  N551  1  0.086500  0.842900  0.093600  1.0  -0.3411
  N  N552  1  0.720300  0.187000  0.078800  1.0  -0.3124
  N  N553  1  0.724400  0.971200  0.729000  1.0  -0.3627
  N  N554  1  0.877300  0.962700  0.942000  1.0  -0.5109
  N  N555  1  0.873900  0.012300  0.027400  1.0  -0.4923
  N  N556  1  0.788600  0.049900  0.935900  1.0  -0.5022
  N  N557  1  0.060600  0.383600  0.588700  1.0  -0.3194
  N  N558  1  0.704600  0.030200  0.583400  1.0  -0.3565
  N  N559  1  0.699200  0.254000  0.229600  1.0  -0.3303
  N  N560  1  0.847100  0.267300  0.441500  1.0  -0.4633
  N  N561  1  0.762200  0.177600  0.437900  1.0  -0.5082
  N  N562  1  0.852100  0.210300  0.528100  1.0  -0.5141
  N  N563  1  0.586500  0.342900  0.093600  1.0  -0.341
  N  N564  1  0.220300  0.687000  0.078800  1.0  -0.3124
  N  N565  1  0.224400  0.471200  0.729000  1.0  -0.3627
  N  N566  1  0.377300  0.462700  0.942000  1.0  -0.5109
  N  N567  1  0.373900  0.512300  0.027400  1.0  -0.4923
  N  N568  1  0.288600  0.549900  0.935900  1.0  -0.5022
  N  N569  1  0.439400  0.883600  0.911300  1.0  -0.318
  N  N570  1  0.795400  0.530200  0.916600  1.0  -0.3588
  N  N571  1  0.800800  0.754000  0.270400  1.0  -0.329
  N  N572  1  0.652900  0.767300  0.058500  1.0  -0.465
  N  N573  1  0.737800  0.677600  0.062100  1.0  -0.5064
  N  N574  1  0.647900  0.710300  0.971900  1.0  -0.5128
  N  N575  1  0.913500  0.842900  0.406400  1.0  -0.3453
  N  N576  1  0.279700  0.187000  0.421200  1.0  -0.3117
  N  N577  1  0.275600  0.971200  0.771000  1.0  -0.3623
  N  N578  1  0.122700  0.962700  0.558000  1.0  -0.5111
  N  N579  1  0.126100  0.012300  0.472600  1.0  -0.4928
  N  N580  1  0.211400  0.049900  0.564100  1.0  -0.5019
  N  N581  1  0.939400  0.383600  0.911300  1.0  -0.318
  N  N582  1  0.295400  0.030200  0.916600  1.0  -0.3588
  N  N583  1  0.300800  0.254000  0.270400  1.0  -0.329
  N  N584  1  0.152900  0.267300  0.058500  1.0  -0.465
  N  N585  1  0.237800  0.177600  0.062100  1.0  -0.5063
  N  N586  1  0.147900  0.210300  0.971900  1.0  -0.5128
  N  N587  1  0.413500  0.342900  0.406400  1.0  -0.3453
  N  N588  1  0.779700  0.687000  0.421200  1.0  -0.3117
  N  N589  1  0.775600  0.471200  0.771000  1.0  -0.3623
  N  N590  1  0.622700  0.462700  0.558000  1.0  -0.5111
  N  N591  1  0.626100  0.512300  0.472600  1.0  -0.4928
  N  N592  1  0.711400  0.549900  0.564100  1.0  -0.5019
