# generated using pymatgen
data_AgH12(C3N)6
_symmetry_space_group_name_H-M   'P 1'
_cell_length_a   22.00200000
_cell_length_b   16.73560000
_cell_length_c   25.56070000
_cell_angle_alpha   90.00000000
_cell_angle_beta   115.19900000
_cell_angle_gamma   90.00000000
_symmetry_Int_Tables_number   1
_chemical_formula_structural   AgH12(C3N)6
_chemical_formula_sum   'Ag16 H192 C288 N96'
_cell_volume   8516.18984011
_cell_formula_units_Z   16
loop_
 _symmetry_equiv_pos_site_id
 _symmetry_equiv_pos_as_xyz
  1  'x, y, z'
loop_
 _atom_site_type_symbol
 _atom_site_label
 _atom_site_symmetry_multiplicity
 _atom_site_fract_x
 _atom_site_fract_y
 _atom_site_fract_z
 _atom_site_occupancy
 _atom_site_charge
  Ag  Ag1  1  0.844230  0.956670  0.366830  1.0  0.3309
  Ag  Ag2  1  0.821710  0.256160  0.866440  1.0  0.2994
  Ag  Ag3  1  0.344230  0.456670  0.366830  1.0  0.3309
  Ag  Ag4  1  0.321710  0.756160  0.866440  1.0  0.2994
  Ag  Ag5  1  0.155770  0.956670  0.133170  1.0  0.3311
  Ag  Ag6  1  0.178290  0.256160  0.633560  1.0  0.2994
  Ag  Ag7  1  0.655770  0.456670  0.133170  1.0  0.3311
  Ag  Ag8  1  0.678290  0.756160  0.633560  1.0  0.2994
  Ag  Ag9  1  0.155770  0.043330  0.633170  1.0  0.3307
  Ag  Ag10  1  0.178290  0.743840  0.133560  1.0  0.2993
  Ag  Ag11  1  0.655770  0.543330  0.633170  1.0  0.3307
  Ag  Ag12  1  0.678290  0.243840  0.133560  1.0  0.2993
  Ag  Ag13  1  0.844230  0.043330  0.866830  1.0  0.3309
  Ag  Ag14  1  0.821710  0.743840  0.366440  1.0  0.2993
  Ag  Ag15  1  0.344230  0.543330  0.866830  1.0  0.3309
  Ag  Ag16  1  0.321710  0.243840  0.366440  1.0  0.2993
  H  H17  1  0.554000  0.289600  0.387600  1.0  0.1239
  H  H18  1  0.023500  0.383400  0.034800  1.0  0.1262
  H  H19  1  0.819700  0.087700  0.543700  1.0  0.1194
  H  H20  1  0.924600  0.316900  0.983200  1.0  0.0672
  H  H21  1  0.297800  0.634800  0.048500  1.0  0.1218
  H  H22  1  0.200400  0.657400  0.850800  1.0  0.0826
  H  H23  1  0.134800  0.438000  0.158700  1.0  0.119
  H  H24  1  0.713800  0.057300  0.347600  1.0  0.07
  H  H25  1  0.543200  0.330400  0.537600  1.0  0.1217
  H  H26  1  0.445300  0.395900  0.488000  1.0  0.0693
  H  H27  1  0.144800  0.586700  0.894600  1.0  0.1063
  H  H28  1  0.347800  0.705500  0.999300  1.0  0.0719
  H  H29  1  0.661900  0.131700  0.391900  1.0  0.1219
  H  H30  1  0.455600  0.359400  0.342400  1.0  0.0807
  H  H31  1  0.867000  0.017500  0.493400  1.0  0.0684
  H  H32  1  0.019200  0.457100  0.884200  1.0  0.1223
  H  H33  1  0.349500  0.522300  0.261500  1.0  0.0742
  H  H34  1  0.188200  0.423200  0.257600  1.0  0.0697
  H  H35  1  0.924500  0.382600  0.837600  1.0  0.073
  H  H36  1  0.726200  0.330000  0.752400  1.0  0.0785
  H  H37  1  0.301900  0.540300  0.163800  1.0  0.1256
  H  H38  1  0.674900  0.314600  0.654400  1.0  0.121
  H  H39  1  0.825000  0.168300  0.667300  1.0  0.1239
  H  H40  1  0.867000  0.183000  0.764800  1.0  0.0631
  H  H41  1  0.054000  0.789600  0.387600  1.0  0.1239
  H  H42  1  0.523500  0.883400  0.034800  1.0  0.1262
  H  H43  1  0.319700  0.587700  0.543700  1.0  0.1194
  H  H44  1  0.424600  0.816900  0.983200  1.0  0.0674
  H  H45  1  0.797800  0.134800  0.048500  1.0  0.1218
  H  H46  1  0.700400  0.157400  0.850800  1.0  0.0826
  H  H47  1  0.634800  0.938000  0.158700  1.0  0.119
  H  H48  1  0.213800  0.557300  0.347600  1.0  0.07
  H  H49  1  0.043200  0.830400  0.537600  1.0  0.1217
  H  H50  1  0.945300  0.895900  0.488000  1.0  0.0693
  H  H51  1  0.644800  0.086700  0.894600  1.0  0.1063
  H  H52  1  0.847800  0.205500  0.999300  1.0  0.0719
  H  H53  1  0.161900  0.631700  0.391900  1.0  0.1219
  H  H54  1  0.955600  0.859400  0.342400  1.0  0.0807
  H  H55  1  0.367000  0.517500  0.493400  1.0  0.0684
  H  H56  1  0.519200  0.957100  0.884200  1.0  0.1223
  H  H57  1  0.849500  0.022300  0.261500  1.0  0.0742
  H  H58  1  0.688200  0.923200  0.257600  1.0  0.0697
  H  H59  1  0.424500  0.882600  0.837600  1.0  0.073
  H  H60  1  0.226200  0.830000  0.752400  1.0  0.0785
  H  H61  1  0.801900  0.040300  0.163800  1.0  0.1256
  H  H62  1  0.174900  0.814600  0.654400  1.0  0.121
  H  H63  1  0.325000  0.668300  0.667300  1.0  0.1239
  H  H64  1  0.367000  0.683000  0.764800  1.0  0.0631
  H  H65  1  0.446000  0.289600  0.112400  1.0  0.1234
  H  H66  1  0.976500  0.383400  0.465200  1.0  0.1266
  H  H67  1  0.180300  0.087700  0.956300  1.0  0.12
  H  H68  1  0.075400  0.316900  0.516800  1.0  0.068
  H  H69  1  0.702200  0.634800  0.451500  1.0  0.1216
  H  H70  1  0.799600  0.657400  0.649200  1.0  0.0822
  H  H71  1  0.865200  0.438000  0.341300  1.0  0.1182
  H  H72  1  0.286200  0.057300  0.152400  1.0  0.069
  H  H73  1  0.456800  0.330400  0.962400  1.0  0.1217
  H  H74  1  0.554700  0.395900  0.012000  1.0  0.0691
  H  H75  1  0.855200  0.586700  0.605400  1.0  0.1063
  H  H76  1  0.652200  0.705500  0.500700  1.0  0.0711
  H  H77  1  0.338100  0.131700  0.108100  1.0  0.1219
  H  H78  1  0.544400  0.359400  0.157600  1.0  0.0809
  H  H79  1  0.133000  0.017500  0.006600  1.0  0.0678
  H  H80  1  0.980800  0.457100  0.615800  1.0  0.1218
  H  H81  1  0.650500  0.522300  0.238500  1.0  0.0765
  H  H82  1  0.811800  0.423200  0.242400  1.0  0.0704
  H  H83  1  0.075500  0.382600  0.662400  1.0  0.0738
  H  H84  1  0.273800  0.330000  0.747600  1.0  0.0776
  H  H85  1  0.698100  0.540300  0.336200  1.0  0.126
  H  H86  1  0.325100  0.314600  0.845600  1.0  0.1214
  H  H87  1  0.175000  0.168300  0.832700  1.0  0.1235
  H  H88  1  0.133000  0.183000  0.735200  1.0  0.0634
  H  H89  1  0.946000  0.789600  0.112400  1.0  0.1234
  H  H90  1  0.476500  0.883400  0.465200  1.0  0.1266
  H  H91  1  0.680300  0.587700  0.956300  1.0  0.12
  H  H92  1  0.575400  0.816900  0.516800  1.0  0.0682
  H  H93  1  0.202200  0.134800  0.451500  1.0  0.1216
  H  H94  1  0.299600  0.157400  0.649200  1.0  0.0822
  H  H95  1  0.365200  0.938000  0.341300  1.0  0.1182
  H  H96  1  0.786200  0.557300  0.152400  1.0  0.069
  H  H97  1  0.956800  0.830400  0.962400  1.0  0.1217
  H  H98  1  0.054700  0.895900  0.012000  1.0  0.0691
  H  H99  1  0.355200  0.086700  0.605400  1.0  0.1063
  H  H100  1  0.152200  0.205500  0.500700  1.0  0.0711
  H  H101  1  0.838100  0.631700  0.108100  1.0  0.1219
  H  H102  1  0.044400  0.859400  0.157600  1.0  0.0809
  H  H103  1  0.633000  0.517500  0.006600  1.0  0.0678
  H  H104  1  0.480800  0.957100  0.615800  1.0  0.1218
  H  H105  1  0.150500  0.022300  0.238500  1.0  0.0765
  H  H106  1  0.311800  0.923200  0.242400  1.0  0.0704
  H  H107  1  0.575500  0.882600  0.662400  1.0  0.0738
  H  H108  1  0.773800  0.830000  0.747600  1.0  0.0776
  H  H109  1  0.198100  0.040300  0.336200  1.0  0.126
  H  H110  1  0.825100  0.814600  0.845600  1.0  0.1214
  H  H111  1  0.675000  0.668300  0.832700  1.0  0.1235
  H  H112  1  0.633000  0.683000  0.735200  1.0  0.0634
  H  H113  1  0.446000  0.710400  0.612400  1.0  0.1232
  H  H114  1  0.976500  0.616600  0.965200  1.0  0.1267
  H  H115  1  0.180300  0.912300  0.456300  1.0  0.1201
  H  H116  1  0.075400  0.683100  0.016800  1.0  0.068
  H  H117  1  0.702200  0.365200  0.951500  1.0  0.1215
  H  H118  1  0.799600  0.342600  0.149200  1.0  0.0819
  H  H119  1  0.865200  0.562000  0.841300  1.0  0.1185
  H  H120  1  0.286200  0.942700  0.652400  1.0  0.0688
  H  H121  1  0.456800  0.669600  0.462400  1.0  0.1215
  H  H122  1  0.554700  0.604100  0.512000  1.0  0.0692
  H  H123  1  0.855200  0.413300  0.105400  1.0  0.1065
  H  H124  1  0.652200  0.294500  0.000700  1.0  0.0715
  H  H125  1  0.338100  0.868300  0.608100  1.0  0.1219
  H  H126  1  0.544400  0.640600  0.657600  1.0  0.0808
  H  H127  1  0.133000  0.982500  0.506600  1.0  0.0677
  H  H128  1  0.980800  0.542900  0.115800  1.0  0.1218
  H  H129  1  0.650500  0.477700  0.738500  1.0  0.0766
  H  H130  1  0.811800  0.576800  0.742400  1.0  0.0702
  H  H131  1  0.075500  0.617400  0.162400  1.0  0.0738
  H  H132  1  0.273800  0.670000  0.247600  1.0  0.078
  H  H133  1  0.698100  0.459700  0.836200  1.0  0.1261
  H  H134  1  0.325100  0.685400  0.345600  1.0  0.1208
  H  H135  1  0.175000  0.831700  0.332700  1.0  0.1235
  H  H136  1  0.133000  0.817000  0.235200  1.0  0.0627
  H  H137  1  0.946000  0.210400  0.612400  1.0  0.1232
  H  H138  1  0.476500  0.116600  0.965200  1.0  0.1267
  H  H139  1  0.680300  0.412300  0.456300  1.0  0.1201
  H  H140  1  0.575400  0.183100  0.016800  1.0  0.0683
  H  H141  1  0.202200  0.865200  0.951500  1.0  0.1215
  H  H142  1  0.299600  0.842600  0.149200  1.0  0.0819
  H  H143  1  0.365200  0.062000  0.841300  1.0  0.1185
  H  H144  1  0.786200  0.442700  0.652400  1.0  0.0688
  H  H145  1  0.956800  0.169600  0.462400  1.0  0.1215
  H  H146  1  0.054700  0.104100  0.512000  1.0  0.0692
  H  H147  1  0.355200  0.913300  0.105400  1.0  0.1065
  H  H148  1  0.152200  0.794500  0.000700  1.0  0.0715
  H  H149  1  0.838100  0.368300  0.608100  1.0  0.1219
  H  H150  1  0.044400  0.140600  0.657600  1.0  0.0808
  H  H151  1  0.633000  0.482500  0.506600  1.0  0.0677
  H  H152  1  0.480800  0.042900  0.115800  1.0  0.1218
  H  H153  1  0.150500  0.977700  0.738500  1.0  0.0766
  H  H154  1  0.311800  0.076800  0.742400  1.0  0.0704
  H  H155  1  0.575500  0.117400  0.162400  1.0  0.0738
  H  H156  1  0.773800  0.170000  0.247600  1.0  0.078
  H  H157  1  0.198100  0.959700  0.836200  1.0  0.1261
  H  H158  1  0.825100  0.185400  0.345600  1.0  0.1208
  H  H159  1  0.675000  0.331700  0.332700  1.0  0.1235
  H  H160  1  0.633000  0.317000  0.235200  1.0  0.0627
  H  H161  1  0.554000  0.710400  0.887600  1.0  0.1237
  H  H162  1  0.023500  0.616600  0.534800  1.0  0.126
  H  H163  1  0.819700  0.912300  0.043700  1.0  0.1191
  H  H164  1  0.924600  0.683100  0.483200  1.0  0.0671
  H  H165  1  0.297800  0.365200  0.548500  1.0  0.122
  H  H166  1  0.200400  0.342600  0.350800  1.0  0.0826
  H  H167  1  0.134800  0.562000  0.658700  1.0  0.119
  H  H168  1  0.713800  0.942700  0.847600  1.0  0.0698
  H  H169  1  0.543200  0.669600  0.037600  1.0  0.1219
  H  H170  1  0.445300  0.604100  0.988000  1.0  0.0695
  H  H171  1  0.144800  0.413300  0.394600  1.0  0.1062
  H  H172  1  0.347800  0.294500  0.499300  1.0  0.0719
  H  H173  1  0.661900  0.868300  0.891900  1.0  0.1221
  H  H174  1  0.455600  0.640600  0.842400  1.0  0.0806
  H  H175  1  0.867000  0.982500  0.993400  1.0  0.068
  H  H176  1  0.019200  0.542900  0.384200  1.0  0.122
  H  H177  1  0.349500  0.477700  0.761500  1.0  0.0741
  H  H178  1  0.188200  0.576800  0.757600  1.0  0.0694
  H  H179  1  0.924500  0.617400  0.337600  1.0  0.073
  H  H180  1  0.726200  0.670000  0.252400  1.0  0.079
  H  H181  1  0.301900  0.459700  0.663800  1.0  0.1256
  H  H182  1  0.674900  0.685400  0.154400  1.0  0.121
  H  H183  1  0.825000  0.831700  0.167300  1.0  0.1242
  H  H184  1  0.867000  0.817000  0.264800  1.0  0.0629
  H  H185  1  0.054000  0.210400  0.887600  1.0  0.1237
  H  H186  1  0.523500  0.116600  0.534800  1.0  0.126
  H  H187  1  0.319700  0.412300  0.043700  1.0  0.1191
  H  H188  1  0.424600  0.183100  0.483200  1.0  0.0674
  H  H189  1  0.797800  0.865200  0.548500  1.0  0.122
  H  H190  1  0.700400  0.842600  0.350800  1.0  0.0826
  H  H191  1  0.634800  0.062000  0.658700  1.0  0.119
  H  H192  1  0.213800  0.442700  0.847600  1.0  0.0698
  H  H193  1  0.043200  0.169600  0.037600  1.0  0.1219
  H  H194  1  0.945300  0.104100  0.988000  1.0  0.0695
  H  H195  1  0.644800  0.913300  0.394600  1.0  0.1062
  H  H196  1  0.847800  0.794500  0.499300  1.0  0.0719
  H  H197  1  0.161900  0.368300  0.891900  1.0  0.1221
  H  H198  1  0.955600  0.140600  0.842400  1.0  0.0806
  H  H199  1  0.367000  0.482500  0.993400  1.0  0.068
  H  H200  1  0.519200  0.042900  0.384200  1.0  0.122
  H  H201  1  0.849500  0.977700  0.761500  1.0  0.0741
  H  H202  1  0.688200  0.076800  0.757600  1.0  0.0696
  H  H203  1  0.424500  0.117400  0.337600  1.0  0.073
  H  H204  1  0.226200  0.170000  0.252400  1.0  0.079
  H  H205  1  0.801900  0.959700  0.663800  1.0  0.1256
  H  H206  1  0.174900  0.185400  0.154400  1.0  0.121
  H  H207  1  0.325000  0.331700  0.167300  1.0  0.1242
  H  H208  1  0.367000  0.317000  0.264800  1.0  0.0629
  C  C209  1  0.097600  0.471600  0.999100  1.0  0.3481
  C  C210  1  0.532600  0.310300  0.409000  1.0  -0.157
  C  C211  1  0.623400  0.255700  0.500300  1.0  0.3807
  C  C212  1  0.003700  0.385000  0.994600  1.0  -0.1685
  C  C213  1  0.559700  0.300200  0.468000  1.0  -0.0186
  C  C214  1  0.181700  0.552600  0.005300  1.0  0.3701
  C  C215  1  0.033100  0.427400  0.965000  1.0  -0.0635
  C  C216  1  0.797500  0.083700  0.503700  1.0  -0.1548
  C  C217  1  0.709400  0.225100  0.585800  1.0  0.3695
  C  C218  1  0.944200  0.344800  0.962900  1.0  0.175
  C  C219  1  0.277000  0.638500  0.008300  1.0  -0.1592
  C  C220  1  0.220200  0.652700  0.890800  1.0  0.1535
  C  C221  1  0.742700  0.236700  0.649500  1.0  -0.0524
  C  C222  1  0.735200  0.121200  0.473000  1.0  0.0051
  C  C223  1  0.178800  0.455800  0.179000  1.0  -0.1443
  C  C224  1  0.214100  0.601500  0.975800  1.0  -0.0706
  C  C225  1  0.735400  0.064300  0.387400  1.0  0.1653
  C  C226  1  0.212100  0.491400  0.150600  1.0  -0.0708
  C  C227  1  0.525800  0.334300  0.497600  1.0  -0.185
  C  C228  1  0.467200  0.373500  0.467500  1.0  0.1675
  C  C229  1  0.179900  0.502100  0.086200  1.0  0.3541
  C  C230  1  0.186300  0.609700  0.917100  1.0  -0.1305
  C  C231  1  0.306800  0.680700  0.978200  1.0  0.1757
  C  C232  1  0.703800  0.109400  0.413700  1.0  -0.1547
  C  C233  1  0.705100  0.171800  0.503400  1.0  0.395
  C  C234  1  0.472900  0.351900  0.382200  1.0  0.1726
  C  C235  1  0.825000  0.040600  0.472900  1.0  0.1741
  C  C236  1  0.001500  0.427700  0.905400  1.0  -0.164
  C  C237  1  0.305600  0.504800  0.240500  1.0  0.1561
  C  C238  1  0.211400  0.446800  0.238500  1.0  0.1748
  C  C239  1  0.943800  0.384300  0.877800  1.0  0.1734
  C  C240  1  0.744800  0.294800  0.735000  1.0  0.1648
  C  C241  1  0.277700  0.516500  0.181800  1.0  -0.1916
  C  C242  1  0.714200  0.286900  0.676200  1.0  -0.1636
  C  C243  1  0.802500  0.199400  0.683600  1.0  -0.1935
  C  C244  1  0.827500  0.209800  0.742100  1.0  0.1849
  C  C245  1  0.597600  0.971600  0.999100  1.0  0.3481
  C  C246  1  0.032600  0.810300  0.409000  1.0  -0.157
  C  C247  1  0.123400  0.755700  0.500300  1.0  0.3807
  C  C248  1  0.503700  0.885000  0.994600  1.0  -0.1685
  C  C249  1  0.059700  0.800200  0.468000  1.0  -0.0186
  C  C250  1  0.681700  0.052600  0.005300  1.0  0.3701
  C  C251  1  0.533100  0.927400  0.965000  1.0  -0.0635
  C  C252  1  0.297500  0.583700  0.503700  1.0  -0.1548
  C  C253  1  0.209400  0.725100  0.585800  1.0  0.3695
  C  C254  1  0.444200  0.844800  0.962900  1.0  0.175
  C  C255  1  0.777000  0.138500  0.008300  1.0  -0.1592
  C  C256  1  0.720200  0.152700  0.890800  1.0  0.1535
  C  C257  1  0.242700  0.736700  0.649500  1.0  -0.0524
  C  C258  1  0.235200  0.621200  0.473000  1.0  0.0051
  C  C259  1  0.678800  0.955800  0.179000  1.0  -0.1443
  C  C260  1  0.714100  0.101500  0.975800  1.0  -0.0706
  C  C261  1  0.235400  0.564300  0.387400  1.0  0.1653
  C  C262  1  0.712100  0.991400  0.150600  1.0  -0.0708
  C  C263  1  0.025800  0.834300  0.497600  1.0  -0.185
  C  C264  1  0.967200  0.873500  0.467500  1.0  0.1675
  C  C265  1  0.679900  0.002100  0.086200  1.0  0.3541
  C  C266  1  0.686300  0.109700  0.917100  1.0  -0.1305
  C  C267  1  0.806800  0.180700  0.978200  1.0  0.1757
  C  C268  1  0.203800  0.609400  0.413700  1.0  -0.1547
  C  C269  1  0.205100  0.671800  0.503400  1.0  0.395
  C  C270  1  0.972900  0.851900  0.382200  1.0  0.1726
  C  C271  1  0.325000  0.540600  0.472900  1.0  0.1741
  C  C272  1  0.501500  0.927700  0.905400  1.0  -0.164
  C  C273  1  0.805600  0.004800  0.240500  1.0  0.1561
  C  C274  1  0.711400  0.946800  0.238500  1.0  0.1748
  C  C275  1  0.443800  0.884300  0.877800  1.0  0.1734
  C  C276  1  0.244800  0.794800  0.735000  1.0  0.1648
  C  C277  1  0.777700  0.016500  0.181800  1.0  -0.1916
  C  C278  1  0.214200  0.786900  0.676200  1.0  -0.1636
  C  C279  1  0.302500  0.699400  0.683600  1.0  -0.1935
  C  C280  1  0.327500  0.709800  0.742100  1.0  0.1849
  C  C281  1  0.902400  0.471600  0.500900  1.0  0.348
  C  C282  1  0.467400  0.310300  0.091000  1.0  -0.1573
  C  C283  1  0.376600  0.255700  0.999700  1.0  0.3804
  C  C284  1  0.996300  0.385000  0.505400  1.0  -0.1695
  C  C285  1  0.440300  0.300200  0.032000  1.0  -0.0187
  C  C286  1  0.818300  0.552600  0.494700  1.0  0.3706
  C  C287  1  0.966900  0.427400  0.535000  1.0  -0.0654
  C  C288  1  0.202500  0.083700  0.996300  1.0  -0.1533
  C  C289  1  0.290600  0.225100  0.914200  1.0  0.3688
  C  C290  1  0.055800  0.344800  0.537100  1.0  0.1753
  C  C291  1  0.723000  0.638500  0.491700  1.0  -0.1595
  C  C292  1  0.779800  0.652700  0.609200  1.0  0.1529
  C  C293  1  0.257300  0.236700  0.850500  1.0  -0.0518
  C  C294  1  0.264800  0.121200  0.027000  1.0  0.0057
  C  C295  1  0.821200  0.455800  0.321000  1.0  -0.1475
  C  C296  1  0.785900  0.601500  0.524200  1.0  -0.0697
  C  C297  1  0.264600  0.064300  0.112600  1.0  0.1632
  C  C298  1  0.787900  0.491400  0.349400  1.0  -0.0722
  C  C299  1  0.474200  0.334300  0.002400  1.0  -0.1865
  C  C300  1  0.532800  0.373500  0.032500  1.0  0.1685
  C  C301  1  0.820100  0.502100  0.413800  1.0  0.3545
  C  C302  1  0.813700  0.609700  0.582900  1.0  -0.1315
  C  C303  1  0.693200  0.680700  0.521800  1.0  0.1762
  C  C304  1  0.296200  0.109400  0.086300  1.0  -0.1558
  C  C305  1  0.294900  0.171800  0.996600  1.0  0.3948
  C  C306  1  0.527100  0.351900  0.117800  1.0  0.1709
  C  C307  1  0.175000  0.040600  0.027100  1.0  0.175
  C  C308  1  0.998500  0.427700  0.594600  1.0  -0.1622
  C  C309  1  0.694400  0.504800  0.259500  1.0  0.1568
  C  C310  1  0.788600  0.446800  0.261500  1.0  0.1762
  C  C311  1  0.056200  0.384300  0.622200  1.0  0.1727
  C  C312  1  0.255200  0.294800  0.765000  1.0  0.1636
  C  C313  1  0.722300  0.516500  0.318200  1.0  -0.1892
  C  C314  1  0.285800  0.286900  0.823800  1.0  -0.1641
  C  C315  1  0.197500  0.199400  0.816400  1.0  -0.1912
  C  C316  1  0.172500  0.209800  0.757900  1.0  0.1841
  C  C317  1  0.402400  0.971600  0.500900  1.0  0.348
  C  C318  1  0.967400  0.810300  0.091000  1.0  -0.1573
  C  C319  1  0.876600  0.755700  0.999700  1.0  0.3804
  C  C320  1  0.496300  0.885000  0.505400  1.0  -0.1695
  C  C321  1  0.940300  0.800200  0.032000  1.0  -0.0187
  C  C322  1  0.318300  0.052600  0.494700  1.0  0.3706
  C  C323  1  0.466900  0.927400  0.535000  1.0  -0.0654
  C  C324  1  0.702500  0.583700  0.996300  1.0  -0.1533
  C  C325  1  0.790600  0.725100  0.914200  1.0  0.3688
  C  C326  1  0.555800  0.844800  0.537100  1.0  0.1753
  C  C327  1  0.223000  0.138500  0.491700  1.0  -0.1595
  C  C328  1  0.279800  0.152700  0.609200  1.0  0.1529
  C  C329  1  0.757300  0.736700  0.850500  1.0  -0.0518
  C  C330  1  0.764800  0.621200  0.027000  1.0  0.0057
  C  C331  1  0.321200  0.955800  0.321000  1.0  -0.1475
  C  C332  1  0.285900  0.101500  0.524200  1.0  -0.0697
  C  C333  1  0.764600  0.564300  0.112600  1.0  0.1632
  C  C334  1  0.287900  0.991400  0.349400  1.0  -0.0722
  C  C335  1  0.974200  0.834300  0.002400  1.0  -0.1865
  C  C336  1  0.032800  0.873500  0.032500  1.0  0.1685
  C  C337  1  0.320100  0.002100  0.413800  1.0  0.3545
  C  C338  1  0.313700  0.109700  0.582900  1.0  -0.1315
  C  C339  1  0.193200  0.180700  0.521800  1.0  0.1762
  C  C340  1  0.796200  0.609400  0.086300  1.0  -0.1558
  C  C341  1  0.794900  0.671800  0.996600  1.0  0.3948
  C  C342  1  0.027100  0.851900  0.117800  1.0  0.1709
  C  C343  1  0.675000  0.540600  0.027100  1.0  0.175
  C  C344  1  0.498500  0.927700  0.594600  1.0  -0.1622
  C  C345  1  0.194400  0.004800  0.259500  1.0  0.1568
  C  C346  1  0.288600  0.946800  0.261500  1.0  0.1762
  C  C347  1  0.556200  0.884300  0.622200  1.0  0.1727
  C  C348  1  0.755200  0.794800  0.765000  1.0  0.1636
  C  C349  1  0.222300  0.016500  0.318200  1.0  -0.1892
  C  C350  1  0.785800  0.786900  0.823800  1.0  -0.1641
  C  C351  1  0.697500  0.699400  0.816400  1.0  -0.1912
  C  C352  1  0.672500  0.709800  0.757900  1.0  0.1841
  C  C353  1  0.902400  0.528400  0.000900  1.0  0.3481
  C  C354  1  0.467400  0.689700  0.591000  1.0  -0.1566
  C  C355  1  0.376600  0.744300  0.499700  1.0  0.3804
  C  C356  1  0.996300  0.615000  0.005400  1.0  -0.1698
  C  C357  1  0.440300  0.699800  0.532000  1.0  -0.0192
  C  C358  1  0.818300  0.447400  0.994700  1.0  0.3706
  C  C359  1  0.966900  0.572600  0.035000  1.0  -0.0655
  C  C360  1  0.202500  0.916300  0.496300  1.0  -0.1538
  C  C361  1  0.290600  0.774900  0.414200  1.0  0.3689
  C  C362  1  0.055800  0.655200  0.037100  1.0  0.1751
  C  C363  1  0.723000  0.361500  0.991700  1.0  -0.1592
  C  C364  1  0.779800  0.347300  0.109200  1.0  0.154
  C  C365  1  0.257300  0.763300  0.350500  1.0  -0.0514
  C  C366  1  0.264800  0.878800  0.527000  1.0  0.0057
  C  C367  1  0.821200  0.544200  0.821000  1.0  -0.1474
  C  C368  1  0.785900  0.398500  0.024200  1.0  -0.0695
  C  C369  1  0.264600  0.935700  0.612600  1.0  0.1629
  C  C370  1  0.787900  0.508600  0.849400  1.0  -0.0713
  C  C371  1  0.474200  0.665700  0.502400  1.0  -0.1859
  C  C372  1  0.532800  0.626500  0.532500  1.0  0.168
  C  C373  1  0.820100  0.497900  0.913800  1.0  0.3544
  C  C374  1  0.813700  0.390300  0.082900  1.0  -0.132
  C  C375  1  0.693200  0.319300  0.021800  1.0  0.1765
  C  C376  1  0.296200  0.890600  0.586300  1.0  -0.1561
  C  C377  1  0.294900  0.828200  0.496600  1.0  0.3948
  C  C378  1  0.527100  0.648100  0.617800  1.0  0.1709
  C  C379  1  0.175000  0.959400  0.527100  1.0  0.1744
  C  C380  1  0.998500  0.572300  0.094600  1.0  -0.1624
  C  C381  1  0.694400  0.495200  0.759500  1.0  0.1571
  C  C382  1  0.788600  0.553200  0.761500  1.0  0.1765
  C  C383  1  0.056200  0.615700  0.122200  1.0  0.1727
  C  C384  1  0.255200  0.705200  0.265000  1.0  0.1635
  C  C385  1  0.722300  0.483500  0.818200  1.0  -0.1891
  C  C386  1  0.285800  0.713100  0.323800  1.0  -0.1634
  C  C387  1  0.197500  0.800600  0.316400  1.0  -0.1908
  C  C388  1  0.172500  0.790200  0.257900  1.0  0.1845
  C  C389  1  0.402400  0.028400  0.000900  1.0  0.3481
  C  C390  1  0.967400  0.189700  0.591000  1.0  -0.1566
  C  C391  1  0.876600  0.244300  0.499700  1.0  0.3804
  C  C392  1  0.496300  0.115000  0.005400  1.0  -0.1698
  C  C393  1  0.940300  0.199800  0.532000  1.0  -0.0192
  C  C394  1  0.318300  0.947400  0.994700  1.0  0.3706
  C  C395  1  0.466900  0.072600  0.035000  1.0  -0.0655
  C  C396  1  0.702500  0.416300  0.496300  1.0  -0.1538
  C  C397  1  0.790600  0.274900  0.414200  1.0  0.3689
  C  C398  1  0.555800  0.155200  0.037100  1.0  0.1751
  C  C399  1  0.223000  0.861500  0.991700  1.0  -0.1592
  C  C400  1  0.279800  0.847300  0.109200  1.0  0.154
  C  C401  1  0.757300  0.263300  0.350500  1.0  -0.0514
  C  C402  1  0.764800  0.378800  0.527000  1.0  0.0057
  C  C403  1  0.321200  0.044200  0.821000  1.0  -0.1474
  C  C404  1  0.285900  0.898500  0.024200  1.0  -0.0695
  C  C405  1  0.764600  0.435700  0.612600  1.0  0.1629
  C  C406  1  0.287900  0.008600  0.849400  1.0  -0.0713
  C  C407  1  0.974200  0.165700  0.502400  1.0  -0.1859
  C  C408  1  0.032800  0.126500  0.532500  1.0  0.168
  C  C409  1  0.320100  0.997900  0.913800  1.0  0.3544
  C  C410  1  0.313700  0.890300  0.082900  1.0  -0.132
  C  C411  1  0.193200  0.819300  0.021800  1.0  0.1765
  C  C412  1  0.796200  0.390600  0.586300  1.0  -0.1561
  C  C413  1  0.794900  0.328200  0.496600  1.0  0.3948
  C  C414  1  0.027100  0.148100  0.617800  1.0  0.1709
  C  C415  1  0.675000  0.459400  0.527100  1.0  0.1744
  C  C416  1  0.498500  0.072300  0.094600  1.0  -0.1624
  C  C417  1  0.194400  0.995200  0.759500  1.0  0.1571
  C  C418  1  0.288600  0.053200  0.761500  1.0  0.1765
  C  C419  1  0.556200  0.115700  0.122200  1.0  0.1727
  C  C420  1  0.755200  0.205200  0.265000  1.0  0.1635
  C  C421  1  0.222300  0.983500  0.818200  1.0  -0.1891
  C  C422  1  0.785800  0.213100  0.323800  1.0  -0.1634
  C  C423  1  0.697500  0.300600  0.316400  1.0  -0.1908
  C  C424  1  0.672500  0.290200  0.257900  1.0  0.1845
  C  C425  1  0.097600  0.528400  0.499100  1.0  0.3479
  C  C426  1  0.532600  0.689700  0.909000  1.0  -0.157
  C  C427  1  0.623400  0.744300  0.000300  1.0  0.3808
  C  C428  1  0.003700  0.615000  0.494600  1.0  -0.169
  C  C429  1  0.559700  0.699800  0.968000  1.0  -0.0183
  C  C430  1  0.181700  0.447400  0.505300  1.0  0.3701
  C  C431  1  0.033100  0.572600  0.465000  1.0  -0.064
  C  C432  1  0.797500  0.916300  0.003700  1.0  -0.1547
  C  C433  1  0.709400  0.774900  0.085800  1.0  0.3698
  C  C434  1  0.944200  0.655200  0.462900  1.0  0.1743
  C  C435  1  0.277000  0.361500  0.508300  1.0  -0.1593
  C  C436  1  0.220200  0.347300  0.390800  1.0  0.1535
  C  C437  1  0.742700  0.763300  0.149500  1.0  -0.052
  C  C438  1  0.735200  0.878800  0.973000  1.0  0.0055
  C  C439  1  0.178800  0.544200  0.679000  1.0  -0.1444
  C  C440  1  0.214100  0.398500  0.475800  1.0  -0.0702
  C  C441  1  0.735400  0.935700  0.887400  1.0  0.1651
  C  C442  1  0.212100  0.508600  0.650600  1.0  -0.0703
  C  C443  1  0.525800  0.665700  0.997600  1.0  -0.1848
  C  C444  1  0.467200  0.626500  0.967500  1.0  0.1688
  C  C445  1  0.179900  0.497900  0.586200  1.0  0.3541
  C  C446  1  0.186300  0.390300  0.417100  1.0  -0.1313
  C  C447  1  0.306800  0.319300  0.478200  1.0  0.1756
  C  C448  1  0.703800  0.890600  0.913700  1.0  -0.1545
  C  C449  1  0.705100  0.828200  0.003400  1.0  0.3952
  C  C450  1  0.472900  0.648100  0.882200  1.0  0.1716
  C  C451  1  0.825000  0.959400  0.972900  1.0  0.1742
  C  C452  1  0.001500  0.572300  0.405400  1.0  -0.1633
  C  C453  1  0.305600  0.495200  0.740500  1.0  0.1566
  C  C454  1  0.211400  0.553200  0.738500  1.0  0.1753
  C  C455  1  0.943800  0.615700  0.377800  1.0  0.1735
  C  C456  1  0.744800  0.705200  0.235000  1.0  0.1645
  C  C457  1  0.277700  0.483500  0.681800  1.0  -0.1914
  C  C458  1  0.714200  0.713100  0.176200  1.0  -0.1629
  C  C459  1  0.802500  0.800600  0.183600  1.0  -0.1931
  C  C460  1  0.827500  0.790200  0.242100  1.0  0.1854
  C  C461  1  0.597600  0.028400  0.499100  1.0  0.3479
  C  C462  1  0.032600  0.189700  0.909000  1.0  -0.157
  C  C463  1  0.123400  0.244300  0.000300  1.0  0.3808
  C  C464  1  0.503700  0.115000  0.494600  1.0  -0.169
  C  C465  1  0.059700  0.199800  0.968000  1.0  -0.0183
  C  C466  1  0.681700  0.947400  0.505300  1.0  0.3701
  C  C467  1  0.533100  0.072600  0.465000  1.0  -0.064
  C  C468  1  0.297500  0.416300  0.003700  1.0  -0.1547
  C  C469  1  0.209400  0.274900  0.085800  1.0  0.3698
  C  C470  1  0.444200  0.155200  0.462900  1.0  0.1743
  C  C471  1  0.777000  0.861500  0.508300  1.0  -0.1593
  C  C472  1  0.720200  0.847300  0.390800  1.0  0.1535
  C  C473  1  0.242700  0.263300  0.149500  1.0  -0.052
  C  C474  1  0.235200  0.378800  0.973000  1.0  0.0055
  C  C475  1  0.678800  0.044200  0.679000  1.0  -0.1444
  C  C476  1  0.714100  0.898500  0.475800  1.0  -0.0702
  C  C477  1  0.235400  0.435700  0.887400  1.0  0.1651
  C  C478  1  0.712100  0.008600  0.650600  1.0  -0.0703
  C  C479  1  0.025800  0.165700  0.997600  1.0  -0.1848
  C  C480  1  0.967200  0.126500  0.967500  1.0  0.1688
  C  C481  1  0.679900  0.997900  0.586200  1.0  0.3541
  C  C482  1  0.686300  0.890300  0.417100  1.0  -0.1313
  C  C483  1  0.806800  0.819300  0.478200  1.0  0.1756
  C  C484  1  0.203800  0.390600  0.913700  1.0  -0.1545
  C  C485  1  0.205100  0.328200  0.003400  1.0  0.3952
  C  C486  1  0.972900  0.148100  0.882200  1.0  0.1716
  C  C487  1  0.325000  0.459400  0.972900  1.0  0.1742
  C  C488  1  0.501500  0.072300  0.405400  1.0  -0.1633
  C  C489  1  0.805600  0.995200  0.740500  1.0  0.1566
  C  C490  1  0.711400  0.053200  0.738500  1.0  0.1753
  C  C491  1  0.443800  0.115700  0.377800  1.0  0.1735
  C  C492  1  0.244800  0.205200  0.235000  1.0  0.1645
  C  C493  1  0.777700  0.983500  0.681800  1.0  -0.1914
  C  C494  1  0.214200  0.213100  0.176200  1.0  -0.1629
  C  C495  1  0.302500  0.300600  0.183600  1.0  -0.1931
  C  C496  1  0.327500  0.290200  0.242100  1.0  0.1854
  N  N497  1  0.795500  0.030000  0.416300  1.0  -0.3664
  N  N498  1  0.439000  0.381700  0.410000  1.0  -0.3258
  N  N499  1  0.800600  0.254200  0.769000  1.0  -0.3492
  N  N500  1  0.647800  0.210100  0.470800  1.0  -0.502
  N  N501  1  0.652500  0.266000  0.557400  1.0  -0.4788
  N  N502  1  0.737500  0.177400  0.560900  1.0  -0.4811
  N  N503  1  0.279300  0.687200  0.920600  1.0  -0.3187
  N  N504  1  0.913400  0.343700  0.905600  1.0  -0.3726
  N  N505  1  0.274900  0.470400  0.269800  1.0  -0.3554
  N  N506  1  0.125500  0.512900  0.971800  1.0  -0.4266
  N  N507  1  0.123000  0.463000  0.056900  1.0  -0.4964
  N  N508  1  0.210900  0.549000  0.063100  1.0  -0.4927
  N  N509  1  0.295500  0.530000  0.416300  1.0  -0.3664
  N  N510  1  0.939000  0.881700  0.410000  1.0  -0.3258
  N  N511  1  0.300600  0.754200  0.769000  1.0  -0.3492
  N  N512  1  0.147800  0.710100  0.470800  1.0  -0.502
  N  N513  1  0.152500  0.766000  0.557400  1.0  -0.4788
  N  N514  1  0.237500  0.677400  0.560900  1.0  -0.4811
  N  N515  1  0.779300  0.187200  0.920600  1.0  -0.3187
  N  N516  1  0.413400  0.843700  0.905600  1.0  -0.3726
  N  N517  1  0.774900  0.970400  0.269800  1.0  -0.3554
  N  N518  1  0.625500  0.012900  0.971800  1.0  -0.4266
  N  N519  1  0.623000  0.963000  0.056900  1.0  -0.4964
  N  N520  1  0.710900  0.049000  0.063100  1.0  -0.4927
  N  N521  1  0.204500  0.030000  0.083700  1.0  -0.3652
  N  N522  1  0.561000  0.381700  0.090000  1.0  -0.3279
  N  N523  1  0.199400  0.254200  0.731000  1.0  -0.347
  N  N524  1  0.352200  0.210100  0.029200  1.0  -0.5041
  N  N525  1  0.347500  0.266000  0.942600  1.0  -0.4776
  N  N526  1  0.262500  0.177400  0.939100  1.0  -0.483
  N  N527  1  0.720700  0.687200  0.579400  1.0  -0.3209
  N  N528  1  0.086600  0.343700  0.594400  1.0  -0.3697
  N  N529  1  0.725100  0.470400  0.230200  1.0  -0.3579
  N  N530  1  0.874500  0.512900  0.528200  1.0  -0.425
  N  N531  1  0.877000  0.463000  0.443100  1.0  -0.4951
  N  N532  1  0.789100  0.549000  0.436900  1.0  -0.4927
  N  N533  1  0.704500  0.530000  0.083700  1.0  -0.3652
  N  N534  1  0.061000  0.881700  0.090000  1.0  -0.3279
  N  N535  1  0.699400  0.754200  0.731000  1.0  -0.347
  N  N536  1  0.852200  0.710100  0.029200  1.0  -0.5041
  N  N537  1  0.847500  0.766000  0.942600  1.0  -0.4776
  N  N538  1  0.762500  0.677400  0.939100  1.0  -0.483
  N  N539  1  0.220700  0.187200  0.579400  1.0  -0.3209
  N  N540  1  0.586600  0.843700  0.594400  1.0  -0.3697
  N  N541  1  0.225100  0.970400  0.230200  1.0  -0.3579
  N  N542  1  0.374500  0.012900  0.528200  1.0  -0.425
  N  N543  1  0.377000  0.963000  0.443100  1.0  -0.4951
  N  N544  1  0.289100  0.049000  0.436900  1.0  -0.4927
  N  N545  1  0.204500  0.970000  0.583700  1.0  -0.3659
  N  N546  1  0.561000  0.618300  0.590000  1.0  -0.3288
  N  N547  1  0.199400  0.745800  0.231000  1.0  -0.3476
  N  N548  1  0.352200  0.789900  0.529200  1.0  -0.5038
  N  N549  1  0.347500  0.734000  0.442600  1.0  -0.4781
  N  N550  1  0.262500  0.822600  0.439100  1.0  -0.4825
  N  N551  1  0.720700  0.312800  0.079400  1.0  -0.3229
  N  N552  1  0.086600  0.656300  0.094400  1.0  -0.3714
  N  N553  1  0.725100  0.529600  0.730200  1.0  -0.3572
  N  N554  1  0.874500  0.487100  0.028200  1.0  -0.4237
  N  N555  1  0.877000  0.537000  0.943100  1.0  -0.495
  N  N556  1  0.789100  0.451000  0.936900  1.0  -0.4948
  N  N557  1  0.704500  0.470000  0.583700  1.0  -0.3659
  N  N558  1  0.061000  0.118300  0.590000  1.0  -0.3288
  N  N559  1  0.699400  0.245800  0.231000  1.0  -0.3476
  N  N560  1  0.852200  0.289900  0.529200  1.0  -0.5038
  N  N561  1  0.847500  0.234000  0.442600  1.0  -0.4781
  N  N562  1  0.762500  0.322600  0.439100  1.0  -0.4825
  N  N563  1  0.220700  0.812800  0.079400  1.0  -0.3229
  N  N564  1  0.586600  0.156300  0.094400  1.0  -0.3714
  N  N565  1  0.225100  0.029600  0.730200  1.0  -0.3572
  N  N566  1  0.374500  0.987100  0.028200  1.0  -0.4237
  N  N567  1  0.377000  0.037000  0.943100  1.0  -0.495
  N  N568  1  0.289100  0.951000  0.936900  1.0  -0.4948
  N  N569  1  0.795500  0.970000  0.916300  1.0  -0.3652
  N  N570  1  0.439000  0.618300  0.910000  1.0  -0.3306
  N  N571  1  0.800600  0.745800  0.269000  1.0  -0.3482
  N  N572  1  0.647800  0.789900  0.970800  1.0  -0.5018
  N  N573  1  0.652500  0.734000  0.057400  1.0  -0.4783
  N  N574  1  0.737500  0.822600  0.060900  1.0  -0.4824
  N  N575  1  0.279300  0.312800  0.420600  1.0  -0.3217
  N  N576  1  0.913400  0.656300  0.405600  1.0  -0.3712
  N  N577  1  0.274900  0.529600  0.769800  1.0  -0.3557
  N  N578  1  0.125500  0.487100  0.471800  1.0  -0.4258
  N  N579  1  0.123000  0.537000  0.556900  1.0  -0.4971
  N  N580  1  0.210900  0.451000  0.563100  1.0  -0.4931
  N  N581  1  0.295500  0.470000  0.916300  1.0  -0.3652
  N  N582  1  0.939000  0.118300  0.910000  1.0  -0.3306
  N  N583  1  0.300600  0.245800  0.269000  1.0  -0.3482
  N  N584  1  0.147800  0.289900  0.970800  1.0  -0.5018
  N  N585  1  0.152500  0.234000  0.057400  1.0  -0.4783
  N  N586  1  0.237500  0.322600  0.060900  1.0  -0.4824
  N  N587  1  0.779300  0.812800  0.420600  1.0  -0.3217
  N  N588  1  0.413400  0.156300  0.405600  1.0  -0.3712
  N  N589  1  0.774900  0.029600  0.769800  1.0  -0.3557
  N  N590  1  0.625500  0.987100  0.471800  1.0  -0.4258
  N  N591  1  0.623000  0.037000  0.556900  1.0  -0.4971
  N  N592  1  0.710900  0.951000  0.563100  1.0  -0.4931
