# generated using pymatgen
data_AgH12(C3N)6
_symmetry_space_group_name_H-M   'P 1'
_cell_length_a   22.06390000
_cell_length_b   16.33820000
_cell_length_c   25.61700000
_cell_angle_alpha   90.00000000
_cell_angle_beta   115.31100000
_cell_angle_gamma   90.00000000
_symmetry_Int_Tables_number   1
_chemical_formula_structural   AgH12(C3N)6
_chemical_formula_sum   'Ag16 H192 C288 N96'
_cell_volume   8348.01884673
_cell_formula_units_Z   16
loop_
 _symmetry_equiv_pos_site_id
 _symmetry_equiv_pos_as_xyz
  1  'x, y, z'
loop_
 _atom_site_type_symbol
 _atom_site_label
 _atom_site_symmetry_multiplicity
 _atom_site_fract_x
 _atom_site_fract_y
 _atom_site_fract_z
 _atom_site_occupancy
 _atom_site_charge
  Ag  Ag1  1  0.844070  0.457440  0.367830  1.0  0.3379
  Ag  Ag2  1  0.322960  0.252140  0.867250  1.0  0.2882
  Ag  Ag3  1  0.344070  0.957440  0.367830  1.0  0.3379
  Ag  Ag4  1  0.822960  0.752140  0.867250  1.0  0.2882
  Ag  Ag5  1  0.155930  0.457440  0.132170  1.0  0.3383
  Ag  Ag6  1  0.677040  0.252140  0.632750  1.0  0.2881
  Ag  Ag7  1  0.655930  0.957440  0.132170  1.0  0.3383
  Ag  Ag8  1  0.177040  0.752140  0.632750  1.0  0.2881
  Ag  Ag9  1  0.155930  0.542560  0.632170  1.0  0.3383
  Ag  Ag10  1  0.677040  0.747860  0.132750  1.0  0.2879
  Ag  Ag11  1  0.655930  0.042560  0.632170  1.0  0.3383
  Ag  Ag12  1  0.177040  0.247860  0.132750  1.0  0.2879
  Ag  Ag13  1  0.844070  0.542560  0.867830  1.0  0.3379
  Ag  Ag14  1  0.322960  0.747860  0.367250  1.0  0.2881
  Ag  Ag15  1  0.344070  0.042560  0.867830  1.0  0.3379
  Ag  Ag16  1  0.822960  0.247860  0.367250  1.0  0.2881
  H  H17  1  0.798700  0.634100  0.049300  1.0  0.1246
  H  H18  1  0.213200  0.058300  0.348500  1.0  0.0806
  H  H19  1  0.320400  0.088600  0.544900  1.0  0.1246
  H  H20  1  0.054500  0.290800  0.389900  1.0  0.1257
  H  H21  1  0.423600  0.314800  0.984800  1.0  0.0723
  H  H22  1  0.523000  0.382100  0.036700  1.0  0.1284
  H  H23  1  0.634800  0.438500  0.161400  1.0  0.1225
  H  H24  1  0.699800  0.656300  0.852000  1.0  0.0925
  H  H25  1  0.043400  0.330900  0.539900  1.0  0.1309
  H  H26  1  0.368100  0.017700  0.494300  1.0  0.0796
  H  H27  1  0.643600  0.587400  0.896600  1.0  0.1237
  H  H28  1  0.850100  0.703600  0.000500  1.0  0.0849
  H  H29  1  0.956400  0.362900  0.344500  1.0  0.0869
  H  H30  1  0.944300  0.397300  0.489900  1.0  0.0765
  H  H31  1  0.161800  0.132900  0.393900  1.0  0.1258
  H  H32  1  0.851900  0.521500  0.263200  1.0  0.0808
  H  H33  1  0.520500  0.456300  0.886200  1.0  0.1271
  H  H34  1  0.424300  0.381500  0.839500  1.0  0.0764
  H  H35  1  0.177500  0.319300  0.656400  1.0  0.1263
  H  H36  1  0.323800  0.165000  0.668100  1.0  0.1295
  H  H37  1  0.367800  0.179800  0.766900  1.0  0.0871
  H  H38  1  0.802100  0.540500  0.164800  1.0  0.1209
  H  H39  1  0.689600  0.422500  0.260000  1.0  0.0791
  H  H40  1  0.226100  0.329700  0.754900  1.0  0.0801
  H  H41  1  0.298700  0.134100  0.049300  1.0  0.1246
  H  H42  1  0.713200  0.558300  0.348500  1.0  0.0806
  H  H43  1  0.820400  0.588600  0.544900  1.0  0.1246
  H  H44  1  0.554500  0.790800  0.389900  1.0  0.1257
  H  H45  1  0.923600  0.814800  0.984800  1.0  0.0721
  H  H46  1  0.023000  0.882100  0.036700  1.0  0.1284
  H  H47  1  0.134800  0.938500  0.161400  1.0  0.1225
  H  H48  1  0.199800  0.156300  0.852000  1.0  0.0925
  H  H49  1  0.543400  0.830900  0.539900  1.0  0.1309
  H  H50  1  0.868100  0.517700  0.494300  1.0  0.0796
  H  H51  1  0.143600  0.087400  0.896600  1.0  0.1237
  H  H52  1  0.350100  0.203600  0.000500  1.0  0.0849
  H  H53  1  0.456400  0.862900  0.344500  1.0  0.0869
  H  H54  1  0.444300  0.897300  0.489900  1.0  0.0765
  H  H55  1  0.661800  0.632900  0.393900  1.0  0.1258
  H  H56  1  0.351900  0.021500  0.263200  1.0  0.0808
  H  H57  1  0.020500  0.956300  0.886200  1.0  0.1271
  H  H58  1  0.924300  0.881500  0.839500  1.0  0.0764
  H  H59  1  0.677500  0.819300  0.656400  1.0  0.1263
  H  H60  1  0.823800  0.665000  0.668100  1.0  0.1295
  H  H61  1  0.867800  0.679800  0.766900  1.0  0.0871
  H  H62  1  0.302100  0.040500  0.164800  1.0  0.1209
  H  H63  1  0.189600  0.922500  0.260000  1.0  0.079
  H  H64  1  0.726100  0.829700  0.754900  1.0  0.0801
  H  H65  1  0.201300  0.634100  0.450700  1.0  0.1245
  H  H66  1  0.786800  0.058300  0.151500  1.0  0.0792
  H  H67  1  0.679600  0.088600  0.955100  1.0  0.1253
  H  H68  1  0.945500  0.290800  0.110100  1.0  0.1249
  H  H69  1  0.576400  0.314800  0.515200  1.0  0.0729
  H  H70  1  0.477000  0.382100  0.463300  1.0  0.1282
  H  H71  1  0.365200  0.438500  0.338600  1.0  0.121
  H  H72  1  0.300200  0.656300  0.648000  1.0  0.0919
  H  H73  1  0.956600  0.330900  0.960100  1.0  0.1311
  H  H74  1  0.631900  0.017700  0.005700  1.0  0.0791
  H  H75  1  0.356400  0.587400  0.603400  1.0  0.1247
  H  H76  1  0.149900  0.703600  0.499500  1.0  0.0837
  H  H77  1  0.043600  0.362900  0.155500  1.0  0.0871
  H  H78  1  0.055700  0.397300  0.010100  1.0  0.0766
  H  H79  1  0.838200  0.132900  0.106100  1.0  0.1258
  H  H80  1  0.148100  0.521500  0.236800  1.0  0.0796
  H  H81  1  0.479500  0.456300  0.613800  1.0  0.1267
  H  H82  1  0.575700  0.381500  0.660500  1.0  0.0769
  H  H83  1  0.822500  0.319300  0.843600  1.0  0.1266
  H  H84  1  0.676200  0.165000  0.831900  1.0  0.1291
  H  H85  1  0.632200  0.179800  0.733100  1.0  0.0873
  H  H86  1  0.197900  0.540500  0.335200  1.0  0.1215
  H  H87  1  0.310400  0.422500  0.240000  1.0  0.0789
  H  H88  1  0.773900  0.329700  0.745100  1.0  0.0793
  H  H89  1  0.701300  0.134100  0.450700  1.0  0.1245
  H  H90  1  0.286800  0.558300  0.151500  1.0  0.0792
  H  H91  1  0.179600  0.588600  0.955100  1.0  0.1253
  H  H92  1  0.445500  0.790800  0.110100  1.0  0.1249
  H  H93  1  0.076400  0.814800  0.515200  1.0  0.0727
  H  H94  1  0.977000  0.882100  0.463300  1.0  0.1282
  H  H95  1  0.865200  0.938500  0.338600  1.0  0.121
  H  H96  1  0.800200  0.156300  0.648000  1.0  0.0919
  H  H97  1  0.456600  0.830900  0.960100  1.0  0.1311
  H  H98  1  0.131900  0.517700  0.005700  1.0  0.0791
  H  H99  1  0.856400  0.087400  0.603400  1.0  0.1247
  H  H100  1  0.649900  0.203600  0.499500  1.0  0.0837
  H  H101  1  0.543600  0.862900  0.155500  1.0  0.0871
  H  H102  1  0.555700  0.897300  0.010100  1.0  0.0766
  H  H103  1  0.338200  0.632900  0.106100  1.0  0.1258
  H  H104  1  0.648100  0.021500  0.236800  1.0  0.0796
  H  H105  1  0.979500  0.956300  0.613800  1.0  0.1267
  H  H106  1  0.075700  0.881500  0.660500  1.0  0.0769
  H  H107  1  0.322500  0.819300  0.843600  1.0  0.1266
  H  H108  1  0.176200  0.665000  0.831900  1.0  0.1291
  H  H109  1  0.132200  0.679800  0.733100  1.0  0.0873
  H  H110  1  0.697900  0.040500  0.335200  1.0  0.1215
  H  H111  1  0.810400  0.922500  0.240000  1.0  0.0786
  H  H112  1  0.273900  0.829700  0.745100  1.0  0.0793
  H  H113  1  0.201300  0.365900  0.950700  1.0  0.1243
  H  H114  1  0.786800  0.941700  0.651500  1.0  0.079
  H  H115  1  0.679600  0.911400  0.455100  1.0  0.1255
  H  H116  1  0.945500  0.709200  0.610100  1.0  0.1248
  H  H117  1  0.576400  0.685200  0.015200  1.0  0.0732
  H  H118  1  0.477000  0.617900  0.963300  1.0  0.1288
  H  H119  1  0.365200  0.561500  0.838600  1.0  0.1216
  H  H120  1  0.300200  0.343700  0.148000  1.0  0.0917
  H  H121  1  0.956600  0.669100  0.460100  1.0  0.1308
  H  H122  1  0.631900  0.982300  0.505700  1.0  0.0791
  H  H123  1  0.356400  0.412600  0.103400  1.0  0.1248
  H  H124  1  0.149900  0.296400  0.999500  1.0  0.0841
  H  H125  1  0.043600  0.637100  0.655500  1.0  0.0868
  H  H126  1  0.055700  0.602700  0.510100  1.0  0.0768
  H  H127  1  0.838200  0.867100  0.606100  1.0  0.1259
  H  H128  1  0.148100  0.478500  0.736800  1.0  0.0799
  H  H129  1  0.479500  0.543700  0.113800  1.0  0.127
  H  H130  1  0.575700  0.618500  0.160500  1.0  0.0768
  H  H131  1  0.822500  0.680700  0.343600  1.0  0.1265
  H  H132  1  0.676200  0.835000  0.331900  1.0  0.1294
  H  H133  1  0.632200  0.820200  0.233100  1.0  0.087
  H  H134  1  0.197900  0.459500  0.835200  1.0  0.1215
  H  H135  1  0.310400  0.577500  0.740000  1.0  0.0783
  H  H136  1  0.773900  0.670300  0.245100  1.0  0.0796
  H  H137  1  0.701300  0.865900  0.950700  1.0  0.1243
  H  H138  1  0.286800  0.441700  0.651500  1.0  0.079
  H  H139  1  0.179600  0.411400  0.455100  1.0  0.1255
  H  H140  1  0.445500  0.209200  0.610100  1.0  0.1248
  H  H141  1  0.076400  0.185200  0.015200  1.0  0.073
  H  H142  1  0.977000  0.117900  0.963300  1.0  0.1288
  H  H143  1  0.865200  0.061500  0.838600  1.0  0.1216
  H  H144  1  0.800200  0.843700  0.148000  1.0  0.0917
  H  H145  1  0.456600  0.169100  0.460100  1.0  0.1308
  H  H146  1  0.131900  0.482300  0.505700  1.0  0.0791
  H  H147  1  0.856400  0.912600  0.103400  1.0  0.1248
  H  H148  1  0.649900  0.796400  0.999500  1.0  0.0841
  H  H149  1  0.543600  0.137100  0.655500  1.0  0.0868
  H  H150  1  0.555700  0.102700  0.510100  1.0  0.0768
  H  H151  1  0.338200  0.367100  0.606100  1.0  0.1259
  H  H152  1  0.648100  0.978500  0.736800  1.0  0.0799
  H  H153  1  0.979500  0.043700  0.113800  1.0  0.127
  H  H154  1  0.075700  0.118500  0.160500  1.0  0.0768
  H  H155  1  0.322500  0.180700  0.343600  1.0  0.1265
  H  H156  1  0.176200  0.335000  0.331900  1.0  0.1294
  H  H157  1  0.132200  0.320200  0.233100  1.0  0.087
  H  H158  1  0.697900  0.959500  0.835200  1.0  0.1215
  H  H159  1  0.810400  0.077500  0.740000  1.0  0.0782
  H  H160  1  0.273900  0.170300  0.245100  1.0  0.0796
  H  H161  1  0.798700  0.365900  0.549300  1.0  0.1247
  H  H162  1  0.213200  0.941700  0.848500  1.0  0.0805
  H  H163  1  0.320400  0.911400  0.044900  1.0  0.1245
  H  H164  1  0.054500  0.709200  0.889900  1.0  0.1254
  H  H165  1  0.423600  0.685200  0.484800  1.0  0.0724
  H  H166  1  0.523000  0.617900  0.536700  1.0  0.1283
  H  H167  1  0.634800  0.561500  0.661400  1.0  0.1226
  H  H168  1  0.699800  0.343700  0.352000  1.0  0.0923
  H  H169  1  0.043400  0.669100  0.039900  1.0  0.1308
  H  H170  1  0.368100  0.982300  0.994300  1.0  0.0793
  H  H171  1  0.643600  0.412600  0.396600  1.0  0.1235
  H  H172  1  0.850100  0.296400  0.500500  1.0  0.0849
  H  H173  1  0.956400  0.637100  0.844500  1.0  0.0865
  H  H174  1  0.944300  0.602700  0.989900  1.0  0.0768
  H  H175  1  0.161800  0.867100  0.893900  1.0  0.1261
  H  H176  1  0.851900  0.478500  0.763200  1.0  0.0807
  H  H177  1  0.520500  0.543700  0.386200  1.0  0.1267
  H  H178  1  0.424300  0.618500  0.339500  1.0  0.0765
  H  H179  1  0.177500  0.680700  0.156400  1.0  0.1265
  H  H180  1  0.323800  0.835000  0.168100  1.0  0.1298
  H  H181  1  0.367800  0.820200  0.266900  1.0  0.087
  H  H182  1  0.802100  0.459500  0.664800  1.0  0.1207
  H  H183  1  0.689600  0.577500  0.760000  1.0  0.0786
  H  H184  1  0.226100  0.670300  0.254900  1.0  0.0804
  H  H185  1  0.298700  0.865900  0.549300  1.0  0.1247
  H  H186  1  0.713200  0.441700  0.848500  1.0  0.0805
  H  H187  1  0.820400  0.411400  0.044900  1.0  0.1245
  H  H188  1  0.554500  0.209200  0.889900  1.0  0.1254
  H  H189  1  0.923600  0.185200  0.484800  1.0  0.0721
  H  H190  1  0.023000  0.117900  0.536700  1.0  0.1283
  H  H191  1  0.134800  0.061500  0.661400  1.0  0.1226
  H  H192  1  0.199800  0.843700  0.352000  1.0  0.0923
  H  H193  1  0.543400  0.169100  0.039900  1.0  0.1308
  H  H194  1  0.868100  0.482300  0.994300  1.0  0.0793
  H  H195  1  0.143600  0.912600  0.396600  1.0  0.1235
  H  H196  1  0.350100  0.796400  0.500500  1.0  0.0849
  H  H197  1  0.456400  0.137100  0.844500  1.0  0.0865
  H  H198  1  0.444300  0.102700  0.989900  1.0  0.0768
  H  H199  1  0.661800  0.367100  0.893900  1.0  0.1261
  H  H200  1  0.351900  0.978500  0.763200  1.0  0.0807
  H  H201  1  0.020500  0.043700  0.386200  1.0  0.1267
  H  H202  1  0.924300  0.118500  0.339500  1.0  0.0765
  H  H203  1  0.677500  0.180700  0.156400  1.0  0.1265
  H  H204  1  0.823800  0.335000  0.168100  1.0  0.1298
  H  H205  1  0.867800  0.320200  0.266900  1.0  0.087
  H  H206  1  0.302100  0.959500  0.664800  1.0  0.1207
  H  H207  1  0.189600  0.077500  0.760000  1.0  0.0786
  H  H208  1  0.726100  0.170300  0.254900  1.0  0.0804
  C  C209  1  0.123700  0.257000  0.502400  1.0  0.3742
  C  C210  1  0.778000  0.637700  0.009200  1.0  -0.1306
  C  C211  1  0.235100  0.065000  0.388300  1.0  0.1699
  C  C212  1  0.597800  0.470000  0.001000  1.0  0.3722
  C  C213  1  0.298100  0.084200  0.504900  1.0  -0.1672
  C  C214  1  0.033100  0.312200  0.411100  1.0  -0.1527
  C  C215  1  0.443700  0.343000  0.964900  1.0  0.1744
  C  C216  1  0.503400  0.383500  0.996500  1.0  -0.1599
  C  C217  1  0.060000  0.302200  0.470200  1.0  -0.09
  C  C218  1  0.209900  0.226900  0.587700  1.0  0.3839
  C  C219  1  0.678900  0.456100  0.181300  1.0  -0.1416
  C  C220  1  0.719800  0.652000  0.892100  1.0  0.1618
  C  C221  1  0.682500  0.551800  0.006800  1.0  0.3547
  C  C222  1  0.533400  0.426200  0.967100  1.0  -0.0828
  C  C223  1  0.680500  0.502100  0.088300  1.0  0.3882
  C  C224  1  0.243600  0.237400  0.651700  1.0  -0.0257
  C  C225  1  0.026100  0.335600  0.500000  1.0  -0.1773
  C  C226  1  0.715500  0.601100  0.977600  1.0  -0.0123
  C  C227  1  0.325900  0.040900  0.474100  1.0  0.1783
  C  C228  1  0.685700  0.609600  0.918500  1.0  -0.1314
  C  C229  1  0.808500  0.679700  0.979400  1.0  0.1742
  C  C230  1  0.973500  0.354700  0.384100  1.0  0.184
  C  C231  1  0.235900  0.121000  0.474500  1.0  -0.123
  C  C232  1  0.966800  0.375400  0.469600  1.0  0.173
  C  C233  1  0.205400  0.172100  0.505100  1.0  0.3915
  C  C234  1  0.203900  0.110100  0.415200  1.0  -0.151
  C  C235  1  0.807600  0.504900  0.242500  1.0  0.1672
  C  C236  1  0.502400  0.426900  0.907200  1.0  -0.1597
  C  C237  1  0.443800  0.383000  0.879600  1.0  0.1803
  C  C238  1  0.215700  0.289100  0.678200  1.0  -0.1672
  C  C239  1  0.302300  0.197500  0.684900  1.0  -0.1648
  C  C240  1  0.328300  0.207400  0.744300  1.0  0.1826
  C  C241  1  0.712300  0.492400  0.152000  1.0  -0.1052
  C  C242  1  0.778100  0.516700  0.183200  1.0  -0.1653
  C  C243  1  0.712300  0.446700  0.240600  1.0  0.1689
  C  C244  1  0.245400  0.295100  0.737400  1.0  0.1753
  C  C245  1  0.623700  0.757000  0.502400  1.0  0.3742
  C  C246  1  0.278000  0.137700  0.009200  1.0  -0.1306
  C  C247  1  0.735100  0.565000  0.388300  1.0  0.1699
  C  C248  1  0.097800  0.970000  0.001000  1.0  0.3722
  C  C249  1  0.798100  0.584200  0.504900  1.0  -0.1672
  C  C250  1  0.533100  0.812200  0.411100  1.0  -0.1527
  C  C251  1  0.943700  0.843000  0.964900  1.0  0.1744
  C  C252  1  0.003400  0.883500  0.996500  1.0  -0.1599
  C  C253  1  0.560000  0.802200  0.470200  1.0  -0.09
  C  C254  1  0.709900  0.726900  0.587700  1.0  0.3839
  C  C255  1  0.178900  0.956100  0.181300  1.0  -0.1416
  C  C256  1  0.219800  0.152000  0.892100  1.0  0.1618
  C  C257  1  0.182500  0.051800  0.006800  1.0  0.3547
  C  C258  1  0.033400  0.926200  0.967100  1.0  -0.0828
  C  C259  1  0.180500  0.002100  0.088300  1.0  0.3882
  C  C260  1  0.743600  0.737400  0.651700  1.0  -0.0257
  C  C261  1  0.526100  0.835600  0.500000  1.0  -0.1773
  C  C262  1  0.215500  0.101100  0.977600  1.0  -0.0123
  C  C263  1  0.825900  0.540900  0.474100  1.0  0.1783
  C  C264  1  0.185700  0.109600  0.918500  1.0  -0.1314
  C  C265  1  0.308500  0.179700  0.979400  1.0  0.1742
  C  C266  1  0.473500  0.854700  0.384100  1.0  0.184
  C  C267  1  0.735900  0.621000  0.474500  1.0  -0.123
  C  C268  1  0.466800  0.875400  0.469600  1.0  0.173
  C  C269  1  0.705400  0.672100  0.505100  1.0  0.3915
  C  C270  1  0.703900  0.610100  0.415200  1.0  -0.151
  C  C271  1  0.307600  0.004900  0.242500  1.0  0.1672
  C  C272  1  0.002400  0.926900  0.907200  1.0  -0.1597
  C  C273  1  0.943800  0.883000  0.879600  1.0  0.1803
  C  C274  1  0.715700  0.789100  0.678200  1.0  -0.1672
  C  C275  1  0.802300  0.697500  0.684900  1.0  -0.1648
  C  C276  1  0.828300  0.707400  0.744300  1.0  0.1826
  C  C277  1  0.212300  0.992400  0.152000  1.0  -0.1052
  C  C278  1  0.278100  0.016700  0.183200  1.0  -0.1653
  C  C279  1  0.212300  0.946700  0.240600  1.0  0.1689
  C  C280  1  0.745400  0.795100  0.737400  1.0  0.1753
  C  C281  1  0.876300  0.257000  0.997600  1.0  0.3745
  C  C282  1  0.222000  0.637700  0.490800  1.0  -0.1308
  C  C283  1  0.764900  0.065000  0.111700  1.0  0.1684
  C  C284  1  0.402200  0.470000  0.499000  1.0  0.3712
  C  C285  1  0.701900  0.084200  0.995100  1.0  -0.1646
  C  C286  1  0.966900  0.312200  0.088900  1.0  -0.1555
  C  C287  1  0.556300  0.343000  0.535100  1.0  0.1746
  C  C288  1  0.496600  0.383500  0.503500  1.0  -0.1611
  C  C289  1  0.940000  0.302200  0.029800  1.0  -0.0901
  C  C290  1  0.790100  0.226900  0.912300  1.0  0.3833
  C  C291  1  0.321100  0.456100  0.318700  1.0  -0.1422
  C  C292  1  0.280200  0.652000  0.607900  1.0  0.1615
  C  C293  1  0.317500  0.551800  0.493200  1.0  0.3556
  C  C294  1  0.466600  0.426200  0.532900  1.0  -0.0838
  C  C295  1  0.319500  0.502100  0.411700  1.0  0.3881
  C  C296  1  0.756400  0.237400  0.848300  1.0  -0.0255
  C  C297  1  0.973900  0.335600  0.000000  1.0  -0.1778
  C  C298  1  0.284500  0.601100  0.522400  1.0  -0.0111
  C  C299  1  0.674100  0.040900  0.025900  1.0  0.178
  C  C300  1  0.314300  0.609600  0.581500  1.0  -0.1323
  C  C301  1  0.191500  0.679700  0.520600  1.0  0.1735
  C  C302  1  0.026500  0.354700  0.115900  1.0  0.1841
  C  C303  1  0.764100  0.121000  0.025500  1.0  -0.1223
  C  C304  1  0.033200  0.375400  0.030400  1.0  0.1737
  C  C305  1  0.794600  0.172100  0.994900  1.0  0.3916
  C  C306  1  0.796100  0.110100  0.084800  1.0  -0.1516
  C  C307  1  0.192400  0.504900  0.257500  1.0  0.1657
  C  C308  1  0.497600  0.426900  0.592800  1.0  -0.1636
  C  C309  1  0.556200  0.383000  0.620400  1.0  0.18
  C  C310  1  0.784300  0.289100  0.821800  1.0  -0.1667
  C  C311  1  0.697700  0.197500  0.815100  1.0  -0.1624
  C  C312  1  0.671700  0.207400  0.755700  1.0  0.1826
  C  C313  1  0.287700  0.492400  0.348000  1.0  -0.1045
  C  C314  1  0.221900  0.516700  0.316800  1.0  -0.1647
  C  C315  1  0.287700  0.446700  0.259400  1.0  0.171
  C  C316  1  0.754600  0.295100  0.762600  1.0  0.1741
  C  C317  1  0.376300  0.757000  0.997600  1.0  0.3745
  C  C318  1  0.722000  0.137700  0.490800  1.0  -0.1308
  C  C319  1  0.264900  0.565000  0.111700  1.0  0.1684
  C  C320  1  0.902200  0.970000  0.499000  1.0  0.3712
  C  C321  1  0.201900  0.584200  0.995100  1.0  -0.1646
  C  C322  1  0.466900  0.812200  0.088900  1.0  -0.1555
  C  C323  1  0.056300  0.843000  0.535100  1.0  0.1746
  C  C324  1  0.996600  0.883500  0.503500  1.0  -0.1611
  C  C325  1  0.440000  0.802200  0.029800  1.0  -0.0901
  C  C326  1  0.290100  0.726900  0.912300  1.0  0.3833
  C  C327  1  0.821100  0.956100  0.318700  1.0  -0.1422
  C  C328  1  0.780200  0.152000  0.607900  1.0  0.1615
  C  C329  1  0.817500  0.051800  0.493200  1.0  0.3556
  C  C330  1  0.966600  0.926200  0.532900  1.0  -0.0838
  C  C331  1  0.819500  0.002100  0.411700  1.0  0.3881
  C  C332  1  0.256400  0.737400  0.848300  1.0  -0.0255
  C  C333  1  0.473900  0.835600  0.000000  1.0  -0.1778
  C  C334  1  0.784500  0.101100  0.522400  1.0  -0.0111
  C  C335  1  0.174100  0.540900  0.025900  1.0  0.178
  C  C336  1  0.814300  0.109600  0.581500  1.0  -0.1323
  C  C337  1  0.691500  0.179700  0.520600  1.0  0.1735
  C  C338  1  0.526500  0.854700  0.115900  1.0  0.1841
  C  C339  1  0.264100  0.621000  0.025500  1.0  -0.1223
  C  C340  1  0.533200  0.875400  0.030400  1.0  0.1737
  C  C341  1  0.294600  0.672100  0.994900  1.0  0.3916
  C  C342  1  0.296100  0.610100  0.084800  1.0  -0.1516
  C  C343  1  0.692400  0.004900  0.257500  1.0  0.1657
  C  C344  1  0.997600  0.926900  0.592800  1.0  -0.1636
  C  C345  1  0.056200  0.883000  0.620400  1.0  0.18
  C  C346  1  0.284300  0.789100  0.821800  1.0  -0.1667
  C  C347  1  0.197700  0.697500  0.815100  1.0  -0.1624
  C  C348  1  0.171700  0.707400  0.755700  1.0  0.1826
  C  C349  1  0.787700  0.992400  0.348000  1.0  -0.1045
  C  C350  1  0.721900  0.016700  0.316800  1.0  -0.1647
  C  C351  1  0.787700  0.946700  0.259400  1.0  0.171
  C  C352  1  0.254600  0.795100  0.762600  1.0  0.1741
  C  C353  1  0.876300  0.743000  0.497600  1.0  0.3746
  C  C354  1  0.222000  0.362300  0.990800  1.0  -0.1303
  C  C355  1  0.764900  0.935000  0.611700  1.0  0.1681
  C  C356  1  0.402200  0.530000  0.999000  1.0  0.3712
  C  C357  1  0.701900  0.915800  0.495100  1.0  -0.165
  C  C358  1  0.966900  0.687800  0.588900  1.0  -0.155
  C  C359  1  0.556300  0.657000  0.035100  1.0  0.1747
  C  C360  1  0.496600  0.616500  0.003500  1.0  -0.1614
  C  C361  1  0.940000  0.697800  0.529800  1.0  -0.0915
  C  C362  1  0.790100  0.773100  0.412300  1.0  0.3836
  C  C363  1  0.321100  0.543900  0.818700  1.0  -0.1424
  C  C364  1  0.280200  0.348000  0.107900  1.0  0.1618
  C  C365  1  0.317500  0.448200  0.993200  1.0  0.3558
  C  C366  1  0.466600  0.573800  0.032900  1.0  -0.0839
  C  C367  1  0.319500  0.497900  0.911700  1.0  0.3879
  C  C368  1  0.756400  0.762600  0.348300  1.0  -0.0256
  C  C369  1  0.973900  0.664400  0.500000  1.0  -0.1777
  C  C370  1  0.284500  0.398900  0.022400  1.0  -0.012
  C  C371  1  0.674100  0.959100  0.525900  1.0  0.1771
  C  C372  1  0.314300  0.390400  0.081500  1.0  -0.1318
  C  C373  1  0.191500  0.320300  0.020600  1.0  0.1744
  C  C374  1  0.026500  0.645300  0.615900  1.0  0.1833
  C  C375  1  0.764100  0.879000  0.525500  1.0  -0.1225
  C  C376  1  0.033200  0.624600  0.530400  1.0  0.1725
  C  C377  1  0.794600  0.827900  0.494900  1.0  0.3915
  C  C378  1  0.796100  0.889900  0.584800  1.0  -0.152
  C  C379  1  0.192400  0.495100  0.757500  1.0  0.1656
  C  C380  1  0.497600  0.573100  0.092800  1.0  -0.1637
  C  C381  1  0.556200  0.617000  0.120400  1.0  0.1801
  C  C382  1  0.784300  0.710900  0.321800  1.0  -0.1663
  C  C383  1  0.697700  0.802500  0.315100  1.0  -0.162
  C  C384  1  0.671700  0.792600  0.255700  1.0  0.1832
  C  C385  1  0.287700  0.507600  0.848000  1.0  -0.1041
  C  C386  1  0.221900  0.483300  0.816800  1.0  -0.1638
  C  C387  1  0.287700  0.553300  0.759400  1.0  0.1711
  C  C388  1  0.754600  0.704900  0.262600  1.0  0.1743
  C  C389  1  0.376300  0.243000  0.497600  1.0  0.3746
  C  C390  1  0.722000  0.862300  0.990800  1.0  -0.1303
  C  C391  1  0.264900  0.435000  0.611700  1.0  0.1681
  C  C392  1  0.902200  0.030000  0.999000  1.0  0.3712
  C  C393  1  0.201900  0.415800  0.495100  1.0  -0.165
  C  C394  1  0.466900  0.187800  0.588900  1.0  -0.155
  C  C395  1  0.056300  0.157000  0.035100  1.0  0.1747
  C  C396  1  0.996600  0.116500  0.003500  1.0  -0.1614
  C  C397  1  0.440000  0.197800  0.529800  1.0  -0.0915
  C  C398  1  0.290100  0.273100  0.412300  1.0  0.3836
  C  C399  1  0.821100  0.043900  0.818700  1.0  -0.1424
  C  C400  1  0.780200  0.848000  0.107900  1.0  0.1618
  C  C401  1  0.817500  0.948200  0.993200  1.0  0.3558
  C  C402  1  0.966600  0.073800  0.032900  1.0  -0.0839
  C  C403  1  0.819500  0.997900  0.911700  1.0  0.3879
  C  C404  1  0.256400  0.262600  0.348300  1.0  -0.0256
  C  C405  1  0.473900  0.164400  0.500000  1.0  -0.1777
  C  C406  1  0.784500  0.898900  0.022400  1.0  -0.012
  C  C407  1  0.174100  0.459100  0.525900  1.0  0.1771
  C  C408  1  0.814300  0.890400  0.081500  1.0  -0.1318
  C  C409  1  0.691500  0.820300  0.020600  1.0  0.1744
  C  C410  1  0.526500  0.145300  0.615900  1.0  0.1833
  C  C411  1  0.264100  0.379000  0.525500  1.0  -0.1225
  C  C412  1  0.533200  0.124600  0.530400  1.0  0.1725
  C  C413  1  0.294600  0.327900  0.494900  1.0  0.3915
  C  C414  1  0.296100  0.389900  0.584800  1.0  -0.152
  C  C415  1  0.692400  0.995100  0.757500  1.0  0.1656
  C  C416  1  0.997600  0.073100  0.092800  1.0  -0.1637
  C  C417  1  0.056200  0.117000  0.120400  1.0  0.1801
  C  C418  1  0.284300  0.210900  0.321800  1.0  -0.1663
  C  C419  1  0.197700  0.302500  0.315100  1.0  -0.162
  C  C420  1  0.171700  0.292600  0.255700  1.0  0.1832
  C  C421  1  0.787700  0.007600  0.848000  1.0  -0.1041
  C  C422  1  0.721900  0.983300  0.816800  1.0  -0.1638
  C  C423  1  0.787700  0.053300  0.759400  1.0  0.1711
  C  C424  1  0.254600  0.204900  0.262600  1.0  0.1743
  C  C425  1  0.123700  0.743000  0.002400  1.0  0.3744
  C  C426  1  0.778000  0.362300  0.509200  1.0  -0.131
  C  C427  1  0.235100  0.935000  0.888300  1.0  0.1696
  C  C428  1  0.597800  0.530000  0.501000  1.0  0.3722
  C  C429  1  0.298100  0.915800  0.004900  1.0  -0.1671
  C  C430  1  0.033100  0.687800  0.911100  1.0  -0.1525
  C  C431  1  0.443700  0.657000  0.464900  1.0  0.1743
  C  C432  1  0.503400  0.616500  0.496500  1.0  -0.1603
  C  C433  1  0.060000  0.697800  0.970200  1.0  -0.0903
  C  C434  1  0.209900  0.773100  0.087700  1.0  0.3842
  C  C435  1  0.678900  0.543900  0.681300  1.0  -0.1414
  C  C436  1  0.719800  0.348000  0.392100  1.0  0.1615
  C  C437  1  0.682500  0.448200  0.506800  1.0  0.3549
  C  C438  1  0.533400  0.573800  0.467100  1.0  -0.0836
  C  C439  1  0.680500  0.497900  0.588300  1.0  0.3881
  C  C440  1  0.243600  0.762600  0.151700  1.0  -0.0254
  C  C441  1  0.026100  0.664400  0.000000  1.0  -0.1774
  C  C442  1  0.715500  0.398900  0.477600  1.0  -0.0126
  C  C443  1  0.325900  0.959100  0.974100  1.0  0.1776
  C  C444  1  0.685700  0.390400  0.418500  1.0  -0.1316
  C  C445  1  0.808500  0.320300  0.479400  1.0  0.1747
  C  C446  1  0.973500  0.645300  0.884100  1.0  0.1832
  C  C447  1  0.235900  0.879000  0.974500  1.0  -0.123
  C  C448  1  0.966800  0.624600  0.969600  1.0  0.1733
  C  C449  1  0.205400  0.827900  0.005100  1.0  0.3915
  C  C450  1  0.203900  0.889900  0.915200  1.0  -0.1504
  C  C451  1  0.807600  0.495100  0.742500  1.0  0.1669
  C  C452  1  0.502400  0.573100  0.407200  1.0  -0.1601
  C  C453  1  0.443800  0.617000  0.379600  1.0  0.1806
  C  C454  1  0.215700  0.710900  0.178200  1.0  -0.1668
  C  C455  1  0.302300  0.802500  0.184900  1.0  -0.1644
  C  C456  1  0.328300  0.792600  0.244300  1.0  0.1832
  C  C457  1  0.712300  0.507600  0.652000  1.0  -0.105
  C  C458  1  0.778100  0.483300  0.683200  1.0  -0.1652
  C  C459  1  0.712300  0.553300  0.740600  1.0  0.1693
  C  C460  1  0.245400  0.704900  0.237400  1.0  0.1751
  C  C461  1  0.623700  0.243000  0.002400  1.0  0.3744
  C  C462  1  0.278000  0.862300  0.509200  1.0  -0.131
  C  C463  1  0.735100  0.435000  0.888300  1.0  0.1696
  C  C464  1  0.097800  0.030000  0.501000  1.0  0.3722
  C  C465  1  0.798100  0.415800  0.004900  1.0  -0.1671
  C  C466  1  0.533100  0.187800  0.911100  1.0  -0.1525
  C  C467  1  0.943700  0.157000  0.464900  1.0  0.1743
  C  C468  1  0.003400  0.116500  0.496500  1.0  -0.1603
  C  C469  1  0.560000  0.197800  0.970200  1.0  -0.0903
  C  C470  1  0.709900  0.273100  0.087700  1.0  0.3842
  C  C471  1  0.178900  0.043900  0.681300  1.0  -0.1414
  C  C472  1  0.219800  0.848000  0.392100  1.0  0.1615
  C  C473  1  0.182500  0.948200  0.506800  1.0  0.3549
  C  C474  1  0.033400  0.073800  0.467100  1.0  -0.0836
  C  C475  1  0.180500  0.997900  0.588300  1.0  0.3881
  C  C476  1  0.743600  0.262600  0.151700  1.0  -0.0254
  C  C477  1  0.526100  0.164400  0.000000  1.0  -0.1774
  C  C478  1  0.215500  0.898900  0.477600  1.0  -0.0126
  C  C479  1  0.825900  0.459100  0.974100  1.0  0.1776
  C  C480  1  0.185700  0.890400  0.418500  1.0  -0.1316
  C  C481  1  0.308500  0.820300  0.479400  1.0  0.1747
  C  C482  1  0.473500  0.145300  0.884100  1.0  0.1832
  C  C483  1  0.735900  0.379000  0.974500  1.0  -0.123
  C  C484  1  0.466800  0.124600  0.969600  1.0  0.1733
  C  C485  1  0.705400  0.327900  0.005100  1.0  0.3915
  C  C486  1  0.703900  0.389900  0.915200  1.0  -0.1504
  C  C487  1  0.307600  0.995100  0.742500  1.0  0.1669
  C  C488  1  0.002400  0.073100  0.407200  1.0  -0.1601
  C  C489  1  0.943800  0.117000  0.379600  1.0  0.1806
  C  C490  1  0.715700  0.210900  0.178200  1.0  -0.1668
  C  C491  1  0.802300  0.302500  0.184900  1.0  -0.1644
  C  C492  1  0.828300  0.292600  0.244300  1.0  0.1832
  C  C493  1  0.212300  0.007600  0.652000  1.0  -0.105
  C  C494  1  0.278100  0.983300  0.683200  1.0  -0.1652
  C  C495  1  0.212300  0.053300  0.740600  1.0  0.1693
  C  C496  1  0.745400  0.204900  0.237400  1.0  0.1751
  N  N497  1  0.939300  0.384700  0.412220  1.0  -0.3232
  N  N498  1  0.295500  0.030500  0.416770  1.0  -0.3663
  N  N499  1  0.300800  0.253600  0.771140  1.0  -0.3399
  N  N500  1  0.153100  0.268200  0.559280  1.0  -0.5276
  N  N501  1  0.148000  0.210100  0.472600  1.0  -0.5122
  N  N502  1  0.238300  0.177800  0.563060  1.0  -0.5408
  N  N503  1  0.413400  0.342300  0.907250  1.0  -0.3435
  N  N504  1  0.780200  0.687000  0.921630  1.0  -0.3321
  N  N505  1  0.776100  0.471100  0.271590  1.0  -0.3592
  N  N506  1  0.622800  0.462700  0.058810  1.0  -0.5133
  N  N507  1  0.626330  0.511300  0.973040  1.0  -0.4913
  N  N508  1  0.711500  0.549700  0.064810  1.0  -0.5035
  N  N509  1  0.439300  0.884700  0.412220  1.0  -0.3232
  N  N510  1  0.795500  0.530500  0.416770  1.0  -0.3663
  N  N511  1  0.800800  0.753600  0.771140  1.0  -0.3399
  N  N512  1  0.653100  0.768200  0.559280  1.0  -0.5276
  N  N513  1  0.648000  0.710100  0.472600  1.0  -0.5122
  N  N514  1  0.738300  0.677800  0.563060  1.0  -0.5408
  N  N515  1  0.913400  0.842300  0.907250  1.0  -0.3435
  N  N516  1  0.280200  0.187000  0.921630  1.0  -0.3321
  N  N517  1  0.276100  0.971100  0.271590  1.0  -0.3592
  N  N518  1  0.122800  0.962700  0.058810  1.0  -0.5133
  N  N519  1  0.126330  0.011300  0.973040  1.0  -0.4913
  N  N520  1  0.211500  0.049700  0.064810  1.0  -0.5035
  N  N521  1  0.060700  0.384700  0.087780  1.0  -0.3236
  N  N522  1  0.704500  0.030500  0.083230  1.0  -0.3657
  N  N523  1  0.699200  0.253600  0.728860  1.0  -0.3419
  N  N524  1  0.846900  0.268200  0.940720  1.0  -0.5244
  N  N525  1  0.852000  0.210100  0.027400  1.0  -0.5131
  N  N526  1  0.761700  0.177800  0.936940  1.0  -0.5424
  N  N527  1  0.586600  0.342300  0.592750  1.0  -0.3394
  N  N528  1  0.219800  0.687000  0.578370  1.0  -0.3335
  N  N529  1  0.223900  0.471100  0.228410  1.0  -0.3593
  N  N530  1  0.377200  0.462700  0.441190  1.0  -0.5125
  N  N531  1  0.373670  0.511300  0.526960  1.0  -0.4913
  N  N532  1  0.288500  0.549700  0.435190  1.0  -0.5032
  N  N533  1  0.560700  0.884700  0.087780  1.0  -0.3236
  N  N534  1  0.204500  0.530500  0.083230  1.0  -0.3657
  N  N535  1  0.199200  0.753600  0.728860  1.0  -0.3419
  N  N536  1  0.346900  0.768200  0.940720  1.0  -0.5244
  N  N537  1  0.352000  0.710100  0.027400  1.0  -0.5131
  N  N538  1  0.261700  0.677800  0.936940  1.0  -0.5424
  N  N539  1  0.086600  0.842300  0.592750  1.0  -0.3394
  N  N540  1  0.719800  0.187000  0.578370  1.0  -0.3335
  N  N541  1  0.723900  0.971100  0.228410  1.0  -0.3593
  N  N542  1  0.877200  0.962700  0.441190  1.0  -0.5125
  N  N543  1  0.873670  0.011300  0.526960  1.0  -0.4913
  N  N544  1  0.788500  0.049700  0.435190  1.0  -0.5032
  N  N545  1  0.060700  0.615300  0.587780  1.0  -0.3236
  N  N546  1  0.704500  0.969500  0.583230  1.0  -0.367
  N  N547  1  0.699200  0.746400  0.228860  1.0  -0.3425
  N  N548  1  0.846900  0.731800  0.440720  1.0  -0.5259
  N  N549  1  0.852000  0.789900  0.527400  1.0  -0.513
  N  N550  1  0.761700  0.822200  0.436940  1.0  -0.5414
  N  N551  1  0.586600  0.657700  0.092750  1.0  -0.3418
  N  N552  1  0.219800  0.313000  0.078370  1.0  -0.3343
  N  N553  1  0.223900  0.528900  0.728410  1.0  -0.3588
  N  N554  1  0.377200  0.537300  0.941190  1.0  -0.5123
  N  N555  1  0.373670  0.488700  0.026960  1.0  -0.4894
  N  N556  1  0.288500  0.450300  0.935190  1.0  -0.505
  N  N557  1  0.560700  0.115300  0.587780  1.0  -0.3236
  N  N558  1  0.204500  0.469500  0.583230  1.0  -0.367
  N  N559  1  0.199200  0.246400  0.228860  1.0  -0.3425
  N  N560  1  0.346900  0.231800  0.440720  1.0  -0.5259
  N  N561  1  0.352000  0.289900  0.527400  1.0  -0.513
  N  N562  1  0.261700  0.322200  0.436940  1.0  -0.5414
  N  N563  1  0.086600  0.157700  0.092750  1.0  -0.3418
  N  N564  1  0.719800  0.813000  0.078370  1.0  -0.3343
  N  N565  1  0.723900  0.028900  0.728410  1.0  -0.3588
  N  N566  1  0.877200  0.037300  0.941190  1.0  -0.5123
  N  N567  1  0.873670  0.988700  0.026960  1.0  -0.4894
  N  N568  1  0.788500  0.950300  0.935190  1.0  -0.505
  N  N569  1  0.939300  0.615300  0.912220  1.0  -0.3271
  N  N570  1  0.295500  0.969500  0.916770  1.0  -0.3654
  N  N571  1  0.300800  0.746400  0.271140  1.0  -0.3391
  N  N572  1  0.153100  0.731800  0.059280  1.0  -0.5277
  N  N573  1  0.148000  0.789900  0.972600  1.0  -0.512
  N  N574  1  0.238300  0.822200  0.063060  1.0  -0.5409
  N  N575  1  0.413400  0.657700  0.407250  1.0  -0.3429
  N  N576  1  0.780200  0.313000  0.421630  1.0  -0.3349
  N  N577  1  0.776100  0.528900  0.771590  1.0  -0.3593
  N  N578  1  0.622800  0.537300  0.558810  1.0  -0.5138
  N  N579  1  0.626330  0.488700  0.473040  1.0  -0.491
  N  N580  1  0.711500  0.450300  0.564810  1.0  -0.5033
  N  N581  1  0.439300  0.115300  0.912220  1.0  -0.3271
  N  N582  1  0.795500  0.469500  0.916770  1.0  -0.3654
  N  N583  1  0.800800  0.246400  0.271140  1.0  -0.3391
  N  N584  1  0.653100  0.231800  0.059280  1.0  -0.5277
  N  N585  1  0.648000  0.289900  0.972600  1.0  -0.512
  N  N586  1  0.738300  0.322200  0.063060  1.0  -0.5409
  N  N587  1  0.913400  0.157700  0.407250  1.0  -0.3429
  N  N588  1  0.280200  0.813000  0.421630  1.0  -0.3349
  N  N589  1  0.276100  0.028900  0.771590  1.0  -0.3593
  N  N590  1  0.122800  0.037300  0.558810  1.0  -0.5138
  N  N591  1  0.126330  0.988700  0.473040  1.0  -0.491
  N  N592  1  0.211500  0.950300  0.564810  1.0  -0.5033
