# generated using pymatgen
data_AgH12(C3N)6
_symmetry_space_group_name_H-M   'P 1'
_cell_length_a   22.07000000
_cell_length_b   16.43280000
_cell_length_c   25.61730000
_cell_angle_alpha   90.00000000
_cell_angle_beta   115.31500000
_cell_angle_gamma   90.00000000
_symmetry_Int_Tables_number   1
_chemical_formula_structural   AgH12(C3N)6
_chemical_formula_sum   'Ag16 H192 C288 N96'
_cell_volume   8398.49717900
_cell_formula_units_Z   16
loop_
 _symmetry_equiv_pos_site_id
 _symmetry_equiv_pos_as_xyz
  1  'x, y, z'
loop_
 _atom_site_type_symbol
 _atom_site_label
 _atom_site_symmetry_multiplicity
 _atom_site_fract_x
 _atom_site_fract_y
 _atom_site_fract_z
 _atom_site_occupancy
 _atom_site_charge
  Ag  Ag1  1  0.344170  0.957610  0.367800  1.0  0.3382
  Ag  Ag2  1  0.322820  0.252820  0.867200  1.0  0.281
  Ag  Ag3  1  0.844170  0.457610  0.367800  1.0  0.3382
  Ag  Ag4  1  0.822820  0.752820  0.867200  1.0  0.281
  Ag  Ag5  1  0.655830  0.957610  0.132200  1.0  0.3386
  Ag  Ag6  1  0.677180  0.252820  0.632800  1.0  0.2809
  Ag  Ag7  1  0.155830  0.457610  0.132200  1.0  0.3386
  Ag  Ag8  1  0.177180  0.752820  0.632800  1.0  0.2809
  Ag  Ag9  1  0.655830  0.042390  0.632200  1.0  0.3387
  Ag  Ag10  1  0.677180  0.747180  0.132800  1.0  0.2807
  Ag  Ag11  1  0.155830  0.542390  0.632200  1.0  0.3387
  Ag  Ag12  1  0.177180  0.247180  0.132800  1.0  0.2807
  Ag  Ag13  1  0.344170  0.042390  0.867800  1.0  0.3384
  Ag  Ag14  1  0.322820  0.747180  0.367200  1.0  0.2809
  Ag  Ag15  1  0.844170  0.542390  0.867800  1.0  0.3384
  Ag  Ag16  1  0.822820  0.247180  0.367200  1.0  0.2809
  H  H17  1  0.054900  0.291400  0.389700  1.0  0.125
  H  H18  1  0.424100  0.315600  0.984900  1.0  0.0705
  H  H19  1  0.798900  0.634200  0.049200  1.0  0.1248
  H  H20  1  0.213200  0.057500  0.348600  1.0  0.075
  H  H21  1  0.523200  0.382300  0.036500  1.0  0.1297
  H  H22  1  0.699900  0.656600  0.852200  1.0  0.0838
  H  H23  1  0.320200  0.088800  0.544600  1.0  0.1226
  H  H24  1  0.043400  0.330600  0.539600  1.0  0.1255
  H  H25  1  0.944600  0.397100  0.489800  1.0  0.0759
  H  H26  1  0.635000  0.438400  0.160900  1.0  0.1153
  H  H27  1  0.956200  0.362300  0.344100  1.0  0.0826
  H  H28  1  0.851500  0.521600  0.263400  1.0  0.0773
  H  H29  1  0.367600  0.016900  0.494100  1.0  0.0727
  H  H30  1  0.161800  0.132500  0.393400  1.0  0.1237
  H  H31  1  0.849300  0.704300  0.000100  1.0  0.0786
  H  H32  1  0.644600  0.587500  0.896200  1.0  0.1181
  H  H33  1  0.520600  0.456300  0.886000  1.0  0.1255
  H  H34  1  0.423700  0.382700  0.838800  1.0  0.0772
  H  H35  1  0.689000  0.422700  0.259600  1.0  0.0775
  H  H36  1  0.177000  0.318300  0.656100  1.0  0.12
  H  H37  1  0.226900  0.330200  0.754700  1.0  0.0732
  H  H38  1  0.324100  0.165800  0.668200  1.0  0.1213
  H  H39  1  0.802200  0.540900  0.165100  1.0  0.1173
  H  H40  1  0.367600  0.179200  0.766700  1.0  0.0746
  H  H41  1  0.554900  0.791400  0.389700  1.0  0.125
  H  H42  1  0.924100  0.815600  0.984900  1.0  0.0705
  H  H43  1  0.298900  0.134200  0.049200  1.0  0.1248
  H  H44  1  0.713200  0.557500  0.348600  1.0  0.075
  H  H45  1  0.023200  0.882300  0.036500  1.0  0.1297
  H  H46  1  0.199900  0.156600  0.852200  1.0  0.0838
  H  H47  1  0.820200  0.588800  0.544600  1.0  0.1226
  H  H48  1  0.543400  0.830600  0.539600  1.0  0.1255
  H  H49  1  0.444600  0.897100  0.489800  1.0  0.0759
  H  H50  1  0.135000  0.938400  0.160900  1.0  0.1153
  H  H51  1  0.456200  0.862300  0.344100  1.0  0.0826
  H  H52  1  0.351500  0.021600  0.263400  1.0  0.0773
  H  H53  1  0.867600  0.516900  0.494100  1.0  0.0727
  H  H54  1  0.661800  0.632500  0.393400  1.0  0.1237
  H  H55  1  0.349300  0.204300  0.000100  1.0  0.0786
  H  H56  1  0.144600  0.087500  0.896200  1.0  0.1181
  H  H57  1  0.020600  0.956300  0.886000  1.0  0.1255
  H  H58  1  0.923700  0.882700  0.838800  1.0  0.0772
  H  H59  1  0.189000  0.922700  0.259600  1.0  0.0774
  H  H60  1  0.677000  0.818300  0.656100  1.0  0.12
  H  H61  1  0.726900  0.830200  0.754700  1.0  0.0732
  H  H62  1  0.824100  0.665800  0.668200  1.0  0.1213
  H  H63  1  0.302200  0.040900  0.165100  1.0  0.1173
  H  H64  1  0.867600  0.679200  0.766700  1.0  0.0746
  H  H65  1  0.945100  0.291400  0.110300  1.0  0.1244
  H  H66  1  0.575900  0.315600  0.515100  1.0  0.0707
  H  H67  1  0.201100  0.634200  0.450800  1.0  0.1247
  H  H68  1  0.786800  0.057500  0.151400  1.0  0.0735
  H  H69  1  0.476800  0.382300  0.463500  1.0  0.1299
  H  H70  1  0.300100  0.656600  0.647800  1.0  0.0832
  H  H71  1  0.679800  0.088800  0.955400  1.0  0.1229
  H  H72  1  0.956600  0.330600  0.960400  1.0  0.1256
  H  H73  1  0.055400  0.397100  0.010200  1.0  0.076
  H  H74  1  0.365000  0.438400  0.339100  1.0  0.114
  H  H75  1  0.043800  0.362300  0.155900  1.0  0.0825
  H  H76  1  0.148500  0.521600  0.236600  1.0  0.0759
  H  H77  1  0.632400  0.016900  0.005900  1.0  0.0726
  H  H78  1  0.838200  0.132500  0.106600  1.0  0.124
  H  H79  1  0.150700  0.704300  0.499900  1.0  0.0772
  H  H80  1  0.355400  0.587500  0.603800  1.0  0.1184
  H  H81  1  0.479400  0.456300  0.614000  1.0  0.1252
  H  H82  1  0.576300  0.382700  0.661200  1.0  0.0773
  H  H83  1  0.311000  0.422700  0.240400  1.0  0.0774
  H  H84  1  0.823000  0.318300  0.843900  1.0  0.1203
  H  H85  1  0.773100  0.330200  0.745300  1.0  0.0721
  H  H86  1  0.675900  0.165800  0.831800  1.0  0.1209
  H  H87  1  0.197800  0.540900  0.334900  1.0  0.1176
  H  H88  1  0.632400  0.179200  0.733300  1.0  0.0767
  H  H89  1  0.445100  0.791400  0.110300  1.0  0.1244
  H  H90  1  0.075900  0.815600  0.515100  1.0  0.0707
  H  H91  1  0.701100  0.134200  0.450800  1.0  0.1247
  H  H92  1  0.286800  0.557500  0.151400  1.0  0.0735
  H  H93  1  0.976800  0.882300  0.463500  1.0  0.1299
  H  H94  1  0.800100  0.156600  0.647800  1.0  0.0832
  H  H95  1  0.179800  0.588800  0.955400  1.0  0.1229
  H  H96  1  0.456600  0.830600  0.960400  1.0  0.1256
  H  H97  1  0.555400  0.897100  0.010200  1.0  0.076
  H  H98  1  0.865000  0.938400  0.339100  1.0  0.114
  H  H99  1  0.543800  0.862300  0.155900  1.0  0.0825
  H  H100  1  0.648500  0.021600  0.236600  1.0  0.0759
  H  H101  1  0.132400  0.516900  0.005900  1.0  0.0726
  H  H102  1  0.338200  0.632500  0.106600  1.0  0.124
  H  H103  1  0.650700  0.204300  0.499900  1.0  0.0772
  H  H104  1  0.855400  0.087500  0.603800  1.0  0.1184
  H  H105  1  0.979400  0.956300  0.614000  1.0  0.1252
  H  H106  1  0.076300  0.882700  0.661200  1.0  0.0773
  H  H107  1  0.811000  0.922700  0.240400  1.0  0.0771
  H  H108  1  0.323000  0.818300  0.843900  1.0  0.1203
  H  H109  1  0.273100  0.830200  0.745300  1.0  0.0721
  H  H110  1  0.175900  0.665800  0.831800  1.0  0.1209
  H  H111  1  0.697800  0.040900  0.334900  1.0  0.1176
  H  H112  1  0.132400  0.679200  0.733300  1.0  0.0767
  H  H113  1  0.945100  0.708600  0.610300  1.0  0.1243
  H  H114  1  0.575900  0.684400  0.015100  1.0  0.0711
  H  H115  1  0.201100  0.365800  0.950800  1.0  0.1246
  H  H116  1  0.786800  0.942500  0.651400  1.0  0.0734
  H  H117  1  0.476800  0.617700  0.963500  1.0  0.1305
  H  H118  1  0.300100  0.343400  0.147800  1.0  0.0828
  H  H119  1  0.679800  0.911200  0.455400  1.0  0.1232
  H  H120  1  0.956600  0.669400  0.460400  1.0  0.1254
  H  H121  1  0.055400  0.602900  0.510200  1.0  0.0764
  H  H122  1  0.365000  0.561600  0.839100  1.0  0.1146
  H  H123  1  0.043800  0.637700  0.655900  1.0  0.0825
  H  H124  1  0.148500  0.478400  0.736600  1.0  0.0761
  H  H125  1  0.632400  0.983100  0.505900  1.0  0.0727
  H  H126  1  0.838200  0.867500  0.606600  1.0  0.124
  H  H127  1  0.150700  0.295700  0.999900  1.0  0.0776
  H  H128  1  0.355400  0.412500  0.103800  1.0  0.1185
  H  H129  1  0.479400  0.543700  0.114000  1.0  0.1254
  H  H130  1  0.576300  0.617300  0.161200  1.0  0.0772
  H  H131  1  0.311000  0.577300  0.740400  1.0  0.0769
  H  H132  1  0.823000  0.681700  0.343900  1.0  0.1204
  H  H133  1  0.773100  0.669800  0.245300  1.0  0.0728
  H  H134  1  0.675900  0.834200  0.331800  1.0  0.121
  H  H135  1  0.197800  0.459100  0.834900  1.0  0.1177
  H  H136  1  0.632400  0.820800  0.233300  1.0  0.0763
  H  H137  1  0.445100  0.208600  0.610300  1.0  0.1243
  H  H138  1  0.075900  0.184400  0.015100  1.0  0.0711
  H  H139  1  0.701100  0.865800  0.950800  1.0  0.1246
  H  H140  1  0.286800  0.442500  0.651400  1.0  0.0734
  H  H141  1  0.976800  0.117700  0.963500  1.0  0.1305
  H  H142  1  0.800100  0.843400  0.147800  1.0  0.0828
  H  H143  1  0.179800  0.411200  0.455400  1.0  0.1232
  H  H144  1  0.456600  0.169400  0.460400  1.0  0.1254
  H  H145  1  0.555400  0.102900  0.510200  1.0  0.0764
  H  H146  1  0.865000  0.061600  0.839100  1.0  0.1146
  H  H147  1  0.543800  0.137700  0.655900  1.0  0.0825
  H  H148  1  0.648500  0.978400  0.736600  1.0  0.0761
  H  H149  1  0.132400  0.483100  0.505900  1.0  0.0727
  H  H150  1  0.338200  0.367500  0.606600  1.0  0.124
  H  H151  1  0.650700  0.795700  0.999900  1.0  0.0776
  H  H152  1  0.855400  0.912500  0.103800  1.0  0.1185
  H  H153  1  0.979400  0.043700  0.114000  1.0  0.1254
  H  H154  1  0.076300  0.117300  0.161200  1.0  0.0772
  H  H155  1  0.811000  0.077300  0.740400  1.0  0.0768
  H  H156  1  0.323000  0.181700  0.343900  1.0  0.1204
  H  H157  1  0.273100  0.169800  0.245300  1.0  0.0728
  H  H158  1  0.175900  0.334200  0.331800  1.0  0.121
  H  H159  1  0.697800  0.959100  0.834900  1.0  0.1177
  H  H160  1  0.132400  0.320800  0.233300  1.0  0.0763
  H  H161  1  0.054900  0.708600  0.889700  1.0  0.1247
  H  H162  1  0.424100  0.684400  0.484900  1.0  0.0706
  H  H163  1  0.798900  0.365800  0.549200  1.0  0.1249
  H  H164  1  0.213200  0.942500  0.848600  1.0  0.0749
  H  H165  1  0.523200  0.617700  0.536500  1.0  0.1296
  H  H166  1  0.699900  0.343400  0.352200  1.0  0.0837
  H  H167  1  0.320200  0.911200  0.044600  1.0  0.1225
  H  H168  1  0.043400  0.669400  0.039600  1.0  0.1254
  H  H169  1  0.944600  0.602900  0.989800  1.0  0.0763
  H  H170  1  0.635000  0.561600  0.660900  1.0  0.1155
  H  H171  1  0.956200  0.637700  0.844100  1.0  0.0822
  H  H172  1  0.851500  0.478400  0.763400  1.0  0.077
  H  H173  1  0.367600  0.983100  0.994100  1.0  0.0725
  H  H174  1  0.161800  0.867500  0.893400  1.0  0.1238
  H  H175  1  0.849300  0.295700  0.500100  1.0  0.0785
  H  H176  1  0.644600  0.412500  0.396200  1.0  0.1181
  H  H177  1  0.520600  0.543700  0.386000  1.0  0.1252
  H  H178  1  0.423700  0.617300  0.338800  1.0  0.0771
  H  H179  1  0.689000  0.577300  0.759600  1.0  0.0769
  H  H180  1  0.177000  0.681700  0.156100  1.0  0.1202
  H  H181  1  0.226900  0.669800  0.254700  1.0  0.0737
  H  H182  1  0.324100  0.834200  0.168200  1.0  0.1217
  H  H183  1  0.802200  0.459100  0.665100  1.0  0.1171
  H  H184  1  0.367600  0.820800  0.266700  1.0  0.0743
  H  H185  1  0.554900  0.208600  0.889700  1.0  0.1247
  H  H186  1  0.924100  0.184400  0.484900  1.0  0.0707
  H  H187  1  0.298900  0.865800  0.549200  1.0  0.1249
  H  H188  1  0.713200  0.442500  0.848600  1.0  0.0749
  H  H189  1  0.023200  0.117700  0.536500  1.0  0.1296
  H  H190  1  0.199900  0.843400  0.352200  1.0  0.0837
  H  H191  1  0.820200  0.411200  0.044600  1.0  0.1225
  H  H192  1  0.543400  0.169400  0.039600  1.0  0.1254
  H  H193  1  0.444600  0.102900  0.989800  1.0  0.0763
  H  H194  1  0.135000  0.061600  0.660900  1.0  0.1155
  H  H195  1  0.456200  0.137700  0.844100  1.0  0.0822
  H  H196  1  0.351500  0.978400  0.763400  1.0  0.077
  H  H197  1  0.867600  0.483100  0.994100  1.0  0.0725
  H  H198  1  0.661800  0.367500  0.893400  1.0  0.1238
  H  H199  1  0.349300  0.795700  0.500100  1.0  0.0785
  H  H200  1  0.144600  0.912500  0.396200  1.0  0.1181
  H  H201  1  0.020600  0.043700  0.386000  1.0  0.1252
  H  H202  1  0.923700  0.117300  0.338800  1.0  0.0771
  H  H203  1  0.189000  0.077300  0.759600  1.0  0.0769
  H  H204  1  0.677000  0.181700  0.156100  1.0  0.1202
  H  H205  1  0.726900  0.169800  0.254700  1.0  0.0737
  H  H206  1  0.824100  0.334200  0.168200  1.0  0.1217
  H  H207  1  0.302200  0.959100  0.665100  1.0  0.1171
  H  H208  1  0.867600  0.320800  0.266700  1.0  0.0743
  C  C209  1  0.123900  0.256800  0.501860  1.0  0.3767
  C  C210  1  0.033200  0.312300  0.410900  1.0  -0.1577
  C  C211  1  0.444100  0.343500  0.964800  1.0  0.1704
  C  C212  1  0.597800  0.470200  0.000700  1.0  0.3872
  C  C213  1  0.778000  0.637900  0.009200  1.0  -0.1536
  C  C214  1  0.060000  0.301800  0.469800  1.0  -0.0756
  C  C215  1  0.235200  0.064600  0.388400  1.0  0.1733
  C  C216  1  0.503600  0.383700  0.996300  1.0  -0.143
  C  C217  1  0.720100  0.652100  0.892200  1.0  0.1622
  C  C218  1  0.209700  0.226400  0.587300  1.0  0.3814
  C  C219  1  0.297900  0.084300  0.504700  1.0  -0.1585
  C  C220  1  0.533600  0.426400  0.966670  1.0  -0.0781
  C  C221  1  0.026000  0.335300  0.499600  1.0  -0.1581
  C  C222  1  0.966900  0.375300  0.469400  1.0  0.1727
  C  C223  1  0.243300  0.237100  0.651000  1.0  -0.0504
  C  C224  1  0.682500  0.551800  0.006600  1.0  0.357
  C  C225  1  0.715500  0.601500  0.977500  1.0  0.0192
  C  C226  1  0.680300  0.502200  0.087900  1.0  0.3857
  C  C227  1  0.679100  0.455900  0.181000  1.0  -0.1191
  C  C228  1  0.205400  0.172100  0.505100  1.0  0.3864
  C  C229  1  0.973400  0.354500  0.383900  1.0  0.1679
  C  C230  1  0.807400  0.504900  0.242500  1.0  0.1647
  C  C231  1  0.235900  0.121400  0.474400  1.0  -0.098
  C  C232  1  0.325600  0.040400  0.473800  1.0  0.1733
  C  C233  1  0.203800  0.109900  0.415000  1.0  -0.14
  C  C234  1  0.712400  0.491500  0.151700  1.0  -0.0944
  C  C235  1  0.807900  0.679800  0.979000  1.0  0.173
  C  C236  1  0.686500  0.610000  0.918300  1.0  -0.1575
  C  C237  1  0.502400  0.427100  0.907000  1.0  -0.1566
  C  C238  1  0.443600  0.383500  0.879000  1.0  0.1704
  C  C239  1  0.711900  0.446600  0.240400  1.0  0.1676
  C  C240  1  0.215500  0.288600  0.677800  1.0  -0.1565
  C  C241  1  0.245800  0.295200  0.737200  1.0  0.1711
  C  C242  1  0.302300  0.197800  0.684900  1.0  -0.1771
  C  C243  1  0.778300  0.516700  0.183300  1.0  -0.1699
  C  C244  1  0.328400  0.207200  0.744100  1.0  0.1767
  C  C245  1  0.623900  0.756800  0.501860  1.0  0.3767
  C  C246  1  0.533200  0.812300  0.410900  1.0  -0.1577
  C  C247  1  0.944100  0.843500  0.964800  1.0  0.1704
  C  C248  1  0.097800  0.970200  0.000700  1.0  0.3872
  C  C249  1  0.278000  0.137900  0.009200  1.0  -0.1536
  C  C250  1  0.560000  0.801800  0.469800  1.0  -0.0756
  C  C251  1  0.735200  0.564600  0.388400  1.0  0.1733
  C  C252  1  0.003600  0.883700  0.996300  1.0  -0.143
  C  C253  1  0.220100  0.152100  0.892200  1.0  0.1622
  C  C254  1  0.709700  0.726400  0.587300  1.0  0.3814
  C  C255  1  0.797900  0.584300  0.504700  1.0  -0.1585
  C  C256  1  0.033600  0.926400  0.966670  1.0  -0.0781
  C  C257  1  0.526000  0.835300  0.499600  1.0  -0.1581
  C  C258  1  0.466900  0.875300  0.469400  1.0  0.1727
  C  C259  1  0.743300  0.737100  0.651000  1.0  -0.0504
  C  C260  1  0.182500  0.051800  0.006600  1.0  0.357
  C  C261  1  0.215500  0.101500  0.977500  1.0  0.0192
  C  C262  1  0.180300  0.002200  0.087900  1.0  0.3857
  C  C263  1  0.179100  0.955900  0.181000  1.0  -0.1191
  C  C264  1  0.705400  0.672100  0.505100  1.0  0.3864
  C  C265  1  0.473400  0.854500  0.383900  1.0  0.1679
  C  C266  1  0.307400  0.004900  0.242500  1.0  0.1647
  C  C267  1  0.735900  0.621400  0.474400  1.0  -0.098
  C  C268  1  0.825600  0.540400  0.473800  1.0  0.1733
  C  C269  1  0.703800  0.609900  0.415000  1.0  -0.14
  C  C270  1  0.212400  0.991500  0.151700  1.0  -0.0944
  C  C271  1  0.307900  0.179800  0.979000  1.0  0.173
  C  C272  1  0.186500  0.110000  0.918300  1.0  -0.1575
  C  C273  1  0.002400  0.927100  0.907000  1.0  -0.1566
  C  C274  1  0.943600  0.883500  0.879000  1.0  0.1704
  C  C275  1  0.211900  0.946600  0.240400  1.0  0.1676
  C  C276  1  0.715500  0.788600  0.677800  1.0  -0.1565
  C  C277  1  0.745800  0.795200  0.737200  1.0  0.1711
  C  C278  1  0.802300  0.697800  0.684900  1.0  -0.1771
  C  C279  1  0.278300  0.016700  0.183300  1.0  -0.1699
  C  C280  1  0.828400  0.707200  0.744100  1.0  0.1767
  C  C281  1  0.876100  0.256800  0.998140  1.0  0.3765
  C  C282  1  0.966800  0.312300  0.089100  1.0  -0.1581
  C  C283  1  0.555900  0.343500  0.535200  1.0  0.1705
  C  C284  1  0.402200  0.470200  0.499300  1.0  0.3868
  C  C285  1  0.222000  0.637900  0.490800  1.0  -0.1523
  C  C286  1  0.940000  0.301800  0.030200  1.0  -0.0759
  C  C287  1  0.764800  0.064600  0.111600  1.0  0.172
  C  C288  1  0.496400  0.383700  0.503700  1.0  -0.1443
  C  C289  1  0.279900  0.652100  0.607800  1.0  0.1618
  C  C290  1  0.790300  0.226400  0.912700  1.0  0.3804
  C  C291  1  0.702100  0.084300  0.995300  1.0  -0.1575
  C  C292  1  0.466400  0.426400  0.533330  1.0  -0.0788
  C  C293  1  0.974000  0.335300  0.000400  1.0  -0.158
  C  C294  1  0.033100  0.375300  0.030600  1.0  0.1737
  C  C295  1  0.756700  0.237100  0.849000  1.0  -0.0493
  C  C296  1  0.317500  0.551800  0.493400  1.0  0.3577
  C  C297  1  0.284500  0.601500  0.522500  1.0  0.0204
  C  C298  1  0.319700  0.502200  0.412100  1.0  0.3849
  C  C299  1  0.320900  0.455900  0.319000  1.0  -0.1213
  C  C300  1  0.794600  0.172100  0.994900  1.0  0.3865
  C  C301  1  0.026600  0.354500  0.116100  1.0  0.1677
  C  C302  1  0.192600  0.504900  0.257500  1.0  0.1641
  C  C303  1  0.764100  0.121400  0.025600  1.0  -0.0973
  C  C304  1  0.674400  0.040400  0.026200  1.0  0.1741
  C  C305  1  0.796200  0.109900  0.085000  1.0  -0.1423
  C  C306  1  0.287600  0.491500  0.348300  1.0  -0.0938
  C  C307  1  0.192100  0.679800  0.521000  1.0  0.1732
  C  C308  1  0.313500  0.610000  0.581700  1.0  -0.1576
  C  C309  1  0.497600  0.427100  0.593000  1.0  -0.1586
  C  C310  1  0.556400  0.383500  0.621000  1.0  0.1707
  C  C311  1  0.288100  0.446600  0.259600  1.0  0.1691
  C  C312  1  0.784500  0.288600  0.822200  1.0  -0.1572
  C  C313  1  0.754200  0.295200  0.762800  1.0  0.1704
  C  C314  1  0.697700  0.197800  0.815100  1.0  -0.176
  C  C315  1  0.221700  0.516700  0.316700  1.0  -0.1688
  C  C316  1  0.671600  0.207200  0.755900  1.0  0.1762
  C  C317  1  0.376100  0.756800  0.998140  1.0  0.3765
  C  C318  1  0.466800  0.812300  0.089100  1.0  -0.1581
  C  C319  1  0.055900  0.843500  0.535200  1.0  0.1705
  C  C320  1  0.902200  0.970200  0.499300  1.0  0.3868
  C  C321  1  0.722000  0.137900  0.490800  1.0  -0.1523
  C  C322  1  0.440000  0.801800  0.030200  1.0  -0.0759
  C  C323  1  0.264800  0.564600  0.111600  1.0  0.172
  C  C324  1  0.996400  0.883700  0.503700  1.0  -0.1443
  C  C325  1  0.779900  0.152100  0.607800  1.0  0.1618
  C  C326  1  0.290300  0.726400  0.912700  1.0  0.3804
  C  C327  1  0.202100  0.584300  0.995300  1.0  -0.1575
  C  C328  1  0.966400  0.926400  0.533330  1.0  -0.0788
  C  C329  1  0.474000  0.835300  0.000400  1.0  -0.158
  C  C330  1  0.533100  0.875300  0.030600  1.0  0.1737
  C  C331  1  0.256700  0.737100  0.849000  1.0  -0.0493
  C  C332  1  0.817500  0.051800  0.493400  1.0  0.3577
  C  C333  1  0.784500  0.101500  0.522500  1.0  0.0204
  C  C334  1  0.819700  0.002200  0.412100  1.0  0.3849
  C  C335  1  0.820900  0.955900  0.319000  1.0  -0.1213
  C  C336  1  0.294600  0.672100  0.994900  1.0  0.3865
  C  C337  1  0.526600  0.854500  0.116100  1.0  0.1677
  C  C338  1  0.692600  0.004900  0.257500  1.0  0.1641
  C  C339  1  0.264100  0.621400  0.025600  1.0  -0.0973
  C  C340  1  0.174400  0.540400  0.026200  1.0  0.1741
  C  C341  1  0.296200  0.609900  0.085000  1.0  -0.1423
  C  C342  1  0.787600  0.991500  0.348300  1.0  -0.0938
  C  C343  1  0.692100  0.179800  0.521000  1.0  0.1732
  C  C344  1  0.813500  0.110000  0.581700  1.0  -0.1576
  C  C345  1  0.997600  0.927100  0.593000  1.0  -0.1586
  C  C346  1  0.056400  0.883500  0.621000  1.0  0.1707
  C  C347  1  0.788100  0.946600  0.259600  1.0  0.1691
  C  C348  1  0.284500  0.788600  0.822200  1.0  -0.1572
  C  C349  1  0.254200  0.795200  0.762800  1.0  0.1704
  C  C350  1  0.197700  0.697800  0.815100  1.0  -0.176
  C  C351  1  0.721700  0.016700  0.316700  1.0  -0.1688
  C  C352  1  0.171600  0.707200  0.755900  1.0  0.1762
  C  C353  1  0.876100  0.743200  0.498140  1.0  0.3764
  C  C354  1  0.966800  0.687700  0.589100  1.0  -0.1578
  C  C355  1  0.555900  0.656500  0.035200  1.0  0.17
  C  C356  1  0.402200  0.529800  0.999300  1.0  0.3868
  C  C357  1  0.222000  0.362100  0.990800  1.0  -0.1518
  C  C358  1  0.940000  0.698200  0.530200  1.0  -0.0766
  C  C359  1  0.764800  0.935400  0.611600  1.0  0.1715
  C  C360  1  0.496400  0.616300  0.003700  1.0  -0.1448
  C  C361  1  0.279900  0.347900  0.107800  1.0  0.1623
  C  C362  1  0.790300  0.773600  0.412700  1.0  0.3806
  C  C363  1  0.702100  0.915700  0.495300  1.0  -0.1576
  C  C364  1  0.466400  0.573600  0.033330  1.0  -0.0791
  C  C365  1  0.974000  0.664700  0.500400  1.0  -0.1577
  C  C366  1  0.033100  0.624700  0.530600  1.0  0.1728
  C  C367  1  0.756700  0.762900  0.349000  1.0  -0.0491
  C  C368  1  0.317500  0.448200  0.993400  1.0  0.3576
  C  C369  1  0.284500  0.398500  0.022500  1.0  0.02
  C  C370  1  0.319700  0.497800  0.912100  1.0  0.3847
  C  C371  1  0.320900  0.544100  0.819000  1.0  -0.1216
  C  C372  1  0.794600  0.827900  0.494900  1.0  0.3863
  C  C373  1  0.026600  0.645500  0.616100  1.0  0.1685
  C  C374  1  0.192600  0.495100  0.757500  1.0  0.1639
  C  C375  1  0.764100  0.878600  0.525600  1.0  -0.0975
  C  C376  1  0.674400  0.959600  0.526200  1.0  0.1734
  C  C377  1  0.796200  0.890100  0.585000  1.0  -0.143
  C  C378  1  0.287600  0.508500  0.848300  1.0  -0.0935
  C  C379  1  0.192100  0.320200  0.021000  1.0  0.174
  C  C380  1  0.313500  0.390000  0.081700  1.0  -0.1575
  C  C381  1  0.497600  0.572900  0.093000  1.0  -0.1586
  C  C382  1  0.556400  0.616500  0.121000  1.0  0.1708
  C  C383  1  0.288100  0.553400  0.759600  1.0  0.1691
  C  C384  1  0.784500  0.711400  0.322200  1.0  -0.1569
  C  C385  1  0.754200  0.704800  0.262800  1.0  0.1707
  C  C386  1  0.697700  0.802200  0.315100  1.0  -0.1756
  C  C387  1  0.221700  0.483300  0.816700  1.0  -0.1679
  C  C388  1  0.671600  0.792800  0.255900  1.0  0.1769
  C  C389  1  0.376100  0.243200  0.498140  1.0  0.3764
  C  C390  1  0.466800  0.187700  0.589100  1.0  -0.1578
  C  C391  1  0.055900  0.156500  0.035200  1.0  0.17
  C  C392  1  0.902200  0.029800  0.999300  1.0  0.3868
  C  C393  1  0.722000  0.862100  0.990800  1.0  -0.1518
  C  C394  1  0.440000  0.198200  0.530200  1.0  -0.0766
  C  C395  1  0.264800  0.435400  0.611600  1.0  0.1715
  C  C396  1  0.996400  0.116300  0.003700  1.0  -0.1448
  C  C397  1  0.779900  0.847900  0.107800  1.0  0.1623
  C  C398  1  0.290300  0.273600  0.412700  1.0  0.3806
  C  C399  1  0.202100  0.415700  0.495300  1.0  -0.1576
  C  C400  1  0.966400  0.073600  0.033330  1.0  -0.0791
  C  C401  1  0.474000  0.164700  0.500400  1.0  -0.1577
  C  C402  1  0.533100  0.124700  0.530600  1.0  0.1728
  C  C403  1  0.256700  0.262900  0.349000  1.0  -0.0491
  C  C404  1  0.817500  0.948200  0.993400  1.0  0.3576
  C  C405  1  0.784500  0.898500  0.022500  1.0  0.02
  C  C406  1  0.819700  0.997800  0.912100  1.0  0.3847
  C  C407  1  0.820900  0.044100  0.819000  1.0  -0.1216
  C  C408  1  0.294600  0.327900  0.494900  1.0  0.3863
  C  C409  1  0.526600  0.145500  0.616100  1.0  0.1685
  C  C410  1  0.692600  0.995100  0.757500  1.0  0.1639
  C  C411  1  0.264100  0.378600  0.525600  1.0  -0.0975
  C  C412  1  0.174400  0.459600  0.526200  1.0  0.1734
  C  C413  1  0.296200  0.390100  0.585000  1.0  -0.143
  C  C414  1  0.787600  0.008500  0.848300  1.0  -0.0935
  C  C415  1  0.692100  0.820200  0.021000  1.0  0.174
  C  C416  1  0.813500  0.890000  0.081700  1.0  -0.1575
  C  C417  1  0.997600  0.072900  0.093000  1.0  -0.1586
  C  C418  1  0.056400  0.116500  0.121000  1.0  0.1708
  C  C419  1  0.788100  0.053400  0.759600  1.0  0.1691
  C  C420  1  0.284500  0.211400  0.322200  1.0  -0.1569
  C  C421  1  0.254200  0.204800  0.262800  1.0  0.1707
  C  C422  1  0.197700  0.302200  0.315100  1.0  -0.1756
  C  C423  1  0.721700  0.983300  0.816700  1.0  -0.1679
  C  C424  1  0.171600  0.292800  0.255900  1.0  0.1769
  C  C425  1  0.123900  0.743200  0.001860  1.0  0.3768
  C  C426  1  0.033200  0.687700  0.910900  1.0  -0.1578
  C  C427  1  0.444100  0.656500  0.464800  1.0  0.1696
  C  C428  1  0.597800  0.529800  0.500700  1.0  0.3872
  C  C429  1  0.778000  0.362100  0.509200  1.0  -0.1538
  C  C430  1  0.060000  0.698200  0.969800  1.0  -0.0753
  C  C431  1  0.235200  0.935400  0.888400  1.0  0.1731
  C  C432  1  0.503600  0.616300  0.496300  1.0  -0.1436
  C  C433  1  0.720100  0.347900  0.392200  1.0  0.162
  C  C434  1  0.209700  0.773600  0.087300  1.0  0.3816
  C  C435  1  0.297900  0.915700  0.004700  1.0  -0.1578
  C  C436  1  0.533600  0.573600  0.466670  1.0  -0.079
  C  C437  1  0.026000  0.664700  0.999600  1.0  -0.158
  C  C438  1  0.966900  0.624700  0.969400  1.0  0.1736
  C  C439  1  0.243300  0.762900  0.151000  1.0  -0.0501
  C  C440  1  0.682500  0.448200  0.506600  1.0  0.3568
  C  C441  1  0.715500  0.398500  0.477500  1.0  0.0188
  C  C442  1  0.680300  0.497800  0.587900  1.0  0.3857
  C  C443  1  0.679100  0.544100  0.681000  1.0  -0.119
  C  C444  1  0.205400  0.827900  0.005100  1.0  0.3864
  C  C445  1  0.973400  0.645500  0.883900  1.0  0.168
  C  C446  1  0.807400  0.495100  0.742500  1.0  0.164
  C  C447  1  0.235900  0.878600  0.974400  1.0  -0.098
  C  C448  1  0.325600  0.959600  0.973800  1.0  0.1728
  C  C449  1  0.203800  0.890100  0.915000  1.0  -0.1403
  C  C450  1  0.712400  0.508500  0.651700  1.0  -0.0941
  C  C451  1  0.807900  0.320200  0.479000  1.0  0.1736
  C  C452  1  0.686500  0.390000  0.418300  1.0  -0.1574
  C  C453  1  0.502400  0.572900  0.407000  1.0  -0.1562
  C  C454  1  0.443600  0.616500  0.379000  1.0  0.1711
  C  C455  1  0.711900  0.553400  0.740400  1.0  0.1679
  C  C456  1  0.215500  0.711400  0.177800  1.0  -0.1562
  C  C457  1  0.245800  0.704800  0.237200  1.0  0.171
  C  C458  1  0.302300  0.802200  0.184900  1.0  -0.1769
  C  C459  1  0.778300  0.483300  0.683300  1.0  -0.1696
  C  C460  1  0.328400  0.792800  0.244100  1.0  0.1773
  C  C461  1  0.623900  0.243200  0.001860  1.0  0.3768
  C  C462  1  0.533200  0.187700  0.910900  1.0  -0.1578
  C  C463  1  0.944100  0.156500  0.464800  1.0  0.1696
  C  C464  1  0.097800  0.029800  0.500700  1.0  0.3872
  C  C465  1  0.278000  0.862100  0.509200  1.0  -0.1538
  C  C466  1  0.560000  0.198200  0.969800  1.0  -0.0753
  C  C467  1  0.735200  0.435400  0.888400  1.0  0.1731
  C  C468  1  0.003600  0.116300  0.496300  1.0  -0.1436
  C  C469  1  0.220100  0.847900  0.392200  1.0  0.162
  C  C470  1  0.709700  0.273600  0.087300  1.0  0.3816
  C  C471  1  0.797900  0.415700  0.004700  1.0  -0.1578
  C  C472  1  0.033600  0.073600  0.466670  1.0  -0.079
  C  C473  1  0.526000  0.164700  0.999600  1.0  -0.158
  C  C474  1  0.466900  0.124700  0.969400  1.0  0.1736
  C  C475  1  0.743300  0.262900  0.151000  1.0  -0.0501
  C  C476  1  0.182500  0.948200  0.506600  1.0  0.3568
  C  C477  1  0.215500  0.898500  0.477500  1.0  0.0188
  C  C478  1  0.180300  0.997800  0.587900  1.0  0.3857
  C  C479  1  0.179100  0.044100  0.681000  1.0  -0.119
  C  C480  1  0.705400  0.327900  0.005100  1.0  0.3864
  C  C481  1  0.473400  0.145500  0.883900  1.0  0.168
  C  C482  1  0.307400  0.995100  0.742500  1.0  0.164
  C  C483  1  0.735900  0.378600  0.974400  1.0  -0.098
  C  C484  1  0.825600  0.459600  0.973800  1.0  0.1728
  C  C485  1  0.703800  0.390100  0.915000  1.0  -0.1403
  C  C486  1  0.212400  0.008500  0.651700  1.0  -0.0941
  C  C487  1  0.307900  0.820200  0.479000  1.0  0.1736
  C  C488  1  0.186500  0.890000  0.418300  1.0  -0.1574
  C  C489  1  0.002400  0.072900  0.407000  1.0  -0.1562
  C  C490  1  0.943600  0.116500  0.379000  1.0  0.1711
  C  C491  1  0.211900  0.053400  0.740400  1.0  0.1679
  C  C492  1  0.715500  0.211400  0.177800  1.0  -0.1562
  C  C493  1  0.745800  0.204800  0.237200  1.0  0.171
  C  C494  1  0.802300  0.302200  0.184900  1.0  -0.1769
  C  C495  1  0.278300  0.983300  0.683300  1.0  -0.1696
  C  C496  1  0.828400  0.292800  0.244100  1.0  0.1773
  N  N497  1  0.939220  0.384600  0.411730  1.0  -0.3281
  N  N498  1  0.295470  0.030200  0.416700  1.0  -0.3583
  N  N499  1  0.300800  0.253900  0.770890  1.0  -0.3397
  N  N500  1  0.152950  0.268000  0.559100  1.0  -0.501
  N  N501  1  0.148000  0.210900  0.472370  1.0  -0.5059
  N  N502  1  0.238130  0.177600  0.562650  1.0  -0.5257
  N  N503  1  0.413500  0.342300  0.906830  1.0  -0.344
  N  N504  1  0.780200  0.686800  0.921430  1.0  -0.3315
  N  N505  1  0.775800  0.471000  0.271450  1.0  -0.3623
  N  N506  1  0.622870  0.462400  0.058530  1.0  -0.5102
  N  N507  1  0.626250  0.511500  0.972950  1.0  -0.4874
  N  N508  1  0.711520  0.549500  0.064600  1.0  -0.5001
  N  N509  1  0.439220  0.884600  0.411730  1.0  -0.3281
  N  N510  1  0.795470  0.530200  0.416700  1.0  -0.3583
  N  N511  1  0.800800  0.753900  0.770890  1.0  -0.3397
  N  N512  1  0.652950  0.768000  0.559100  1.0  -0.501
  N  N513  1  0.648000  0.710900  0.472370  1.0  -0.5059
  N  N514  1  0.738130  0.677600  0.562650  1.0  -0.5257
  N  N515  1  0.913500  0.842300  0.906830  1.0  -0.344
  N  N516  1  0.280200  0.186800  0.921430  1.0  -0.3315
  N  N517  1  0.275800  0.971000  0.271450  1.0  -0.3623
  N  N518  1  0.122870  0.962400  0.058530  1.0  -0.5102
  N  N519  1  0.126250  0.011500  0.972950  1.0  -0.4874
  N  N520  1  0.211520  0.049500  0.064600  1.0  -0.5001
  N  N521  1  0.060780  0.384600  0.088270  1.0  -0.3293
  N  N522  1  0.704530  0.030200  0.083300  1.0  -0.3562
  N  N523  1  0.699200  0.253900  0.729110  1.0  -0.3419
  N  N524  1  0.847050  0.268000  0.940900  1.0  -0.5
  N  N525  1  0.852000  0.210900  0.027630  1.0  -0.5078
  N  N526  1  0.761870  0.177600  0.937350  1.0  -0.5273
  N  N527  1  0.586500  0.342300  0.593170  1.0  -0.3399
  N  N528  1  0.219800  0.686800  0.578570  1.0  -0.3324
  N  N529  1  0.224200  0.471000  0.228550  1.0  -0.363
  N  N530  1  0.377130  0.462400  0.441470  1.0  -0.5103
  N  N531  1  0.373750  0.511500  0.527050  1.0  -0.4859
  N  N532  1  0.288480  0.549500  0.435400  1.0  -0.5005
  N  N533  1  0.560780  0.884600  0.088270  1.0  -0.3293
  N  N534  1  0.204530  0.530200  0.083300  1.0  -0.3562
  N  N535  1  0.199200  0.753900  0.729110  1.0  -0.3419
  N  N536  1  0.347050  0.768000  0.940900  1.0  -0.5
  N  N537  1  0.352000  0.710900  0.027630  1.0  -0.5078
  N  N538  1  0.261870  0.677600  0.937350  1.0  -0.5273
  N  N539  1  0.086500  0.842300  0.593170  1.0  -0.3399
  N  N540  1  0.719800  0.186800  0.578570  1.0  -0.3324
  N  N541  1  0.724200  0.971000  0.228550  1.0  -0.363
  N  N542  1  0.877130  0.962400  0.441470  1.0  -0.5103
  N  N543  1  0.873750  0.011500  0.527050  1.0  -0.4859
  N  N544  1  0.788480  0.049500  0.435400  1.0  -0.5005
  N  N545  1  0.060780  0.615400  0.588270  1.0  -0.3305
  N  N546  1  0.704530  0.969800  0.583300  1.0  -0.3583
  N  N547  1  0.699200  0.746100  0.229110  1.0  -0.3425
  N  N548  1  0.847050  0.732000  0.440900  1.0  -0.5008
  N  N549  1  0.852000  0.789100  0.527630  1.0  -0.5077
  N  N550  1  0.761870  0.822400  0.437350  1.0  -0.5264
  N  N551  1  0.586500  0.657700  0.093170  1.0  -0.3417
  N  N552  1  0.219800  0.313200  0.078570  1.0  -0.3326
  N  N553  1  0.224200  0.529000  0.728550  1.0  -0.3626
  N  N554  1  0.377130  0.537600  0.941470  1.0  -0.5098
  N  N555  1  0.373750  0.488500  0.027050  1.0  -0.4844
  N  N556  1  0.288480  0.450500  0.935400  1.0  -0.5021
  N  N557  1  0.560780  0.115400  0.588270  1.0  -0.3305
  N  N558  1  0.204530  0.469800  0.583300  1.0  -0.3583
  N  N559  1  0.199200  0.246100  0.229110  1.0  -0.3425
  N  N560  1  0.347050  0.232000  0.440900  1.0  -0.5008
  N  N561  1  0.352000  0.289100  0.527630  1.0  -0.5077
  N  N562  1  0.261870  0.322400  0.437350  1.0  -0.5264
  N  N563  1  0.086500  0.157700  0.093170  1.0  -0.3417
  N  N564  1  0.719800  0.813200  0.078570  1.0  -0.3326
  N  N565  1  0.724200  0.029000  0.728550  1.0  -0.3626
  N  N566  1  0.877130  0.037600  0.941470  1.0  -0.5098
  N  N567  1  0.873750  0.988500  0.027050  1.0  -0.4844
  N  N568  1  0.788480  0.950500  0.935400  1.0  -0.5021
  N  N569  1  0.939220  0.615400  0.911730  1.0  -0.3326
  N  N570  1  0.295470  0.969800  0.916700  1.0  -0.3579
  N  N571  1  0.300800  0.746100  0.270890  1.0  -0.339
  N  N572  1  0.152950  0.732000  0.059100  1.0  -0.5004
  N  N573  1  0.148000  0.789100  0.972370  1.0  -0.5058
  N  N574  1  0.238130  0.822400  0.062650  1.0  -0.5259
  N  N575  1  0.413500  0.657700  0.406830  1.0  -0.3426
  N  N576  1  0.780200  0.313200  0.421430  1.0  -0.3339
  N  N577  1  0.775800  0.529000  0.771450  1.0  -0.3624
  N  N578  1  0.622870  0.537600  0.558530  1.0  -0.5105
  N  N579  1  0.626250  0.488500  0.472950  1.0  -0.4869
  N  N580  1  0.711520  0.450500  0.564600  1.0  -0.5
  N  N581  1  0.439220  0.115400  0.911730  1.0  -0.3326
  N  N582  1  0.795470  0.469800  0.916700  1.0  -0.3579
  N  N583  1  0.800800  0.246100  0.270890  1.0  -0.339
  N  N584  1  0.652950  0.232000  0.059100  1.0  -0.5004
  N  N585  1  0.648000  0.289100  0.972370  1.0  -0.5058
  N  N586  1  0.738130  0.322400  0.062650  1.0  -0.5259
  N  N587  1  0.913500  0.157700  0.406830  1.0  -0.3426
  N  N588  1  0.280200  0.813200  0.421430  1.0  -0.3339
  N  N589  1  0.275800  0.029000  0.771450  1.0  -0.3624
  N  N590  1  0.122870  0.037600  0.558530  1.0  -0.5105
  N  N591  1  0.126250  0.988500  0.472950  1.0  -0.4869
  N  N592  1  0.211520  0.950500  0.564600  1.0  -0.5
