# generated using pymatgen
data_AgH12(C3N)6
_symmetry_space_group_name_H-M   'P 1'
_cell_length_a   22.09350000
_cell_length_b   16.28970000
_cell_length_c   25.63060000
_cell_angle_alpha   90.00000000
_cell_angle_beta   115.27700000
_cell_angle_gamma   90.00000000
_symmetry_Int_Tables_number   1
_chemical_formula_structural   AgH12(C3N)6
_chemical_formula_sum   'Ag16 H192 C288 N96'
_cell_volume   8341.16731820
_cell_formula_units_Z   16
loop_
 _symmetry_equiv_pos_site_id
 _symmetry_equiv_pos_as_xyz
  1  'x, y, z'
loop_
 _atom_site_type_symbol
 _atom_site_label
 _atom_site_symmetry_multiplicity
 _atom_site_fract_x
 _atom_site_fract_y
 _atom_site_fract_z
 _atom_site_occupancy
 _atom_site_charge
  Ag  Ag1  1  0.343890  0.542960  0.367750  1.0  0.3509
  Ag  Ag2  1  0.822890  0.748130  0.867210  1.0  0.3012
  Ag  Ag3  1  0.843890  0.042960  0.367750  1.0  0.3509
  Ag  Ag4  1  0.322890  0.248130  0.867220  1.0  0.3009
  Ag  Ag5  1  0.656110  0.542960  0.132250  1.0  0.3517
  Ag  Ag6  1  0.177110  0.748130  0.632780  1.0  0.3009
  Ag  Ag7  1  0.156110  0.042960  0.132250  1.0  0.3517
  Ag  Ag8  1  0.677110  0.248130  0.632780  1.0  0.3009
  Ag  Ag9  1  0.656110  0.457040  0.632250  1.0  0.3516
  Ag  Ag10  1  0.177110  0.251870  0.132780  1.0  0.3011
  Ag  Ag11  1  0.156110  0.957040  0.632250  1.0  0.3516
  Ag  Ag12  1  0.677110  0.751870  0.132780  1.0  0.3011
  Ag  Ag13  1  0.343890  0.457040  0.867750  1.0  0.3508
  Ag  Ag14  1  0.822890  0.251870  0.367220  1.0  0.301
  Ag  Ag15  1  0.843890  0.957040  0.867750  1.0  0.3508
  Ag  Ag16  1  0.322890  0.751870  0.367220  1.0  0.301
  H  H17  1  0.713100  0.942200  0.348400  1.0  0.0871
  H  H18  1  0.298900  0.366000  0.049200  1.0  0.1297
  H  H19  1  0.820800  0.911300  0.544900  1.0  0.1266
  H  H20  1  0.199500  0.344100  0.851900  1.0  0.0941
  H  H21  1  0.923600  0.685300  0.985200  1.0  0.0818
  H  H22  1  0.554500  0.709500  0.389800  1.0  0.1266
  H  H23  1  0.022500  0.617100  0.036500  1.0  0.1316
  H  H24  1  0.134800  0.561200  0.161800  1.0  0.1223
  H  H25  1  0.543300  0.669700  0.540100  1.0  0.1322
  H  H26  1  0.868300  0.982200  0.494300  1.0  0.0757
  H  H27  1  0.349300  0.296000  0.000200  1.0  0.0847
  H  H28  1  0.923500  0.617600  0.839300  1.0  0.0843
  H  H29  1  0.352000  0.478600  0.263700  1.0  0.0835
  H  H30  1  0.143600  0.412900  0.896600  1.0  0.127
  H  H31  1  0.662100  0.866200  0.393900  1.0  0.1259
  H  H32  1  0.455800  0.637500  0.344300  1.0  0.0844
  H  H33  1  0.443900  0.603200  0.489900  1.0  0.0796
  H  H34  1  0.867800  0.821000  0.767500  1.0  0.0863
  H  H35  1  0.020600  0.543600  0.886400  1.0  0.1291
  H  H36  1  0.823800  0.835200  0.668500  1.0  0.1258
  H  H37  1  0.189400  0.577500  0.259900  1.0  0.0742
  H  H38  1  0.677100  0.680200  0.656400  1.0  0.1264
  H  H39  1  0.302200  0.459500  0.165000  1.0  0.1223
  H  H40  1  0.725600  0.670500  0.755000  1.0  0.0739
  H  H41  1  0.213100  0.442200  0.348400  1.0  0.0871
  H  H42  1  0.798900  0.866000  0.049200  1.0  0.1297
  H  H43  1  0.320800  0.411300  0.544900  1.0  0.1266
  H  H44  1  0.699500  0.844100  0.851900  1.0  0.0941
  H  H45  1  0.423600  0.185300  0.985200  1.0  0.0818
  H  H46  1  0.054500  0.209500  0.389800  1.0  0.1266
  H  H47  1  0.522500  0.117100  0.036500  1.0  0.1316
  H  H48  1  0.634800  0.061200  0.161800  1.0  0.1223
  H  H49  1  0.043300  0.169700  0.540100  1.0  0.1322
  H  H50  1  0.368300  0.482200  0.494300  1.0  0.0757
  H  H51  1  0.849300  0.796000  0.000200  1.0  0.0847
  H  H52  1  0.423500  0.117600  0.839300  1.0  0.0843
  H  H53  1  0.852000  0.978600  0.263700  1.0  0.0835
  H  H54  1  0.643600  0.912900  0.896600  1.0  0.127
  H  H55  1  0.162100  0.366200  0.393900  1.0  0.1259
  H  H56  1  0.955800  0.137500  0.344300  1.0  0.0844
  H  H57  1  0.943900  0.103200  0.489900  1.0  0.0796
  H  H58  1  0.367800  0.321000  0.767500  1.0  0.0863
  H  H59  1  0.520600  0.043600  0.886400  1.0  0.1291
  H  H60  1  0.323800  0.335200  0.668500  1.0  0.1258
  H  H61  1  0.689400  0.077500  0.259900  1.0  0.0741
  H  H62  1  0.177100  0.180200  0.656400  1.0  0.1264
  H  H63  1  0.802200  0.959500  0.165000  1.0  0.1223
  H  H64  1  0.225600  0.170500  0.755000  1.0  0.0739
  H  H65  1  0.286900  0.942200  0.151600  1.0  0.0857
  H  H66  1  0.701100  0.366000  0.450800  1.0  0.129
  H  H67  1  0.179200  0.911300  0.955100  1.0  0.1274
  H  H68  1  0.800500  0.344100  0.648100  1.0  0.0931
  H  H69  1  0.076400  0.685300  0.514800  1.0  0.0826
  H  H70  1  0.445500  0.709500  0.110200  1.0  0.1264
  H  H71  1  0.977500  0.617100  0.463500  1.0  0.1326
  H  H72  1  0.865200  0.561200  0.338200  1.0  0.1213
  H  H73  1  0.456700  0.669700  0.959900  1.0  0.1319
  H  H74  1  0.131700  0.982200  0.005700  1.0  0.0749
  H  H75  1  0.650700  0.296000  0.499800  1.0  0.0839
  H  H76  1  0.076500  0.617600  0.660700  1.0  0.0839
  H  H77  1  0.648000  0.478600  0.236300  1.0  0.0833
  H  H78  1  0.856400  0.412900  0.603400  1.0  0.1278
  H  H79  1  0.337900  0.866200  0.106100  1.0  0.1251
  H  H80  1  0.544200  0.637500  0.155700  1.0  0.0846
  H  H81  1  0.556100  0.603200  0.010100  1.0  0.0793
  H  H82  1  0.132200  0.821000  0.732500  1.0  0.0858
  H  H83  1  0.979400  0.543600  0.613600  1.0  0.1286
  H  H84  1  0.176200  0.835200  0.831500  1.0  0.1251
  H  H85  1  0.810600  0.577500  0.240100  1.0  0.0737
  H  H86  1  0.322900  0.680200  0.843600  1.0  0.1271
  H  H87  1  0.697800  0.459500  0.335000  1.0  0.1221
  H  H88  1  0.274400  0.670500  0.745000  1.0  0.073
  H  H89  1  0.786900  0.442200  0.151600  1.0  0.0857
  H  H90  1  0.201100  0.866000  0.450800  1.0  0.129
  H  H91  1  0.679200  0.411300  0.955100  1.0  0.1274
  H  H92  1  0.300500  0.844100  0.648100  1.0  0.0931
  H  H93  1  0.576400  0.185300  0.514800  1.0  0.0826
  H  H94  1  0.945500  0.209500  0.110200  1.0  0.1264
  H  H95  1  0.477500  0.117100  0.463500  1.0  0.1326
  H  H96  1  0.365200  0.061200  0.338200  1.0  0.1213
  H  H97  1  0.956700  0.169700  0.959900  1.0  0.1319
  H  H98  1  0.631700  0.482200  0.005700  1.0  0.0749
  H  H99  1  0.150700  0.796000  0.499800  1.0  0.0839
  H  H100  1  0.576500  0.117600  0.660700  1.0  0.0839
  H  H101  1  0.148000  0.978600  0.236300  1.0  0.0833
  H  H102  1  0.356400  0.912900  0.603400  1.0  0.1278
  H  H103  1  0.837900  0.366200  0.106100  1.0  0.1251
  H  H104  1  0.044200  0.137500  0.155700  1.0  0.0846
  H  H105  1  0.056100  0.103200  0.010100  1.0  0.0793
  H  H106  1  0.632200  0.321000  0.732500  1.0  0.0858
  H  H107  1  0.479400  0.043600  0.613600  1.0  0.1286
  H  H108  1  0.676200  0.335200  0.831500  1.0  0.1251
  H  H109  1  0.310600  0.077500  0.240100  1.0  0.0735
  H  H110  1  0.822900  0.180200  0.843600  1.0  0.1271
  H  H111  1  0.197800  0.959500  0.335000  1.0  0.1221
  H  H112  1  0.774400  0.170500  0.745000  1.0  0.073
  H  H113  1  0.286900  0.057800  0.651600  1.0  0.0858
  H  H114  1  0.701100  0.634000  0.950800  1.0  0.1292
  H  H115  1  0.179200  0.088700  0.455100  1.0  0.1271
  H  H116  1  0.800500  0.655900  0.148100  1.0  0.0935
  H  H117  1  0.076400  0.314700  0.014800  1.0  0.0826
  H  H118  1  0.445500  0.290500  0.610200  1.0  0.1265
  H  H119  1  0.977500  0.382900  0.963500  1.0  0.1322
  H  H120  1  0.865200  0.438800  0.838200  1.0  0.1208
  H  H121  1  0.456700  0.330300  0.459900  1.0  0.1322
  H  H122  1  0.131700  0.017800  0.505700  1.0  0.0749
  H  H123  1  0.650700  0.704000  0.999800  1.0  0.0839
  H  H124  1  0.076500  0.382400  0.160700  1.0  0.084
  H  H125  1  0.648000  0.521400  0.736300  1.0  0.0829
  H  H126  1  0.856400  0.587100  0.103400  1.0  0.1277
  H  H127  1  0.337900  0.133800  0.606100  1.0  0.1249
  H  H128  1  0.544200  0.362500  0.655700  1.0  0.0848
  H  H129  1  0.556100  0.396800  0.510100  1.0  0.079
  H  H130  1  0.132200  0.179000  0.232500  1.0  0.0859
  H  H131  1  0.979400  0.456400  0.113600  1.0  0.1283
  H  H132  1  0.176200  0.164800  0.331500  1.0  0.1251
  H  H133  1  0.810600  0.422500  0.740100  1.0  0.0738
  H  H134  1  0.322900  0.319800  0.343600  1.0  0.127
  H  H135  1  0.697800  0.540500  0.835000  1.0  0.1218
  H  H136  1  0.274400  0.329500  0.245000  1.0  0.0721
  H  H137  1  0.786900  0.557800  0.651600  1.0  0.0858
  H  H138  1  0.201100  0.134000  0.950800  1.0  0.1292
  H  H139  1  0.679200  0.588700  0.455100  1.0  0.1271
  H  H140  1  0.300500  0.155900  0.148100  1.0  0.0935
  H  H141  1  0.576400  0.814700  0.014800  1.0  0.0826
  H  H142  1  0.945500  0.790500  0.610200  1.0  0.1265
  H  H143  1  0.477500  0.882900  0.963500  1.0  0.1322
  H  H144  1  0.365200  0.938800  0.838200  1.0  0.1208
  H  H145  1  0.956700  0.830300  0.459900  1.0  0.1322
  H  H146  1  0.631700  0.517800  0.505700  1.0  0.0749
  H  H147  1  0.150700  0.204000  0.999800  1.0  0.0839
  H  H148  1  0.576500  0.882400  0.160700  1.0  0.084
  H  H149  1  0.148000  0.021400  0.736300  1.0  0.0829
  H  H150  1  0.356400  0.087100  0.103400  1.0  0.1277
  H  H151  1  0.837900  0.633800  0.606100  1.0  0.1249
  H  H152  1  0.044200  0.862500  0.655700  1.0  0.0848
  H  H153  1  0.056100  0.896800  0.510100  1.0  0.079
  H  H154  1  0.632200  0.679000  0.232500  1.0  0.0859
  H  H155  1  0.479400  0.956400  0.113600  1.0  0.1283
  H  H156  1  0.676200  0.664800  0.331500  1.0  0.1251
  H  H157  1  0.310600  0.922500  0.740100  1.0  0.0737
  H  H158  1  0.822900  0.819800  0.343600  1.0  0.127
  H  H159  1  0.197800  0.040500  0.835000  1.0  0.1218
  H  H160  1  0.774400  0.829500  0.245000  1.0  0.0721
  H  H161  1  0.713100  0.057800  0.848400  1.0  0.0871
  H  H162  1  0.298900  0.634000  0.549200  1.0  0.1296
  H  H163  1  0.820800  0.088700  0.044900  1.0  0.1265
  H  H164  1  0.199500  0.655900  0.351900  1.0  0.0945
  H  H165  1  0.923600  0.314700  0.485200  1.0  0.0821
  H  H166  1  0.554500  0.290500  0.889800  1.0  0.1269
  H  H167  1  0.022500  0.382900  0.536500  1.0  0.1318
  H  H168  1  0.134800  0.438800  0.661800  1.0  0.1222
  H  H169  1  0.543300  0.330300  0.040100  1.0  0.1323
  H  H170  1  0.868300  0.017800  0.994300  1.0  0.076
  H  H171  1  0.349300  0.704000  0.500200  1.0  0.0846
  H  H172  1  0.923500  0.382400  0.339300  1.0  0.0843
  H  H173  1  0.352000  0.521400  0.763700  1.0  0.084
  H  H174  1  0.143600  0.587100  0.396600  1.0  0.1272
  H  H175  1  0.662100  0.133800  0.893900  1.0  0.1259
  H  H176  1  0.455800  0.362500  0.844300  1.0  0.0847
  H  H177  1  0.443900  0.396800  0.989900  1.0  0.0793
  H  H178  1  0.867800  0.179000  0.267500  1.0  0.0862
  H  H179  1  0.020600  0.456400  0.386400  1.0  0.1293
  H  H180  1  0.823800  0.164800  0.168500  1.0  0.1254
  H  H181  1  0.189400  0.422500  0.759900  1.0  0.0744
  H  H182  1  0.677100  0.319800  0.156400  1.0  0.1261
  H  H183  1  0.302200  0.540500  0.665000  1.0  0.1223
  H  H184  1  0.725600  0.329500  0.255000  1.0  0.0734
  H  H185  1  0.213100  0.557800  0.848400  1.0  0.0871
  H  H186  1  0.798900  0.134000  0.549200  1.0  0.1296
  H  H187  1  0.320800  0.588700  0.044900  1.0  0.1265
  H  H188  1  0.699500  0.155900  0.351900  1.0  0.0945
  H  H189  1  0.423600  0.814700  0.485200  1.0  0.0821
  H  H190  1  0.054500  0.790500  0.889800  1.0  0.1269
  H  H191  1  0.522500  0.882900  0.536500  1.0  0.1318
  H  H192  1  0.634800  0.938800  0.661800  1.0  0.1222
  H  H193  1  0.043300  0.830300  0.040100  1.0  0.1323
  H  H194  1  0.368300  0.517800  0.994300  1.0  0.076
  H  H195  1  0.849300  0.204000  0.500200  1.0  0.0846
  H  H196  1  0.423500  0.882400  0.339300  1.0  0.0843
  H  H197  1  0.852000  0.021400  0.763700  1.0  0.084
  H  H198  1  0.643600  0.087100  0.396600  1.0  0.1272
  H  H199  1  0.162100  0.633800  0.893900  1.0  0.1259
  H  H200  1  0.955800  0.862500  0.844300  1.0  0.0847
  H  H201  1  0.943900  0.896800  0.989900  1.0  0.0793
  H  H202  1  0.367800  0.679000  0.267500  1.0  0.0862
  H  H203  1  0.520600  0.956400  0.386400  1.0  0.1293
  H  H204  1  0.323800  0.664800  0.168500  1.0  0.1254
  H  H205  1  0.689400  0.922500  0.759900  1.0  0.0744
  H  H206  1  0.177100  0.819800  0.156400  1.0  0.1261
  H  H207  1  0.802200  0.040500  0.665000  1.0  0.1223
  H  H208  1  0.225600  0.829500  0.255000  1.0  0.0734
  C  C209  1  0.623700  0.742800  0.502400  1.0  0.3963
  C  C210  1  0.735100  0.935100  0.388100  1.0  0.1563
  C  C211  1  0.278000  0.362300  0.009200  1.0  -0.1496
  C  C212  1  0.798400  0.915800  0.505000  1.0  -0.1628
  C  C213  1  0.219500  0.348300  0.891900  1.0  0.1825
  C  C214  1  0.559800  0.697800  0.470200  1.0  -0.0998
  C  C215  1  0.097600  0.530400  0.001100  1.0  0.3689
  C  C216  1  0.943600  0.657000  0.965100  1.0  0.1751
  C  C217  1  0.532900  0.688000  0.411000  1.0  -0.1542
  C  C218  1  0.003100  0.616200  0.996400  1.0  -0.1338
  C  C219  1  0.743400  0.762800  0.651700  1.0  -0.0732
  C  C220  1  0.180400  0.497800  0.088300  1.0  0.3638
  C  C221  1  0.178900  0.543800  0.181600  1.0  -0.1386
  C  C222  1  0.526000  0.664900  0.500200  1.0  -0.1793
  C  C223  1  0.215500  0.398700  0.977700  1.0  -0.075
  C  C224  1  0.826200  0.959100  0.474100  1.0  0.1769
  C  C225  1  0.709500  0.773300  0.587600  1.0  0.385
  C  C226  1  0.033100  0.573900  0.967000  1.0  -0.0934
  C  C227  1  0.307800  0.320400  0.979200  1.0  0.175
  C  C228  1  0.736200  0.879100  0.474900  1.0  -0.1203
  C  C229  1  0.943300  0.616600  0.879400  1.0  0.186
  C  C230  1  0.705600  0.827800  0.505200  1.0  0.3951
  C  C231  1  0.307800  0.495100  0.242900  1.0  0.15
  C  C232  1  0.182800  0.448500  0.006900  1.0  0.3589
  C  C233  1  0.185600  0.390500  0.918400  1.0  -0.1335
  C  C234  1  0.703900  0.889600  0.415200  1.0  -0.1378
  C  C235  1  0.473100  0.645600  0.384000  1.0  0.1644
  C  C236  1  0.466500  0.625000  0.469700  1.0  0.1718
  C  C237  1  0.828500  0.793300  0.744800  1.0  0.1771
  C  C238  1  0.212200  0.507900  0.152000  1.0  -0.0845
  C  C239  1  0.002300  0.572900  0.907300  1.0  -0.1495
  C  C240  1  0.802200  0.802800  0.685200  1.0  -0.1451
  C  C241  1  0.212200  0.553200  0.240600  1.0  0.1766
  C  C242  1  0.715200  0.710600  0.678200  1.0  -0.1597
  C  C243  1  0.278300  0.483300  0.183400  1.0  -0.1538
  C  C244  1  0.744900  0.705000  0.737400  1.0  0.1699
  C  C245  1  0.123700  0.242800  0.502400  1.0  0.3963
  C  C246  1  0.235100  0.435100  0.388100  1.0  0.1563
  C  C247  1  0.778000  0.862300  0.009200  1.0  -0.1496
  C  C248  1  0.298400  0.415800  0.505000  1.0  -0.1628
  C  C249  1  0.719500  0.848300  0.891900  1.0  0.1825
  C  C250  1  0.059800  0.197800  0.470200  1.0  -0.0998
  C  C251  1  0.597600  0.030400  0.001100  1.0  0.3689
  C  C252  1  0.443600  0.157000  0.965100  1.0  0.1751
  C  C253  1  0.032900  0.188000  0.411000  1.0  -0.1542
  C  C254  1  0.503100  0.116200  0.996400  1.0  -0.1338
  C  C255  1  0.243400  0.262800  0.651700  1.0  -0.0732
  C  C256  1  0.680400  0.997800  0.088300  1.0  0.3638
  C  C257  1  0.678900  0.043800  0.181600  1.0  -0.1386
  C  C258  1  0.026000  0.164900  0.500200  1.0  -0.1793
  C  C259  1  0.715500  0.898700  0.977700  1.0  -0.075
  C  C260  1  0.326200  0.459100  0.474100  1.0  0.1769
  C  C261  1  0.209500  0.273300  0.587600  1.0  0.385
  C  C262  1  0.533100  0.073900  0.967000  1.0  -0.0934
  C  C263  1  0.807800  0.820400  0.979200  1.0  0.175
  C  C264  1  0.236200  0.379100  0.474900  1.0  -0.1203
  C  C265  1  0.443300  0.116600  0.879400  1.0  0.186
  C  C266  1  0.205600  0.327800  0.505200  1.0  0.3951
  C  C267  1  0.807800  0.995100  0.242900  1.0  0.15
  C  C268  1  0.682800  0.948500  0.006900  1.0  0.3589
  C  C269  1  0.685600  0.890500  0.918400  1.0  -0.1335
  C  C270  1  0.203900  0.389600  0.415200  1.0  -0.1378
  C  C271  1  0.973100  0.145600  0.384000  1.0  0.1644
  C  C272  1  0.966500  0.125000  0.469700  1.0  0.1718
  C  C273  1  0.328500  0.293300  0.744800  1.0  0.1771
  C  C274  1  0.712200  0.007900  0.152000  1.0  -0.0845
  C  C275  1  0.502300  0.072900  0.907300  1.0  -0.1495
  C  C276  1  0.302200  0.302800  0.685200  1.0  -0.1451
  C  C277  1  0.712200  0.053200  0.240600  1.0  0.1766
  C  C278  1  0.215200  0.210600  0.678200  1.0  -0.1597
  C  C279  1  0.778300  0.983300  0.183400  1.0  -0.1538
  C  C280  1  0.244900  0.205000  0.737400  1.0  0.1699
  C  C281  1  0.376300  0.742800  0.997600  1.0  0.3954
  C  C282  1  0.264900  0.935100  0.111900  1.0  0.1543
  C  C283  1  0.722000  0.362300  0.490800  1.0  -0.1487
  C  C284  1  0.201600  0.915800  0.995000  1.0  -0.1613
  C  C285  1  0.780500  0.348300  0.608100  1.0  0.1828
  C  C286  1  0.440200  0.697800  0.029800  1.0  -0.101
  C  C287  1  0.902400  0.530400  0.498900  1.0  0.3676
  C  C288  1  0.056400  0.657000  0.534900  1.0  0.175
  C  C289  1  0.467100  0.688000  0.089000  1.0  -0.1559
  C  C290  1  0.996900  0.616200  0.503600  1.0  -0.1347
  C  C291  1  0.256600  0.762800  0.848300  1.0  -0.0725
  C  C292  1  0.819600  0.497800  0.411700  1.0  0.364
  C  C293  1  0.821100  0.543800  0.318400  1.0  -0.1404
  C  C294  1  0.474000  0.664900  0.999800  1.0  -0.1794
  C  C295  1  0.784500  0.398700  0.522300  1.0  -0.074
  C  C296  1  0.173800  0.959100  0.025900  1.0  0.1774
  C  C297  1  0.290500  0.773300  0.912400  1.0  0.3842
  C  C298  1  0.966900  0.573900  0.533000  1.0  -0.0932
  C  C299  1  0.692200  0.320400  0.520800  1.0  0.1754
  C  C300  1  0.263800  0.879100  0.025100  1.0  -0.12
  C  C301  1  0.056700  0.616600  0.620600  1.0  0.1855
  C  C302  1  0.294400  0.827800  0.994800  1.0  0.3952
  C  C303  1  0.692200  0.495100  0.257100  1.0  0.1507
  C  C304  1  0.817200  0.448500  0.493100  1.0  0.3595
  C  C305  1  0.814400  0.390500  0.581600  1.0  -0.1326
  C  C306  1  0.296100  0.889600  0.084800  1.0  -0.1384
  C  C307  1  0.526900  0.645600  0.116000  1.0  0.1645
  C  C308  1  0.533500  0.625000  0.030300  1.0  0.1701
  C  C309  1  0.171500  0.793300  0.755200  1.0  0.1774
  C  C310  1  0.787800  0.507900  0.348000  1.0  -0.0839
  C  C311  1  0.997700  0.572900  0.592700  1.0  -0.1543
  C  C312  1  0.197800  0.802800  0.814800  1.0  -0.1439
  C  C313  1  0.787800  0.553200  0.259400  1.0  0.1774
  C  C314  1  0.284800  0.710600  0.821800  1.0  -0.1607
  C  C315  1  0.721700  0.483300  0.316600  1.0  -0.1523
  C  C316  1  0.255100  0.705000  0.762600  1.0  0.1692
  C  C317  1  0.876300  0.242800  0.997600  1.0  0.3954
  C  C318  1  0.764900  0.435100  0.111900  1.0  0.1543
  C  C319  1  0.222000  0.862300  0.490800  1.0  -0.1487
  C  C320  1  0.701600  0.415800  0.995000  1.0  -0.1613
  C  C321  1  0.280500  0.848300  0.608100  1.0  0.1828
  C  C322  1  0.940200  0.197800  0.029800  1.0  -0.101
  C  C323  1  0.402400  0.030400  0.498900  1.0  0.3676
  C  C324  1  0.556400  0.157000  0.534900  1.0  0.175
  C  C325  1  0.967100  0.188000  0.089000  1.0  -0.1559
  C  C326  1  0.496900  0.116200  0.503600  1.0  -0.1347
  C  C327  1  0.756600  0.262800  0.848300  1.0  -0.0725
  C  C328  1  0.319600  0.997800  0.411700  1.0  0.364
  C  C329  1  0.321100  0.043800  0.318400  1.0  -0.1404
  C  C330  1  0.974000  0.164900  0.999800  1.0  -0.1794
  C  C331  1  0.284500  0.898700  0.522300  1.0  -0.074
  C  C332  1  0.673800  0.459100  0.025900  1.0  0.1774
  C  C333  1  0.790500  0.273300  0.912400  1.0  0.3842
  C  C334  1  0.466900  0.073900  0.533000  1.0  -0.0932
  C  C335  1  0.192200  0.820400  0.520800  1.0  0.1754
  C  C336  1  0.763800  0.379100  0.025100  1.0  -0.12
  C  C337  1  0.556700  0.116600  0.620600  1.0  0.1855
  C  C338  1  0.794400  0.327800  0.994800  1.0  0.3952
  C  C339  1  0.192200  0.995100  0.257100  1.0  0.1507
  C  C340  1  0.317200  0.948500  0.493100  1.0  0.3595
  C  C341  1  0.314400  0.890500  0.581600  1.0  -0.1326
  C  C342  1  0.796100  0.389600  0.084800  1.0  -0.1384
  C  C343  1  0.026900  0.145600  0.116000  1.0  0.1645
  C  C344  1  0.033500  0.125000  0.030300  1.0  0.1701
  C  C345  1  0.671500  0.293300  0.755200  1.0  0.1774
  C  C346  1  0.287800  0.007900  0.348000  1.0  -0.0839
  C  C347  1  0.497700  0.072900  0.592700  1.0  -0.1543
  C  C348  1  0.697800  0.302800  0.814800  1.0  -0.1439
  C  C349  1  0.287800  0.053200  0.259400  1.0  0.1774
  C  C350  1  0.784800  0.210600  0.821800  1.0  -0.1607
  C  C351  1  0.221700  0.983300  0.316600  1.0  -0.1523
  C  C352  1  0.755100  0.205000  0.762600  1.0  0.1692
  C  C353  1  0.376300  0.257200  0.497600  1.0  0.3954
  C  C354  1  0.264900  0.064900  0.611900  1.0  0.1546
  C  C355  1  0.722000  0.637700  0.990800  1.0  -0.1492
  C  C356  1  0.201600  0.084200  0.495000  1.0  -0.1609
  C  C357  1  0.780500  0.651700  0.108100  1.0  0.1816
  C  C358  1  0.440200  0.302200  0.529800  1.0  -0.0998
  C  C359  1  0.902400  0.469600  0.998900  1.0  0.3671
  C  C360  1  0.056400  0.343000  0.034900  1.0  0.1755
  C  C361  1  0.467100  0.312000  0.589000  1.0  -0.1565
  C  C362  1  0.996900  0.383800  0.003600  1.0  -0.1343
  C  C363  1  0.256600  0.237200  0.348300  1.0  -0.0724
  C  C364  1  0.819600  0.502200  0.911700  1.0  0.3637
  C  C365  1  0.821100  0.456200  0.818400  1.0  -0.1404
  C  C366  1  0.474000  0.335100  0.499800  1.0  -0.179
  C  C367  1  0.784500  0.601300  0.022300  1.0  -0.0734
  C  C368  1  0.173800  0.040900  0.525900  1.0  0.1783
  C  C369  1  0.290500  0.226700  0.412400  1.0  0.3837
  C  C370  1  0.966900  0.426100  0.033000  1.0  -0.0931
  C  C371  1  0.692200  0.679600  0.020800  1.0  0.1748
  C  C372  1  0.263800  0.120900  0.525100  1.0  -0.1196
  C  C373  1  0.056700  0.383400  0.120600  1.0  0.1854
  C  C374  1  0.294400  0.172200  0.494800  1.0  0.3953
  C  C375  1  0.692200  0.504900  0.757100  1.0  0.1507
  C  C376  1  0.817200  0.551500  0.993100  1.0  0.3598
  C  C377  1  0.814400  0.609500  0.081600  1.0  -0.1336
  C  C378  1  0.296100  0.110400  0.584800  1.0  -0.1378
  C  C379  1  0.526900  0.354400  0.616000  1.0  0.1646
  C  C380  1  0.533500  0.375000  0.530300  1.0  0.1714
  C  C381  1  0.171500  0.206700  0.255200  1.0  0.1774
  C  C382  1  0.787800  0.492100  0.848000  1.0  -0.0842
  C  C383  1  0.997700  0.427100  0.092700  1.0  -0.1542
  C  C384  1  0.197800  0.197200  0.314800  1.0  -0.1443
  C  C385  1  0.787800  0.446800  0.759400  1.0  0.1772
  C  C386  1  0.284800  0.289400  0.321800  1.0  -0.1604
  C  C387  1  0.721700  0.516700  0.816600  1.0  -0.1534
  C  C388  1  0.255100  0.295000  0.262600  1.0  0.1691
  C  C389  1  0.876300  0.757200  0.497600  1.0  0.3954
  C  C390  1  0.764900  0.564900  0.611900  1.0  0.1546
  C  C391  1  0.222000  0.137700  0.990800  1.0  -0.1492
  C  C392  1  0.701600  0.584200  0.495000  1.0  -0.1609
  C  C393  1  0.280500  0.151700  0.108100  1.0  0.1816
  C  C394  1  0.940200  0.802200  0.529800  1.0  -0.0998
  C  C395  1  0.402400  0.969600  0.998900  1.0  0.3671
  C  C396  1  0.556400  0.843000  0.034900  1.0  0.1755
  C  C397  1  0.967100  0.812000  0.589000  1.0  -0.1565
  C  C398  1  0.496900  0.883800  0.003600  1.0  -0.1343
  C  C399  1  0.756600  0.737200  0.348300  1.0  -0.0724
  C  C400  1  0.319600  0.002200  0.911700  1.0  0.3637
  C  C401  1  0.321100  0.956200  0.818400  1.0  -0.1404
  C  C402  1  0.974000  0.835100  0.499800  1.0  -0.179
  C  C403  1  0.284500  0.101300  0.022300  1.0  -0.0734
  C  C404  1  0.673800  0.540900  0.525900  1.0  0.1783
  C  C405  1  0.790500  0.726700  0.412400  1.0  0.3837
  C  C406  1  0.466900  0.926100  0.033000  1.0  -0.0931
  C  C407  1  0.192200  0.179600  0.020800  1.0  0.1748
  C  C408  1  0.763800  0.620900  0.525100  1.0  -0.1196
  C  C409  1  0.556700  0.883400  0.120600  1.0  0.1854
  C  C410  1  0.794400  0.672200  0.494800  1.0  0.3953
  C  C411  1  0.192200  0.004900  0.757100  1.0  0.1507
  C  C412  1  0.317200  0.051500  0.993100  1.0  0.3598
  C  C413  1  0.314400  0.109500  0.081600  1.0  -0.1336
  C  C414  1  0.796100  0.610400  0.584800  1.0  -0.1378
  C  C415  1  0.026900  0.854400  0.616000  1.0  0.1646
  C  C416  1  0.033500  0.875000  0.530300  1.0  0.1714
  C  C417  1  0.671500  0.706700  0.255200  1.0  0.1774
  C  C418  1  0.287800  0.992100  0.848000  1.0  -0.0842
  C  C419  1  0.497700  0.927100  0.092700  1.0  -0.1542
  C  C420  1  0.697800  0.697200  0.314800  1.0  -0.1443
  C  C421  1  0.287800  0.946800  0.759400  1.0  0.1772
  C  C422  1  0.784800  0.789400  0.321800  1.0  -0.1604
  C  C423  1  0.221700  0.016700  0.816600  1.0  -0.1534
  C  C424  1  0.755100  0.795000  0.262600  1.0  0.1691
  C  C425  1  0.623700  0.257200  0.002400  1.0  0.3961
  C  C426  1  0.735100  0.064900  0.888100  1.0  0.1566
  C  C427  1  0.278000  0.637700  0.509200  1.0  -0.1493
  C  C428  1  0.798400  0.084200  0.005000  1.0  -0.1631
  C  C429  1  0.219500  0.651700  0.391900  1.0  0.1825
  C  C430  1  0.559800  0.302200  0.970200  1.0  -0.0998
  C  C431  1  0.097600  0.469600  0.501100  1.0  0.3682
  C  C432  1  0.943600  0.343000  0.465100  1.0  0.1757
  C  C433  1  0.532900  0.312000  0.911000  1.0  -0.1542
  C  C434  1  0.003100  0.383800  0.496400  1.0  -0.1335
  C  C435  1  0.743400  0.237200  0.151700  1.0  -0.0735
  C  C436  1  0.180400  0.502200  0.588300  1.0  0.3634
  C  C437  1  0.178900  0.456200  0.681600  1.0  -0.1385
  C  C438  1  0.526000  0.335100  0.000200  1.0  -0.1791
  C  C439  1  0.215500  0.601300  0.477700  1.0  -0.0745
  C  C440  1  0.826200  0.040900  0.974100  1.0  0.1778
  C  C441  1  0.709500  0.226700  0.087600  1.0  0.3846
  C  C442  1  0.033100  0.426100  0.467000  1.0  -0.0928
  C  C443  1  0.307800  0.679600  0.479200  1.0  0.1745
  C  C444  1  0.736200  0.120900  0.974900  1.0  -0.1201
  C  C445  1  0.943300  0.383400  0.379400  1.0  0.1855
  C  C446  1  0.705600  0.172200  0.005200  1.0  0.3953
  C  C447  1  0.307800  0.504900  0.742900  1.0  0.1506
  C  C448  1  0.182800  0.551500  0.506900  1.0  0.3591
  C  C449  1  0.185600  0.609500  0.418400  1.0  -0.1336
  C  C450  1  0.703900  0.110400  0.915200  1.0  -0.1381
  C  C451  1  0.473100  0.354400  0.884000  1.0  0.1652
  C  C452  1  0.466500  0.375000  0.969700  1.0  0.1711
  C  C453  1  0.828500  0.206700  0.244800  1.0  0.1768
  C  C454  1  0.212200  0.492100  0.652000  1.0  -0.0847
  C  C455  1  0.002300  0.427100  0.407300  1.0  -0.1497
  C  C456  1  0.802200  0.197200  0.185200  1.0  -0.1454
  C  C457  1  0.212200  0.446800  0.740600  1.0  0.1761
  C  C458  1  0.715200  0.289400  0.178200  1.0  -0.1594
  C  C459  1  0.278300  0.516700  0.683400  1.0  -0.1549
  C  C460  1  0.744900  0.295000  0.237400  1.0  0.1702
  C  C461  1  0.123700  0.757200  0.002400  1.0  0.3961
  C  C462  1  0.235100  0.564900  0.888100  1.0  0.1566
  C  C463  1  0.778000  0.137700  0.509200  1.0  -0.1493
  C  C464  1  0.298400  0.584200  0.005000  1.0  -0.1631
  C  C465  1  0.719500  0.151700  0.391900  1.0  0.1825
  C  C466  1  0.059800  0.802200  0.970200  1.0  -0.0998
  C  C467  1  0.597600  0.969600  0.501100  1.0  0.3682
  C  C468  1  0.443600  0.843000  0.465100  1.0  0.1757
  C  C469  1  0.032900  0.812000  0.911000  1.0  -0.1542
  C  C470  1  0.503100  0.883800  0.496400  1.0  -0.1335
  C  C471  1  0.243400  0.737200  0.151700  1.0  -0.0735
  C  C472  1  0.680400  0.002200  0.588300  1.0  0.3634
  C  C473  1  0.678900  0.956200  0.681600  1.0  -0.1385
  C  C474  1  0.026000  0.835100  0.000200  1.0  -0.1791
  C  C475  1  0.715500  0.101300  0.477700  1.0  -0.0745
  C  C476  1  0.326200  0.540900  0.974100  1.0  0.1778
  C  C477  1  0.209500  0.726700  0.087600  1.0  0.3846
  C  C478  1  0.533100  0.926100  0.467000  1.0  -0.0928
  C  C479  1  0.807800  0.179600  0.479200  1.0  0.1745
  C  C480  1  0.236200  0.620900  0.974900  1.0  -0.1201
  C  C481  1  0.443300  0.883400  0.379400  1.0  0.1855
  C  C482  1  0.205600  0.672200  0.005200  1.0  0.3953
  C  C483  1  0.807800  0.004900  0.742900  1.0  0.1506
  C  C484  1  0.682800  0.051500  0.506900  1.0  0.3591
  C  C485  1  0.685600  0.109500  0.418400  1.0  -0.1336
  C  C486  1  0.203900  0.610400  0.915200  1.0  -0.1381
  C  C487  1  0.973100  0.854400  0.884000  1.0  0.1652
  C  C488  1  0.966500  0.875000  0.969700  1.0  0.1711
  C  C489  1  0.328500  0.706700  0.244800  1.0  0.1768
  C  C490  1  0.712200  0.992100  0.652000  1.0  -0.0847
  C  C491  1  0.502300  0.927100  0.407300  1.0  -0.1497
  C  C492  1  0.302200  0.697200  0.185200  1.0  -0.1454
  C  C493  1  0.712200  0.946800  0.740600  1.0  0.1761
  C  C494  1  0.215200  0.789400  0.178200  1.0  -0.1594
  C  C495  1  0.778300  0.016700  0.683400  1.0  -0.1549
  C  C496  1  0.244900  0.795000  0.237400  1.0  0.1702
  N  N497  1  0.738400  0.822400  0.563210  1.0  -0.527
  N  N498  1  0.279900  0.313100  0.921280  1.0  -0.348
  N  N499  1  0.122600  0.537100  0.058820  1.0  -0.4983
  N  N500  1  0.439200  0.615800  0.412210  1.0  -0.3251
  N  N501  1  0.913200  0.657800  0.907410  1.0  -0.3505
  N  N502  1  0.126300  0.488900  0.973220  1.0  -0.5015
  N  N503  1  0.648100  0.789800  0.472810  1.0  -0.5095
  N  N504  1  0.795800  0.969600  0.416680  1.0  -0.3639
  N  N505  1  0.211500  0.450100  0.064770  1.0  -0.4984
  N  N506  1  0.800400  0.746700  0.771300  1.0  -0.3448
  N  N507  1  0.275800  0.529200  0.271800  1.0  -0.3654
  N  N508  1  0.653000  0.732000  0.559320  1.0  -0.5155
  N  N509  1  0.238400  0.322400  0.563210  1.0  -0.527
  N  N510  1  0.779900  0.813100  0.921280  1.0  -0.3479
  N  N511  1  0.622600  0.037100  0.058820  1.0  -0.4983
  N  N512  1  0.939200  0.115800  0.412210  1.0  -0.3251
  N  N513  1  0.413200  0.157800  0.907410  1.0  -0.3505
  N  N514  1  0.626300  0.988900  0.973220  1.0  -0.5015
  N  N515  1  0.148100  0.289800  0.472810  1.0  -0.5095
  N  N516  1  0.295800  0.469600  0.416680  1.0  -0.3639
  N  N517  1  0.711500  0.950100  0.064770  1.0  -0.4984
  N  N518  1  0.300400  0.246700  0.771300  1.0  -0.3448
  N  N519  1  0.775800  0.029200  0.271800  1.0  -0.3654
  N  N520  1  0.153000  0.232000  0.559320  1.0  -0.5155
  N  N521  1  0.261600  0.822400  0.936790  1.0  -0.528
  N  N522  1  0.720100  0.313100  0.578720  1.0  -0.3464
  N  N523  1  0.877400  0.537100  0.441180  1.0  -0.4962
  N  N524  1  0.560800  0.615800  0.087790  1.0  -0.3218
  N  N525  1  0.086800  0.657800  0.592590  1.0  -0.3503
  N  N526  1  0.873700  0.488900  0.526780  1.0  -0.4995
  N  N527  1  0.351900  0.789800  0.027190  1.0  -0.5112
  N  N528  1  0.204200  0.969600  0.083320  1.0  -0.3654
  N  N529  1  0.788500  0.450100  0.435230  1.0  -0.5001
  N  N530  1  0.199600  0.746700  0.728700  1.0  -0.3493
  N  N531  1  0.724200  0.529200  0.228200  1.0  -0.3656
  N  N532  1  0.347000  0.732000  0.940680  1.0  -0.5129
  N  N533  1  0.761600  0.322400  0.936790  1.0  -0.528
  N  N534  1  0.220100  0.813100  0.578720  1.0  -0.3464
  N  N535  1  0.377400  0.037100  0.441180  1.0  -0.4962
  N  N536  1  0.060800  0.115800  0.087790  1.0  -0.3218
  N  N537  1  0.586800  0.157800  0.592590  1.0  -0.3503
  N  N538  1  0.373700  0.988900  0.526780  1.0  -0.4995
  N  N539  1  0.851900  0.289800  0.027190  1.0  -0.5112
  N  N540  1  0.704200  0.469600  0.083320  1.0  -0.3654
  N  N541  1  0.288500  0.950100  0.435230  1.0  -0.5001
  N  N542  1  0.699600  0.246700  0.728700  1.0  -0.3493
  N  N543  1  0.224200  0.029200  0.228200  1.0  -0.3656
  N  N544  1  0.847000  0.232000  0.940680  1.0  -0.5129
  N  N545  1  0.261600  0.177600  0.436790  1.0  -0.5287
  N  N546  1  0.720100  0.686900  0.078720  1.0  -0.346
  N  N547  1  0.877400  0.462900  0.941180  1.0  -0.4965
  N  N548  1  0.560800  0.384200  0.587790  1.0  -0.3231
  N  N549  1  0.086800  0.342200  0.092590  1.0  -0.3488
  N  N550  1  0.873700  0.511100  0.026780  1.0  -0.5016
  N  N551  1  0.351900  0.210200  0.527190  1.0  -0.5115
  N  N552  1  0.204200  0.030400  0.583320  1.0  -0.3641
  N  N553  1  0.788500  0.549900  0.935230  1.0  -0.4985
  N  N554  1  0.199600  0.253300  0.228700  1.0  -0.3487
  N  N555  1  0.724200  0.470800  0.728200  1.0  -0.366
  N  N556  1  0.347000  0.268000  0.440680  1.0  -0.5111
  N  N557  1  0.761600  0.677600  0.436790  1.0  -0.5287
  N  N558  1  0.220100  0.186900  0.078720  1.0  -0.346
  N  N559  1  0.377400  0.962900  0.941180  1.0  -0.4965
  N  N560  1  0.060800  0.884200  0.587790  1.0  -0.3231
  N  N561  1  0.586800  0.842200  0.092590  1.0  -0.3488
  N  N562  1  0.373700  0.011100  0.026780  1.0  -0.5016
  N  N563  1  0.851900  0.710200  0.527190  1.0  -0.5115
  N  N564  1  0.704200  0.530400  0.583320  1.0  -0.3641
  N  N565  1  0.288500  0.049900  0.935230  1.0  -0.4985
  N  N566  1  0.699600  0.753300  0.228700  1.0  -0.3487
  N  N567  1  0.224200  0.970800  0.728200  1.0  -0.366
  N  N568  1  0.847000  0.768000  0.440680  1.0  -0.5111
  N  N569  1  0.738400  0.177600  0.063210  1.0  -0.5266
  N  N570  1  0.279900  0.686900  0.421280  1.0  -0.345
  N  N571  1  0.122600  0.462900  0.558820  1.0  -0.4976
  N  N572  1  0.439200  0.384200  0.912210  1.0  -0.322
  N  N573  1  0.913200  0.342200  0.407410  1.0  -0.3516
  N  N574  1  0.126300  0.511100  0.473220  1.0  -0.5018
  N  N575  1  0.648100  0.210200  0.972810  1.0  -0.5099
  N  N576  1  0.795800  0.030400  0.916680  1.0  -0.3648
  N  N577  1  0.211500  0.549900  0.564770  1.0  -0.4989
  N  N578  1  0.800400  0.253300  0.271300  1.0  -0.3452
  N  N579  1  0.275800  0.470800  0.771800  1.0  -0.3651
  N  N580  1  0.653000  0.268000  0.059320  1.0  -0.515
  N  N581  1  0.238400  0.677600  0.063210  1.0  -0.5266
  N  N582  1  0.779900  0.186900  0.421280  1.0  -0.345
  N  N583  1  0.622600  0.962900  0.558820  1.0  -0.4976
  N  N584  1  0.939200  0.884200  0.912210  1.0  -0.322
  N  N585  1  0.413200  0.842200  0.407410  1.0  -0.3516
  N  N586  1  0.626300  0.011100  0.473220  1.0  -0.5018
  N  N587  1  0.148100  0.710200  0.972810  1.0  -0.5099
  N  N588  1  0.295800  0.530400  0.916680  1.0  -0.3648
  N  N589  1  0.711500  0.049900  0.564770  1.0  -0.4989
  N  N590  1  0.300400  0.753300  0.271300  1.0  -0.3452
  N  N591  1  0.775800  0.970800  0.771800  1.0  -0.3651
  N  N592  1  0.153000  0.768000  0.059320  1.0  -0.515
