# generated using pymatgen
data_AgH12(C3N)6
_symmetry_space_group_name_H-M   'P 1'
_cell_length_a   22.07800000
_cell_length_b   16.38170000
_cell_length_c   25.63110000
_cell_angle_alpha   90.00000000
_cell_angle_beta   115.33400000
_cell_angle_gamma   90.00000000
_symmetry_Int_Tables_number   1
_chemical_formula_structural   AgH12(C3N)6
_chemical_formula_sum   'Ag16 H192 C288 N96'
_cell_volume   8378.61266690
_cell_formula_units_Z   16
loop_
 _symmetry_equiv_pos_site_id
 _symmetry_equiv_pos_as_xyz
  1  'x, y, z'
loop_
 _atom_site_type_symbol
 _atom_site_label
 _atom_site_symmetry_multiplicity
 _atom_site_fract_x
 _atom_site_fract_y
 _atom_site_fract_z
 _atom_site_occupancy
 _atom_site_charge
  Ag  Ag1  1  0.344120  0.542250  0.367930  1.0  0.3386
  Ag  Ag2  1  0.322880  0.247920  0.867280  1.0  0.2851
  Ag  Ag3  1  0.844120  0.042250  0.367930  1.0  0.3386
  Ag  Ag4  1  0.822880  0.747920  0.867280  1.0  0.2851
  Ag  Ag5  1  0.655880  0.542250  0.132070  1.0  0.3388
  Ag  Ag6  1  0.677120  0.247920  0.632720  1.0  0.2848
  Ag  Ag7  1  0.155880  0.042250  0.132070  1.0  0.3388
  Ag  Ag8  1  0.177120  0.747920  0.632720  1.0  0.2848
  Ag  Ag9  1  0.655880  0.457750  0.632070  1.0  0.3388
  Ag  Ag10  1  0.677120  0.752080  0.132720  1.0  0.2849
  Ag  Ag11  1  0.155880  0.957750  0.632070  1.0  0.3388
  Ag  Ag12  1  0.177120  0.252080  0.132720  1.0  0.2849
  Ag  Ag13  1  0.344120  0.457750  0.867930  1.0  0.3386
  Ag  Ag14  1  0.322880  0.752080  0.367280  1.0  0.2852
  Ag  Ag15  1  0.844120  0.957750  0.867930  1.0  0.3386
  Ag  Ag16  1  0.822880  0.252080  0.367280  1.0  0.2852
  H  H17  1  0.212800  0.442500  0.348800  1.0  0.0797
  H  H18  1  0.054800  0.208000  0.389800  1.0  0.1272
  H  H19  1  0.699600  0.843000  0.852100  1.0  0.0855
  H  H20  1  0.799500  0.865700  0.049600  1.0  0.1273
  H  H21  1  0.423900  0.184400  0.985200  1.0  0.074
  H  H22  1  0.043700  0.168600  0.539900  1.0  0.1276
  H  H23  1  0.320400  0.411400  0.544800  1.0  0.123
  H  H24  1  0.523400  0.118300  0.036500  1.0  0.1303
  H  H25  1  0.944700  0.102600  0.490100  1.0  0.0779
  H  H26  1  0.634900  0.062900  0.161000  1.0  0.1221
  H  H27  1  0.368000  0.482900  0.494400  1.0  0.0761
  H  H28  1  0.851600  0.978100  0.263600  1.0  0.0792
  H  H29  1  0.162000  0.367000  0.393800  1.0  0.1216
  H  H30  1  0.956200  0.137200  0.344400  1.0  0.0833
  H  H31  1  0.849500  0.796300  0.000300  1.0  0.0784
  H  H32  1  0.689100  0.077200  0.260000  1.0  0.0807
  H  H33  1  0.323700  0.335100  0.668400  1.0  0.1263
  H  H34  1  0.521000  0.044300  0.886100  1.0  0.1268
  H  H35  1  0.423500  0.117300  0.839200  1.0  0.0835
  H  H36  1  0.226900  0.169700  0.755200  1.0  0.0754
  H  H37  1  0.176900  0.180600  0.656100  1.0  0.1235
  H  H38  1  0.367700  0.320600  0.766900  1.0  0.0761
  H  H39  1  0.644200  0.913700  0.896400  1.0  0.1242
  H  H40  1  0.802400  0.959200  0.165300  1.0  0.1196
  H  H41  1  0.712800  0.942500  0.348800  1.0  0.0797
  H  H42  1  0.554800  0.708000  0.389800  1.0  0.1272
  H  H43  1  0.199600  0.343000  0.852100  1.0  0.0855
  H  H44  1  0.299500  0.365700  0.049600  1.0  0.1273
  H  H45  1  0.923900  0.684400  0.985200  1.0  0.0738
  H  H46  1  0.543700  0.668600  0.539900  1.0  0.1276
  H  H47  1  0.820400  0.911400  0.544800  1.0  0.123
  H  H48  1  0.023400  0.618300  0.036500  1.0  0.1303
  H  H49  1  0.444700  0.602600  0.490100  1.0  0.0779
  H  H50  1  0.134900  0.562900  0.161000  1.0  0.1221
  H  H51  1  0.868000  0.982900  0.494400  1.0  0.0761
  H  H52  1  0.351600  0.478100  0.263600  1.0  0.0792
  H  H53  1  0.662000  0.867000  0.393800  1.0  0.1216
  H  H54  1  0.456200  0.637200  0.344400  1.0  0.0833
  H  H55  1  0.349500  0.296300  0.000300  1.0  0.0784
  H  H56  1  0.189100  0.577200  0.260000  1.0  0.0807
  H  H57  1  0.823700  0.835100  0.668400  1.0  0.1263
  H  H58  1  0.021000  0.544300  0.886100  1.0  0.1268
  H  H59  1  0.923500  0.617300  0.839200  1.0  0.0835
  H  H60  1  0.726900  0.669700  0.755200  1.0  0.0754
  H  H61  1  0.676900  0.680600  0.656100  1.0  0.1235
  H  H62  1  0.867700  0.820600  0.766900  1.0  0.0761
  H  H63  1  0.144200  0.413700  0.896400  1.0  0.1242
  H  H64  1  0.302400  0.459200  0.165300  1.0  0.1196
  H  H65  1  0.787200  0.442500  0.151200  1.0  0.0784
  H  H66  1  0.945200  0.208000  0.110200  1.0  0.1266
  H  H67  1  0.300400  0.843000  0.647900  1.0  0.0844
  H  H68  1  0.200500  0.865700  0.450400  1.0  0.1266
  H  H69  1  0.576100  0.184400  0.514800  1.0  0.0746
  H  H70  1  0.956300  0.168600  0.960100  1.0  0.1273
  H  H71  1  0.679600  0.411400  0.955200  1.0  0.1235
  H  H72  1  0.476600  0.118300  0.463500  1.0  0.1308
  H  H73  1  0.055300  0.102600  0.009900  1.0  0.0778
  H  H74  1  0.365100  0.062900  0.339000  1.0  0.1213
  H  H75  1  0.632000  0.482900  0.005600  1.0  0.076
  H  H76  1  0.148400  0.978100  0.236400  1.0  0.0779
  H  H77  1  0.838000  0.367000  0.106200  1.0  0.1212
  H  H78  1  0.043800  0.137200  0.155600  1.0  0.0835
  H  H79  1  0.150500  0.796300  0.499700  1.0  0.0776
  H  H80  1  0.310900  0.077200  0.240000  1.0  0.0803
  H  H81  1  0.676300  0.335100  0.831600  1.0  0.1263
  H  H82  1  0.479000  0.044300  0.613900  1.0  0.1264
  H  H83  1  0.576500  0.117300  0.660800  1.0  0.084
  H  H84  1  0.773100  0.169700  0.744800  1.0  0.0743
  H  H85  1  0.823100  0.180600  0.843900  1.0  0.1239
  H  H86  1  0.632300  0.320600  0.733100  1.0  0.0772
  H  H87  1  0.355800  0.913700  0.603600  1.0  0.125
  H  H88  1  0.197600  0.959200  0.334700  1.0  0.1202
  H  H89  1  0.287200  0.942500  0.151200  1.0  0.0784
  H  H90  1  0.445200  0.708000  0.110200  1.0  0.1266
  H  H91  1  0.800400  0.343000  0.647900  1.0  0.0844
  H  H92  1  0.700500  0.365700  0.450400  1.0  0.1266
  H  H93  1  0.076100  0.684400  0.514800  1.0  0.0744
  H  H94  1  0.456300  0.668600  0.960100  1.0  0.1273
  H  H95  1  0.179600  0.911400  0.955200  1.0  0.1235
  H  H96  1  0.976600  0.618300  0.463500  1.0  0.1308
  H  H97  1  0.555300  0.602600  0.009900  1.0  0.0778
  H  H98  1  0.865100  0.562900  0.339000  1.0  0.1213
  H  H99  1  0.132000  0.982900  0.005600  1.0  0.076
  H  H100  1  0.648400  0.478100  0.236400  1.0  0.0779
  H  H101  1  0.338000  0.867000  0.106200  1.0  0.1212
  H  H102  1  0.543800  0.637200  0.155600  1.0  0.0835
  H  H103  1  0.650500  0.296300  0.499700  1.0  0.0776
  H  H104  1  0.810900  0.577200  0.240000  1.0  0.0802
  H  H105  1  0.176300  0.835100  0.831600  1.0  0.1263
  H  H106  1  0.979000  0.544300  0.613900  1.0  0.1264
  H  H107  1  0.076500  0.617300  0.660800  1.0  0.084
  H  H108  1  0.273100  0.669700  0.744800  1.0  0.0743
  H  H109  1  0.323100  0.680600  0.843900  1.0  0.1239
  H  H110  1  0.132300  0.820600  0.733100  1.0  0.0772
  H  H111  1  0.855800  0.413700  0.603600  1.0  0.125
  H  H112  1  0.697600  0.459200  0.334700  1.0  0.1202
  H  H113  1  0.787200  0.557500  0.651200  1.0  0.0785
  H  H114  1  0.945200  0.792000  0.610200  1.0  0.1265
  H  H115  1  0.300400  0.157000  0.147900  1.0  0.0848
  H  H116  1  0.200500  0.134300  0.950400  1.0  0.1268
  H  H117  1  0.576100  0.815600  0.014800  1.0  0.0741
  H  H118  1  0.956300  0.831400  0.460100  1.0  0.1273
  H  H119  1  0.679600  0.588600  0.455200  1.0  0.1232
  H  H120  1  0.476600  0.881700  0.963500  1.0  0.1303
  H  H121  1  0.055300  0.897400  0.509900  1.0  0.0776
  H  H122  1  0.365100  0.937100  0.839000  1.0  0.1205
  H  H123  1  0.632000  0.517100  0.505600  1.0  0.076
  H  H124  1  0.148400  0.021900  0.736400  1.0  0.0777
  H  H125  1  0.838000  0.633000  0.606200  1.0  0.1211
  H  H126  1  0.043800  0.862800  0.655600  1.0  0.0835
  H  H127  1  0.150500  0.203700  0.999700  1.0  0.0772
  H  H128  1  0.310900  0.922800  0.740000  1.0  0.0805
  H  H129  1  0.676300  0.664900  0.331600  1.0  0.1261
  H  H130  1  0.479000  0.955700  0.113900  1.0  0.1264
  H  H131  1  0.576500  0.882700  0.160800  1.0  0.084
  H  H132  1  0.773100  0.830300  0.244800  1.0  0.0739
  H  H133  1  0.823100  0.819400  0.343900  1.0  0.1239
  H  H134  1  0.632300  0.679400  0.233100  1.0  0.0767
  H  H135  1  0.355800  0.086300  0.103600  1.0  0.1249
  H  H136  1  0.197600  0.040800  0.834700  1.0  0.1201
  H  H137  1  0.287200  0.057500  0.651200  1.0  0.0785
  H  H138  1  0.445200  0.292000  0.610200  1.0  0.1265
  H  H139  1  0.800400  0.657000  0.147900  1.0  0.0848
  H  H140  1  0.700500  0.634300  0.950400  1.0  0.1268
  H  H141  1  0.076100  0.315600  0.014800  1.0  0.0739
  H  H142  1  0.456300  0.331400  0.460100  1.0  0.1273
  H  H143  1  0.179600  0.088600  0.455200  1.0  0.1232
  H  H144  1  0.976600  0.381700  0.963500  1.0  0.1303
  H  H145  1  0.555300  0.397400  0.509900  1.0  0.0776
  H  H146  1  0.865100  0.437100  0.839000  1.0  0.1205
  H  H147  1  0.132000  0.017100  0.505600  1.0  0.076
  H  H148  1  0.648400  0.521900  0.736400  1.0  0.0777
  H  H149  1  0.338000  0.133000  0.606200  1.0  0.1211
  H  H150  1  0.543800  0.362800  0.655600  1.0  0.0835
  H  H151  1  0.650500  0.703700  0.999700  1.0  0.0772
  H  H152  1  0.810900  0.422800  0.740000  1.0  0.0807
  H  H153  1  0.176300  0.164900  0.331600  1.0  0.1261
  H  H154  1  0.979000  0.455700  0.113900  1.0  0.1264
  H  H155  1  0.076500  0.382700  0.160800  1.0  0.084
  H  H156  1  0.273100  0.330300  0.244800  1.0  0.0739
  H  H157  1  0.323100  0.319400  0.343900  1.0  0.1239
  H  H158  1  0.132300  0.179400  0.233100  1.0  0.0767
  H  H159  1  0.855800  0.586300  0.103600  1.0  0.1249
  H  H160  1  0.697600  0.540800  0.834700  1.0  0.1201
  H  H161  1  0.212800  0.557500  0.848800  1.0  0.0799
  H  H162  1  0.054800  0.792000  0.889800  1.0  0.1274
  H  H163  1  0.699600  0.157000  0.352100  1.0  0.0856
  H  H164  1  0.799500  0.134300  0.549600  1.0  0.1271
  H  H165  1  0.423900  0.815600  0.485200  1.0  0.0739
  H  H166  1  0.043700  0.831400  0.039900  1.0  0.1276
  H  H167  1  0.320400  0.588600  0.044800  1.0  0.123
  H  H168  1  0.523400  0.881700  0.536500  1.0  0.1305
  H  H169  1  0.944700  0.897400  0.990100  1.0  0.0775
  H  H170  1  0.634900  0.937100  0.661000  1.0  0.1221
  H  H171  1  0.368000  0.517100  0.994400  1.0  0.0763
  H  H172  1  0.851600  0.021900  0.763600  1.0  0.0797
  H  H173  1  0.162000  0.633000  0.893800  1.0  0.1216
  H  H174  1  0.956200  0.862800  0.844400  1.0  0.0833
  H  H175  1  0.849500  0.203700  0.500300  1.0  0.0784
  H  H176  1  0.689100  0.922800  0.760000  1.0  0.0812
  H  H177  1  0.323700  0.664900  0.168400  1.0  0.126
  H  H178  1  0.521000  0.955700  0.386100  1.0  0.127
  H  H179  1  0.423500  0.882700  0.339200  1.0  0.0835
  H  H180  1  0.226900  0.830300  0.255200  1.0  0.0748
  H  H181  1  0.176900  0.819400  0.156100  1.0  0.1234
  H  H182  1  0.367700  0.679400  0.266900  1.0  0.0755
  H  H183  1  0.644200  0.086300  0.396400  1.0  0.1241
  H  H184  1  0.802400  0.040800  0.665300  1.0  0.1197
  H  H185  1  0.712800  0.057500  0.848800  1.0  0.0799
  H  H186  1  0.554800  0.292000  0.889800  1.0  0.1274
  H  H187  1  0.199600  0.657000  0.352100  1.0  0.0856
  H  H188  1  0.299500  0.634300  0.549600  1.0  0.1271
  H  H189  1  0.923900  0.315600  0.485200  1.0  0.0737
  H  H190  1  0.543700  0.331400  0.039900  1.0  0.1276
  H  H191  1  0.820400  0.088600  0.044800  1.0  0.123
  H  H192  1  0.023400  0.381700  0.536500  1.0  0.1305
  H  H193  1  0.444700  0.397400  0.990100  1.0  0.0775
  H  H194  1  0.134900  0.437100  0.661000  1.0  0.1221
  H  H195  1  0.868000  0.017100  0.994400  1.0  0.0763
  H  H196  1  0.351600  0.521900  0.763600  1.0  0.0797
  H  H197  1  0.662000  0.133000  0.893800  1.0  0.1216
  H  H198  1  0.456200  0.362800  0.844400  1.0  0.0833
  H  H199  1  0.349500  0.703700  0.500300  1.0  0.0784
  H  H200  1  0.189100  0.422800  0.760000  1.0  0.0811
  H  H201  1  0.823700  0.164900  0.168400  1.0  0.126
  H  H202  1  0.021000  0.455700  0.386100  1.0  0.127
  H  H203  1  0.923500  0.382700  0.339200  1.0  0.0835
  H  H204  1  0.726900  0.330300  0.255200  1.0  0.0748
  H  H205  1  0.676900  0.319400  0.156100  1.0  0.1234
  H  H206  1  0.867700  0.179400  0.266900  1.0  0.0755
  H  H207  1  0.144200  0.586300  0.396400  1.0  0.1241
  H  H208  1  0.302400  0.540800  0.665300  1.0  0.1197
  C  C209  1  0.124100  0.243000  0.502480  1.0  0.3707
  C  C210  1  0.235100  0.435300  0.388600  1.0  0.1687
  C  C211  1  0.033100  0.187300  0.411000  1.0  -0.1407
  C  C212  1  0.719800  0.847900  0.892100  1.0  0.1675
  C  C213  1  0.060000  0.198000  0.470240  1.0  -0.0597
  C  C214  1  0.597800  0.030200  0.001070  1.0  0.394
  C  C215  1  0.778400  0.862100  0.009600  1.0  -0.1617
  C  C216  1  0.444000  0.156800  0.965100  1.0  0.1676
  C  C217  1  0.026300  0.164200  0.500000  1.0  -0.1748
  C  C218  1  0.298000  0.415700  0.504900  1.0  -0.1463
  C  C219  1  0.503500  0.116700  0.996300  1.0  -0.1527
  C  C220  1  0.243500  0.262500  0.651380  1.0  -0.0648
  C  C221  1  0.209700  0.273000  0.587660  1.0  0.3848
  C  C222  1  0.533200  0.073900  0.966890  1.0  -0.0988
  C  C223  1  0.205400  0.327600  0.505210  1.0  0.3851
  C  C224  1  0.967000  0.124400  0.469600  1.0  0.1707
  C  C225  1  0.682500  0.948100  0.006980  1.0  0.3758
  C  C226  1  0.678800  0.044700  0.181000  1.0  -0.1226
  C  C227  1  0.715800  0.898600  0.978000  1.0  -0.07
  C  C228  1  0.680200  0.998100  0.088380  1.0  0.3842
  C  C229  1  0.326000  0.459400  0.474100  1.0  0.1702
  C  C230  1  0.807500  0.994900  0.242800  1.0  0.1685
  C  C231  1  0.236000  0.378700  0.474800  1.0  -0.0958
  C  C232  1  0.204000  0.389900  0.415300  1.0  -0.1561
  C  C233  1  0.973400  0.145100  0.384100  1.0  0.1728
  C  C234  1  0.712300  0.008100  0.151800  1.0  -0.0913
  C  C235  1  0.808000  0.820600  0.979400  1.0  0.1778
  C  C236  1  0.712000  0.053500  0.240700  1.0  0.166
  C  C237  1  0.302200  0.302500  0.685000  1.0  -0.1656
  C  C238  1  0.502500  0.073200  0.907100  1.0  -0.1477
  C  C239  1  0.443500  0.116700  0.879300  1.0  0.1766
  C  C240  1  0.245700  0.204600  0.737500  1.0  0.178
  C  C241  1  0.215300  0.210600  0.677900  1.0  -0.1494
  C  C242  1  0.328400  0.292900  0.744400  1.0  0.1866
  C  C243  1  0.686000  0.890700  0.918400  1.0  -0.1322
  C  C244  1  0.778400  0.983200  0.183500  1.0  -0.1618
  C  C245  1  0.624100  0.743000  0.502480  1.0  0.3707
  C  C246  1  0.735100  0.935300  0.388600  1.0  0.1687
  C  C247  1  0.533100  0.687300  0.411000  1.0  -0.1407
  C  C248  1  0.219800  0.347900  0.892100  1.0  0.1675
  C  C249  1  0.560000  0.698000  0.470240  1.0  -0.0597
  C  C250  1  0.097800  0.530200  0.001070  1.0  0.394
  C  C251  1  0.278400  0.362100  0.009600  1.0  -0.1617
  C  C252  1  0.944000  0.656800  0.965100  1.0  0.1676
  C  C253  1  0.526300  0.664200  0.500000  1.0  -0.1748
  C  C254  1  0.798000  0.915700  0.504900  1.0  -0.1463
  C  C255  1  0.003500  0.616700  0.996300  1.0  -0.1527
  C  C256  1  0.743500  0.762500  0.651380  1.0  -0.0648
  C  C257  1  0.709700  0.773000  0.587660  1.0  0.3848
  C  C258  1  0.033200  0.573900  0.966890  1.0  -0.0988
  C  C259  1  0.705400  0.827600  0.505210  1.0  0.3851
  C  C260  1  0.467000  0.624400  0.469600  1.0  0.1707
  C  C261  1  0.182500  0.448100  0.006980  1.0  0.3758
  C  C262  1  0.178800  0.544700  0.181000  1.0  -0.1226
  C  C263  1  0.215800  0.398600  0.978000  1.0  -0.07
  C  C264  1  0.180200  0.498100  0.088380  1.0  0.3842
  C  C265  1  0.826000  0.959400  0.474100  1.0  0.1702
  C  C266  1  0.307500  0.494900  0.242800  1.0  0.1685
  C  C267  1  0.736000  0.878700  0.474800  1.0  -0.0958
  C  C268  1  0.704000  0.889900  0.415300  1.0  -0.1561
  C  C269  1  0.473400  0.645100  0.384100  1.0  0.1728
  C  C270  1  0.212300  0.508100  0.151800  1.0  -0.0913
  C  C271  1  0.308000  0.320600  0.979400  1.0  0.1778
  C  C272  1  0.212000  0.553500  0.240700  1.0  0.166
  C  C273  1  0.802200  0.802500  0.685000  1.0  -0.1656
  C  C274  1  0.002500  0.573200  0.907100  1.0  -0.1477
  C  C275  1  0.943500  0.616700  0.879300  1.0  0.1766
  C  C276  1  0.745700  0.704600  0.737500  1.0  0.178
  C  C277  1  0.715300  0.710600  0.677900  1.0  -0.1494
  C  C278  1  0.828400  0.792900  0.744400  1.0  0.1866
  C  C279  1  0.186000  0.390700  0.918400  1.0  -0.1322
  C  C280  1  0.278400  0.483200  0.183500  1.0  -0.1618
  C  C281  1  0.875900  0.243000  0.997520  1.0  0.3703
  C  C282  1  0.764900  0.435300  0.111400  1.0  0.1677
  C  C283  1  0.966900  0.187300  0.089000  1.0  -0.1433
  C  C284  1  0.280200  0.847900  0.607900  1.0  0.1679
  C  C285  1  0.940000  0.198000  0.029760  1.0  -0.0603
  C  C286  1  0.402200  0.030200  0.498930  1.0  0.393
  C  C287  1  0.221600  0.862100  0.490400  1.0  -0.1607
  C  C288  1  0.556000  0.156800  0.534900  1.0  0.1684
  C  C289  1  0.973700  0.164200  0.000000  1.0  -0.1737
  C  C290  1  0.702000  0.415700  0.995100  1.0  -0.1452
  C  C291  1  0.496500  0.116700  0.503700  1.0  -0.1534
  C  C292  1  0.756500  0.262500  0.848620  1.0  -0.0651
  C  C293  1  0.790300  0.273000  0.912340  1.0  0.3839
  C  C294  1  0.466800  0.073900  0.533110  1.0  -0.0992
  C  C295  1  0.794600  0.327600  0.994790  1.0  0.3849
  C  C296  1  0.033000  0.124400  0.030400  1.0  0.1698
  C  C297  1  0.317500  0.948100  0.493020  1.0  0.3762
  C  C298  1  0.321200  0.044700  0.319000  1.0  -0.123
  C  C299  1  0.284200  0.898600  0.522000  1.0  -0.0693
  C  C300  1  0.319800  0.998100  0.411620  1.0  0.3844
  C  C301  1  0.674000  0.459400  0.025900  1.0  0.1705
  C  C302  1  0.192500  0.994900  0.257200  1.0  0.1678
  C  C303  1  0.764000  0.378700  0.025200  1.0  -0.0951
  C  C304  1  0.796000  0.389900  0.084700  1.0  -0.1565
  C  C305  1  0.026600  0.145100  0.115900  1.0  0.1727
  C  C306  1  0.287700  0.008100  0.348200  1.0  -0.0909
  C  C307  1  0.192000  0.820600  0.520600  1.0  0.1785
  C  C308  1  0.288000  0.053500  0.259300  1.0  0.1677
  C  C309  1  0.697800  0.302500  0.815000  1.0  -0.1642
  C  C310  1  0.497500  0.073200  0.592900  1.0  -0.1493
  C  C311  1  0.556500  0.116700  0.620700  1.0  0.1756
  C  C312  1  0.754300  0.204600  0.762500  1.0  0.1778
  C  C313  1  0.784700  0.210600  0.822100  1.0  -0.1502
  C  C314  1  0.671600  0.292900  0.755600  1.0  0.1864
  C  C315  1  0.314000  0.890700  0.581600  1.0  -0.1309
  C  C316  1  0.221600  0.983200  0.316500  1.0  -0.1601
  C  C317  1  0.375900  0.743000  0.997520  1.0  0.3703
  C  C318  1  0.264900  0.935300  0.111400  1.0  0.1677
  C  C319  1  0.466900  0.687300  0.089000  1.0  -0.1433
  C  C320  1  0.780200  0.347900  0.607900  1.0  0.1679
  C  C321  1  0.440000  0.698000  0.029760  1.0  -0.0603
  C  C322  1  0.902200  0.530200  0.498930  1.0  0.393
  C  C323  1  0.721600  0.362100  0.490400  1.0  -0.1607
  C  C324  1  0.056000  0.656800  0.534900  1.0  0.1684
  C  C325  1  0.473700  0.664200  0.000000  1.0  -0.1737
  C  C326  1  0.202000  0.915700  0.995100  1.0  -0.1452
  C  C327  1  0.996500  0.616700  0.503700  1.0  -0.1534
  C  C328  1  0.256500  0.762500  0.848620  1.0  -0.0651
  C  C329  1  0.290300  0.773000  0.912340  1.0  0.3839
  C  C330  1  0.966800  0.573900  0.533110  1.0  -0.0992
  C  C331  1  0.294600  0.827600  0.994790  1.0  0.3849
  C  C332  1  0.533000  0.624400  0.030400  1.0  0.1698
  C  C333  1  0.817500  0.448100  0.493020  1.0  0.3762
  C  C334  1  0.821200  0.544700  0.319000  1.0  -0.123
  C  C335  1  0.784200  0.398600  0.522000  1.0  -0.0693
  C  C336  1  0.819800  0.498100  0.411620  1.0  0.3844
  C  C337  1  0.174000  0.959400  0.025900  1.0  0.1705
  C  C338  1  0.692500  0.494900  0.257200  1.0  0.1678
  C  C339  1  0.264000  0.878700  0.025200  1.0  -0.0951
  C  C340  1  0.296000  0.889900  0.084700  1.0  -0.1565
  C  C341  1  0.526600  0.645100  0.115900  1.0  0.1727
  C  C342  1  0.787700  0.508100  0.348200  1.0  -0.0909
  C  C343  1  0.692000  0.320600  0.520600  1.0  0.1785
  C  C344  1  0.788000  0.553500  0.259300  1.0  0.1677
  C  C345  1  0.197800  0.802500  0.815000  1.0  -0.1642
  C  C346  1  0.997500  0.573200  0.592900  1.0  -0.1493
  C  C347  1  0.056500  0.616700  0.620700  1.0  0.1756
  C  C348  1  0.254300  0.704600  0.762500  1.0  0.1778
  C  C349  1  0.284700  0.710600  0.822100  1.0  -0.1502
  C  C350  1  0.171600  0.792900  0.755600  1.0  0.1864
  C  C351  1  0.814000  0.390700  0.581600  1.0  -0.1309
  C  C352  1  0.721600  0.483200  0.316500  1.0  -0.1601
  C  C353  1  0.875900  0.757000  0.497520  1.0  0.3702
  C  C354  1  0.764900  0.564700  0.611400  1.0  0.1683
  C  C355  1  0.966900  0.812700  0.589000  1.0  -0.1439
  C  C356  1  0.280200  0.152100  0.107900  1.0  0.1668
  C  C357  1  0.940000  0.802000  0.529760  1.0  -0.0597
  C  C358  1  0.402200  0.969800  0.998930  1.0  0.3932
  C  C359  1  0.221600  0.137900  0.990400  1.0  -0.1612
  C  C360  1  0.556000  0.843200  0.034900  1.0  0.1685
  C  C361  1  0.973700  0.835800  0.500000  1.0  -0.1743
  C  C362  1  0.702000  0.584300  0.495100  1.0  -0.1449
  C  C363  1  0.496500  0.883300  0.003700  1.0  -0.1529
  C  C364  1  0.756500  0.737500  0.348620  1.0  -0.0652
  C  C365  1  0.790300  0.727000  0.412340  1.0  0.3835
  C  C366  1  0.466800  0.926100  0.033110  1.0  -0.0991
  C  C367  1  0.794600  0.672400  0.494790  1.0  0.385
  C  C368  1  0.033000  0.875600  0.530400  1.0  0.1701
  C  C369  1  0.317500  0.051900  0.993020  1.0  0.3761
  C  C370  1  0.321200  0.955300  0.819000  1.0  -0.1227
  C  C371  1  0.284200  0.101400  0.022000  1.0  -0.0686
  C  C372  1  0.319800  0.001900  0.911620  1.0  0.3845
  C  C373  1  0.674000  0.540600  0.525900  1.0  0.1712
  C  C374  1  0.192500  0.005100  0.757200  1.0  0.1677
  C  C375  1  0.764000  0.621300  0.525200  1.0  -0.0947
  C  C376  1  0.796000  0.610100  0.584700  1.0  -0.156
  C  C377  1  0.026600  0.854900  0.615900  1.0  0.1724
  C  C378  1  0.287700  0.991900  0.848200  1.0  -0.0915
  C  C379  1  0.192000  0.179400  0.020600  1.0  0.1778
  C  C380  1  0.288000  0.946500  0.759300  1.0  0.1676
  C  C381  1  0.697800  0.697500  0.315000  1.0  -0.1647
  C  C382  1  0.497500  0.926800  0.092900  1.0  -0.1486
  C  C383  1  0.556500  0.883300  0.120700  1.0  0.1756
  C  C384  1  0.754300  0.795400  0.262500  1.0  0.1776
  C  C385  1  0.784700  0.789400  0.322100  1.0  -0.1502
  C  C386  1  0.671600  0.707100  0.255600  1.0  0.186
  C  C387  1  0.314000  0.109300  0.081600  1.0  -0.1317
  C  C388  1  0.221600  0.016800  0.816500  1.0  -0.161
  C  C389  1  0.375900  0.257000  0.497520  1.0  0.3702
  C  C390  1  0.264900  0.064700  0.611400  1.0  0.1683
  C  C391  1  0.466900  0.312700  0.589000  1.0  -0.1439
  C  C392  1  0.780200  0.652100  0.107900  1.0  0.1668
  C  C393  1  0.440000  0.302000  0.529760  1.0  -0.0597
  C  C394  1  0.902200  0.469800  0.998930  1.0  0.3932
  C  C395  1  0.721600  0.637900  0.990400  1.0  -0.1612
  C  C396  1  0.056000  0.343200  0.034900  1.0  0.1685
  C  C397  1  0.473700  0.335800  0.500000  1.0  -0.1743
  C  C398  1  0.202000  0.084300  0.495100  1.0  -0.1449
  C  C399  1  0.996500  0.383300  0.003700  1.0  -0.1529
  C  C400  1  0.256500  0.237500  0.348620  1.0  -0.0652
  C  C401  1  0.290300  0.227000  0.412340  1.0  0.3835
  C  C402  1  0.966800  0.426100  0.033110  1.0  -0.0991
  C  C403  1  0.294600  0.172400  0.494790  1.0  0.385
  C  C404  1  0.533000  0.375600  0.530400  1.0  0.1701
  C  C405  1  0.817500  0.551900  0.993020  1.0  0.3761
  C  C406  1  0.821200  0.455300  0.819000  1.0  -0.1227
  C  C407  1  0.784200  0.601400  0.022000  1.0  -0.0686
  C  C408  1  0.819800  0.501900  0.911620  1.0  0.3845
  C  C409  1  0.174000  0.040600  0.525900  1.0  0.1712
  C  C410  1  0.692500  0.505100  0.757200  1.0  0.1677
  C  C411  1  0.264000  0.121300  0.525200  1.0  -0.0947
  C  C412  1  0.296000  0.110100  0.584700  1.0  -0.156
  C  C413  1  0.526600  0.354900  0.615900  1.0  0.1724
  C  C414  1  0.787700  0.491900  0.848200  1.0  -0.0915
  C  C415  1  0.692000  0.679400  0.020600  1.0  0.1778
  C  C416  1  0.788000  0.446500  0.759300  1.0  0.1676
  C  C417  1  0.197800  0.197500  0.315000  1.0  -0.1647
  C  C418  1  0.997500  0.426800  0.092900  1.0  -0.1486
  C  C419  1  0.056500  0.383300  0.120700  1.0  0.1756
  C  C420  1  0.254300  0.295400  0.262500  1.0  0.1776
  C  C421  1  0.284700  0.289400  0.322100  1.0  -0.1502
  C  C422  1  0.171600  0.207100  0.255600  1.0  0.186
  C  C423  1  0.814000  0.609300  0.081600  1.0  -0.1317
  C  C424  1  0.721600  0.516800  0.816500  1.0  -0.161
  C  C425  1  0.124100  0.757000  0.002480  1.0  0.3704
  C  C426  1  0.235100  0.564700  0.888600  1.0  0.1692
  C  C427  1  0.033100  0.812700  0.911000  1.0  -0.1411
  C  C428  1  0.719800  0.152100  0.392100  1.0  0.1674
  C  C429  1  0.060000  0.802000  0.970240  1.0  -0.0603
  C  C430  1  0.597800  0.969800  0.501070  1.0  0.3942
  C  C431  1  0.778400  0.137900  0.509600  1.0  -0.1616
  C  C432  1  0.444000  0.843200  0.465100  1.0  0.168
  C  C433  1  0.026300  0.835800  0.000000  1.0  -0.1749
  C  C434  1  0.298000  0.584300  0.004900  1.0  -0.1467
  C  C435  1  0.503500  0.883300  0.496300  1.0  -0.1522
  C  C436  1  0.243500  0.737500  0.151380  1.0  -0.0652
  C  C437  1  0.209700  0.727000  0.087660  1.0  0.3844
  C  C438  1  0.533200  0.926100  0.466890  1.0  -0.0981
  C  C439  1  0.205400  0.672400  0.005210  1.0  0.3852
  C  C440  1  0.967000  0.875600  0.969600  1.0  0.1692
  C  C441  1  0.682500  0.051900  0.506980  1.0  0.3757
  C  C442  1  0.678800  0.955300  0.681000  1.0  -0.1226
  C  C443  1  0.715800  0.101400  0.478000  1.0  -0.0695
  C  C444  1  0.680200  0.001900  0.588380  1.0  0.3842
  C  C445  1  0.326000  0.540600  0.974100  1.0  0.1706
  C  C446  1  0.807500  0.005100  0.742800  1.0  0.1686
  C  C447  1  0.236000  0.621300  0.974800  1.0  -0.0957
  C  C448  1  0.204000  0.610100  0.915300  1.0  -0.1563
  C  C449  1  0.973400  0.854900  0.884100  1.0  0.1731
  C  C450  1  0.712300  0.991900  0.651800  1.0  -0.0914
  C  C451  1  0.808000  0.179400  0.479400  1.0  0.1773
  C  C452  1  0.712000  0.946500  0.740700  1.0  0.1656
  C  C453  1  0.302200  0.697500  0.185000  1.0  -0.1661
  C  C454  1  0.502500  0.926800  0.407100  1.0  -0.1475
  C  C455  1  0.443500  0.883300  0.379300  1.0  0.1764
  C  C456  1  0.245700  0.795400  0.237500  1.0  0.1783
  C  C457  1  0.215300  0.789400  0.177900  1.0  -0.1493
  C  C458  1  0.328400  0.707100  0.244400  1.0  0.1862
  C  C459  1  0.686000  0.109300  0.418400  1.0  -0.1324
  C  C460  1  0.778400  0.016800  0.683500  1.0  -0.1623
  C  C461  1  0.624100  0.257000  0.002480  1.0  0.3704
  C  C462  1  0.735100  0.064700  0.888600  1.0  0.1692
  C  C463  1  0.533100  0.312700  0.911000  1.0  -0.1411
  C  C464  1  0.219800  0.652100  0.392100  1.0  0.1674
  C  C465  1  0.560000  0.302000  0.970240  1.0  -0.0603
  C  C466  1  0.097800  0.469800  0.501070  1.0  0.3942
  C  C467  1  0.278400  0.637900  0.509600  1.0  -0.1616
  C  C468  1  0.944000  0.343200  0.465100  1.0  0.168
  C  C469  1  0.526300  0.335800  0.000000  1.0  -0.1749
  C  C470  1  0.798000  0.084300  0.004900  1.0  -0.1467
  C  C471  1  0.003500  0.383300  0.496300  1.0  -0.1522
  C  C472  1  0.743500  0.237500  0.151380  1.0  -0.0652
  C  C473  1  0.709700  0.227000  0.087660  1.0  0.3844
  C  C474  1  0.033200  0.426100  0.466890  1.0  -0.0981
  C  C475  1  0.705400  0.172400  0.005210  1.0  0.3852
  C  C476  1  0.467000  0.375600  0.969600  1.0  0.1692
  C  C477  1  0.182500  0.551900  0.506980  1.0  0.3757
  C  C478  1  0.178800  0.455300  0.681000  1.0  -0.1226
  C  C479  1  0.215800  0.601400  0.478000  1.0  -0.0695
  C  C480  1  0.180200  0.501900  0.588380  1.0  0.3842
  C  C481  1  0.826000  0.040600  0.974100  1.0  0.1706
  C  C482  1  0.307500  0.505100  0.742800  1.0  0.1686
  C  C483  1  0.736000  0.121300  0.974800  1.0  -0.0957
  C  C484  1  0.704000  0.110100  0.915300  1.0  -0.1563
  C  C485  1  0.473400  0.354900  0.884100  1.0  0.1731
  C  C486  1  0.212300  0.491900  0.651800  1.0  -0.0914
  C  C487  1  0.308000  0.679400  0.479400  1.0  0.1773
  C  C488  1  0.212000  0.446500  0.740700  1.0  0.1656
  C  C489  1  0.802200  0.197500  0.185000  1.0  -0.1661
  C  C490  1  0.002500  0.426800  0.407100  1.0  -0.1475
  C  C491  1  0.943500  0.383300  0.379300  1.0  0.1764
  C  C492  1  0.745700  0.295400  0.237500  1.0  0.1783
  C  C493  1  0.715300  0.289400  0.177900  1.0  -0.1493
  C  C494  1  0.828400  0.207100  0.244400  1.0  0.1862
  C  C495  1  0.186000  0.609300  0.418400  1.0  -0.1324
  C  C496  1  0.278400  0.516800  0.683500  1.0  -0.1623
  N  N497  1  0.939180  0.115100  0.412170  1.0  -0.3277
  N  N498  1  0.295620  0.469600  0.416680  1.0  -0.3624
  N  N499  1  0.300800  0.246500  0.771240  1.0  -0.3386
  N  N500  1  0.148090  0.289200  0.472590  1.0  -0.5134
  N  N501  1  0.238270  0.322400  0.562910  1.0  -0.5458
  N  N502  1  0.153010  0.232000  0.559380  1.0  -0.5209
  N  N503  1  0.413430  0.158400  0.907250  1.0  -0.3416
  N  N504  1  0.780200  0.813200  0.921450  1.0  -0.3314
  N  N505  1  0.776000  0.029100  0.271820  1.0  -0.3575
  N  N506  1  0.626310  0.988500  0.972990  1.0  -0.5027
  N  N507  1  0.711210  0.950400  0.064580  1.0  -0.4963
  N  N508  1  0.622790  0.037400  0.058940  1.0  -0.5058
  N  N509  1  0.439180  0.615100  0.412170  1.0  -0.3277
  N  N510  1  0.795620  0.969600  0.416680  1.0  -0.3624
  N  N511  1  0.800800  0.746500  0.771240  1.0  -0.3386
  N  N512  1  0.648090  0.789200  0.472590  1.0  -0.5134
  N  N513  1  0.738270  0.822400  0.562910  1.0  -0.5458
  N  N514  1  0.653010  0.732000  0.559380  1.0  -0.5209
  N  N515  1  0.913430  0.658400  0.907250  1.0  -0.3416
  N  N516  1  0.280200  0.313200  0.921450  1.0  -0.3314
  N  N517  1  0.276000  0.529100  0.271820  1.0  -0.3575
  N  N518  1  0.126310  0.488500  0.972990  1.0  -0.5027
  N  N519  1  0.211210  0.450400  0.064580  1.0  -0.4963
  N  N520  1  0.122790  0.537400  0.058940  1.0  -0.5058
  N  N521  1  0.060820  0.115100  0.087830  1.0  -0.3253
  N  N522  1  0.704380  0.469600  0.083320  1.0  -0.3649
  N  N523  1  0.699200  0.246500  0.728760  1.0  -0.3427
  N  N524  1  0.851910  0.289200  0.027410  1.0  -0.5139
  N  N525  1  0.761730  0.322400  0.937090  1.0  -0.5459
  N  N526  1  0.846990  0.232000  0.940620  1.0  -0.5183
  N  N527  1  0.586570  0.158400  0.592750  1.0  -0.3404
  N  N528  1  0.219800  0.813200  0.578550  1.0  -0.3313
  N  N529  1  0.224000  0.029100  0.228180  1.0  -0.3577
  N  N530  1  0.373690  0.988500  0.527010  1.0  -0.5003
  N  N531  1  0.288790  0.950400  0.435420  1.0  -0.4984
  N  N532  1  0.377210  0.037400  0.441060  1.0  -0.5046
  N  N533  1  0.560820  0.615100  0.087830  1.0  -0.3253
  N  N534  1  0.204380  0.969600  0.083320  1.0  -0.3649
  N  N535  1  0.199200  0.746500  0.728760  1.0  -0.3427
  N  N536  1  0.351910  0.789200  0.027410  1.0  -0.5139
  N  N537  1  0.261730  0.822400  0.937090  1.0  -0.5459
  N  N538  1  0.346990  0.732000  0.940620  1.0  -0.5183
  N  N539  1  0.086570  0.658400  0.592750  1.0  -0.3404
  N  N540  1  0.719800  0.313200  0.578550  1.0  -0.3313
  N  N541  1  0.724000  0.529100  0.228180  1.0  -0.3577
  N  N542  1  0.873690  0.488500  0.527010  1.0  -0.5003
  N  N543  1  0.788790  0.450400  0.435420  1.0  -0.4984
  N  N544  1  0.877210  0.537400  0.441060  1.0  -0.5046
  N  N545  1  0.060820  0.884900  0.587830  1.0  -0.3256
  N  N546  1  0.704380  0.530400  0.583320  1.0  -0.3633
  N  N547  1  0.699200  0.753500  0.228760  1.0  -0.3422
  N  N548  1  0.851910  0.710800  0.527410  1.0  -0.5143
  N  N549  1  0.761730  0.677600  0.437090  1.0  -0.5469
  N  N550  1  0.846990  0.768000  0.440620  1.0  -0.5167
  N  N551  1  0.586570  0.841600  0.092750  1.0  -0.3385
  N  N552  1  0.219800  0.186800  0.078550  1.0  -0.3309
  N  N553  1  0.224000  0.970900  0.728180  1.0  -0.3582
  N  N554  1  0.373690  0.011500  0.027010  1.0  -0.5018
  N  N555  1  0.288790  0.049600  0.935420  1.0  -0.4968
  N  N556  1  0.377210  0.962600  0.941060  1.0  -0.5048
  N  N557  1  0.560820  0.384900  0.587830  1.0  -0.3256
  N  N558  1  0.204380  0.030400  0.583320  1.0  -0.3633
  N  N559  1  0.199200  0.253500  0.228760  1.0  -0.3422
  N  N560  1  0.351910  0.210800  0.527410  1.0  -0.5143
  N  N561  1  0.261730  0.177600  0.437090  1.0  -0.5469
  N  N562  1  0.346990  0.268000  0.440620  1.0  -0.5167
  N  N563  1  0.086570  0.341600  0.092750  1.0  -0.3385
  N  N564  1  0.719800  0.686800  0.078550  1.0  -0.3309
  N  N565  1  0.724000  0.470900  0.728180  1.0  -0.3582
  N  N566  1  0.873690  0.511500  0.027010  1.0  -0.5018
  N  N567  1  0.788790  0.549600  0.935420  1.0  -0.4968
  N  N568  1  0.877210  0.462600  0.941060  1.0  -0.5048
  N  N569  1  0.939180  0.884900  0.912170  1.0  -0.3248
  N  N570  1  0.295620  0.530400  0.916680  1.0  -0.3631
  N  N571  1  0.300800  0.753500  0.271240  1.0  -0.3393
  N  N572  1  0.148090  0.710800  0.972590  1.0  -0.5137
  N  N573  1  0.238270  0.677600  0.062910  1.0  -0.5458
  N  N574  1  0.153010  0.768000  0.059380  1.0  -0.5204
  N  N575  1  0.413430  0.841600  0.407250  1.0  -0.3425
  N  N576  1  0.780200  0.186800  0.421450  1.0  -0.329
  N  N577  1  0.776000  0.970900  0.771820  1.0  -0.3575
  N  N578  1  0.626310  0.011500  0.472990  1.0  -0.5027
  N  N579  1  0.711210  0.049600  0.564580  1.0  -0.4965
  N  N580  1  0.622790  0.962600  0.558940  1.0  -0.5055
  N  N581  1  0.439180  0.384900  0.912170  1.0  -0.3248
  N  N582  1  0.795620  0.030400  0.916680  1.0  -0.3631
  N  N583  1  0.800800  0.253500  0.271240  1.0  -0.3393
  N  N584  1  0.648090  0.210800  0.972590  1.0  -0.5137
  N  N585  1  0.738270  0.177600  0.062910  1.0  -0.5458
  N  N586  1  0.653010  0.268000  0.059380  1.0  -0.5204
  N  N587  1  0.913430  0.341600  0.407250  1.0  -0.3425
  N  N588  1  0.280200  0.686800  0.421450  1.0  -0.329
  N  N589  1  0.276000  0.470900  0.771820  1.0  -0.3575
  N  N590  1  0.126310  0.511500  0.472990  1.0  -0.5027
  N  N591  1  0.211210  0.549600  0.564580  1.0  -0.4965
  N  N592  1  0.122790  0.462600  0.558940  1.0  -0.5055
