# generated using pymatgen
data_AgH12(C3N)6
_symmetry_space_group_name_H-M   'P 1'
_cell_length_a   22.11620000
_cell_length_b   16.28310000
_cell_length_c   25.64330000
_cell_angle_alpha   90.00000000
_cell_angle_beta   115.36600000
_cell_angle_gamma   90.00000000
_symmetry_Int_Tables_number   1
_chemical_formula_structural   AgH12(C3N)6
_chemical_formula_sum   'Ag16 H192 C288 N96'
_cell_volume   8344.35493179
_cell_formula_units_Z   16
loop_
 _symmetry_equiv_pos_site_id
 _symmetry_equiv_pos_as_xyz
  1  'x, y, z'
loop_
 _atom_site_type_symbol
 _atom_site_label
 _atom_site_symmetry_multiplicity
 _atom_site_fract_x
 _atom_site_fract_y
 _atom_site_fract_z
 _atom_site_occupancy
 _atom_site_charge
  Ag  Ag1  1  0.343780  0.043130  0.367710  1.0  0.3325
  Ag  Ag2  1  0.822790  0.248290  0.867180  1.0  0.3008
  Ag  Ag3  1  0.843780  0.543130  0.367710  1.0  0.3325
  Ag  Ag4  1  0.322790  0.748290  0.867180  1.0  0.3008
  Ag  Ag5  1  0.656220  0.043130  0.132290  1.0  0.333
  Ag  Ag6  1  0.177210  0.248290  0.632820  1.0  0.3006
  Ag  Ag7  1  0.156220  0.543130  0.132290  1.0  0.333
  Ag  Ag8  1  0.677210  0.748290  0.632820  1.0  0.3006
  Ag  Ag9  1  0.656220  0.956870  0.632290  1.0  0.3332
  Ag  Ag10  1  0.177210  0.751710  0.132820  1.0  0.3008
  Ag  Ag11  1  0.156220  0.456870  0.632290  1.0  0.3332
  Ag  Ag12  1  0.677210  0.251710  0.132820  1.0  0.3008
  Ag  Ag13  1  0.343780  0.956870  0.867710  1.0  0.3325
  Ag  Ag14  1  0.822790  0.751710  0.367180  1.0  0.3009
  Ag  Ag15  1  0.843780  0.456870  0.867710  1.0  0.3325
  Ag  Ag16  1  0.322790  0.251710  0.367180  1.0  0.3009
  H  H17  1  0.713900  0.440500  0.348200  1.0  0.0834
  H  H18  1  0.199300  0.844400  0.852100  1.0  0.0918
  H  H19  1  0.555200  0.207100  0.389900  1.0  0.1241
  H  H20  1  0.298700  0.865400  0.049300  1.0  0.1245
  H  H21  1  0.820500  0.412300  0.544900  1.0  0.1188
  H  H22  1  0.022600  0.117100  0.036500  1.0  0.1243
  H  H23  1  0.923300  0.117700  0.839400  1.0  0.0783
  H  H24  1  0.542400  0.170000  0.540100  1.0  0.1265
  H  H25  1  0.352000  0.979300  0.263700  1.0  0.079
  H  H26  1  0.134600  0.061600  0.161300  1.0  0.1185
  H  H27  1  0.922900  0.184600  0.985000  1.0  0.0767
  H  H28  1  0.455500  0.138600  0.344400  1.0  0.0805
  H  H29  1  0.868500  0.483000  0.494200  1.0  0.0747
  H  H30  1  0.019900  0.044000  0.886000  1.0  0.1235
  H  H31  1  0.868300  0.319200  0.767900  1.0  0.0743
  H  H32  1  0.143900  0.913700  0.896600  1.0  0.1211
  H  H33  1  0.661600  0.368600  0.394300  1.0  0.1097
  H  H34  1  0.188800  0.077300  0.260300  1.0  0.0863
  H  H35  1  0.349400  0.795500  0.000000  1.0  0.0771
  H  H36  1  0.823200  0.336700  0.668800  1.0  0.1217
  H  H37  1  0.443700  0.103600  0.490000  1.0  0.0751
  H  H38  1  0.676500  0.181100  0.656100  1.0  0.1213
  H  H39  1  0.725400  0.170600  0.754900  1.0  0.0691
  H  H40  1  0.301900  0.959300  0.165200  1.0  0.1185
  H  H41  1  0.213900  0.940500  0.348200  1.0  0.0834
  H  H42  1  0.699300  0.344400  0.852100  1.0  0.0918
  H  H43  1  0.055200  0.707100  0.389900  1.0  0.1241
  H  H44  1  0.798700  0.365400  0.049300  1.0  0.1245
  H  H45  1  0.320500  0.912300  0.544900  1.0  0.1188
  H  H46  1  0.522600  0.617100  0.036500  1.0  0.1243
  H  H47  1  0.423300  0.617700  0.839400  1.0  0.0783
  H  H48  1  0.042400  0.670000  0.540100  1.0  0.1265
  H  H49  1  0.852000  0.479300  0.263700  1.0  0.079
  H  H50  1  0.634600  0.561600  0.161300  1.0  0.1185
  H  H51  1  0.422900  0.684600  0.985000  1.0  0.0766
  H  H52  1  0.955500  0.638600  0.344400  1.0  0.0805
  H  H53  1  0.368500  0.983000  0.494200  1.0  0.0747
  H  H54  1  0.519900  0.544000  0.886000  1.0  0.1235
  H  H55  1  0.368300  0.819200  0.767900  1.0  0.0743
  H  H56  1  0.643900  0.413700  0.896600  1.0  0.1211
  H  H57  1  0.161600  0.868600  0.394300  1.0  0.1097
  H  H58  1  0.688800  0.577300  0.260300  1.0  0.0861
  H  H59  1  0.849400  0.295500  0.000000  1.0  0.0771
  H  H60  1  0.323200  0.836700  0.668800  1.0  0.1217
  H  H61  1  0.943700  0.603600  0.490000  1.0  0.0751
  H  H62  1  0.176500  0.681100  0.656100  1.0  0.1213
  H  H63  1  0.225400  0.670600  0.754900  1.0  0.0691
  H  H64  1  0.801900  0.459300  0.165200  1.0  0.1185
  H  H65  1  0.286100  0.440500  0.151800  1.0  0.0821
  H  H66  1  0.800700  0.844400  0.647900  1.0  0.0905
  H  H67  1  0.444800  0.207100  0.110100  1.0  0.1236
  H  H68  1  0.701300  0.865400  0.450700  1.0  0.1244
  H  H69  1  0.179500  0.412300  0.955100  1.0  0.1196
  H  H70  1  0.977400  0.117100  0.463500  1.0  0.125
  H  H71  1  0.076700  0.117700  0.660600  1.0  0.0783
  H  H72  1  0.457600  0.170000  0.959900  1.0  0.1267
  H  H73  1  0.648000  0.979300  0.236300  1.0  0.0789
  H  H74  1  0.865400  0.061600  0.338700  1.0  0.1169
  H  H75  1  0.077100  0.184600  0.515000  1.0  0.0778
  H  H76  1  0.544500  0.138600  0.155600  1.0  0.0815
  H  H77  1  0.131500  0.483000  0.005800  1.0  0.0744
  H  H78  1  0.980100  0.044000  0.614000  1.0  0.1233
  H  H79  1  0.131700  0.319200  0.732100  1.0  0.0743
  H  H80  1  0.856100  0.913700  0.603400  1.0  0.1222
  H  H81  1  0.338400  0.368600  0.105700  1.0  0.1097
  H  H82  1  0.811200  0.077300  0.239700  1.0  0.0861
  H  H83  1  0.650600  0.795500  0.500000  1.0  0.0766
  H  H84  1  0.176800  0.336700  0.831200  1.0  0.1215
  H  H85  1  0.556300  0.103600  0.010000  1.0  0.0748
  H  H86  1  0.323500  0.181100  0.843900  1.0  0.1214
  H  H87  1  0.274600  0.170600  0.745100  1.0  0.0679
  H  H88  1  0.698100  0.959300  0.334800  1.0  0.1183
  H  H89  1  0.786100  0.940500  0.151800  1.0  0.0821
  H  H90  1  0.300700  0.344400  0.647900  1.0  0.0905
  H  H91  1  0.944800  0.707100  0.110100  1.0  0.1236
  H  H92  1  0.201300  0.365400  0.450700  1.0  0.1244
  H  H93  1  0.679500  0.912300  0.955100  1.0  0.1196
  H  H94  1  0.477400  0.617100  0.463500  1.0  0.125
  H  H95  1  0.576700  0.617700  0.660600  1.0  0.0783
  H  H96  1  0.957600  0.670000  0.959900  1.0  0.1267
  H  H97  1  0.148000  0.479300  0.236300  1.0  0.0789
  H  H98  1  0.365400  0.561600  0.338700  1.0  0.1169
  H  H99  1  0.577100  0.684600  0.515000  1.0  0.0778
  H  H100  1  0.044500  0.638600  0.155600  1.0  0.0815
  H  H101  1  0.631500  0.983000  0.005800  1.0  0.0744
  H  H102  1  0.480100  0.544000  0.614000  1.0  0.1233
  H  H103  1  0.631700  0.819200  0.732100  1.0  0.0743
  H  H104  1  0.356100  0.413700  0.603400  1.0  0.1222
  H  H105  1  0.838400  0.868600  0.105700  1.0  0.1097
  H  H106  1  0.311200  0.577300  0.239700  1.0  0.0859
  H  H107  1  0.150600  0.295500  0.500000  1.0  0.0766
  H  H108  1  0.676800  0.836700  0.831200  1.0  0.1215
  H  H109  1  0.056300  0.603600  0.010000  1.0  0.0748
  H  H110  1  0.823500  0.681100  0.843900  1.0  0.1214
  H  H111  1  0.774600  0.670600  0.745100  1.0  0.0679
  H  H112  1  0.198100  0.459300  0.334800  1.0  0.1183
  H  H113  1  0.286100  0.559500  0.651800  1.0  0.0823
  H  H114  1  0.800700  0.155600  0.147900  1.0  0.0908
  H  H115  1  0.444800  0.792900  0.610100  1.0  0.1235
  H  H116  1  0.701300  0.134600  0.950700  1.0  0.1245
  H  H117  1  0.179500  0.587700  0.455100  1.0  0.1193
  H  H118  1  0.977400  0.882900  0.963500  1.0  0.1247
  H  H119  1  0.076700  0.882300  0.160600  1.0  0.0783
  H  H120  1  0.457600  0.830000  0.459900  1.0  0.1269
  H  H121  1  0.648000  0.020700  0.736300  1.0  0.0785
  H  H122  1  0.865400  0.938400  0.838700  1.0  0.1164
  H  H123  1  0.077100  0.815400  0.015000  1.0  0.0775
  H  H124  1  0.544500  0.861400  0.655600  1.0  0.0814
  H  H125  1  0.131500  0.517000  0.505800  1.0  0.0745
  H  H126  1  0.980100  0.956000  0.114000  1.0  0.1231
  H  H127  1  0.131700  0.680800  0.232100  1.0  0.0749
  H  H128  1  0.856100  0.086300  0.103400  1.0  0.1222
  H  H129  1  0.338400  0.631400  0.605700  1.0  0.1096
  H  H130  1  0.811200  0.922700  0.739700  1.0  0.0862
  H  H131  1  0.650600  0.204500  0.000000  1.0  0.0766
  H  H132  1  0.176800  0.663300  0.331200  1.0  0.1212
  H  H133  1  0.556300  0.896400  0.510000  1.0  0.0746
  H  H134  1  0.323500  0.818900  0.343900  1.0  0.1216
  H  H135  1  0.274600  0.829400  0.245100  1.0  0.0676
  H  H136  1  0.698100  0.040700  0.834800  1.0  0.1181
  H  H137  1  0.786100  0.059500  0.651800  1.0  0.0823
  H  H138  1  0.300700  0.655600  0.147900  1.0  0.0908
  H  H139  1  0.944800  0.292900  0.610100  1.0  0.1235
  H  H140  1  0.201300  0.634600  0.950700  1.0  0.1245
  H  H141  1  0.679500  0.087700  0.455100  1.0  0.1193
  H  H142  1  0.477400  0.382900  0.963500  1.0  0.1247
  H  H143  1  0.576700  0.382300  0.160600  1.0  0.0783
  H  H144  1  0.957600  0.330000  0.459900  1.0  0.1269
  H  H145  1  0.148000  0.520700  0.736300  1.0  0.0785
  H  H146  1  0.365400  0.438400  0.838700  1.0  0.1164
  H  H147  1  0.577100  0.315400  0.015000  1.0  0.0775
  H  H148  1  0.044500  0.361400  0.655600  1.0  0.0814
  H  H149  1  0.631500  0.017000  0.505800  1.0  0.0745
  H  H150  1  0.480100  0.456000  0.114000  1.0  0.1231
  H  H151  1  0.631700  0.180800  0.232100  1.0  0.0749
  H  H152  1  0.356100  0.586300  0.103400  1.0  0.1222
  H  H153  1  0.838400  0.131400  0.605700  1.0  0.1096
  H  H154  1  0.311200  0.422700  0.739700  1.0  0.0862
  H  H155  1  0.150600  0.704500  0.000000  1.0  0.0766
  H  H156  1  0.676800  0.163300  0.331200  1.0  0.1212
  H  H157  1  0.056300  0.396400  0.510000  1.0  0.0746
  H  H158  1  0.823500  0.318900  0.343900  1.0  0.1216
  H  H159  1  0.774600  0.329400  0.245100  1.0  0.0676
  H  H160  1  0.198100  0.540700  0.834800  1.0  0.1181
  H  H161  1  0.713900  0.559500  0.848200  1.0  0.0835
  H  H162  1  0.199300  0.155600  0.352100  1.0  0.0921
  H  H163  1  0.555200  0.792900  0.889900  1.0  0.1243
  H  H164  1  0.298700  0.134600  0.549300  1.0  0.1244
  H  H165  1  0.820500  0.587700  0.044900  1.0  0.1189
  H  H166  1  0.022600  0.882900  0.536500  1.0  0.1245
  H  H167  1  0.923300  0.882300  0.339400  1.0  0.0783
  H  H168  1  0.542400  0.830000  0.040100  1.0  0.1266
  H  H169  1  0.352000  0.020700  0.763700  1.0  0.0793
  H  H170  1  0.134600  0.938400  0.661300  1.0  0.1184
  H  H171  1  0.922900  0.815400  0.485000  1.0  0.0766
  H  H172  1  0.455500  0.861400  0.844400  1.0  0.0807
  H  H173  1  0.868500  0.517000  0.994200  1.0  0.0749
  H  H174  1  0.019900  0.956000  0.386000  1.0  0.1237
  H  H175  1  0.868300  0.680800  0.267900  1.0  0.0747
  H  H176  1  0.143900  0.086300  0.396600  1.0  0.1212
  H  H177  1  0.661600  0.631400  0.894300  1.0  0.1098
  H  H178  1  0.188800  0.922700  0.760300  1.0  0.0866
  H  H179  1  0.349400  0.204500  0.500000  1.0  0.0771
  H  H180  1  0.823200  0.663300  0.168800  1.0  0.1213
  H  H181  1  0.443700  0.896400  0.990000  1.0  0.0747
  H  H182  1  0.676500  0.818900  0.156100  1.0  0.1212
  H  H183  1  0.725400  0.829400  0.254900  1.0  0.0689
  H  H184  1  0.301900  0.040700  0.665200  1.0  0.1183
  H  H185  1  0.213900  0.059500  0.848200  1.0  0.0835
  H  H186  1  0.699300  0.655600  0.352100  1.0  0.0921
  H  H187  1  0.055200  0.292900  0.889900  1.0  0.1243
  H  H188  1  0.798700  0.634600  0.549300  1.0  0.1244
  H  H189  1  0.320500  0.087700  0.044900  1.0  0.1189
  H  H190  1  0.522600  0.382900  0.536500  1.0  0.1245
  H  H191  1  0.423300  0.382300  0.339400  1.0  0.0783
  H  H192  1  0.042400  0.330000  0.040100  1.0  0.1266
  H  H193  1  0.852000  0.520700  0.763700  1.0  0.0793
  H  H194  1  0.634600  0.438400  0.661300  1.0  0.1184
  H  H195  1  0.422900  0.315400  0.485000  1.0  0.0766
  H  H196  1  0.955500  0.361400  0.844400  1.0  0.0807
  H  H197  1  0.368500  0.017000  0.994200  1.0  0.0749
  H  H198  1  0.519900  0.456000  0.386000  1.0  0.1237
  H  H199  1  0.368300  0.180800  0.267900  1.0  0.0747
  H  H200  1  0.643900  0.586300  0.396600  1.0  0.1212
  H  H201  1  0.161600  0.131400  0.894300  1.0  0.1098
  H  H202  1  0.688800  0.422700  0.760300  1.0  0.0866
  H  H203  1  0.849400  0.704500  0.500000  1.0  0.0771
  H  H204  1  0.323200  0.163300  0.168800  1.0  0.1213
  H  H205  1  0.943700  0.396400  0.990000  1.0  0.0747
  H  H206  1  0.176500  0.318900  0.156100  1.0  0.1212
  H  H207  1  0.225400  0.329400  0.254900  1.0  0.0689
  H  H208  1  0.801900  0.540700  0.665200  1.0  0.1183
  C  C209  1  0.735400  0.434700  0.388100  1.0  0.161
  C  C210  1  0.219400  0.848600  0.892100  1.0  0.1605
  C  C211  1  0.533100  0.187200  0.411000  1.0  -0.1483
  C  C212  1  0.623900  0.243100  0.502500  1.0  0.3938
  C  C213  1  0.097600  0.029800  0.001300  1.0  0.3639
  C  C214  1  0.277800  0.861800  0.009200  1.0  -0.1452
  C  C215  1  0.798300  0.416300  0.505000  1.0  -0.1333
  C  C216  1  0.559600  0.198400  0.470200  1.0  -0.0605
  C  C217  1  0.003100  0.116000  0.996400  1.0  -0.1329
  C  C218  1  0.943100  0.116700  0.879600  1.0  0.1725
  C  C219  1  0.709500  0.273600  0.587700  1.0  0.368
  C  C220  1  0.525300  0.165100  0.500200  1.0  -0.1638
  C  C221  1  0.307700  0.995500  0.243000  1.0  0.1569
  C  C222  1  0.742900  0.263000  0.651400  1.0  -0.0787
  C  C223  1  0.178700  0.044100  0.181400  1.0  -0.1053
  C  C224  1  0.943000  0.156900  0.964900  1.0  0.1735
  C  C225  1  0.473200  0.145900  0.384100  1.0  0.1692
  C  C226  1  0.212500  0.008200  0.152100  1.0  -0.1066
  C  C227  1  0.826400  0.459800  0.474000  1.0  0.1675
  C  C228  1  0.001700  0.073200  0.907100  1.0  -0.154
  C  C229  1  0.828400  0.292700  0.745100  1.0  0.1785
  C  C230  1  0.033100  0.073900  0.967100  1.0  -0.0746
  C  C231  1  0.215300  0.898400  0.977600  1.0  -0.0202
  C  C232  1  0.185800  0.890800  0.918500  1.0  -0.1387
  C  C233  1  0.704000  0.390400  0.415600  1.0  -0.1328
  C  C234  1  0.706100  0.327800  0.505300  1.0  0.3808
  C  C235  1  0.211600  0.053500  0.240900  1.0  0.1527
  C  C236  1  0.180100  0.997200  0.088200  1.0  0.3687
  C  C237  1  0.182500  0.948000  0.007100  1.0  0.357
  C  C238  1  0.735600  0.378500  0.474500  1.0  -0.0664
  C  C239  1  0.308000  0.819900  0.979100  1.0  0.1739
  C  C240  1  0.801900  0.303500  0.685300  1.0  -0.1577
  C  C241  1  0.466300  0.125300  0.469700  1.0  0.1705
  C  C242  1  0.714800  0.211300  0.677900  1.0  -0.1611
  C  C243  1  0.744600  0.205300  0.737400  1.0  0.1748
  C  C244  1  0.278000  0.983500  0.183500  1.0  -0.1357
  C  C245  1  0.235400  0.934700  0.388100  1.0  0.161
  C  C246  1  0.719400  0.348600  0.892100  1.0  0.1605
  C  C247  1  0.033100  0.687200  0.411000  1.0  -0.1483
  C  C248  1  0.123900  0.743100  0.502500  1.0  0.3938
  C  C249  1  0.597600  0.529800  0.001300  1.0  0.3639
  C  C250  1  0.777800  0.361800  0.009200  1.0  -0.1452
  C  C251  1  0.298300  0.916300  0.505000  1.0  -0.1333
  C  C252  1  0.059600  0.698400  0.470200  1.0  -0.0605
  C  C253  1  0.503100  0.616000  0.996400  1.0  -0.1329
  C  C254  1  0.443100  0.616700  0.879600  1.0  0.1725
  C  C255  1  0.209500  0.773600  0.587700  1.0  0.368
  C  C256  1  0.025300  0.665100  0.500200  1.0  -0.1638
  C  C257  1  0.807700  0.495500  0.243000  1.0  0.1569
  C  C258  1  0.242900  0.763000  0.651400  1.0  -0.0787
  C  C259  1  0.678700  0.544100  0.181400  1.0  -0.1053
  C  C260  1  0.443000  0.656900  0.964900  1.0  0.1735
  C  C261  1  0.973200  0.645900  0.384100  1.0  0.1692
  C  C262  1  0.712500  0.508200  0.152100  1.0  -0.1066
  C  C263  1  0.326400  0.959800  0.474000  1.0  0.1675
  C  C264  1  0.501700  0.573200  0.907100  1.0  -0.154
  C  C265  1  0.328400  0.792700  0.745100  1.0  0.1785
  C  C266  1  0.533100  0.573900  0.967100  1.0  -0.0746
  C  C267  1  0.715300  0.398400  0.977600  1.0  -0.0202
  C  C268  1  0.685800  0.390800  0.918500  1.0  -0.1387
  C  C269  1  0.204000  0.890400  0.415600  1.0  -0.1328
  C  C270  1  0.206100  0.827800  0.505300  1.0  0.3808
  C  C271  1  0.711600  0.553500  0.240900  1.0  0.1527
  C  C272  1  0.680100  0.497200  0.088200  1.0  0.3687
  C  C273  1  0.682500  0.448000  0.007100  1.0  0.357
  C  C274  1  0.235600  0.878500  0.474500  1.0  -0.0664
  C  C275  1  0.808000  0.319900  0.979100  1.0  0.1739
  C  C276  1  0.301900  0.803500  0.685300  1.0  -0.1577
  C  C277  1  0.966300  0.625300  0.469700  1.0  0.1705
  C  C278  1  0.214800  0.711300  0.677900  1.0  -0.1611
  C  C279  1  0.244600  0.705300  0.737400  1.0  0.1748
  C  C280  1  0.778000  0.483500  0.183500  1.0  -0.1357
  C  C281  1  0.264600  0.434700  0.111900  1.0  0.1597
  C  C282  1  0.780600  0.848600  0.607900  1.0  0.1611
  C  C283  1  0.466900  0.187200  0.089000  1.0  -0.15
  C  C284  1  0.376100  0.243100  0.997500  1.0  0.3933
  C  C285  1  0.902400  0.029800  0.498700  1.0  0.3633
  C  C286  1  0.722200  0.861800  0.490800  1.0  -0.1444
  C  C287  1  0.201700  0.416300  0.995000  1.0  -0.1339
  C  C288  1  0.440400  0.198400  0.029800  1.0  -0.0605
  C  C289  1  0.996900  0.116000  0.503600  1.0  -0.1331
  C  C290  1  0.056900  0.116700  0.620400  1.0  0.173
  C  C291  1  0.290500  0.273600  0.912300  1.0  0.3677
  C  C292  1  0.474700  0.165100  0.999800  1.0  -0.1646
  C  C293  1  0.692300  0.995500  0.257000  1.0  0.157
  C  C294  1  0.257100  0.263000  0.848600  1.0  -0.0782
  C  C295  1  0.821300  0.044100  0.318600  1.0  -0.1073
  C  C296  1  0.057000  0.156900  0.535100  1.0  0.1731
  C  C297  1  0.526800  0.145900  0.115900  1.0  0.1687
  C  C298  1  0.787500  0.008200  0.347900  1.0  -0.107
  C  C299  1  0.173600  0.459800  0.026000  1.0  0.1664
  C  C300  1  0.998300  0.073200  0.592900  1.0  -0.1586
  C  C301  1  0.171600  0.292700  0.754900  1.0  0.1774
  C  C302  1  0.966900  0.073900  0.532900  1.0  -0.0761
  C  C303  1  0.784700  0.898400  0.522400  1.0  -0.0182
  C  C304  1  0.814200  0.890800  0.581500  1.0  -0.1388
  C  C305  1  0.296000  0.390400  0.084400  1.0  -0.1326
  C  C306  1  0.293900  0.327800  0.994700  1.0  0.3808
  C  C307  1  0.788400  0.053500  0.259100  1.0  0.1538
  C  C308  1  0.819900  0.997200  0.411800  1.0  0.3682
  C  C309  1  0.817500  0.948000  0.492900  1.0  0.3577
  C  C310  1  0.264400  0.378500  0.025500  1.0  -0.066
  C  C311  1  0.692000  0.819900  0.520900  1.0  0.1742
  C  C312  1  0.198100  0.303500  0.814700  1.0  -0.1569
  C  C313  1  0.533700  0.125300  0.030300  1.0  0.1696
  C  C314  1  0.285200  0.211300  0.822100  1.0  -0.1615
  C  C315  1  0.255400  0.205300  0.762600  1.0  0.1747
  C  C316  1  0.722000  0.983500  0.316500  1.0  -0.1354
  C  C317  1  0.764600  0.934700  0.111900  1.0  0.1597
  C  C318  1  0.280600  0.348600  0.607900  1.0  0.1611
  C  C319  1  0.966900  0.687200  0.089000  1.0  -0.15
  C  C320  1  0.876100  0.743100  0.997500  1.0  0.3933
  C  C321  1  0.402400  0.529800  0.498700  1.0  0.3633
  C  C322  1  0.222200  0.361800  0.490800  1.0  -0.1444
  C  C323  1  0.701700  0.916300  0.995000  1.0  -0.1339
  C  C324  1  0.940400  0.698400  0.029800  1.0  -0.0605
  C  C325  1  0.496900  0.616000  0.503600  1.0  -0.1331
  C  C326  1  0.556900  0.616700  0.620400  1.0  0.173
  C  C327  1  0.790500  0.773600  0.912300  1.0  0.3677
  C  C328  1  0.974700  0.665100  0.999800  1.0  -0.1646
  C  C329  1  0.192300  0.495500  0.257000  1.0  0.157
  C  C330  1  0.757100  0.763000  0.848600  1.0  -0.0782
  C  C331  1  0.321300  0.544100  0.318600  1.0  -0.1073
  C  C332  1  0.557000  0.656900  0.535100  1.0  0.1731
  C  C333  1  0.026800  0.645900  0.115900  1.0  0.1687
  C  C334  1  0.287500  0.508200  0.347900  1.0  -0.107
  C  C335  1  0.673600  0.959800  0.026000  1.0  0.1664
  C  C336  1  0.498300  0.573200  0.592900  1.0  -0.1586
  C  C337  1  0.671600  0.792700  0.754900  1.0  0.1774
  C  C338  1  0.466900  0.573900  0.532900  1.0  -0.0761
  C  C339  1  0.284700  0.398400  0.522400  1.0  -0.0182
  C  C340  1  0.314200  0.390800  0.581500  1.0  -0.1388
  C  C341  1  0.796000  0.890400  0.084400  1.0  -0.1326
  C  C342  1  0.793900  0.827800  0.994700  1.0  0.3808
  C  C343  1  0.288400  0.553500  0.259100  1.0  0.1538
  C  C344  1  0.319900  0.497200  0.411800  1.0  0.3682
  C  C345  1  0.317500  0.448000  0.492900  1.0  0.3577
  C  C346  1  0.764400  0.878500  0.025500  1.0  -0.066
  C  C347  1  0.192000  0.319900  0.520900  1.0  0.1742
  C  C348  1  0.698100  0.803500  0.814700  1.0  -0.1569
  C  C349  1  0.033700  0.625300  0.030300  1.0  0.1696
  C  C350  1  0.785200  0.711300  0.822100  1.0  -0.1615
  C  C351  1  0.755400  0.705300  0.762600  1.0  0.1747
  C  C352  1  0.222000  0.483500  0.316500  1.0  -0.1354
  C  C353  1  0.264600  0.565300  0.611900  1.0  0.1601
  C  C354  1  0.780600  0.151400  0.107900  1.0  0.16
  C  C355  1  0.466900  0.812800  0.589000  1.0  -0.1505
  C  C356  1  0.376100  0.756900  0.497500  1.0  0.3934
  C  C357  1  0.902400  0.970200  0.998700  1.0  0.3632
  C  C358  1  0.722200  0.138200  0.990800  1.0  -0.1448
  C  C359  1  0.201700  0.583700  0.495000  1.0  -0.1336
  C  C360  1  0.440400  0.801600  0.529800  1.0  -0.0597
  C  C361  1  0.996900  0.884000  0.003600  1.0  -0.1324
  C  C362  1  0.056900  0.883300  0.120400  1.0  0.1729
  C  C363  1  0.290500  0.726400  0.412300  1.0  0.3674
  C  C364  1  0.474700  0.834900  0.499800  1.0  -0.1644
  C  C365  1  0.692300  0.004500  0.757000  1.0  0.1564
  C  C366  1  0.257100  0.737000  0.348600  1.0  -0.0781
  C  C367  1  0.821300  0.955900  0.818600  1.0  -0.1073
  C  C368  1  0.057000  0.843100  0.035100  1.0  0.1732
  C  C369  1  0.526800  0.854100  0.615900  1.0  0.1682
  C  C370  1  0.787500  0.991800  0.847900  1.0  -0.1072
  C  C371  1  0.173600  0.540200  0.526000  1.0  0.1673
  C  C372  1  0.998300  0.926800  0.092900  1.0  -0.1588
  C  C373  1  0.171600  0.707300  0.254900  1.0  0.1771
  C  C374  1  0.966900  0.926100  0.032900  1.0  -0.0759
  C  C375  1  0.784700  0.101600  0.022400  1.0  -0.0175
  C  C376  1  0.814200  0.109200  0.081500  1.0  -0.139
  C  C377  1  0.296000  0.609600  0.584400  1.0  -0.1316
  C  C378  1  0.293900  0.672200  0.494700  1.0  0.3807
  C  C379  1  0.788400  0.946500  0.759100  1.0  0.1536
  C  C380  1  0.819900  0.002800  0.911800  1.0  0.368
  C  C381  1  0.817500  0.052000  0.992900  1.0  0.3582
  C  C382  1  0.264400  0.621500  0.525500  1.0  -0.0655
  C  C383  1  0.692000  0.180100  0.020900  1.0  0.1735
  C  C384  1  0.198100  0.696500  0.314700  1.0  -0.1573
  C  C385  1  0.533700  0.874700  0.530300  1.0  0.1704
  C  C386  1  0.285200  0.788700  0.322100  1.0  -0.1617
  C  C387  1  0.255400  0.794700  0.262600  1.0  0.1746
  C  C388  1  0.722000  0.016500  0.816500  1.0  -0.1366
  C  C389  1  0.764600  0.065300  0.611900  1.0  0.1601
  C  C390  1  0.280600  0.651400  0.107900  1.0  0.16
  C  C391  1  0.966900  0.312800  0.589000  1.0  -0.1505
  C  C392  1  0.876100  0.256900  0.497500  1.0  0.3934
  C  C393  1  0.402400  0.470200  0.998700  1.0  0.3632
  C  C394  1  0.222200  0.638200  0.990800  1.0  -0.1448
  C  C395  1  0.701700  0.083700  0.495000  1.0  -0.1336
  C  C396  1  0.940400  0.301600  0.529800  1.0  -0.0597
  C  C397  1  0.496900  0.384000  0.003600  1.0  -0.1324
  C  C398  1  0.556900  0.383300  0.120400  1.0  0.1729
  C  C399  1  0.790500  0.226400  0.412300  1.0  0.3674
  C  C400  1  0.974700  0.334900  0.499800  1.0  -0.1644
  C  C401  1  0.192300  0.504500  0.757000  1.0  0.1564
  C  C402  1  0.757100  0.237000  0.348600  1.0  -0.0781
  C  C403  1  0.321300  0.455900  0.818600  1.0  -0.1073
  C  C404  1  0.557000  0.343100  0.035100  1.0  0.1732
  C  C405  1  0.026800  0.354100  0.615900  1.0  0.1682
  C  C406  1  0.287500  0.491800  0.847900  1.0  -0.1072
  C  C407  1  0.673600  0.040200  0.526000  1.0  0.1673
  C  C408  1  0.498300  0.426800  0.092900  1.0  -0.1588
  C  C409  1  0.671600  0.207300  0.254900  1.0  0.1771
  C  C410  1  0.466900  0.426100  0.032900  1.0  -0.0759
  C  C411  1  0.284700  0.601600  0.022400  1.0  -0.0175
  C  C412  1  0.314200  0.609200  0.081500  1.0  -0.139
  C  C413  1  0.796000  0.109600  0.584400  1.0  -0.1316
  C  C414  1  0.793900  0.172200  0.494700  1.0  0.3807
  C  C415  1  0.288400  0.446500  0.759100  1.0  0.1536
  C  C416  1  0.319900  0.502800  0.911800  1.0  0.368
  C  C417  1  0.317500  0.552000  0.992900  1.0  0.3582
  C  C418  1  0.764400  0.121500  0.525500  1.0  -0.0655
  C  C419  1  0.192000  0.680100  0.020900  1.0  0.1735
  C  C420  1  0.698100  0.196500  0.314700  1.0  -0.1573
  C  C421  1  0.033700  0.374700  0.530300  1.0  0.1704
  C  C422  1  0.785200  0.288700  0.322100  1.0  -0.1617
  C  C423  1  0.755400  0.294700  0.262600  1.0  0.1746
  C  C424  1  0.222000  0.516500  0.816500  1.0  -0.1366
  C  C425  1  0.735400  0.565300  0.888100  1.0  0.1614
  C  C426  1  0.219400  0.151400  0.392100  1.0  0.1608
  C  C427  1  0.533100  0.812800  0.911000  1.0  -0.1483
  C  C428  1  0.623900  0.756900  0.002500  1.0  0.3938
  C  C429  1  0.097600  0.970200  0.501300  1.0  0.3639
  C  C430  1  0.277800  0.138200  0.509200  1.0  -0.1446
  C  C431  1  0.798300  0.583700  0.005000  1.0  -0.1338
  C  C432  1  0.559600  0.801600  0.970200  1.0  -0.0607
  C  C433  1  0.003100  0.884000  0.496400  1.0  -0.1322
  C  C434  1  0.943100  0.883300  0.379600  1.0  0.1722
  C  C435  1  0.709500  0.726400  0.087700  1.0  0.3677
  C  C436  1  0.525300  0.834900  0.000200  1.0  -0.1632
  C  C437  1  0.307700  0.004500  0.743000  1.0  0.1566
  C  C438  1  0.742900  0.737000  0.151400  1.0  -0.079
  C  C439  1  0.178700  0.955900  0.681400  1.0  -0.1055
  C  C440  1  0.943000  0.843100  0.464900  1.0  0.1741
  C  C441  1  0.473200  0.854100  0.884100  1.0  0.1695
  C  C442  1  0.212500  0.991800  0.652100  1.0  -0.1066
  C  C443  1  0.826400  0.540200  0.974000  1.0  0.1681
  C  C444  1  0.001700  0.926800  0.407100  1.0  -0.1539
  C  C445  1  0.828400  0.707300  0.245100  1.0  0.1781
  C  C446  1  0.033100  0.926100  0.467100  1.0  -0.0741
  C  C447  1  0.215300  0.101600  0.477600  1.0  -0.0201
  C  C448  1  0.185800  0.109200  0.418500  1.0  -0.1386
  C  C449  1  0.704000  0.609600  0.915600  1.0  -0.1321
  C  C450  1  0.706100  0.672200  0.005300  1.0  0.3808
  C  C451  1  0.211600  0.946500  0.740900  1.0  0.1522
  C  C452  1  0.180100  0.002800  0.588200  1.0  0.3684
  C  C453  1  0.182500  0.052000  0.507100  1.0  0.3574
  C  C454  1  0.735600  0.621500  0.974500  1.0  -0.0663
  C  C455  1  0.308000  0.180100  0.479100  1.0  0.1738
  C  C456  1  0.801900  0.696500  0.185300  1.0  -0.1578
  C  C457  1  0.466300  0.874700  0.969700  1.0  0.1695
  C  C458  1  0.714800  0.788700  0.177900  1.0  -0.1613
  C  C459  1  0.744600  0.794700  0.237400  1.0  0.1751
  C  C460  1  0.278000  0.016500  0.683500  1.0  -0.1359
  C  C461  1  0.235400  0.065300  0.888100  1.0  0.1614
  C  C462  1  0.719400  0.651400  0.392100  1.0  0.1608
  C  C463  1  0.033100  0.312800  0.911000  1.0  -0.1483
  C  C464  1  0.123900  0.256900  0.002500  1.0  0.3938
  C  C465  1  0.597600  0.470200  0.501300  1.0  0.3639
  C  C466  1  0.777800  0.638200  0.509200  1.0  -0.1446
  C  C467  1  0.298300  0.083700  0.005000  1.0  -0.1338
  C  C468  1  0.059600  0.301600  0.970200  1.0  -0.0607
  C  C469  1  0.503100  0.384000  0.496400  1.0  -0.1322
  C  C470  1  0.443100  0.383300  0.379600  1.0  0.1722
  C  C471  1  0.209500  0.226400  0.087700  1.0  0.3677
  C  C472  1  0.025300  0.334900  0.000200  1.0  -0.1632
  C  C473  1  0.807700  0.504500  0.743000  1.0  0.1566
  C  C474  1  0.242900  0.237000  0.151400  1.0  -0.079
  C  C475  1  0.678700  0.455900  0.681400  1.0  -0.1055
  C  C476  1  0.443000  0.343100  0.464900  1.0  0.1741
  C  C477  1  0.973200  0.354100  0.884100  1.0  0.1695
  C  C478  1  0.712500  0.491800  0.652100  1.0  -0.1066
  C  C479  1  0.326400  0.040200  0.974000  1.0  0.1681
  C  C480  1  0.501700  0.426800  0.407100  1.0  -0.1539
  C  C481  1  0.328400  0.207300  0.245100  1.0  0.1781
  C  C482  1  0.533100  0.426100  0.467100  1.0  -0.0741
  C  C483  1  0.715300  0.601600  0.477600  1.0  -0.0201
  C  C484  1  0.685800  0.609200  0.418500  1.0  -0.1386
  C  C485  1  0.204000  0.109600  0.915600  1.0  -0.1321
  C  C486  1  0.206100  0.172200  0.005300  1.0  0.3808
  C  C487  1  0.711600  0.446500  0.740900  1.0  0.1522
  C  C488  1  0.680100  0.502800  0.588200  1.0  0.3684
  C  C489  1  0.682500  0.552000  0.507100  1.0  0.3574
  C  C490  1  0.235600  0.121500  0.974500  1.0  -0.0663
  C  C491  1  0.808000  0.680100  0.479100  1.0  0.1738
  C  C492  1  0.301900  0.196500  0.185300  1.0  -0.1578
  C  C493  1  0.966300  0.374700  0.969700  1.0  0.1695
  C  C494  1  0.214800  0.288700  0.177900  1.0  -0.1613
  C  C495  1  0.244600  0.294700  0.237400  1.0  0.1751
  C  C496  1  0.778000  0.516500  0.683500  1.0  -0.1359
  N  N497  1  0.122600  0.037600  0.059200  1.0  -0.5046
  N  N498  1  0.280000  0.813300  0.921400  1.0  -0.3485
  N  N499  1  0.438900  0.115700  0.412200  1.0  -0.335
  N  N500  1  0.738400  0.322600  0.563100  1.0  -0.5419
  N  N501  1  0.912800  0.158200  0.907400  1.0  -0.3484
  N  N502  1  0.211200  0.950700  0.064800  1.0  -0.4837
  N  N503  1  0.795900  0.469700  0.416800  1.0  -0.3622
  N  N504  1  0.647900  0.289700  0.472600  1.0  -0.5231
  N  N505  1  0.800000  0.247100  0.771400  1.0  -0.339
  N  N506  1  0.126300  0.988900  0.973300  1.0  -0.5171
  N  N507  1  0.276000  0.029100  0.271800  1.0  -0.3586
  N  N508  1  0.653000  0.231700  0.559600  1.0  -0.4925
  N  N509  1  0.622600  0.537600  0.059200  1.0  -0.5046
  N  N510  1  0.780000  0.313300  0.921400  1.0  -0.3485
  N  N511  1  0.938900  0.615700  0.412200  1.0  -0.335
  N  N512  1  0.238400  0.822600  0.563100  1.0  -0.5419
  N  N513  1  0.412800  0.658200  0.907400  1.0  -0.3484
  N  N514  1  0.711200  0.450700  0.064800  1.0  -0.4837
  N  N515  1  0.295900  0.969700  0.416800  1.0  -0.3622
  N  N516  1  0.147900  0.789700  0.472600  1.0  -0.5231
  N  N517  1  0.300000  0.747100  0.771400  1.0  -0.339
  N  N518  1  0.626300  0.488900  0.973300  1.0  -0.5171
  N  N519  1  0.776000  0.529100  0.271800  1.0  -0.3586
  N  N520  1  0.153000  0.731700  0.559600  1.0  -0.4925
  N  N521  1  0.877400  0.037600  0.440800  1.0  -0.5017
  N  N522  1  0.720000  0.813300  0.578600  1.0  -0.3474
  N  N523  1  0.561100  0.115700  0.087800  1.0  -0.331
  N  N524  1  0.261600  0.322600  0.936900  1.0  -0.543
  N  N525  1  0.087200  0.158200  0.592600  1.0  -0.3475
  N  N526  1  0.788800  0.950700  0.435200  1.0  -0.4853
  N  N527  1  0.204100  0.469700  0.083200  1.0  -0.3644
  N  N528  1  0.352100  0.289700  0.027400  1.0  -0.5249
  N  N529  1  0.200000  0.247100  0.728600  1.0  -0.342
  N  N530  1  0.873700  0.988900  0.526700  1.0  -0.5158
  N  N531  1  0.724000  0.029100  0.228200  1.0  -0.3589
  N  N532  1  0.347000  0.231700  0.940400  1.0  -0.4924
  N  N533  1  0.377400  0.537600  0.440800  1.0  -0.5017
  N  N534  1  0.220000  0.313300  0.578600  1.0  -0.3474
  N  N535  1  0.061100  0.615700  0.087800  1.0  -0.331
  N  N536  1  0.761600  0.822600  0.936900  1.0  -0.543
  N  N537  1  0.587200  0.658200  0.592600  1.0  -0.3475
  N  N538  1  0.288800  0.450700  0.435200  1.0  -0.4853
  N  N539  1  0.704100  0.969700  0.083200  1.0  -0.3644
  N  N540  1  0.852100  0.789700  0.027400  1.0  -0.5249
  N  N541  1  0.700000  0.747100  0.728600  1.0  -0.342
  N  N542  1  0.373700  0.488900  0.526700  1.0  -0.5158
  N  N543  1  0.224000  0.529100  0.228200  1.0  -0.3589
  N  N544  1  0.847000  0.731700  0.940400  1.0  -0.4924
  N  N545  1  0.877400  0.962400  0.940800  1.0  -0.5021
  N  N546  1  0.720000  0.186700  0.078600  1.0  -0.3471
  N  N547  1  0.561100  0.884300  0.587800  1.0  -0.3314
  N  N548  1  0.261600  0.677400  0.436900  1.0  -0.5437
  N  N549  1  0.087200  0.841800  0.092600  1.0  -0.3458
  N  N550  1  0.788800  0.049300  0.935200  1.0  -0.4846
  N  N551  1  0.204100  0.530300  0.583200  1.0  -0.3632
  N  N552  1  0.352100  0.710300  0.527400  1.0  -0.5251
  N  N553  1  0.200000  0.752900  0.228600  1.0  -0.3415
  N  N554  1  0.873700  0.011100  0.026700  1.0  -0.5173
  N  N555  1  0.724000  0.970900  0.728200  1.0  -0.3593
  N  N556  1  0.347000  0.768300  0.440400  1.0  -0.4916
  N  N557  1  0.377400  0.462400  0.940800  1.0  -0.5021
  N  N558  1  0.220000  0.686700  0.078600  1.0  -0.3471
  N  N559  1  0.061100  0.384300  0.587800  1.0  -0.3314
  N  N560  1  0.761600  0.177400  0.436900  1.0  -0.5437
  N  N561  1  0.587200  0.341800  0.092600  1.0  -0.3458
  N  N562  1  0.288800  0.549300  0.935200  1.0  -0.4846
  N  N563  1  0.704100  0.030300  0.583200  1.0  -0.3632
  N  N564  1  0.852100  0.210300  0.527400  1.0  -0.5251
  N  N565  1  0.700000  0.252900  0.228600  1.0  -0.3415
  N  N566  1  0.373700  0.511100  0.026700  1.0  -0.5173
  N  N567  1  0.224000  0.470900  0.728200  1.0  -0.3593
  N  N568  1  0.847000  0.268300  0.440400  1.0  -0.4916
  N  N569  1  0.122600  0.962400  0.559200  1.0  -0.5043
  N  N570  1  0.280000  0.186700  0.421400  1.0  -0.3453
  N  N571  1  0.438900  0.884300  0.912200  1.0  -0.3312
  N  N572  1  0.738400  0.677400  0.063100  1.0  -0.5416
  N  N573  1  0.912800  0.841800  0.407400  1.0  -0.3494
  N  N574  1  0.211200  0.049300  0.564800  1.0  -0.4844
  N  N575  1  0.795900  0.530300  0.916800  1.0  -0.3633
  N  N576  1  0.647900  0.710300  0.972600  1.0  -0.5234
  N  N577  1  0.800000  0.752900  0.271400  1.0  -0.3395
  N  N578  1  0.126300  0.011100  0.473300  1.0  -0.5173
  N  N579  1  0.276000  0.970900  0.771800  1.0  -0.3584
  N  N580  1  0.653000  0.768300  0.059600  1.0  -0.4933
  N  N581  1  0.622600  0.462400  0.559200  1.0  -0.5043
  N  N582  1  0.780000  0.686700  0.421400  1.0  -0.3453
  N  N583  1  0.938900  0.384300  0.912200  1.0  -0.3312
  N  N584  1  0.238400  0.177400  0.063100  1.0  -0.5416
  N  N585  1  0.412800  0.341800  0.407400  1.0  -0.3494
  N  N586  1  0.711200  0.549300  0.564800  1.0  -0.4844
  N  N587  1  0.295900  0.030300  0.916800  1.0  -0.3633
  N  N588  1  0.147900  0.210300  0.972600  1.0  -0.5234
  N  N589  1  0.300000  0.252900  0.271400  1.0  -0.3395
  N  N590  1  0.626300  0.511100  0.473300  1.0  -0.5173
  N  N591  1  0.776000  0.470900  0.771800  1.0  -0.3584
  N  N592  1  0.153000  0.268300  0.059600  1.0  -0.4933
