# generated using pymatgen
data_AgH12(C3N)6
_symmetry_space_group_name_H-M   'P 1'
_cell_length_a   21.93020000
_cell_length_b   16.77950000
_cell_length_c   25.48800000
_cell_angle_alpha   90.00000000
_cell_angle_beta   115.02900000
_cell_angle_gamma   90.00000000
_symmetry_Int_Tables_number   1
_chemical_formula_structural   AgH12(C3N)6
_chemical_formula_sum   'Ag16 H192 C288 N96'
_cell_volume   8498.26966878
_cell_formula_units_Z   16
loop_
 _symmetry_equiv_pos_site_id
 _symmetry_equiv_pos_as_xyz
  1  'x, y, z'
loop_
 _atom_site_type_symbol
 _atom_site_label
 _atom_site_symmetry_multiplicity
 _atom_site_fract_x
 _atom_site_fract_y
 _atom_site_fract_z
 _atom_site_occupancy
 _atom_site_charge
  Ag  Ag1  1  0.344230  0.455880  0.366310  1.0  0.3052
  Ag  Ag2  1  0.321110  0.757730  0.865970  1.0  0.2838
  Ag  Ag3  1  0.844230  0.955880  0.366310  1.0  0.3052
  Ag  Ag4  1  0.821110  0.257730  0.865970  1.0  0.2838
  Ag  Ag5  1  0.655770  0.455880  0.133690  1.0  0.3041
  Ag  Ag6  1  0.678890  0.757730  0.634030  1.0  0.2829
  Ag  Ag7  1  0.155770  0.955880  0.133690  1.0  0.3041
  Ag  Ag8  1  0.178890  0.257730  0.634030  1.0  0.2829
  Ag  Ag9  1  0.655770  0.544120  0.633690  1.0  0.3039
  Ag  Ag10  1  0.678890  0.242270  0.134030  1.0  0.2827
  Ag  Ag11  1  0.155770  0.044120  0.633690  1.0  0.3039
  Ag  Ag12  1  0.178890  0.742270  0.134030  1.0  0.2827
  Ag  Ag13  1  0.344230  0.544120  0.866310  1.0  0.3053
  Ag  Ag14  1  0.321110  0.242270  0.365970  1.0  0.2838
  Ag  Ag15  1  0.844230  0.044120  0.866310  1.0  0.3053
  Ag  Ag16  1  0.821110  0.742270  0.365970  1.0  0.2838
  H  H17  1  0.053700  0.787800  0.386700  1.0  0.1112
  H  H18  1  0.796900  0.134700  0.047200  1.0  0.1163
  H  H19  1  0.319400  0.587300  0.543000  1.0  0.1191
  H  H20  1  0.523200  0.884100  0.034100  1.0  0.1233
  H  H21  1  0.700300  0.156400  0.849700  1.0  0.0874
  H  H22  1  0.424100  0.816100  0.982200  1.0  0.0736
  H  H23  1  0.214700  0.558600  0.346700  1.0  0.072
  H  H24  1  0.634900  0.937100  0.158900  1.0  0.1176
  H  H25  1  0.041900  0.830800  0.536700  1.0  0.1234
  H  H26  1  0.847200  0.206300  0.998900  1.0  0.0744
  H  H27  1  0.162000  0.631500  0.391400  1.0  0.1125
  H  H28  1  0.643600  0.088400  0.893900  1.0  0.1069
  H  H29  1  0.367200  0.518700  0.492900  1.0  0.0663
  H  H30  1  0.518900  0.957900  0.883300  1.0  0.1223
  H  H31  1  0.954900  0.858300  0.341000  1.0  0.0755
  H  H32  1  0.849500  0.023100  0.261400  1.0  0.0726
  H  H33  1  0.173800  0.813100  0.654100  1.0  0.1269
  H  H34  1  0.944300  0.894500  0.486300  1.0  0.0607
  H  H35  1  0.687300  0.922900  0.256900  1.0  0.0745
  H  H36  1  0.226600  0.828400  0.752200  1.0  0.0629
  H  H37  1  0.423800  0.883800  0.836700  1.0  0.0688
  H  H38  1  0.802000  0.037400  0.162300  1.0  0.1224
  H  H39  1  0.324500  0.668800  0.665400  1.0  0.1216
  H  H40  1  0.367600  0.684500  0.764700  1.0  0.0658
  H  H41  1  0.553700  0.287800  0.386700  1.0  0.1112
  H  H42  1  0.296900  0.634700  0.047200  1.0  0.1163
  H  H43  1  0.819400  0.087300  0.543000  1.0  0.1191
  H  H44  1  0.023200  0.384100  0.034100  1.0  0.1233
  H  H45  1  0.200300  0.656400  0.849700  1.0  0.0874
  H  H46  1  0.924100  0.316100  0.982200  1.0  0.0736
  H  H47  1  0.714700  0.058600  0.346700  1.0  0.072
  H  H48  1  0.134900  0.437100  0.158900  1.0  0.1176
  H  H49  1  0.541900  0.330800  0.536700  1.0  0.1234
  H  H50  1  0.347200  0.706300  0.998900  1.0  0.0744
  H  H51  1  0.662000  0.131500  0.391400  1.0  0.1125
  H  H52  1  0.143600  0.588400  0.893900  1.0  0.1069
  H  H53  1  0.867200  0.018700  0.492900  1.0  0.0663
  H  H54  1  0.018900  0.457900  0.883300  1.0  0.1223
  H  H55  1  0.454900  0.358300  0.341000  1.0  0.0755
  H  H56  1  0.349500  0.523100  0.261400  1.0  0.0726
  H  H57  1  0.673800  0.313100  0.654100  1.0  0.1269
  H  H58  1  0.444300  0.394500  0.486300  1.0  0.0607
  H  H59  1  0.187300  0.422900  0.256900  1.0  0.0745
  H  H60  1  0.726600  0.328400  0.752200  1.0  0.0629
  H  H61  1  0.923800  0.383800  0.836700  1.0  0.0688
  H  H62  1  0.302000  0.537400  0.162300  1.0  0.1224
  H  H63  1  0.824500  0.168800  0.665400  1.0  0.1216
  H  H64  1  0.867600  0.184500  0.764700  1.0  0.0658
  H  H65  1  0.946300  0.787800  0.113300  1.0  0.1106
  H  H66  1  0.203100  0.134700  0.452800  1.0  0.1164
  H  H67  1  0.680600  0.587300  0.957000  1.0  0.1195
  H  H68  1  0.476800  0.884100  0.465900  1.0  0.1242
  H  H69  1  0.299700  0.156400  0.650300  1.0  0.0874
  H  H70  1  0.575900  0.816100  0.517800  1.0  0.0741
  H  H71  1  0.785300  0.558600  0.153300  1.0  0.0713
  H  H72  1  0.365100  0.937100  0.341100  1.0  0.1169
  H  H73  1  0.958100  0.830800  0.963300  1.0  0.124
  H  H74  1  0.152800  0.206300  0.501100  1.0  0.0735
  H  H75  1  0.838000  0.631500  0.108600  1.0  0.1125
  H  H76  1  0.356400  0.088400  0.606100  1.0  0.1073
  H  H77  1  0.632800  0.518700  0.007100  1.0  0.0657
  H  H78  1  0.481100  0.957900  0.616700  1.0  0.1219
  H  H79  1  0.045100  0.858300  0.159000  1.0  0.076
  H  H80  1  0.150500  0.023100  0.238600  1.0  0.0733
  H  H81  1  0.826200  0.813100  0.845900  1.0  0.1267
  H  H82  1  0.055700  0.894500  0.013700  1.0  0.0599
  H  H83  1  0.312700  0.922900  0.243100  1.0  0.0749
  H  H84  1  0.773400  0.828400  0.747800  1.0  0.0625
  H  H85  1  0.576200  0.883800  0.663300  1.0  0.0695
  H  H86  1  0.198000  0.037400  0.337700  1.0  0.1223
  H  H87  1  0.675500  0.668800  0.834600  1.0  0.1215
  H  H88  1  0.632400  0.684500  0.735300  1.0  0.0658
  H  H89  1  0.446300  0.287800  0.113300  1.0  0.1106
  H  H90  1  0.703100  0.634700  0.452800  1.0  0.1164
  H  H91  1  0.180600  0.087300  0.957000  1.0  0.1195
  H  H92  1  0.976800  0.384100  0.465900  1.0  0.1242
  H  H93  1  0.799700  0.656400  0.650300  1.0  0.0874
  H  H94  1  0.075900  0.316100  0.517800  1.0  0.0741
  H  H95  1  0.285300  0.058600  0.153300  1.0  0.0713
  H  H96  1  0.865100  0.437100  0.341100  1.0  0.1169
  H  H97  1  0.458100  0.330800  0.963300  1.0  0.124
  H  H98  1  0.652800  0.706300  0.501100  1.0  0.0735
  H  H99  1  0.338000  0.131500  0.108600  1.0  0.1125
  H  H100  1  0.856400  0.588400  0.606100  1.0  0.1073
  H  H101  1  0.132800  0.018700  0.007100  1.0  0.0657
  H  H102  1  0.981100  0.457900  0.616700  1.0  0.1219
  H  H103  1  0.545100  0.358300  0.159000  1.0  0.076
  H  H104  1  0.650500  0.523100  0.238600  1.0  0.0733
  H  H105  1  0.326200  0.313100  0.845900  1.0  0.1267
  H  H106  1  0.555700  0.394500  0.013700  1.0  0.0599
  H  H107  1  0.812700  0.422900  0.243100  1.0  0.0749
  H  H108  1  0.273400  0.328400  0.747800  1.0  0.0625
  H  H109  1  0.076200  0.383800  0.663300  1.0  0.0695
  H  H110  1  0.698000  0.537400  0.337700  1.0  0.1223
  H  H111  1  0.175500  0.168800  0.834600  1.0  0.1215
  H  H112  1  0.132400  0.184500  0.735300  1.0  0.0658
  H  H113  1  0.946300  0.212200  0.613300  1.0  0.1104
  H  H114  1  0.203100  0.865300  0.952800  1.0  0.1162
  H  H115  1  0.680600  0.412700  0.457000  1.0  0.1198
  H  H116  1  0.476800  0.115900  0.965900  1.0  0.1245
  H  H117  1  0.299700  0.843600  0.150300  1.0  0.0871
  H  H118  1  0.575900  0.183900  0.017800  1.0  0.0741
  H  H119  1  0.785300  0.441400  0.653300  1.0  0.0711
  H  H120  1  0.365100  0.062900  0.841100  1.0  0.1174
  H  H121  1  0.958100  0.169200  0.463300  1.0  0.1238
  H  H122  1  0.152800  0.793700  0.001100  1.0  0.0735
  H  H123  1  0.838000  0.368500  0.608600  1.0  0.1124
  H  H124  1  0.356400  0.911600  0.106100  1.0  0.1078
  H  H125  1  0.632800  0.481300  0.507100  1.0  0.0657
  H  H126  1  0.481100  0.042100  0.116700  1.0  0.122
  H  H127  1  0.045100  0.141700  0.659000  1.0  0.076
  H  H128  1  0.150500  0.976900  0.738600  1.0  0.0733
  H  H129  1  0.826200  0.186900  0.345900  1.0  0.1261
  H  H130  1  0.055700  0.105500  0.513700  1.0  0.0604
  H  H131  1  0.312700  0.077100  0.743100  1.0  0.075
  H  H132  1  0.773400  0.171600  0.247800  1.0  0.0627
  H  H133  1  0.576200  0.116200  0.163300  1.0  0.0694
  H  H134  1  0.198000  0.962600  0.837700  1.0  0.1225
  H  H135  1  0.675500  0.331200  0.334600  1.0  0.1215
  H  H136  1  0.632400  0.315500  0.235300  1.0  0.0652
  H  H137  1  0.446300  0.712200  0.613300  1.0  0.1104
  H  H138  1  0.703100  0.365300  0.952800  1.0  0.1162
  H  H139  1  0.180600  0.912700  0.457000  1.0  0.1198
  H  H140  1  0.976800  0.615900  0.965900  1.0  0.1245
  H  H141  1  0.799700  0.343600  0.150300  1.0  0.0871
  H  H142  1  0.075900  0.683900  0.017800  1.0  0.0741
  H  H143  1  0.285300  0.941400  0.653300  1.0  0.0711
  H  H144  1  0.865100  0.562900  0.841100  1.0  0.1174
  H  H145  1  0.458100  0.669200  0.463300  1.0  0.1238
  H  H146  1  0.652800  0.293700  0.001100  1.0  0.0735
  H  H147  1  0.338000  0.868500  0.608600  1.0  0.1124
  H  H148  1  0.856400  0.411600  0.106100  1.0  0.1078
  H  H149  1  0.132800  0.981300  0.507100  1.0  0.0657
  H  H150  1  0.981100  0.542100  0.116700  1.0  0.122
  H  H151  1  0.545100  0.641700  0.659000  1.0  0.076
  H  H152  1  0.650500  0.476900  0.738600  1.0  0.0733
  H  H153  1  0.326200  0.686900  0.345900  1.0  0.1261
  H  H154  1  0.555700  0.605500  0.513700  1.0  0.0604
  H  H155  1  0.812700  0.577100  0.743100  1.0  0.075
  H  H156  1  0.273400  0.671600  0.247800  1.0  0.0627
  H  H157  1  0.076200  0.616200  0.163300  1.0  0.0694
  H  H158  1  0.698000  0.462600  0.837700  1.0  0.1225
  H  H159  1  0.175500  0.831200  0.334600  1.0  0.1215
  H  H160  1  0.132400  0.815500  0.235300  1.0  0.0652
  H  H161  1  0.053700  0.212200  0.886700  1.0  0.1109
  H  H162  1  0.796900  0.865300  0.547200  1.0  0.1165
  H  H163  1  0.319400  0.412700  0.043000  1.0  0.1189
  H  H164  1  0.523200  0.115900  0.534100  1.0  0.1233
  H  H165  1  0.700300  0.843600  0.349700  1.0  0.0871
  H  H166  1  0.424100  0.183900  0.482200  1.0  0.0734
  H  H167  1  0.214700  0.441400  0.846700  1.0  0.0717
  H  H168  1  0.634900  0.062900  0.658900  1.0  0.1172
  H  H169  1  0.041900  0.169200  0.036700  1.0  0.1235
  H  H170  1  0.847200  0.793700  0.498900  1.0  0.0743
  H  H171  1  0.162000  0.368500  0.891400  1.0  0.1123
  H  H172  1  0.643600  0.911600  0.393900  1.0  0.1069
  H  H173  1  0.367200  0.481300  0.992900  1.0  0.0661
  H  H174  1  0.518900  0.042100  0.383300  1.0  0.122
  H  H175  1  0.954900  0.141700  0.841000  1.0  0.0755
  H  H176  1  0.849500  0.976900  0.761400  1.0  0.0721
  H  H177  1  0.173800  0.186900  0.154100  1.0  0.1265
  H  H178  1  0.944300  0.105500  0.986300  1.0  0.0611
  H  H179  1  0.687300  0.077100  0.756900  1.0  0.0743
  H  H180  1  0.226600  0.171600  0.252200  1.0  0.0631
  H  H181  1  0.423800  0.116200  0.336700  1.0  0.0687
  H  H182  1  0.802000  0.962600  0.662300  1.0  0.1225
  H  H183  1  0.324500  0.331200  0.165400  1.0  0.122
  H  H184  1  0.367600  0.315500  0.264700  1.0  0.0654
  H  H185  1  0.553700  0.712200  0.886700  1.0  0.1109
  H  H186  1  0.296900  0.365300  0.547200  1.0  0.1165
  H  H187  1  0.819400  0.912700  0.043000  1.0  0.1189
  H  H188  1  0.023200  0.615900  0.534100  1.0  0.1233
  H  H189  1  0.200300  0.343600  0.349700  1.0  0.0871
  H  H190  1  0.924100  0.683900  0.482200  1.0  0.0734
  H  H191  1  0.714700  0.941400  0.846700  1.0  0.0717
  H  H192  1  0.134900  0.562900  0.658900  1.0  0.1172
  H  H193  1  0.541900  0.669200  0.036700  1.0  0.1235
  H  H194  1  0.347200  0.293700  0.498900  1.0  0.0743
  H  H195  1  0.662000  0.868500  0.891400  1.0  0.1123
  H  H196  1  0.143600  0.411600  0.393900  1.0  0.1069
  H  H197  1  0.867200  0.981300  0.992900  1.0  0.0661
  H  H198  1  0.018900  0.542100  0.383300  1.0  0.122
  H  H199  1  0.454900  0.641700  0.841000  1.0  0.0755
  H  H200  1  0.349500  0.476900  0.761400  1.0  0.0721
  H  H201  1  0.673800  0.686900  0.154100  1.0  0.1265
  H  H202  1  0.444300  0.605500  0.986300  1.0  0.0611
  H  H203  1  0.187300  0.577100  0.756900  1.0  0.0743
  H  H204  1  0.726600  0.671600  0.252200  1.0  0.0631
  H  H205  1  0.923800  0.616200  0.336700  1.0  0.0687
  H  H206  1  0.302000  0.462600  0.662300  1.0  0.1225
  H  H207  1  0.824500  0.831200  0.165400  1.0  0.122
  H  H208  1  0.867600  0.815500  0.264700  1.0  0.0654
  C  C209  1  0.597600  0.971800  0.998600  1.0  0.3394
  C  C210  1  0.032400  0.809100  0.408200  1.0  -0.1405
  C  C211  1  0.776200  0.138700  0.007000  1.0  -0.1441
  C  C212  1  0.059700  0.799500  0.467100  1.0  -0.0055
  C  C213  1  0.297300  0.583300  0.502900  1.0  -0.1678
  C  C214  1  0.122800  0.755600  0.499300  1.0  0.3651
  C  C215  1  0.503500  0.885700  0.993900  1.0  -0.1474
  C  C216  1  0.532600  0.927900  0.964400  1.0  -0.0742
  C  C217  1  0.681500  0.052400  0.004400  1.0  0.366
  C  C218  1  0.209300  0.725100  0.585100  1.0  0.3644
  C  C219  1  0.713700  0.101700  0.975000  1.0  -0.0192
  C  C220  1  0.719600  0.152500  0.889800  1.0  0.158
  C  C221  1  0.443500  0.845000  0.962000  1.0  0.1666
  C  C222  1  0.711700  0.991700  0.150000  1.0  -0.0592
  C  C223  1  0.234800  0.620800  0.472000  1.0  0.0251
  C  C224  1  0.235700  0.564500  0.386700  1.0  0.164
  C  C225  1  0.242600  0.736300  0.648800  1.0  -0.0194
  C  C226  1  0.678700  0.955400  0.179200  1.0  -0.1327
  C  C227  1  0.024900  0.834200  0.496600  1.0  -0.1922
  C  C228  1  0.806300  0.181200  0.977600  1.0  0.1668
  C  C229  1  0.679400  0.002500  0.084800  1.0  0.3593
  C  C230  1  0.204100  0.609300  0.413300  1.0  -0.1705
  C  C231  1  0.204700  0.671200  0.502000  1.0  0.3764
  C  C232  1  0.685500  0.110500  0.916200  1.0  -0.1238
  C  C233  1  0.324900  0.540900  0.472500  1.0  0.1728
  C  C234  1  0.501100  0.928600  0.904500  1.0  -0.1599
  C  C235  1  0.972500  0.851000  0.380900  1.0  0.1673
  C  C236  1  0.805900  0.004600  0.240300  1.0  0.1624
  C  C237  1  0.213500  0.786000  0.675600  1.0  -0.1951
  C  C238  1  0.966800  0.872300  0.466000  1.0  0.1804
  C  C239  1  0.710700  0.946300  0.237900  1.0  0.1675
  C  C240  1  0.245200  0.793700  0.734600  1.0  0.1808
  C  C241  1  0.443100  0.885400  0.877000  1.0  0.1696
  C  C242  1  0.777400  0.015200  0.180800  1.0  -0.1801
  C  C243  1  0.302000  0.699800  0.682000  1.0  -0.1779
  C  C244  1  0.327800  0.710800  0.741800  1.0  0.1894
  C  C245  1  0.097600  0.471800  0.998600  1.0  0.3394
  C  C246  1  0.532400  0.309100  0.408200  1.0  -0.1405
  C  C247  1  0.276200  0.638700  0.007000  1.0  -0.1441
  C  C248  1  0.559700  0.299500  0.467100  1.0  -0.0055
  C  C249  1  0.797300  0.083300  0.502900  1.0  -0.1678
  C  C250  1  0.622800  0.255600  0.499300  1.0  0.3651
  C  C251  1  0.003500  0.385700  0.993900  1.0  -0.1474
  C  C252  1  0.032600  0.427900  0.964400  1.0  -0.0742
  C  C253  1  0.181500  0.552400  0.004400  1.0  0.366
  C  C254  1  0.709300  0.225100  0.585100  1.0  0.3644
  C  C255  1  0.213700  0.601700  0.975000  1.0  -0.0192
  C  C256  1  0.219600  0.652500  0.889800  1.0  0.158
  C  C257  1  0.943500  0.345000  0.962000  1.0  0.1666
  C  C258  1  0.211700  0.491700  0.150000  1.0  -0.0592
  C  C259  1  0.734800  0.120800  0.472000  1.0  0.0251
  C  C260  1  0.735700  0.064500  0.386700  1.0  0.164
  C  C261  1  0.742600  0.236300  0.648800  1.0  -0.0194
  C  C262  1  0.178700  0.455400  0.179200  1.0  -0.1327
  C  C263  1  0.524900  0.334200  0.496600  1.0  -0.1922
  C  C264  1  0.306300  0.681200  0.977600  1.0  0.1668
  C  C265  1  0.179400  0.502500  0.084800  1.0  0.3593
  C  C266  1  0.704100  0.109300  0.413300  1.0  -0.1705
  C  C267  1  0.704700  0.171200  0.502000  1.0  0.3764
  C  C268  1  0.185500  0.610500  0.916200  1.0  -0.1238
  C  C269  1  0.824900  0.040900  0.472500  1.0  0.1728
  C  C270  1  0.001100  0.428600  0.904500  1.0  -0.1599
  C  C271  1  0.472500  0.351000  0.380900  1.0  0.1673
  C  C272  1  0.305900  0.504600  0.240300  1.0  0.1624
  C  C273  1  0.713500  0.286000  0.675600  1.0  -0.1951
  C  C274  1  0.466800  0.372300  0.466000  1.0  0.1804
  C  C275  1  0.210700  0.446300  0.237900  1.0  0.1675
  C  C276  1  0.745200  0.293700  0.734600  1.0  0.1808
  C  C277  1  0.943100  0.385400  0.877000  1.0  0.1696
  C  C278  1  0.277400  0.515200  0.180800  1.0  -0.1801
  C  C279  1  0.802000  0.199800  0.682000  1.0  -0.1779
  C  C280  1  0.827800  0.210800  0.741800  1.0  0.1894
  C  C281  1  0.402400  0.971800  0.501400  1.0  0.3389
  C  C282  1  0.967600  0.809100  0.091800  1.0  -0.1411
  C  C283  1  0.223800  0.138700  0.493000  1.0  -0.1435
  C  C284  1  0.940300  0.799500  0.032900  1.0  -0.0052
  C  C285  1  0.702700  0.583300  0.997100  1.0  -0.1655
  C  C286  1  0.877200  0.755600  0.000700  1.0  0.3647
  C  C287  1  0.496500  0.885700  0.506100  1.0  -0.149
  C  C288  1  0.467400  0.927900  0.535600  1.0  -0.0754
  C  C289  1  0.318500  0.052400  0.495600  1.0  0.3666
  C  C290  1  0.790700  0.725100  0.914900  1.0  0.3634
  C  C291  1  0.286300  0.101700  0.525000  1.0  -0.0179
  C  C292  1  0.280400  0.152500  0.610200  1.0  0.156
  C  C293  1  0.556500  0.845000  0.538000  1.0  0.1665
  C  C294  1  0.288300  0.991700  0.350000  1.0  -0.0611
  C  C295  1  0.765200  0.620800  0.028000  1.0  0.0259
  C  C296  1  0.764300  0.564500  0.113300  1.0  0.1627
  C  C297  1  0.757400  0.736300  0.851200  1.0  -0.0199
  C  C298  1  0.321300  0.955400  0.320800  1.0  -0.1355
  C  C299  1  0.975100  0.834200  0.003400  1.0  -0.1931
  C  C300  1  0.193700  0.181200  0.522400  1.0  0.1664
  C  C301  1  0.320600  0.002500  0.415200  1.0  0.3588
  C  C302  1  0.795900  0.609300  0.086700  1.0  -0.1706
  C  C303  1  0.795300  0.671200  0.998000  1.0  0.3762
  C  C304  1  0.314500  0.110500  0.583800  1.0  -0.1234
  C  C305  1  0.675100  0.540900  0.027500  1.0  0.173
  C  C306  1  0.498900  0.928600  0.595500  1.0  -0.1606
  C  C307  1  0.027500  0.851000  0.119100  1.0  0.1675
  C  C308  1  0.194100  0.004600  0.259700  1.0  0.1629
  C  C309  1  0.786500  0.786000  0.824400  1.0  -0.1952
  C  C310  1  0.033200  0.872300  0.034000  1.0  0.1819
  C  C311  1  0.289300  0.946300  0.262100  1.0  0.1673
  C  C312  1  0.754800  0.793700  0.765400  1.0  0.1804
  C  C313  1  0.556900  0.885400  0.623000  1.0  0.1688
  C  C314  1  0.222600  0.015200  0.319200  1.0  -0.1779
  C  C315  1  0.698000  0.699800  0.818000  1.0  -0.177
  C  C316  1  0.672200  0.710800  0.758200  1.0  0.1879
  C  C317  1  0.902400  0.471800  0.501400  1.0  0.3389
  C  C318  1  0.467600  0.309100  0.091800  1.0  -0.1411
  C  C319  1  0.723800  0.638700  0.493000  1.0  -0.1435
  C  C320  1  0.440300  0.299500  0.032900  1.0  -0.0052
  C  C321  1  0.202700  0.083300  0.997100  1.0  -0.1655
  C  C322  1  0.377200  0.255600  0.000700  1.0  0.3647
  C  C323  1  0.996500  0.385700  0.506100  1.0  -0.149
  C  C324  1  0.967400  0.427900  0.535600  1.0  -0.0754
  C  C325  1  0.818500  0.552400  0.495600  1.0  0.3666
  C  C326  1  0.290700  0.225100  0.914900  1.0  0.3634
  C  C327  1  0.786300  0.601700  0.525000  1.0  -0.0179
  C  C328  1  0.780400  0.652500  0.610200  1.0  0.156
  C  C329  1  0.056500  0.345000  0.538000  1.0  0.1665
  C  C330  1  0.788300  0.491700  0.350000  1.0  -0.0611
  C  C331  1  0.265200  0.120800  0.028000  1.0  0.0259
  C  C332  1  0.264300  0.064500  0.113300  1.0  0.1627
  C  C333  1  0.257400  0.236300  0.851200  1.0  -0.0199
  C  C334  1  0.821300  0.455400  0.320800  1.0  -0.1355
  C  C335  1  0.475100  0.334200  0.003400  1.0  -0.1931
  C  C336  1  0.693700  0.681200  0.522400  1.0  0.1664
  C  C337  1  0.820600  0.502500  0.415200  1.0  0.3588
  C  C338  1  0.295900  0.109300  0.086700  1.0  -0.1706
  C  C339  1  0.295300  0.171200  0.998000  1.0  0.3762
  C  C340  1  0.814500  0.610500  0.583800  1.0  -0.1234
  C  C341  1  0.175100  0.040900  0.027500  1.0  0.173
  C  C342  1  0.998900  0.428600  0.595500  1.0  -0.1606
  C  C343  1  0.527500  0.351000  0.119100  1.0  0.1675
  C  C344  1  0.694100  0.504600  0.259700  1.0  0.1629
  C  C345  1  0.286500  0.286000  0.824400  1.0  -0.1952
  C  C346  1  0.533200  0.372300  0.034000  1.0  0.1819
  C  C347  1  0.789300  0.446300  0.262100  1.0  0.1673
  C  C348  1  0.254800  0.293700  0.765400  1.0  0.1804
  C  C349  1  0.056900  0.385400  0.623000  1.0  0.1688
  C  C350  1  0.722600  0.515200  0.319200  1.0  -0.1779
  C  C351  1  0.198000  0.199800  0.818000  1.0  -0.177
  C  C352  1  0.172200  0.210800  0.758200  1.0  0.1879
  C  C353  1  0.402400  0.028200  0.001400  1.0  0.3388
  C  C354  1  0.967600  0.190900  0.591800  1.0  -0.1409
  C  C355  1  0.223800  0.861300  0.993000  1.0  -0.1429
  C  C356  1  0.940300  0.200500  0.532900  1.0  -0.0059
  C  C357  1  0.702700  0.416700  0.497100  1.0  -0.1658
  C  C358  1  0.877200  0.244400  0.500700  1.0  0.3653
  C  C359  1  0.496500  0.114300  0.006100  1.0  -0.1489
  C  C360  1  0.467400  0.072100  0.035600  1.0  -0.0757
  C  C361  1  0.318500  0.947600  0.995600  1.0  0.3669
  C  C362  1  0.790700  0.274900  0.414900  1.0  0.3635
  C  C363  1  0.286300  0.898300  0.025000  1.0  -0.0179
  C  C364  1  0.280400  0.847500  0.110200  1.0  0.1568
  C  C365  1  0.556500  0.155000  0.038000  1.0  0.1664
  C  C366  1  0.288300  0.008300  0.850000  1.0  -0.0607
  C  C367  1  0.765200  0.379200  0.528000  1.0  0.0258
  C  C368  1  0.764300  0.435500  0.613300  1.0  0.1621
  C  C369  1  0.757400  0.263700  0.351200  1.0  -0.0197
  C  C370  1  0.321300  0.044600  0.820800  1.0  -0.1357
  C  C371  1  0.975100  0.165800  0.503400  1.0  -0.1926
  C  C372  1  0.193700  0.818800  0.022400  1.0  0.1665
  C  C373  1  0.320600  0.997500  0.915200  1.0  0.3592
  C  C374  1  0.795900  0.390700  0.586700  1.0  -0.1713
  C  C375  1  0.795300  0.328800  0.498000  1.0  0.376
  C  C376  1  0.314500  0.889500  0.083800  1.0  -0.1237
  C  C377  1  0.675100  0.459100  0.527500  1.0  0.1724
  C  C378  1  0.498900  0.071400  0.095500  1.0  -0.1603
  C  C379  1  0.027500  0.149000  0.619100  1.0  0.1669
  C  C380  1  0.194100  0.995400  0.759700  1.0  0.1631
  C  C381  1  0.786500  0.214000  0.324400  1.0  -0.1947
  C  C382  1  0.033200  0.127700  0.534000  1.0  0.1819
  C  C383  1  0.289300  0.053700  0.762100  1.0  0.1674
  C  C384  1  0.754800  0.206300  0.265400  1.0  0.1805
  C  C385  1  0.556900  0.114600  0.123000  1.0  0.1689
  C  C386  1  0.222600  0.984800  0.819200  1.0  -0.1773
  C  C387  1  0.698000  0.300200  0.318000  1.0  -0.1767
  C  C388  1  0.672200  0.289200  0.258200  1.0  0.1884
  C  C389  1  0.902400  0.528200  0.001400  1.0  0.3388
  C  C390  1  0.467600  0.690900  0.591800  1.0  -0.1409
  C  C391  1  0.723800  0.361300  0.993000  1.0  -0.1429
  C  C392  1  0.440300  0.700500  0.532900  1.0  -0.0059
  C  C393  1  0.202700  0.916700  0.497100  1.0  -0.1658
  C  C394  1  0.377200  0.744400  0.500700  1.0  0.3653
  C  C395  1  0.996500  0.614300  0.006100  1.0  -0.1489
  C  C396  1  0.967400  0.572100  0.035600  1.0  -0.0757
  C  C397  1  0.818500  0.447600  0.995600  1.0  0.3669
  C  C398  1  0.290700  0.774900  0.414900  1.0  0.3635
  C  C399  1  0.786300  0.398300  0.025000  1.0  -0.0179
  C  C400  1  0.780400  0.347500  0.110200  1.0  0.1568
  C  C401  1  0.056500  0.655000  0.038000  1.0  0.1664
  C  C402  1  0.788300  0.508300  0.850000  1.0  -0.0607
  C  C403  1  0.265200  0.879200  0.528000  1.0  0.0258
  C  C404  1  0.264300  0.935500  0.613300  1.0  0.1621
  C  C405  1  0.257400  0.763700  0.351200  1.0  -0.0197
  C  C406  1  0.821300  0.544600  0.820800  1.0  -0.1357
  C  C407  1  0.475100  0.665800  0.503400  1.0  -0.1926
  C  C408  1  0.693700  0.318800  0.022400  1.0  0.1665
  C  C409  1  0.820600  0.497500  0.915200  1.0  0.3592
  C  C410  1  0.295900  0.890700  0.586700  1.0  -0.1713
  C  C411  1  0.295300  0.828800  0.498000  1.0  0.376
  C  C412  1  0.814500  0.389500  0.083800  1.0  -0.1237
  C  C413  1  0.175100  0.959100  0.527500  1.0  0.1724
  C  C414  1  0.998900  0.571400  0.095500  1.0  -0.1603
  C  C415  1  0.527500  0.649000  0.619100  1.0  0.1669
  C  C416  1  0.694100  0.495400  0.759700  1.0  0.1631
  C  C417  1  0.286500  0.714000  0.324400  1.0  -0.1947
  C  C418  1  0.533200  0.627700  0.534000  1.0  0.1819
  C  C419  1  0.789300  0.553700  0.762100  1.0  0.1674
  C  C420  1  0.254800  0.706300  0.265400  1.0  0.1805
  C  C421  1  0.056900  0.614600  0.123000  1.0  0.1689
  C  C422  1  0.722600  0.484800  0.819200  1.0  -0.1773
  C  C423  1  0.198000  0.800200  0.318000  1.0  -0.1767
  C  C424  1  0.172200  0.789200  0.258200  1.0  0.1884
  C  C425  1  0.597600  0.028200  0.498600  1.0  0.3393
  C  C426  1  0.032400  0.190900  0.908200  1.0  -0.1408
  C  C427  1  0.776200  0.861300  0.507000  1.0  -0.1441
  C  C428  1  0.059700  0.200500  0.967100  1.0  -0.0052
  C  C429  1  0.297300  0.416700  0.002900  1.0  -0.1681
  C  C430  1  0.122800  0.244400  0.999300  1.0  0.3656
  C  C431  1  0.503500  0.114300  0.493900  1.0  -0.1477
  C  C432  1  0.532600  0.072100  0.464400  1.0  -0.0748
  C  C433  1  0.681500  0.947600  0.504400  1.0  0.3664
  C  C434  1  0.209300  0.274900  0.085100  1.0  0.3644
  C  C435  1  0.713700  0.898300  0.475000  1.0  -0.0192
  C  C436  1  0.719600  0.847500  0.389800  1.0  0.1576
  C  C437  1  0.443500  0.155000  0.462000  1.0  0.1661
  C  C438  1  0.711700  0.008300  0.650000  1.0  -0.0592
  C  C439  1  0.234800  0.379200  0.972000  1.0  0.025
  C  C440  1  0.235700  0.435500  0.886700  1.0  0.1639
  C  C441  1  0.242600  0.263700  0.148800  1.0  -0.019
  C  C442  1  0.678700  0.044600  0.679200  1.0  -0.1326
  C  C443  1  0.024900  0.165800  0.996600  1.0  -0.193
  C  C444  1  0.806300  0.818800  0.477600  1.0  0.1669
  C  C445  1  0.679400  0.997500  0.584800  1.0  0.3598
  C  C446  1  0.204100  0.390700  0.913300  1.0  -0.1707
  C  C447  1  0.204700  0.328800  0.002000  1.0  0.3763
  C  C448  1  0.685500  0.889500  0.416200  1.0  -0.1242
  C  C449  1  0.324900  0.459100  0.972500  1.0  0.1723
  C  C450  1  0.501100  0.071400  0.404500  1.0  -0.1598
  C  C451  1  0.972500  0.149000  0.880900  1.0  0.1664
  C  C452  1  0.805900  0.995400  0.740300  1.0  0.1624
  C  C453  1  0.213500  0.214000  0.175600  1.0  -0.1949
  C  C454  1  0.966800  0.127700  0.966000  1.0  0.182
  C  C455  1  0.710700  0.053700  0.737900  1.0  0.1679
  C  C456  1  0.245200  0.206300  0.234600  1.0  0.1807
  C  C457  1  0.443100  0.114600  0.377000  1.0  0.1699
  C  C458  1  0.777400  0.984800  0.680800  1.0  -0.18
  C  C459  1  0.302000  0.300200  0.182000  1.0  -0.1772
  C  C460  1  0.327800  0.289200  0.241800  1.0  0.1901
  C  C461  1  0.097600  0.528200  0.498600  1.0  0.3393
  C  C462  1  0.532400  0.690900  0.908200  1.0  -0.1408
  C  C463  1  0.276200  0.361300  0.507000  1.0  -0.1441
  C  C464  1  0.559700  0.700500  0.967100  1.0  -0.0052
  C  C465  1  0.797300  0.916700  0.002900  1.0  -0.1681
  C  C466  1  0.622800  0.744400  0.999300  1.0  0.3656
  C  C467  1  0.003500  0.614300  0.493900  1.0  -0.1477
  C  C468  1  0.032600  0.572100  0.464400  1.0  -0.0748
  C  C469  1  0.181500  0.447600  0.504400  1.0  0.3664
  C  C470  1  0.709300  0.774900  0.085100  1.0  0.3644
  C  C471  1  0.213700  0.398300  0.475000  1.0  -0.0192
  C  C472  1  0.219600  0.347500  0.389800  1.0  0.1576
  C  C473  1  0.943500  0.655000  0.462000  1.0  0.1661
  C  C474  1  0.211700  0.508300  0.650000  1.0  -0.0592
  C  C475  1  0.734800  0.879200  0.972000  1.0  0.025
  C  C476  1  0.735700  0.935500  0.886700  1.0  0.1639
  C  C477  1  0.742600  0.763700  0.148800  1.0  -0.019
  C  C478  1  0.178700  0.544600  0.679200  1.0  -0.1326
  C  C479  1  0.524900  0.665800  0.996600  1.0  -0.193
  C  C480  1  0.306300  0.318800  0.477600  1.0  0.1669
  C  C481  1  0.179400  0.497500  0.584800  1.0  0.3598
  C  C482  1  0.704100  0.890700  0.913300  1.0  -0.1707
  C  C483  1  0.704700  0.828800  0.002000  1.0  0.3763
  C  C484  1  0.185500  0.389500  0.416200  1.0  -0.1242
  C  C485  1  0.824900  0.959100  0.972500  1.0  0.1723
  C  C486  1  0.001100  0.571400  0.404500  1.0  -0.1598
  C  C487  1  0.472500  0.649000  0.880900  1.0  0.1664
  C  C488  1  0.305900  0.495400  0.740300  1.0  0.1624
  C  C489  1  0.713500  0.714000  0.175600  1.0  -0.1949
  C  C490  1  0.466800  0.627700  0.966000  1.0  0.182
  C  C491  1  0.210700  0.553700  0.737900  1.0  0.1679
  C  C492  1  0.745200  0.706300  0.234600  1.0  0.1807
  C  C493  1  0.943100  0.614600  0.377000  1.0  0.1699
  C  C494  1  0.277400  0.484800  0.680800  1.0  -0.18
  C  C495  1  0.802000  0.800200  0.182000  1.0  -0.1772
  C  C496  1  0.827800  0.789200  0.241800  1.0  0.1901
  N  N497  1  0.295100  0.529500  0.415800  1.0  -0.3686
  N  N498  1  0.939400  0.880700  0.409400  1.0  -0.3052
  N  N499  1  0.300400  0.755100  0.768000  1.0  -0.3449
  N  N500  1  0.236800  0.677300  0.560000  1.0  -0.473
  N  N501  1  0.147600  0.709500  0.469700  1.0  -0.5123
  N  N502  1  0.152300  0.765500  0.556600  1.0  -0.4699
  N  N503  1  0.779200  0.187600  0.920100  1.0  -0.3246
  N  N504  1  0.412700  0.845300  0.904800  1.0  -0.3734
  N  N505  1  0.775100  0.969800  0.269500  1.0  -0.3452
  N  N506  1  0.624900  0.013500  0.970500  1.0  -0.4558
  N  N507  1  0.710700  0.049000  0.062500  1.0  -0.4988
  N  N508  1  0.622300  0.962300  0.056100  1.0  -0.5189
  N  N509  1  0.795100  0.029500  0.415800  1.0  -0.3686
  N  N510  1  0.439400  0.380700  0.409400  1.0  -0.3052
  N  N511  1  0.800400  0.255100  0.768000  1.0  -0.3449
  N  N512  1  0.736800  0.177300  0.560000  1.0  -0.473
  N  N513  1  0.647600  0.209500  0.469700  1.0  -0.5123
  N  N514  1  0.652300  0.265500  0.556600  1.0  -0.4699
  N  N515  1  0.279200  0.687600  0.920100  1.0  -0.3246
  N  N516  1  0.912700  0.345300  0.904800  1.0  -0.3734
  N  N517  1  0.275100  0.469800  0.269500  1.0  -0.3452
  N  N518  1  0.124900  0.513500  0.970500  1.0  -0.4558
  N  N519  1  0.210700  0.549000  0.062500  1.0  -0.4988
  N  N520  1  0.122300  0.462300  0.056100  1.0  -0.5189
  N  N521  1  0.704900  0.529500  0.084200  1.0  -0.3673
  N  N522  1  0.060600  0.880700  0.090600  1.0  -0.3075
  N  N523  1  0.699600  0.755100  0.732000  1.0  -0.3451
  N  N524  1  0.763200  0.677300  0.940000  1.0  -0.4752
  N  N525  1  0.852400  0.709500  0.030300  1.0  -0.5151
  N  N526  1  0.847700  0.765500  0.943400  1.0  -0.4689
  N  N527  1  0.220800  0.187600  0.579900  1.0  -0.3264
  N  N528  1  0.587300  0.845300  0.595200  1.0  -0.37
  N  N529  1  0.224900  0.969800  0.230500  1.0  -0.3458
  N  N530  1  0.375100  0.013500  0.529500  1.0  -0.4527
  N  N531  1  0.289300  0.049000  0.437500  1.0  -0.4993
  N  N532  1  0.377700  0.962300  0.443900  1.0  -0.5195
  N  N533  1  0.204900  0.029500  0.084200  1.0  -0.3673
  N  N534  1  0.560600  0.380700  0.090600  1.0  -0.3075
  N  N535  1  0.199600  0.255100  0.732000  1.0  -0.3451
  N  N536  1  0.263200  0.177300  0.940000  1.0  -0.4752
  N  N537  1  0.352400  0.209500  0.030300  1.0  -0.5151
  N  N538  1  0.347700  0.265500  0.943400  1.0  -0.4689
  N  N539  1  0.720800  0.687600  0.579900  1.0  -0.3264
  N  N540  1  0.087300  0.345300  0.595200  1.0  -0.37
  N  N541  1  0.724900  0.469800  0.230500  1.0  -0.3458
  N  N542  1  0.875100  0.513500  0.529500  1.0  -0.4527
  N  N543  1  0.789300  0.549000  0.437500  1.0  -0.4993
  N  N544  1  0.877700  0.462300  0.443900  1.0  -0.5195
  N  N545  1  0.704900  0.470500  0.584200  1.0  -0.3682
  N  N546  1  0.060600  0.119300  0.590600  1.0  -0.3062
  N  N547  1  0.699600  0.244900  0.232000  1.0  -0.3456
  N  N548  1  0.763200  0.322700  0.440000  1.0  -0.4742
  N  N549  1  0.852400  0.290500  0.530300  1.0  -0.5148
  N  N550  1  0.847700  0.234500  0.443400  1.0  -0.4694
  N  N551  1  0.220800  0.812400  0.079900  1.0  -0.3285
  N  N552  1  0.587300  0.154700  0.095200  1.0  -0.3718
  N  N553  1  0.224900  0.030200  0.730500  1.0  -0.3452
  N  N554  1  0.375100  0.986500  0.029500  1.0  -0.4527
  N  N555  1  0.289300  0.951000  0.937500  1.0  -0.5005
  N  N556  1  0.377700  0.037700  0.943900  1.0  -0.5193
  N  N557  1  0.204900  0.970500  0.584200  1.0  -0.3682
  N  N558  1  0.560600  0.619300  0.590600  1.0  -0.3062
  N  N559  1  0.199600  0.744900  0.232000  1.0  -0.3456
  N  N560  1  0.263200  0.822700  0.440000  1.0  -0.4742
  N  N561  1  0.352400  0.790500  0.530300  1.0  -0.5148
  N  N562  1  0.347700  0.734500  0.443400  1.0  -0.4694
  N  N563  1  0.720800  0.312400  0.079900  1.0  -0.3285
  N  N564  1  0.087300  0.654700  0.095200  1.0  -0.3718
  N  N565  1  0.724900  0.530200  0.730500  1.0  -0.3452
  N  N566  1  0.875100  0.486500  0.029500  1.0  -0.4527
  N  N567  1  0.789300  0.451000  0.937500  1.0  -0.5005
  N  N568  1  0.877700  0.537700  0.943900  1.0  -0.5193
  N  N569  1  0.295100  0.470500  0.915800  1.0  -0.3682
  N  N570  1  0.939400  0.119300  0.909400  1.0  -0.3084
  N  N571  1  0.300400  0.244900  0.268000  1.0  -0.3441
  N  N572  1  0.236800  0.322700  0.060000  1.0  -0.4734
  N  N573  1  0.147600  0.290500  0.969700  1.0  -0.5122
  N  N574  1  0.152300  0.234500  0.056600  1.0  -0.4696
  N  N575  1  0.779200  0.812400  0.420100  1.0  -0.3278
  N  N576  1  0.412700  0.154700  0.404800  1.0  -0.3725
  N  N577  1  0.775100  0.030200  0.769500  1.0  -0.3456
  N  N578  1  0.624900  0.986500  0.470500  1.0  -0.4561
  N  N579  1  0.710700  0.951000  0.562500  1.0  -0.4979
  N  N580  1  0.622300  0.037700  0.556100  1.0  -0.5194
  N  N581  1  0.795100  0.970500  0.915800  1.0  -0.3682
  N  N582  1  0.439400  0.619300  0.909400  1.0  -0.3084
  N  N583  1  0.800400  0.744900  0.268000  1.0  -0.3441
  N  N584  1  0.736800  0.822700  0.060000  1.0  -0.4734
  N  N585  1  0.647600  0.790500  0.969700  1.0  -0.5122
  N  N586  1  0.652300  0.734500  0.056600  1.0  -0.4696
  N  N587  1  0.279200  0.312400  0.420100  1.0  -0.3278
  N  N588  1  0.912700  0.654700  0.404800  1.0  -0.3725
  N  N589  1  0.275100  0.530200  0.769500  1.0  -0.3456
  N  N590  1  0.124900  0.486500  0.470500  1.0  -0.4561
  N  N591  1  0.210700  0.451000  0.562500  1.0  -0.4979
  N  N592  1  0.122300  0.537700  0.556100  1.0  -0.5194
