# generated using pymatgen
data_AgH12(C3N)6
_symmetry_space_group_name_H-M   'P 1'
_cell_length_a   21.94160000
_cell_length_b   16.77340000
_cell_length_c   25.55130000
_cell_angle_alpha   90.00000000
_cell_angle_beta   115.22500000
_cell_angle_gamma   90.00000000
_symmetry_Int_Tables_number   1
_chemical_formula_structural   AgH12(C3N)6
_chemical_formula_sum   'Ag16 H192 C288 N96'
_cell_volume   8507.04547135
_cell_formula_units_Z   16
loop_
 _symmetry_equiv_pos_site_id
 _symmetry_equiv_pos_as_xyz
  1  'x, y, z'
loop_
 _atom_site_type_symbol
 _atom_site_label
 _atom_site_symmetry_multiplicity
 _atom_site_fract_x
 _atom_site_fract_y
 _atom_site_fract_z
 _atom_site_occupancy
 _atom_site_charge
  Ag  Ag1  1  0.344260  0.042410  0.367220  1.0  0.325
  Ag  Ag2  1  0.821440  0.244660  0.866810  1.0  0.2834
  Ag  Ag3  1  0.844260  0.542410  0.367220  1.0  0.325
  Ag  Ag4  1  0.321440  0.744660  0.866810  1.0  0.2834
  Ag  Ag5  1  0.655740  0.042410  0.132780  1.0  0.3238
  Ag  Ag6  1  0.178560  0.244660  0.633190  1.0  0.2834
  Ag  Ag7  1  0.155740  0.542410  0.132780  1.0  0.3238
  Ag  Ag8  1  0.678560  0.744660  0.633190  1.0  0.2834
  Ag  Ag9  1  0.655740  0.957590  0.632780  1.0  0.3244
  Ag  Ag10  1  0.178560  0.755340  0.133190  1.0  0.2838
  Ag  Ag11  1  0.155740  0.457590  0.632780  1.0  0.3244
  Ag  Ag12  1  0.678560  0.255340  0.133190  1.0  0.2838
  Ag  Ag13  1  0.344260  0.957590  0.867220  1.0  0.3251
  Ag  Ag14  1  0.821440  0.755340  0.366810  1.0  0.2837
  Ag  Ag15  1  0.844260  0.457590  0.867220  1.0  0.3251
  Ag  Ag16  1  0.321440  0.255340  0.366810  1.0  0.2837
  H  H17  1  0.554300  0.210400  0.388300  1.0  0.1167
  H  H18  1  0.022700  0.116200  0.035000  1.0  0.1266
  H  H19  1  0.200400  0.844500  0.851300  1.0  0.0841
  H  H20  1  0.819500  0.413200  0.544500  1.0  0.1213
  H  H21  1  0.924000  0.183600  0.983600  1.0  0.077
  H  H22  1  0.296800  0.865300  0.048500  1.0  0.1227
  H  H23  1  0.714200  0.441700  0.348100  1.0  0.0681
  H  H24  1  0.134200  0.061200  0.159100  1.0  0.1199
  H  H25  1  0.541900  0.170300  0.537500  1.0  0.1254
  H  H26  1  0.662200  0.367000  0.392200  1.0  0.1157
  H  H27  1  0.445300  0.103500  0.487500  1.0  0.0627
  H  H28  1  0.348200  0.796400  0.999700  1.0  0.0742
  H  H29  1  0.867000  0.482000  0.493800  1.0  0.0677
  H  H30  1  0.144400  0.913900  0.895000  1.0  0.1121
  H  H31  1  0.018800  0.044600  0.884900  1.0  0.1133
  H  H32  1  0.455000  0.141600  0.342600  1.0  0.0793
  H  H33  1  0.187900  0.076600  0.257800  1.0  0.07
  H  H34  1  0.348900  0.976400  0.262300  1.0  0.0731
  H  H35  1  0.924600  0.119200  0.837900  1.0  0.0765
  H  H36  1  0.301700  0.959700  0.164100  1.0  0.1222
  H  H37  1  0.865300  0.321600  0.764800  1.0  0.0705
  H  H38  1  0.727200  0.169700  0.752900  1.0  0.0725
  H  H39  1  0.823600  0.333500  0.667000  1.0  0.1225
  H  H40  1  0.675200  0.185300  0.654900  1.0  0.1192
  H  H41  1  0.054300  0.710400  0.388300  1.0  0.1167
  H  H42  1  0.522700  0.616200  0.035000  1.0  0.1266
  H  H43  1  0.700400  0.344500  0.851300  1.0  0.0841
  H  H44  1  0.319500  0.913200  0.544500  1.0  0.1213
  H  H45  1  0.424000  0.683600  0.983600  1.0  0.077
  H  H46  1  0.796800  0.365300  0.048500  1.0  0.1227
  H  H47  1  0.214200  0.941700  0.348100  1.0  0.0681
  H  H48  1  0.634200  0.561200  0.159100  1.0  0.1199
  H  H49  1  0.041900  0.670300  0.537500  1.0  0.1254
  H  H50  1  0.162200  0.867000  0.392200  1.0  0.1157
  H  H51  1  0.945300  0.603500  0.487500  1.0  0.0627
  H  H52  1  0.848200  0.296400  0.999700  1.0  0.0742
  H  H53  1  0.367000  0.982000  0.493800  1.0  0.0677
  H  H54  1  0.644400  0.413900  0.895000  1.0  0.1121
  H  H55  1  0.518800  0.544600  0.884900  1.0  0.1133
  H  H56  1  0.955000  0.641600  0.342600  1.0  0.0793
  H  H57  1  0.687900  0.576600  0.257800  1.0  0.0701
  H  H58  1  0.848900  0.476400  0.262300  1.0  0.0731
  H  H59  1  0.424600  0.619200  0.837900  1.0  0.0765
  H  H60  1  0.801700  0.459700  0.164100  1.0  0.1222
  H  H61  1  0.365300  0.821600  0.764800  1.0  0.0705
  H  H62  1  0.227200  0.669700  0.752900  1.0  0.0725
  H  H63  1  0.323600  0.833500  0.667000  1.0  0.1225
  H  H64  1  0.175200  0.685300  0.654900  1.0  0.1192
  H  H65  1  0.445700  0.210400  0.111700  1.0  0.1164
  H  H66  1  0.977300  0.116200  0.465000  1.0  0.1278
  H  H67  1  0.799600  0.844500  0.648700  1.0  0.0835
  H  H68  1  0.180500  0.413200  0.955500  1.0  0.1217
  H  H69  1  0.076000  0.183600  0.516400  1.0  0.0781
  H  H70  1  0.703200  0.865300  0.451500  1.0  0.1226
  H  H71  1  0.285800  0.441700  0.151900  1.0  0.0666
  H  H72  1  0.865800  0.061200  0.340900  1.0  0.1191
  H  H73  1  0.458100  0.170300  0.962500  1.0  0.1253
  H  H74  1  0.337800  0.367000  0.107800  1.0  0.116
  H  H75  1  0.554700  0.103500  0.012500  1.0  0.0624
  H  H76  1  0.651800  0.796400  0.500300  1.0  0.0741
  H  H77  1  0.133000  0.482000  0.006200  1.0  0.0667
  H  H78  1  0.855600  0.913900  0.605000  1.0  0.1123
  H  H79  1  0.981200  0.044600  0.615100  1.0  0.1136
  H  H80  1  0.545000  0.141600  0.157400  1.0  0.0796
  H  H81  1  0.812100  0.076600  0.242200  1.0  0.0704
  H  H82  1  0.651100  0.976400  0.237700  1.0  0.0727
  H  H83  1  0.075400  0.119200  0.662100  1.0  0.0768
  H  H84  1  0.698300  0.959700  0.335900  1.0  0.1228
  H  H85  1  0.134700  0.321600  0.735200  1.0  0.0719
  H  H86  1  0.272800  0.169700  0.747100  1.0  0.0715
  H  H87  1  0.176400  0.333500  0.833000  1.0  0.1219
  H  H88  1  0.324800  0.185300  0.845100  1.0  0.1191
  H  H89  1  0.945700  0.710400  0.111700  1.0  0.1164
  H  H90  1  0.477300  0.616200  0.465000  1.0  0.1278
  H  H91  1  0.299600  0.344500  0.648700  1.0  0.0835
  H  H92  1  0.680500  0.913200  0.955500  1.0  0.1217
  H  H93  1  0.576000  0.683600  0.516400  1.0  0.0781
  H  H94  1  0.203200  0.365300  0.451500  1.0  0.1226
  H  H95  1  0.785800  0.941700  0.151900  1.0  0.0666
  H  H96  1  0.365800  0.561200  0.340900  1.0  0.1191
  H  H97  1  0.958100  0.670300  0.962500  1.0  0.1253
  H  H98  1  0.837800  0.867000  0.107800  1.0  0.116
  H  H99  1  0.054700  0.603500  0.012500  1.0  0.0624
  H  H100  1  0.151800  0.296400  0.500300  1.0  0.0741
  H  H101  1  0.633000  0.982000  0.006200  1.0  0.0667
  H  H102  1  0.355600  0.413900  0.605000  1.0  0.1123
  H  H103  1  0.481200  0.544600  0.615100  1.0  0.1136
  H  H104  1  0.045000  0.641600  0.157400  1.0  0.0796
  H  H105  1  0.312100  0.576600  0.242200  1.0  0.0705
  H  H106  1  0.151100  0.476400  0.237700  1.0  0.0727
  H  H107  1  0.575400  0.619200  0.662100  1.0  0.0768
  H  H108  1  0.198300  0.459700  0.335900  1.0  0.1228
  H  H109  1  0.634700  0.821600  0.735200  1.0  0.0719
  H  H110  1  0.772800  0.669700  0.747100  1.0  0.0715
  H  H111  1  0.676400  0.833500  0.833000  1.0  0.1219
  H  H112  1  0.824800  0.685300  0.845100  1.0  0.1191
  H  H113  1  0.445700  0.789600  0.611700  1.0  0.1165
  H  H114  1  0.977300  0.883800  0.965000  1.0  0.1275
  H  H115  1  0.799600  0.155500  0.148700  1.0  0.0837
  H  H116  1  0.180500  0.586800  0.455500  1.0  0.1215
  H  H117  1  0.076000  0.816400  0.016400  1.0  0.0778
  H  H118  1  0.703200  0.134700  0.951500  1.0  0.1226
  H  H119  1  0.285800  0.558300  0.651900  1.0  0.0668
  H  H120  1  0.865800  0.938800  0.840900  1.0  0.1186
  H  H121  1  0.458100  0.829700  0.462500  1.0  0.1255
  H  H122  1  0.337800  0.633000  0.607800  1.0  0.116
  H  H123  1  0.554700  0.896500  0.512500  1.0  0.0621
  H  H124  1  0.651800  0.203600  0.000300  1.0  0.074
  H  H125  1  0.133000  0.518000  0.506200  1.0  0.0667
  H  H126  1  0.855600  0.086100  0.105000  1.0  0.112
  H  H127  1  0.981200  0.955400  0.115100  1.0  0.1135
  H  H128  1  0.545000  0.858400  0.657400  1.0  0.0798
  H  H129  1  0.812100  0.923400  0.742200  1.0  0.0707
  H  H130  1  0.651100  0.023600  0.737700  1.0  0.072
  H  H131  1  0.075400  0.880800  0.162100  1.0  0.0768
  H  H132  1  0.698300  0.040300  0.835900  1.0  0.1227
  H  H133  1  0.134700  0.678400  0.235200  1.0  0.0715
  H  H134  1  0.272800  0.830300  0.247100  1.0  0.0708
  H  H135  1  0.176400  0.666500  0.333000  1.0  0.1218
  H  H136  1  0.324800  0.814700  0.345100  1.0  0.1193
  H  H137  1  0.945700  0.289600  0.611700  1.0  0.1165
  H  H138  1  0.477300  0.383800  0.965000  1.0  0.1275
  H  H139  1  0.299600  0.655500  0.148700  1.0  0.0837
  H  H140  1  0.680500  0.086800  0.455500  1.0  0.1215
  H  H141  1  0.576000  0.316400  0.016400  1.0  0.0778
  H  H142  1  0.203200  0.634700  0.951500  1.0  0.1226
  H  H143  1  0.785800  0.058300  0.651900  1.0  0.0668
  H  H144  1  0.365800  0.438800  0.840900  1.0  0.1186
  H  H145  1  0.958100  0.329700  0.462500  1.0  0.1255
  H  H146  1  0.837800  0.133000  0.607800  1.0  0.116
  H  H147  1  0.054700  0.396500  0.512500  1.0  0.0621
  H  H148  1  0.151800  0.703600  0.000300  1.0  0.074
  H  H149  1  0.633000  0.018000  0.506200  1.0  0.0667
  H  H150  1  0.355600  0.586100  0.105000  1.0  0.112
  H  H151  1  0.481200  0.455400  0.115100  1.0  0.1135
  H  H152  1  0.045000  0.358400  0.657400  1.0  0.0798
  H  H153  1  0.312100  0.423400  0.742200  1.0  0.0707
  H  H154  1  0.151100  0.523600  0.737700  1.0  0.072
  H  H155  1  0.575400  0.380800  0.162100  1.0  0.0768
  H  H156  1  0.198300  0.540300  0.835900  1.0  0.1227
  H  H157  1  0.634700  0.178400  0.235200  1.0  0.0715
  H  H158  1  0.772800  0.330300  0.247100  1.0  0.0708
  H  H159  1  0.676400  0.166500  0.333000  1.0  0.1218
  H  H160  1  0.824800  0.314700  0.345100  1.0  0.1193
  H  H161  1  0.554300  0.789600  0.888300  1.0  0.117
  H  H162  1  0.022700  0.883800  0.535000  1.0  0.1267
  H  H163  1  0.200400  0.155500  0.351300  1.0  0.084
  H  H164  1  0.819500  0.586800  0.044500  1.0  0.1213
  H  H165  1  0.924000  0.816400  0.483600  1.0  0.0771
  H  H166  1  0.296800  0.134700  0.548500  1.0  0.1225
  H  H167  1  0.714200  0.558300  0.848100  1.0  0.0681
  H  H168  1  0.134200  0.938800  0.659100  1.0  0.12
  H  H169  1  0.541900  0.829700  0.037500  1.0  0.1254
  H  H170  1  0.662200  0.633000  0.892200  1.0  0.1156
  H  H171  1  0.445300  0.896500  0.987500  1.0  0.0623
  H  H172  1  0.348200  0.203600  0.499700  1.0  0.0743
  H  H173  1  0.867000  0.518000  0.993800  1.0  0.068
  H  H174  1  0.144400  0.086100  0.395000  1.0  0.1117
  H  H175  1  0.018800  0.955400  0.384900  1.0  0.1138
  H  H176  1  0.455000  0.858400  0.842600  1.0  0.0793
  H  H177  1  0.187900  0.923400  0.757800  1.0  0.0705
  H  H178  1  0.348900  0.023600  0.762300  1.0  0.0731
  H  H179  1  0.924600  0.880800  0.337900  1.0  0.0766
  H  H180  1  0.301700  0.040300  0.664100  1.0  0.1223
  H  H181  1  0.865300  0.678400  0.264800  1.0  0.0696
  H  H182  1  0.727200  0.830300  0.252900  1.0  0.0719
  H  H183  1  0.823600  0.666500  0.167000  1.0  0.1222
  H  H184  1  0.675200  0.814700  0.154900  1.0  0.1191
  H  H185  1  0.054300  0.289600  0.888300  1.0  0.117
  H  H186  1  0.522700  0.383800  0.535000  1.0  0.1267
  H  H187  1  0.700400  0.655500  0.351300  1.0  0.084
  H  H188  1  0.319500  0.086800  0.044500  1.0  0.1213
  H  H189  1  0.424000  0.316400  0.483600  1.0  0.0771
  H  H190  1  0.796800  0.634700  0.548500  1.0  0.1225
  H  H191  1  0.214200  0.058300  0.848100  1.0  0.0681
  H  H192  1  0.634200  0.438800  0.659100  1.0  0.12
  H  H193  1  0.041900  0.329700  0.037500  1.0  0.1254
  H  H194  1  0.162200  0.133000  0.892200  1.0  0.1156
  H  H195  1  0.945300  0.396500  0.987500  1.0  0.0623
  H  H196  1  0.848200  0.703600  0.499700  1.0  0.0743
  H  H197  1  0.367000  0.018000  0.993800  1.0  0.068
  H  H198  1  0.644400  0.586100  0.395000  1.0  0.1117
  H  H199  1  0.518800  0.455400  0.384900  1.0  0.1138
  H  H200  1  0.955000  0.358400  0.842600  1.0  0.0793
  H  H201  1  0.687900  0.423400  0.757800  1.0  0.0705
  H  H202  1  0.848900  0.523600  0.762300  1.0  0.0731
  H  H203  1  0.424600  0.380800  0.337900  1.0  0.0766
  H  H204  1  0.801700  0.540300  0.664100  1.0  0.1223
  H  H205  1  0.365300  0.178400  0.264800  1.0  0.0696
  H  H206  1  0.227200  0.330300  0.252900  1.0  0.0719
  H  H207  1  0.323600  0.166500  0.167000  1.0  0.1222
  H  H208  1  0.175200  0.314700  0.154900  1.0  0.1191
  C  C209  1  0.097100  0.029200  0.999400  1.0  0.3712
  C  C210  1  0.623800  0.243800  0.500700  1.0  0.3671
  C  C211  1  0.532800  0.189600  0.409700  1.0  -0.1565
  C  C212  1  0.559900  0.199500  0.468100  1.0  0.0074
  C  C213  1  0.003200  0.115300  0.994700  1.0  -0.1683
  C  C214  1  0.181200  0.947800  0.005500  1.0  0.3688
  C  C215  1  0.220000  0.848600  0.891400  1.0  0.1594
  C  C216  1  0.797600  0.416500  0.504400  1.0  -0.1662
  C  C217  1  0.032900  0.073500  0.965200  1.0  0.0053
  C  C218  1  0.943700  0.155700  0.963300  1.0  0.1647
  C  C219  1  0.709400  0.274600  0.586000  1.0  0.376
  C  C220  1  0.276300  0.862000  0.008300  1.0  -0.159
  C  C221  1  0.735800  0.434900  0.387900  1.0  0.1606
  C  C222  1  0.742400  0.263700  0.649700  1.0  -0.0604
  C  C223  1  0.178300  0.043500  0.179300  1.0  -0.1301
  C  C224  1  0.525200  0.165700  0.497600  1.0  -0.1848
  C  C225  1  0.213900  0.898600  0.975900  1.0  -0.053
  C  C226  1  0.211600  0.008000  0.150600  1.0  -0.0441
  C  C227  1  0.179400  0.998500  0.086500  1.0  0.3715
  C  C228  1  0.704200  0.389600  0.414200  1.0  -0.164
  C  C229  1  0.705000  0.327900  0.503600  1.0  0.3864
  C  C230  1  0.735400  0.378200  0.473200  1.0  -0.0325
  C  C231  1  0.467200  0.126300  0.467000  1.0  0.18
  C  C232  1  0.306700  0.820500  0.978400  1.0  0.1647
  C  C233  1  0.824900  0.459000  0.473300  1.0  0.1722
  C  C234  1  0.186000  0.890900  0.917400  1.0  -0.1545
  C  C235  1  0.001200  0.073900  0.906100  1.0  -0.1576
  C  C236  1  0.472700  0.148200  0.382500  1.0  0.1707
  C  C237  1  0.211000  0.052600  0.238700  1.0  0.1659
  C  C238  1  0.305000  0.994300  0.241100  1.0  0.1721
  C  C239  1  0.943600  0.117200  0.878100  1.0  0.1709
  C  C240  1  0.277200  0.983100  0.182100  1.0  -0.198
  C  C241  1  0.826500  0.293200  0.742300  1.0  0.1844
  C  C242  1  0.745100  0.205600  0.735500  1.0  0.1624
  C  C243  1  0.801400  0.302200  0.683500  1.0  -0.1939
  C  C244  1  0.714400  0.213400  0.676700  1.0  -0.1585
  C  C245  1  0.597100  0.529200  0.999400  1.0  0.3712
  C  C246  1  0.123800  0.743800  0.500700  1.0  0.3671
  C  C247  1  0.032800  0.689600  0.409700  1.0  -0.1565
  C  C248  1  0.059900  0.699500  0.468100  1.0  0.0074
  C  C249  1  0.503200  0.615300  0.994700  1.0  -0.1683
  C  C250  1  0.681200  0.447800  0.005500  1.0  0.3688
  C  C251  1  0.720000  0.348600  0.891400  1.0  0.1594
  C  C252  1  0.297600  0.916500  0.504400  1.0  -0.1662
  C  C253  1  0.532900  0.573500  0.965200  1.0  0.0053
  C  C254  1  0.443700  0.655700  0.963300  1.0  0.1647
  C  C255  1  0.209400  0.774600  0.586000  1.0  0.376
  C  C256  1  0.776300  0.362000  0.008300  1.0  -0.159
  C  C257  1  0.235800  0.934900  0.387900  1.0  0.1606
  C  C258  1  0.242400  0.763700  0.649700  1.0  -0.0604
  C  C259  1  0.678300  0.543500  0.179300  1.0  -0.1301
  C  C260  1  0.025200  0.665700  0.497600  1.0  -0.1848
  C  C261  1  0.713900  0.398600  0.975900  1.0  -0.053
  C  C262  1  0.711600  0.508000  0.150600  1.0  -0.0441
  C  C263  1  0.679400  0.498500  0.086500  1.0  0.3715
  C  C264  1  0.204200  0.889600  0.414200  1.0  -0.164
  C  C265  1  0.205000  0.827900  0.503600  1.0  0.3864
  C  C266  1  0.235400  0.878200  0.473200  1.0  -0.0325
  C  C267  1  0.967200  0.626300  0.467000  1.0  0.18
  C  C268  1  0.806700  0.320500  0.978400  1.0  0.1647
  C  C269  1  0.324900  0.959000  0.473300  1.0  0.1722
  C  C270  1  0.686000  0.390900  0.917400  1.0  -0.1545
  C  C271  1  0.501200  0.573900  0.906100  1.0  -0.1576
  C  C272  1  0.972700  0.648200  0.382500  1.0  0.1707
  C  C273  1  0.711000  0.552600  0.238700  1.0  0.1659
  C  C274  1  0.805000  0.494300  0.241100  1.0  0.1721
  C  C275  1  0.443600  0.617200  0.878100  1.0  0.1709
  C  C276  1  0.777200  0.483100  0.182100  1.0  -0.198
  C  C277  1  0.326500  0.793200  0.742300  1.0  0.1844
  C  C278  1  0.245100  0.705600  0.735500  1.0  0.1624
  C  C279  1  0.301400  0.802200  0.683500  1.0  -0.1939
  C  C280  1  0.214400  0.713400  0.676700  1.0  -0.1585
  C  C281  1  0.902900  0.029200  0.500600  1.0  0.3716
  C  C282  1  0.376200  0.243800  0.999300  1.0  0.3672
  C  C283  1  0.467200  0.189600  0.090300  1.0  -0.1564
  C  C284  1  0.440100  0.199500  0.031900  1.0  0.0067
  C  C285  1  0.996800  0.115300  0.505300  1.0  -0.1693
  C  C286  1  0.818800  0.947800  0.494500  1.0  0.3692
  C  C287  1  0.780000  0.848600  0.608600  1.0  0.16
  C  C288  1  0.202400  0.416500  0.995600  1.0  -0.1644
  C  C289  1  0.967100  0.073500  0.534800  1.0  0.0043
  C  C290  1  0.056300  0.155700  0.536700  1.0  0.165
  C  C291  1  0.290600  0.274600  0.914000  1.0  0.3754
  C  C292  1  0.723700  0.862000  0.491700  1.0  -0.1585
  C  C293  1  0.264200  0.434900  0.112100  1.0  0.1585
  C  C294  1  0.257600  0.263700  0.850300  1.0  -0.0594
  C  C295  1  0.821700  0.043500  0.320700  1.0  -0.1331
  C  C296  1  0.474800  0.165700  0.002400  1.0  -0.1835
  C  C297  1  0.786100  0.898600  0.524100  1.0  -0.0504
  C  C298  1  0.788400  0.008000  0.349400  1.0  -0.0449
  C  C299  1  0.820600  0.998500  0.413500  1.0  0.3718
  C  C300  1  0.295800  0.389600  0.085800  1.0  -0.1661
  C  C301  1  0.295000  0.327900  0.996400  1.0  0.3867
  C  C302  1  0.264600  0.378200  0.026800  1.0  -0.0318
  C  C303  1  0.532800  0.126300  0.033000  1.0  0.1796
  C  C304  1  0.693300  0.820500  0.521600  1.0  0.1652
  C  C305  1  0.175100  0.459000  0.026700  1.0  0.172
  C  C306  1  0.814000  0.890900  0.582600  1.0  -0.1541
  C  C307  1  0.998800  0.073900  0.593900  1.0  -0.16
  C  C308  1  0.527300  0.148200  0.117500  1.0  0.1694
  C  C309  1  0.789000  0.052600  0.261300  1.0  0.1664
  C  C310  1  0.695000  0.994300  0.258900  1.0  0.1712
  C  C311  1  0.056400  0.117200  0.621900  1.0  0.1682
  C  C312  1  0.722800  0.983100  0.317900  1.0  -0.1958
  C  C313  1  0.173500  0.293200  0.757700  1.0  0.183
  C  C314  1  0.254900  0.205600  0.764500  1.0  0.1614
  C  C315  1  0.198600  0.302200  0.816500  1.0  -0.191
  C  C316  1  0.285600  0.213400  0.823300  1.0  -0.1595
  C  C317  1  0.402900  0.529200  0.500600  1.0  0.3716
  C  C318  1  0.876200  0.743800  0.999300  1.0  0.3672
  C  C319  1  0.967200  0.689600  0.090300  1.0  -0.1564
  C  C320  1  0.940100  0.699500  0.031900  1.0  0.0067
  C  C321  1  0.496800  0.615300  0.505300  1.0  -0.1693
  C  C322  1  0.318800  0.447800  0.494500  1.0  0.3692
  C  C323  1  0.280000  0.348600  0.608600  1.0  0.16
  C  C324  1  0.702400  0.916500  0.995600  1.0  -0.1644
  C  C325  1  0.467100  0.573500  0.534800  1.0  0.0043
  C  C326  1  0.556300  0.655700  0.536700  1.0  0.165
  C  C327  1  0.790600  0.774600  0.914000  1.0  0.3754
  C  C328  1  0.223700  0.362000  0.491700  1.0  -0.1585
  C  C329  1  0.764200  0.934900  0.112100  1.0  0.1585
  C  C330  1  0.757600  0.763700  0.850300  1.0  -0.0594
  C  C331  1  0.321700  0.543500  0.320700  1.0  -0.1331
  C  C332  1  0.974800  0.665700  0.002400  1.0  -0.1835
  C  C333  1  0.286100  0.398600  0.524100  1.0  -0.0504
  C  C334  1  0.288400  0.508000  0.349400  1.0  -0.0449
  C  C335  1  0.320600  0.498500  0.413500  1.0  0.3718
  C  C336  1  0.795800  0.889600  0.085800  1.0  -0.1661
  C  C337  1  0.795000  0.827900  0.996400  1.0  0.3867
  C  C338  1  0.764600  0.878200  0.026800  1.0  -0.0318
  C  C339  1  0.032800  0.626300  0.033000  1.0  0.1796
  C  C340  1  0.193300  0.320500  0.521600  1.0  0.1652
  C  C341  1  0.675100  0.959000  0.026700  1.0  0.172
  C  C342  1  0.314000  0.390900  0.582600  1.0  -0.1541
  C  C343  1  0.498800  0.573900  0.593900  1.0  -0.16
  C  C344  1  0.027300  0.648200  0.117500  1.0  0.1694
  C  C345  1  0.289000  0.552600  0.261300  1.0  0.1664
  C  C346  1  0.195000  0.494300  0.258900  1.0  0.1712
  C  C347  1  0.556400  0.617200  0.621900  1.0  0.1682
  C  C348  1  0.222800  0.483100  0.317900  1.0  -0.1958
  C  C349  1  0.673500  0.793200  0.757700  1.0  0.183
  C  C350  1  0.754900  0.705600  0.764500  1.0  0.1614
  C  C351  1  0.698600  0.802200  0.816500  1.0  -0.191
  C  C352  1  0.785600  0.713400  0.823300  1.0  -0.1595
  C  C353  1  0.902900  0.970800  0.000600  1.0  0.372
  C  C354  1  0.376200  0.756200  0.499300  1.0  0.3669
  C  C355  1  0.467200  0.810400  0.590300  1.0  -0.1571
  C  C356  1  0.440100  0.800500  0.531900  1.0  0.0065
  C  C357  1  0.996800  0.884700  0.005300  1.0  -0.1689
  C  C358  1  0.818800  0.052200  0.994500  1.0  0.3695
  C  C359  1  0.780000  0.151400  0.108600  1.0  0.1594
  C  C360  1  0.202400  0.583500  0.495600  1.0  -0.1643
  C  C361  1  0.967100  0.926500  0.034800  1.0  0.0049
  C  C362  1  0.056300  0.844300  0.036700  1.0  0.1654
  C  C363  1  0.290600  0.725400  0.414000  1.0  0.3752
  C  C364  1  0.723700  0.138000  0.991700  1.0  -0.1587
  C  C365  1  0.264200  0.565100  0.612100  1.0  0.1588
  C  C366  1  0.257600  0.736300  0.350300  1.0  -0.0597
  C  C367  1  0.821700  0.956500  0.820700  1.0  -0.133
  C  C368  1  0.474800  0.834300  0.502400  1.0  -0.184
  C  C369  1  0.786100  0.101400  0.024100  1.0  -0.0504
  C  C370  1  0.788400  0.992000  0.849400  1.0  -0.0453
  C  C371  1  0.820600  0.001500  0.913500  1.0  0.3718
  C  C372  1  0.295800  0.610400  0.585800  1.0  -0.1654
  C  C373  1  0.295000  0.672100  0.496400  1.0  0.3868
  C  C374  1  0.264600  0.621800  0.526800  1.0  -0.0312
  C  C375  1  0.532800  0.873700  0.533000  1.0  0.1806
  C  C376  1  0.693300  0.179500  0.021600  1.0  0.1647
  C  C377  1  0.175100  0.541000  0.526700  1.0  0.1728
  C  C378  1  0.814000  0.109100  0.082600  1.0  -0.1536
  C  C379  1  0.998800  0.926100  0.093900  1.0  -0.1602
  C  C380  1  0.527300  0.851800  0.617500  1.0  0.1688
  C  C381  1  0.789000  0.947400  0.761300  1.0  0.166
  C  C382  1  0.695000  0.005700  0.758900  1.0  0.1708
  C  C383  1  0.056400  0.882800  0.121900  1.0  0.1679
  C  C384  1  0.722800  0.016900  0.817900  1.0  -0.1962
  C  C385  1  0.173500  0.706800  0.257700  1.0  0.1826
  C  C386  1  0.254900  0.794400  0.264500  1.0  0.1613
  C  C387  1  0.198600  0.697800  0.316500  1.0  -0.1913
  C  C388  1  0.285600  0.786600  0.323300  1.0  -0.1596
  C  C389  1  0.402900  0.470800  0.000600  1.0  0.372
  C  C390  1  0.876200  0.256200  0.499300  1.0  0.3669
  C  C391  1  0.967200  0.310400  0.590300  1.0  -0.1571
  C  C392  1  0.940100  0.300500  0.531900  1.0  0.0065
  C  C393  1  0.496800  0.384700  0.005300  1.0  -0.1689
  C  C394  1  0.318800  0.552200  0.994500  1.0  0.3695
  C  C395  1  0.280000  0.651400  0.108600  1.0  0.1594
  C  C396  1  0.702400  0.083500  0.495600  1.0  -0.1643
  C  C397  1  0.467100  0.426500  0.034800  1.0  0.0049
  C  C398  1  0.556300  0.344300  0.036700  1.0  0.1654
  C  C399  1  0.790600  0.225400  0.414000  1.0  0.3752
  C  C400  1  0.223700  0.638000  0.991700  1.0  -0.1587
  C  C401  1  0.764200  0.065100  0.612100  1.0  0.1588
  C  C402  1  0.757600  0.236300  0.350300  1.0  -0.0597
  C  C403  1  0.321700  0.456500  0.820700  1.0  -0.133
  C  C404  1  0.974800  0.334300  0.502400  1.0  -0.184
  C  C405  1  0.286100  0.601400  0.024100  1.0  -0.0504
  C  C406  1  0.288400  0.492000  0.849400  1.0  -0.0453
  C  C407  1  0.320600  0.501500  0.913500  1.0  0.3718
  C  C408  1  0.795800  0.110400  0.585800  1.0  -0.1654
  C  C409  1  0.795000  0.172100  0.496400  1.0  0.3868
  C  C410  1  0.764600  0.121800  0.526800  1.0  -0.0312
  C  C411  1  0.032800  0.373700  0.533000  1.0  0.1806
  C  C412  1  0.193300  0.679500  0.021600  1.0  0.1647
  C  C413  1  0.675100  0.041000  0.526700  1.0  0.1728
  C  C414  1  0.314000  0.609100  0.082600  1.0  -0.1536
  C  C415  1  0.498800  0.426100  0.093900  1.0  -0.1602
  C  C416  1  0.027300  0.351800  0.617500  1.0  0.1688
  C  C417  1  0.289000  0.447400  0.761300  1.0  0.166
  C  C418  1  0.195000  0.505700  0.758900  1.0  0.1708
  C  C419  1  0.556400  0.382800  0.121900  1.0  0.1679
  C  C420  1  0.222800  0.516900  0.817900  1.0  -0.1962
  C  C421  1  0.673500  0.206800  0.257700  1.0  0.1826
  C  C422  1  0.754900  0.294400  0.264500  1.0  0.1613
  C  C423  1  0.698600  0.197800  0.316500  1.0  -0.1913
  C  C424  1  0.785600  0.286600  0.323300  1.0  -0.1596
  C  C425  1  0.097100  0.970800  0.499400  1.0  0.3715
  C  C426  1  0.623800  0.756200  0.000700  1.0  0.3668
  C  C427  1  0.532800  0.810400  0.909700  1.0  -0.1569
  C  C428  1  0.559900  0.800500  0.968100  1.0  0.0065
  C  C429  1  0.003200  0.884700  0.494700  1.0  -0.168
  C  C430  1  0.181200  0.052200  0.505500  1.0  0.369
  C  C431  1  0.220000  0.151400  0.391400  1.0  0.1595
  C  C432  1  0.797600  0.583500  0.004400  1.0  -0.1663
  C  C433  1  0.032900  0.926500  0.465200  1.0  0.0064
  C  C434  1  0.943700  0.844300  0.463300  1.0  0.1653
  C  C435  1  0.709400  0.725400  0.086000  1.0  0.3758
  C  C436  1  0.276300  0.138000  0.508300  1.0  -0.159
  C  C437  1  0.735800  0.565100  0.887900  1.0  0.1607
  C  C438  1  0.742400  0.736300  0.149700  1.0  -0.0608
  C  C439  1  0.178300  0.956500  0.679300  1.0  -0.1298
  C  C440  1  0.525200  0.834300  0.997600  1.0  -0.1843
  C  C441  1  0.213900  0.101400  0.475900  1.0  -0.0532
  C  C442  1  0.211600  0.992000  0.650600  1.0  -0.0443
  C  C443  1  0.179400  0.001500  0.586500  1.0  0.3715
  C  C444  1  0.704200  0.610400  0.914200  1.0  -0.1641
  C  C445  1  0.705000  0.672100  0.003600  1.0  0.3863
  C  C446  1  0.735400  0.621800  0.973200  1.0  -0.0323
  C  C447  1  0.467200  0.873700  0.967000  1.0  0.1791
  C  C448  1  0.306700  0.179500  0.478400  1.0  0.1642
  C  C449  1  0.824900  0.541000  0.973300  1.0  0.1727
  C  C450  1  0.186000  0.109100  0.417400  1.0  -0.154
  C  C451  1  0.001200  0.926100  0.406100  1.0  -0.1582
  C  C452  1  0.472700  0.851800  0.882500  1.0  0.1707
  C  C453  1  0.211000  0.947400  0.738700  1.0  0.1655
  C  C454  1  0.305000  0.005700  0.741100  1.0  0.1713
  C  C455  1  0.943600  0.882800  0.378100  1.0  0.1704
  C  C456  1  0.277200  0.016900  0.682100  1.0  -0.1976
  C  C457  1  0.826500  0.706800  0.242300  1.0  0.1838
  C  C458  1  0.745100  0.794400  0.235500  1.0  0.1628
  C  C459  1  0.801400  0.697800  0.183500  1.0  -0.1944
  C  C460  1  0.714400  0.786600  0.176700  1.0  -0.1589
  C  C461  1  0.597100  0.470800  0.499400  1.0  0.3715
  C  C462  1  0.123800  0.256200  0.000700  1.0  0.3668
  C  C463  1  0.032800  0.310400  0.909700  1.0  -0.1569
  C  C464  1  0.059900  0.300500  0.968100  1.0  0.0065
  C  C465  1  0.503200  0.384700  0.494700  1.0  -0.168
  C  C466  1  0.681200  0.552200  0.505500  1.0  0.369
  C  C467  1  0.720000  0.651400  0.391400  1.0  0.1595
  C  C468  1  0.297600  0.083500  0.004400  1.0  -0.1663
  C  C469  1  0.532900  0.426500  0.465200  1.0  0.0064
  C  C470  1  0.443700  0.344300  0.463300  1.0  0.1653
  C  C471  1  0.209400  0.225400  0.086000  1.0  0.3758
  C  C472  1  0.776300  0.638000  0.508300  1.0  -0.159
  C  C473  1  0.235800  0.065100  0.887900  1.0  0.1607
  C  C474  1  0.242400  0.236300  0.149700  1.0  -0.0608
  C  C475  1  0.678300  0.456500  0.679300  1.0  -0.1298
  C  C476  1  0.025200  0.334300  0.997600  1.0  -0.1843
  C  C477  1  0.713900  0.601400  0.475900  1.0  -0.0532
  C  C478  1  0.711600  0.492000  0.650600  1.0  -0.0443
  C  C479  1  0.679400  0.501500  0.586500  1.0  0.3715
  C  C480  1  0.204200  0.110400  0.914200  1.0  -0.1641
  C  C481  1  0.205000  0.172100  0.003600  1.0  0.3863
  C  C482  1  0.235400  0.121800  0.973200  1.0  -0.0323
  C  C483  1  0.967200  0.373700  0.967000  1.0  0.1791
  C  C484  1  0.806700  0.679500  0.478400  1.0  0.1642
  C  C485  1  0.324900  0.041000  0.973300  1.0  0.1727
  C  C486  1  0.686000  0.609100  0.417400  1.0  -0.154
  C  C487  1  0.501200  0.426100  0.406100  1.0  -0.1582
  C  C488  1  0.972700  0.351800  0.882500  1.0  0.1707
  C  C489  1  0.711000  0.447400  0.738700  1.0  0.1655
  C  C490  1  0.805000  0.505700  0.741100  1.0  0.1713
  C  C491  1  0.443600  0.382800  0.378100  1.0  0.1704
  C  C492  1  0.777200  0.516900  0.682100  1.0  -0.1976
  C  C493  1  0.326500  0.206800  0.242300  1.0  0.1838
  C  C494  1  0.245100  0.294400  0.235500  1.0  0.1628
  C  C495  1  0.301400  0.197800  0.183500  1.0  -0.1944
  C  C496  1  0.214400  0.286600  0.176700  1.0  -0.1589
  N  N497  1  0.439300  0.117700  0.410300  1.0  -0.3099
  N  N498  1  0.795600  0.469400  0.416700  1.0  -0.3658
  N  N499  1  0.800300  0.247500  0.769600  1.0  -0.3521
  N  N500  1  0.648200  0.289300  0.471200  1.0  -0.4985
  N  N501  1  0.737600  0.322800  0.561600  1.0  -0.5244
  N  N502  1  0.652300  0.234000  0.557700  1.0  -0.5291
  N  N503  1  0.913100  0.156800  0.905700  1.0  -0.3676
  N  N504  1  0.279700  0.813400  0.921300  1.0  -0.3249
  N  N505  1  0.274500  0.028200  0.270000  1.0  -0.3596
  N  N506  1  0.125100  0.987800  0.972000  1.0  -0.4249
  N  N507  1  0.210300  0.951200  0.063100  1.0  -0.4933
  N  N508  1  0.122500  0.037800  0.056900  1.0  -0.4733
  N  N509  1  0.939300  0.617700  0.410300  1.0  -0.3099
  N  N510  1  0.295600  0.969400  0.416700  1.0  -0.3658
  N  N511  1  0.300300  0.747500  0.769600  1.0  -0.3521
  N  N512  1  0.148200  0.789300  0.471200  1.0  -0.4985
  N  N513  1  0.237600  0.822800  0.561600  1.0  -0.5244
  N  N514  1  0.152300  0.734000  0.557700  1.0  -0.5291
  N  N515  1  0.413100  0.656800  0.905700  1.0  -0.3676
  N  N516  1  0.779700  0.313400  0.921300  1.0  -0.3249
  N  N517  1  0.774500  0.528200  0.270000  1.0  -0.3596
  N  N518  1  0.625100  0.487800  0.972000  1.0  -0.4249
  N  N519  1  0.710300  0.451200  0.063100  1.0  -0.4933
  N  N520  1  0.622500  0.537800  0.056900  1.0  -0.4733
  N  N521  1  0.560700  0.117700  0.089700  1.0  -0.3071
  N  N522  1  0.204400  0.469400  0.083300  1.0  -0.3664
  N  N523  1  0.199700  0.247500  0.730400  1.0  -0.3507
  N  N524  1  0.351800  0.289300  0.028800  1.0  -0.4985
  N  N525  1  0.262400  0.322800  0.938400  1.0  -0.5255
  N  N526  1  0.347700  0.234000  0.942300  1.0  -0.5273
  N  N527  1  0.086900  0.156800  0.594300  1.0  -0.3678
  N  N528  1  0.720300  0.813400  0.578700  1.0  -0.3246
  N  N529  1  0.725500  0.028200  0.230000  1.0  -0.3584
  N  N530  1  0.874900  0.987800  0.528000  1.0  -0.4231
  N  N531  1  0.789700  0.951200  0.436900  1.0  -0.4951
  N  N532  1  0.877500  0.037800  0.443100  1.0  -0.4711
  N  N533  1  0.060700  0.617700  0.089700  1.0  -0.3071
  N  N534  1  0.704400  0.969400  0.083300  1.0  -0.3664
  N  N535  1  0.699700  0.747500  0.730400  1.0  -0.3507
  N  N536  1  0.851800  0.789300  0.028800  1.0  -0.4985
  N  N537  1  0.762400  0.822800  0.938400  1.0  -0.5255
  N  N538  1  0.847700  0.734000  0.942300  1.0  -0.5273
  N  N539  1  0.586900  0.656800  0.594300  1.0  -0.3678
  N  N540  1  0.220300  0.313400  0.578700  1.0  -0.3246
  N  N541  1  0.225500  0.528200  0.230000  1.0  -0.3584
  N  N542  1  0.374900  0.487800  0.528000  1.0  -0.4231
  N  N543  1  0.289700  0.451200  0.436900  1.0  -0.4951
  N  N544  1  0.377500  0.537800  0.443100  1.0  -0.4711
  N  N545  1  0.560700  0.882300  0.589700  1.0  -0.3067
  N  N546  1  0.204400  0.530600  0.583300  1.0  -0.3652
  N  N547  1  0.199700  0.752500  0.230400  1.0  -0.3498
  N  N548  1  0.351800  0.710700  0.528800  1.0  -0.4989
  N  N549  1  0.262400  0.677200  0.438400  1.0  -0.5267
  N  N550  1  0.347700  0.766000  0.442300  1.0  -0.5263
  N  N551  1  0.086900  0.843200  0.094300  1.0  -0.3657
  N  N552  1  0.720300  0.186600  0.078700  1.0  -0.3232
  N  N553  1  0.725500  0.971800  0.730000  1.0  -0.3593
  N  N554  1  0.874900  0.012200  0.028000  1.0  -0.4244
  N  N555  1  0.789700  0.048800  0.936900  1.0  -0.4938
  N  N556  1  0.877500  0.962200  0.943100  1.0  -0.4712
  N  N557  1  0.060700  0.382300  0.589700  1.0  -0.3067
  N  N558  1  0.704400  0.030600  0.583300  1.0  -0.3652
  N  N559  1  0.699700  0.252500  0.230400  1.0  -0.3498
  N  N560  1  0.851800  0.210700  0.528800  1.0  -0.4989
  N  N561  1  0.762400  0.177200  0.438400  1.0  -0.5267
  N  N562  1  0.847700  0.266000  0.442300  1.0  -0.5263
  N  N563  1  0.586900  0.343200  0.094300  1.0  -0.3657
  N  N564  1  0.220300  0.686600  0.078700  1.0  -0.3232
  N  N565  1  0.225500  0.471800  0.730000  1.0  -0.3593
  N  N566  1  0.374900  0.512200  0.028000  1.0  -0.4244
  N  N567  1  0.289700  0.548800  0.936900  1.0  -0.4938
  N  N568  1  0.377500  0.462200  0.943100  1.0  -0.4712
  N  N569  1  0.439300  0.882300  0.910300  1.0  -0.3059
  N  N570  1  0.795600  0.530600  0.916700  1.0  -0.3666
  N  N571  1  0.800300  0.752500  0.269600  1.0  -0.3525
  N  N572  1  0.648200  0.710700  0.971200  1.0  -0.4986
  N  N573  1  0.737600  0.677200  0.061600  1.0  -0.5243
  N  N574  1  0.652300  0.766000  0.057700  1.0  -0.5292
  N  N575  1  0.913100  0.843200  0.405700  1.0  -0.3683
  N  N576  1  0.279700  0.186600  0.421300  1.0  -0.3217
  N  N577  1  0.274500  0.971800  0.770000  1.0  -0.3594
  N  N578  1  0.125100  0.012200  0.472000  1.0  -0.4251
  N  N579  1  0.210300  0.048800  0.563100  1.0  -0.4935
  N  N580  1  0.122500  0.962200  0.556900  1.0  -0.4724
  N  N581  1  0.939300  0.382300  0.910300  1.0  -0.3059
  N  N582  1  0.295600  0.030600  0.916700  1.0  -0.3666
  N  N583  1  0.300300  0.252500  0.269600  1.0  -0.3525
  N  N584  1  0.148200  0.210700  0.971200  1.0  -0.4986
  N  N585  1  0.237600  0.177200  0.061600  1.0  -0.5243
  N  N586  1  0.152300  0.266000  0.057700  1.0  -0.5292
  N  N587  1  0.413100  0.343200  0.405700  1.0  -0.3683
  N  N588  1  0.779700  0.686600  0.421300  1.0  -0.3217
  N  N589  1  0.774500  0.471800  0.770000  1.0  -0.3594
  N  N590  1  0.625100  0.512200  0.472000  1.0  -0.4251
  N  N591  1  0.710300  0.548800  0.563100  1.0  -0.4935
  N  N592  1  0.622500  0.462200  0.556900  1.0  -0.4724
