# generated using pymatgen
data_AgH12(C3N)6
_symmetry_space_group_name_H-M   'P 1'
_cell_length_a   22.02670000
_cell_length_b   16.60610000
_cell_length_c   25.57420000
_cell_angle_alpha   90.00000000
_cell_angle_beta   115.25000000
_cell_angle_gamma   90.00000000
_symmetry_Int_Tables_number   1
_chemical_formula_structural   AgH12(C3N)6
_chemical_formula_sum   'Ag16 H192 C288 N96'
_cell_volume   8460.69767416
_cell_formula_units_Z   16
loop_
 _symmetry_equiv_pos_site_id
 _symmetry_equiv_pos_as_xyz
  1  'x, y, z'
loop_
 _atom_site_type_symbol
 _atom_site_label
 _atom_site_symmetry_multiplicity
 _atom_site_fract_x
 _atom_site_fract_y
 _atom_site_fract_z
 _atom_site_occupancy
 _atom_site_charge
  Ag  Ag1  1  0.344240  0.957080  0.367260  1.0  0.334
  Ag  Ag2  1  0.322270  0.255010  0.866750  1.0  0.3019
  Ag  Ag3  1  0.844240  0.457080  0.367260  1.0  0.334
  Ag  Ag4  1  0.822270  0.755010  0.866750  1.0  0.3019
  Ag  Ag5  1  0.655760  0.957080  0.132740  1.0  0.3344
  Ag  Ag6  1  0.677730  0.255010  0.633250  1.0  0.3017
  Ag  Ag7  1  0.155760  0.457080  0.132740  1.0  0.3344
  Ag  Ag8  1  0.177730  0.755010  0.633250  1.0  0.3017
  Ag  Ag9  1  0.655760  0.042920  0.632740  1.0  0.3341
  Ag  Ag10  1  0.677730  0.744990  0.133250  1.0  0.3015
  Ag  Ag11  1  0.155760  0.542920  0.632740  1.0  0.3341
  Ag  Ag12  1  0.177730  0.244990  0.133250  1.0  0.3015
  Ag  Ag13  1  0.344240  0.042920  0.867260  1.0  0.3339
  Ag  Ag14  1  0.322270  0.744990  0.366750  1.0  0.3018
  Ag  Ag15  1  0.844240  0.542920  0.867260  1.0  0.3339
  Ag  Ag16  1  0.822270  0.244990  0.366750  1.0  0.3018
  H  H17  1  0.054000  0.289700  0.388000  1.0  0.1264
  H  H18  1  0.319900  0.087200  0.544400  1.0  0.1219
  H  H19  1  0.523600  0.383300  0.035600  1.0  0.1298
  H  H20  1  0.700600  0.657200  0.851100  1.0  0.0841
  H  H21  1  0.798400  0.634500  0.048700  1.0  0.1233
  H  H22  1  0.424200  0.316400  0.983500  1.0  0.0702
  H  H23  1  0.043100  0.329700  0.538600  1.0  0.1275
  H  H24  1  0.213500  0.057200  0.347800  1.0  0.079
  H  H25  1  0.945000  0.396800  0.488300  1.0  0.0726
  H  H26  1  0.634800  0.438800  0.159200  1.0  0.1198
  H  H27  1  0.162000  0.131900  0.392500  1.0  0.118
  H  H28  1  0.644900  0.586900  0.894900  1.0  0.1045
  H  H29  1  0.955600  0.360000  0.343300  1.0  0.0779
  H  H30  1  0.848600  0.704600  0.999900  1.0  0.0772
  H  H31  1  0.366800  0.017100  0.493500  1.0  0.0716
  H  H32  1  0.519100  0.457600  0.884600  1.0  0.1267
  H  H33  1  0.850600  0.521900  0.262400  1.0  0.0769
  H  H34  1  0.689000  0.422200  0.258400  1.0  0.0783
  H  H35  1  0.226000  0.329900  0.753400  1.0  0.0775
  H  H36  1  0.424500  0.382400  0.838000  1.0  0.0747
  H  H37  1  0.175400  0.316200  0.654900  1.0  0.1231
  H  H38  1  0.367200  0.180900  0.765600  1.0  0.0772
  H  H39  1  0.801900  0.540600  0.164000  1.0  0.1238
  H  H40  1  0.324500  0.168400  0.667200  1.0  0.1229
  H  H41  1  0.554000  0.789700  0.388000  1.0  0.1264
  H  H42  1  0.819900  0.587200  0.544400  1.0  0.1219
  H  H43  1  0.023600  0.883300  0.035600  1.0  0.1298
  H  H44  1  0.200600  0.157200  0.851100  1.0  0.0841
  H  H45  1  0.298400  0.134500  0.048700  1.0  0.1233
  H  H46  1  0.924200  0.816400  0.983500  1.0  0.0702
  H  H47  1  0.543100  0.829700  0.538600  1.0  0.1275
  H  H48  1  0.713500  0.557200  0.347800  1.0  0.079
  H  H49  1  0.445000  0.896800  0.488300  1.0  0.0726
  H  H50  1  0.134800  0.938800  0.159200  1.0  0.1198
  H  H51  1  0.662000  0.631900  0.392500  1.0  0.118
  H  H52  1  0.144900  0.086900  0.894900  1.0  0.1045
  H  H53  1  0.455600  0.860000  0.343300  1.0  0.0779
  H  H54  1  0.348600  0.204600  0.999900  1.0  0.0772
  H  H55  1  0.866800  0.517100  0.493500  1.0  0.0716
  H  H56  1  0.019100  0.957600  0.884600  1.0  0.1267
  H  H57  1  0.350600  0.021900  0.262400  1.0  0.0769
  H  H58  1  0.189000  0.922200  0.258400  1.0  0.0783
  H  H59  1  0.726000  0.829900  0.753400  1.0  0.0775
  H  H60  1  0.924500  0.882400  0.838000  1.0  0.0747
  H  H61  1  0.675400  0.816200  0.654900  1.0  0.1231
  H  H62  1  0.867200  0.680900  0.765600  1.0  0.0772
  H  H63  1  0.301900  0.040600  0.164000  1.0  0.1238
  H  H64  1  0.824500  0.668400  0.667200  1.0  0.1229
  H  H65  1  0.946000  0.289700  0.112000  1.0  0.1263
  H  H66  1  0.680100  0.087200  0.955600  1.0  0.1222
  H  H67  1  0.476400  0.383300  0.464400  1.0  0.1297
  H  H68  1  0.299400  0.657200  0.648900  1.0  0.0839
  H  H69  1  0.201600  0.634500  0.451300  1.0  0.1234
  H  H70  1  0.575800  0.316400  0.516500  1.0  0.071
  H  H71  1  0.956900  0.329700  0.961400  1.0  0.1273
  H  H72  1  0.786500  0.057200  0.152200  1.0  0.0781
  H  H73  1  0.055000  0.396800  0.011700  1.0  0.0729
  H  H74  1  0.365200  0.438800  0.340800  1.0  0.1191
  H  H75  1  0.838000  0.131900  0.107500  1.0  0.1176
  H  H76  1  0.355100  0.586900  0.605100  1.0  0.1049
  H  H77  1  0.044400  0.360000  0.156700  1.0  0.0781
  H  H78  1  0.151400  0.704600  0.500100  1.0  0.0764
  H  H79  1  0.633200  0.017100  0.006500  1.0  0.071
  H  H80  1  0.480900  0.457600  0.615400  1.0  0.1261
  H  H81  1  0.149400  0.521900  0.237600  1.0  0.0757
  H  H82  1  0.311000  0.422200  0.241600  1.0  0.0778
  H  H83  1  0.774000  0.329900  0.746600  1.0  0.0762
  H  H84  1  0.575500  0.382400  0.662000  1.0  0.0749
  H  H85  1  0.824600  0.316200  0.845100  1.0  0.1233
  H  H86  1  0.632800  0.180900  0.734400  1.0  0.0779
  H  H87  1  0.198100  0.540600  0.336000  1.0  0.1239
  H  H88  1  0.675500  0.168400  0.832800  1.0  0.1229
  H  H89  1  0.446000  0.789700  0.112000  1.0  0.1263
  H  H90  1  0.180100  0.587200  0.955600  1.0  0.1222
  H  H91  1  0.976400  0.883300  0.464400  1.0  0.1297
  H  H92  1  0.799400  0.157200  0.648900  1.0  0.0839
  H  H93  1  0.701600  0.134500  0.451300  1.0  0.1234
  H  H94  1  0.075800  0.816400  0.516500  1.0  0.071
  H  H95  1  0.456900  0.829700  0.961400  1.0  0.1273
  H  H96  1  0.286500  0.557200  0.152200  1.0  0.0781
  H  H97  1  0.555000  0.896800  0.011700  1.0  0.0729
  H  H98  1  0.865200  0.938800  0.340800  1.0  0.1191
  H  H99  1  0.338000  0.631900  0.107500  1.0  0.1176
  H  H100  1  0.855100  0.086900  0.605100  1.0  0.1049
  H  H101  1  0.544400  0.860000  0.156700  1.0  0.0781
  H  H102  1  0.651400  0.204600  0.500100  1.0  0.0764
  H  H103  1  0.133200  0.517100  0.006500  1.0  0.071
  H  H104  1  0.980900  0.957600  0.615400  1.0  0.1261
  H  H105  1  0.649400  0.021900  0.237600  1.0  0.0757
  H  H106  1  0.811000  0.922200  0.241600  1.0  0.0778
  H  H107  1  0.274000  0.829900  0.746600  1.0  0.0762
  H  H108  1  0.075500  0.882400  0.662000  1.0  0.0749
  H  H109  1  0.324600  0.816200  0.845100  1.0  0.1233
  H  H110  1  0.132800  0.680900  0.734400  1.0  0.0779
  H  H111  1  0.698100  0.040600  0.336000  1.0  0.1239
  H  H112  1  0.175500  0.668400  0.832800  1.0  0.1229
  H  H113  1  0.946000  0.710300  0.612000  1.0  0.1262
  H  H114  1  0.680100  0.912800  0.455600  1.0  0.1223
  H  H115  1  0.476400  0.616700  0.964400  1.0  0.1302
  H  H116  1  0.299400  0.342800  0.148900  1.0  0.0836
  H  H117  1  0.201600  0.365500  0.951300  1.0  0.1233
  H  H118  1  0.575800  0.683600  0.016500  1.0  0.0712
  H  H119  1  0.956900  0.670300  0.461400  1.0  0.1271
  H  H120  1  0.786500  0.942800  0.652200  1.0  0.0779
  H  H121  1  0.055000  0.603200  0.511700  1.0  0.0731
  H  H122  1  0.365200  0.561200  0.840800  1.0  0.1197
  H  H123  1  0.838000  0.868100  0.607500  1.0  0.1175
  H  H124  1  0.355100  0.413100  0.105100  1.0  0.1051
  H  H125  1  0.044400  0.640000  0.656700  1.0  0.0782
  H  H126  1  0.151400  0.295400  0.000100  1.0  0.077
  H  H127  1  0.633200  0.982900  0.506500  1.0  0.0709
  H  H128  1  0.480900  0.542400  0.115400  1.0  0.1262
  H  H129  1  0.149400  0.478100  0.737600  1.0  0.0758
  H  H130  1  0.311000  0.577800  0.741600  1.0  0.0776
  H  H131  1  0.774000  0.670100  0.246600  1.0  0.0766
  H  H132  1  0.575500  0.617600  0.162000  1.0  0.075
  H  H133  1  0.824600  0.683800  0.345100  1.0  0.1231
  H  H134  1  0.632800  0.819100  0.234400  1.0  0.0769
  H  H135  1  0.198100  0.459400  0.836000  1.0  0.124
  H  H136  1  0.675500  0.831600  0.332800  1.0  0.1229
  H  H137  1  0.446000  0.210300  0.612000  1.0  0.1262
  H  H138  1  0.180100  0.412800  0.455600  1.0  0.1223
  H  H139  1  0.976400  0.116700  0.964400  1.0  0.1302
  H  H140  1  0.799400  0.842800  0.148900  1.0  0.0836
  H  H141  1  0.701600  0.865500  0.951300  1.0  0.1233
  H  H142  1  0.075800  0.183600  0.016500  1.0  0.0712
  H  H143  1  0.456900  0.170300  0.461400  1.0  0.1271
  H  H144  1  0.286500  0.442800  0.652200  1.0  0.0779
  H  H145  1  0.555000  0.103200  0.511700  1.0  0.0731
  H  H146  1  0.865200  0.061200  0.840800  1.0  0.1197
  H  H147  1  0.338000  0.368100  0.607500  1.0  0.1175
  H  H148  1  0.855100  0.913100  0.105100  1.0  0.1051
  H  H149  1  0.544400  0.140000  0.656700  1.0  0.0782
  H  H150  1  0.651400  0.795400  0.000100  1.0  0.077
  H  H151  1  0.133200  0.482900  0.506500  1.0  0.0709
  H  H152  1  0.980900  0.042400  0.115400  1.0  0.1262
  H  H153  1  0.649400  0.978100  0.737600  1.0  0.0758
  H  H154  1  0.811000  0.077800  0.741600  1.0  0.0776
  H  H155  1  0.274000  0.170100  0.246600  1.0  0.0766
  H  H156  1  0.075500  0.117600  0.162000  1.0  0.075
  H  H157  1  0.324600  0.183800  0.345100  1.0  0.1231
  H  H158  1  0.132800  0.319100  0.234400  1.0  0.0769
  H  H159  1  0.698100  0.959400  0.836000  1.0  0.124
  H  H160  1  0.175500  0.331600  0.332800  1.0  0.1229
  H  H161  1  0.054000  0.710300  0.888000  1.0  0.1262
  H  H162  1  0.319900  0.912800  0.044400  1.0  0.1216
  H  H163  1  0.523600  0.616700  0.535600  1.0  0.1296
  H  H164  1  0.700600  0.342800  0.351100  1.0  0.084
  H  H165  1  0.798400  0.365500  0.548700  1.0  0.1234
  H  H166  1  0.424200  0.683600  0.483500  1.0  0.0703
  H  H167  1  0.043100  0.670300  0.038600  1.0  0.1276
  H  H168  1  0.213500  0.942800  0.847800  1.0  0.0787
  H  H169  1  0.945000  0.603200  0.988300  1.0  0.0729
  H  H170  1  0.634800  0.561200  0.659200  1.0  0.1198
  H  H171  1  0.162000  0.868100  0.892500  1.0  0.1182
  H  H172  1  0.644900  0.413100  0.394900  1.0  0.1046
  H  H173  1  0.955600  0.640000  0.843300  1.0  0.0777
  H  H174  1  0.848600  0.295400  0.499900  1.0  0.0774
  H  H175  1  0.366800  0.982900  0.993500  1.0  0.0715
  H  H176  1  0.519100  0.542400  0.384600  1.0  0.1262
  H  H177  1  0.850600  0.478100  0.762400  1.0  0.0767
  H  H178  1  0.689000  0.577800  0.758400  1.0  0.0779
  H  H179  1  0.226000  0.670100  0.253400  1.0  0.0779
  H  H180  1  0.424500  0.617600  0.338000  1.0  0.0747
  H  H181  1  0.175400  0.683800  0.154900  1.0  0.1231
  H  H182  1  0.367200  0.819100  0.265600  1.0  0.0764
  H  H183  1  0.801900  0.459400  0.664000  1.0  0.1239
  H  H184  1  0.324500  0.831600  0.167200  1.0  0.1232
  H  H185  1  0.554000  0.210300  0.888000  1.0  0.1262
  H  H186  1  0.819900  0.412800  0.044400  1.0  0.1216
  H  H187  1  0.023600  0.116700  0.535600  1.0  0.1296
  H  H188  1  0.200600  0.842800  0.351100  1.0  0.084
  H  H189  1  0.298400  0.865500  0.548700  1.0  0.1234
  H  H190  1  0.924200  0.183600  0.483500  1.0  0.0703
  H  H191  1  0.543100  0.170300  0.038600  1.0  0.1276
  H  H192  1  0.713500  0.442800  0.847800  1.0  0.0787
  H  H193  1  0.445000  0.103200  0.988300  1.0  0.0729
  H  H194  1  0.134800  0.061200  0.659200  1.0  0.1198
  H  H195  1  0.662000  0.368100  0.892500  1.0  0.1182
  H  H196  1  0.144900  0.913100  0.394900  1.0  0.1046
  H  H197  1  0.455600  0.140000  0.843300  1.0  0.0777
  H  H198  1  0.348600  0.795400  0.499900  1.0  0.0774
  H  H199  1  0.866800  0.482900  0.993500  1.0  0.0715
  H  H200  1  0.019100  0.042400  0.384600  1.0  0.1262
  H  H201  1  0.350600  0.978100  0.762400  1.0  0.0767
  H  H202  1  0.189000  0.077800  0.758400  1.0  0.0779
  H  H203  1  0.726000  0.170100  0.253400  1.0  0.0779
  H  H204  1  0.924500  0.117600  0.338000  1.0  0.0747
  H  H205  1  0.675400  0.183800  0.154900  1.0  0.1231
  H  H206  1  0.867200  0.319100  0.265600  1.0  0.0764
  H  H207  1  0.301900  0.959400  0.664000  1.0  0.1239
  H  H208  1  0.824500  0.331600  0.167200  1.0  0.1232
  C  C209  1  0.032700  0.310700  0.409600  1.0  -0.1685
  C  C210  1  0.123700  0.255900  0.501000  1.0  0.3663
  C  C211  1  0.597800  0.471300  0.999500  1.0  0.3683
  C  C212  1  0.059800  0.300900  0.468800  1.0  -0.055
  C  C213  1  0.297700  0.083500  0.504300  1.0  -0.1816
  C  C214  1  0.503900  0.384700  0.995400  1.0  -0.155
  C  C215  1  0.209500  0.226100  0.586400  1.0  0.3834
  C  C216  1  0.720300  0.652500  0.891100  1.0  0.1551
  C  C217  1  0.682000  0.552200  0.005600  1.0  0.369
  C  C218  1  0.777500  0.638300  0.008600  1.0  -0.1544
  C  C219  1  0.533300  0.427200  0.965400  1.0  -0.0867
  C  C220  1  0.444100  0.344400  0.963400  1.0  0.1715
  C  C221  1  0.242800  0.236700  0.650400  1.0  -0.0754
  C  C222  1  0.026000  0.334300  0.498600  1.0  -0.1938
  C  C223  1  0.235300  0.064300  0.387700  1.0  0.1657
  C  C224  1  0.714800  0.601700  0.976500  1.0  -0.0084
  C  C225  1  0.235400  0.121600  0.473500  1.0  -0.0481
  C  C226  1  0.967000  0.374200  0.467900  1.0  0.1732
  C  C227  1  0.678800  0.456100  0.179500  1.0  -0.1151
  C  C228  1  0.204100  0.109500  0.414300  1.0  -0.1506
  C  C229  1  0.680200  0.502100  0.086900  1.0  0.3818
  C  C230  1  0.712400  0.491400  0.151100  1.0  -0.0786
  C  C231  1  0.686500  0.609900  0.917300  1.0  -0.1401
  C  C232  1  0.973100  0.352600  0.383100  1.0  0.1735
  C  C233  1  0.807300  0.680100  0.978700  1.0  0.1662
  C  C234  1  0.205300  0.172100  0.503800  1.0  0.3872
  C  C235  1  0.324800  0.040400  0.473100  1.0  0.1756
  C  C236  1  0.501600  0.427900  0.905700  1.0  -0.1518
  C  C237  1  0.806600  0.504900  0.241300  1.0  0.1699
  C  C238  1  0.711800  0.446400  0.239200  1.0  0.1696
  C  C239  1  0.244900  0.295100  0.735900  1.0  0.1631
  C  C240  1  0.443800  0.384000  0.878200  1.0  0.172
  C  C241  1  0.214400  0.287600  0.676800  1.0  -0.1592
  C  C242  1  0.328000  0.208600  0.743000  1.0  0.1832
  C  C243  1  0.778000  0.516600  0.182200  1.0  -0.176
  C  C244  1  0.302200  0.199300  0.683900  1.0  -0.1799
  C  C245  1  0.532700  0.810700  0.409600  1.0  -0.1685
  C  C246  1  0.623700  0.755900  0.501000  1.0  0.3663
  C  C247  1  0.097800  0.971300  0.999500  1.0  0.3683
  C  C248  1  0.559800  0.800900  0.468800  1.0  -0.055
  C  C249  1  0.797700  0.583500  0.504300  1.0  -0.1816
  C  C250  1  0.003900  0.884700  0.995400  1.0  -0.155
  C  C251  1  0.709500  0.726100  0.586400  1.0  0.3834
  C  C252  1  0.220300  0.152500  0.891100  1.0  0.1551
  C  C253  1  0.182000  0.052200  0.005600  1.0  0.369
  C  C254  1  0.277500  0.138300  0.008600  1.0  -0.1544
  C  C255  1  0.033300  0.927200  0.965400  1.0  -0.0867
  C  C256  1  0.944100  0.844400  0.963400  1.0  0.1715
  C  C257  1  0.742800  0.736700  0.650400  1.0  -0.0754
  C  C258  1  0.526000  0.834300  0.498600  1.0  -0.1938
  C  C259  1  0.735300  0.564300  0.387700  1.0  0.1657
  C  C260  1  0.214800  0.101700  0.976500  1.0  -0.0084
  C  C261  1  0.735400  0.621600  0.473500  1.0  -0.0481
  C  C262  1  0.467000  0.874200  0.467900  1.0  0.1732
  C  C263  1  0.178800  0.956100  0.179500  1.0  -0.1151
  C  C264  1  0.704100  0.609500  0.414300  1.0  -0.1506
  C  C265  1  0.180200  0.002100  0.086900  1.0  0.3818
  C  C266  1  0.212400  0.991400  0.151100  1.0  -0.0786
  C  C267  1  0.186500  0.109900  0.917300  1.0  -0.1401
  C  C268  1  0.473100  0.852600  0.383100  1.0  0.1735
  C  C269  1  0.307300  0.180100  0.978700  1.0  0.1662
  C  C270  1  0.705300  0.672100  0.503800  1.0  0.3872
  C  C271  1  0.824800  0.540400  0.473100  1.0  0.1756
  C  C272  1  0.001600  0.927900  0.905700  1.0  -0.1518
  C  C273  1  0.306600  0.004900  0.241300  1.0  0.1699
  C  C274  1  0.211800  0.946400  0.239200  1.0  0.1696
  C  C275  1  0.744900  0.795100  0.735900  1.0  0.1631
  C  C276  1  0.943800  0.884000  0.878200  1.0  0.172
  C  C277  1  0.714400  0.787600  0.676800  1.0  -0.1592
  C  C278  1  0.828000  0.708600  0.743000  1.0  0.1832
  C  C279  1  0.278000  0.016600  0.182200  1.0  -0.176
  C  C280  1  0.802200  0.699300  0.683900  1.0  -0.1799
  C  C281  1  0.967300  0.310700  0.090400  1.0  -0.1676
  C  C282  1  0.876300  0.255900  0.999000  1.0  0.3663
  C  C283  1  0.402200  0.471300  0.500500  1.0  0.3687
  C  C284  1  0.940200  0.300900  0.031200  1.0  -0.055
  C  C285  1  0.702300  0.083500  0.995700  1.0  -0.1804
  C  C286  1  0.496100  0.384700  0.504600  1.0  -0.1568
  C  C287  1  0.790500  0.226100  0.913600  1.0  0.3824
  C  C288  1  0.279700  0.652500  0.608900  1.0  0.1544
  C  C289  1  0.318000  0.552200  0.494400  1.0  0.3698
  C  C290  1  0.222500  0.638300  0.491400  1.0  -0.1546
  C  C291  1  0.466700  0.427200  0.534600  1.0  -0.0874
  C  C292  1  0.555900  0.344400  0.536600  1.0  0.172
  C  C293  1  0.757200  0.236700  0.849600  1.0  -0.0754
  C  C294  1  0.974000  0.334300  0.001400  1.0  -0.1946
  C  C295  1  0.764700  0.064300  0.112300  1.0  0.1644
  C  C296  1  0.285200  0.601700  0.523500  1.0  -0.0054
  C  C297  1  0.764600  0.121600  0.026500  1.0  -0.0468
  C  C298  1  0.033000  0.374200  0.032100  1.0  0.1742
  C  C299  1  0.321200  0.456100  0.320500  1.0  -0.1178
  C  C300  1  0.795900  0.109500  0.085700  1.0  -0.1518
  C  C301  1  0.319800  0.502100  0.413100  1.0  0.3818
  C  C302  1  0.287600  0.491400  0.348900  1.0  -0.0804
  C  C303  1  0.313500  0.609900  0.582700  1.0  -0.1401
  C  C304  1  0.026900  0.352600  0.116900  1.0  0.1734
  C  C305  1  0.192700  0.680100  0.521300  1.0  0.1661
  C  C306  1  0.794700  0.172100  0.996200  1.0  0.387
  C  C307  1  0.675200  0.040400  0.026900  1.0  0.1766
  C  C308  1  0.498400  0.427900  0.594300  1.0  -0.1555
  C  C309  1  0.193400  0.504900  0.258700  1.0  0.1701
  C  C310  1  0.288200  0.446400  0.260800  1.0  0.1708
  C  C311  1  0.755100  0.295100  0.764100  1.0  0.1622
  C  C312  1  0.556200  0.384000  0.621800  1.0  0.1714
  C  C313  1  0.785600  0.287600  0.823200  1.0  -0.159
  C  C314  1  0.672000  0.208600  0.757000  1.0  0.182
  C  C315  1  0.222000  0.516600  0.317800  1.0  -0.1745
  C  C316  1  0.697800  0.199300  0.816100  1.0  -0.1781
  C  C317  1  0.467300  0.810700  0.090400  1.0  -0.1676
  C  C318  1  0.376300  0.755900  0.999000  1.0  0.3663
  C  C319  1  0.902200  0.971300  0.500500  1.0  0.3687
  C  C320  1  0.440200  0.800900  0.031200  1.0  -0.055
  C  C321  1  0.202300  0.583500  0.995700  1.0  -0.1804
  C  C322  1  0.996100  0.884700  0.504600  1.0  -0.1568
  C  C323  1  0.290500  0.726100  0.913600  1.0  0.3824
  C  C324  1  0.779700  0.152500  0.608900  1.0  0.1544
  C  C325  1  0.818000  0.052200  0.494400  1.0  0.3698
  C  C326  1  0.722500  0.138300  0.491400  1.0  -0.1546
  C  C327  1  0.966700  0.927200  0.534600  1.0  -0.0874
  C  C328  1  0.055900  0.844400  0.536600  1.0  0.172
  C  C329  1  0.257200  0.736700  0.849600  1.0  -0.0754
  C  C330  1  0.474000  0.834300  0.001400  1.0  -0.1946
  C  C331  1  0.264700  0.564300  0.112300  1.0  0.1644
  C  C332  1  0.785200  0.101700  0.523500  1.0  -0.0054
  C  C333  1  0.264600  0.621600  0.026500  1.0  -0.0468
  C  C334  1  0.533000  0.874200  0.032100  1.0  0.1742
  C  C335  1  0.821200  0.956100  0.320500  1.0  -0.1178
  C  C336  1  0.295900  0.609500  0.085700  1.0  -0.1518
  C  C337  1  0.819800  0.002100  0.413100  1.0  0.3818
  C  C338  1  0.787600  0.991400  0.348900  1.0  -0.0804
  C  C339  1  0.813500  0.109900  0.582700  1.0  -0.1401
  C  C340  1  0.526900  0.852600  0.116900  1.0  0.1734
  C  C341  1  0.692700  0.180100  0.521300  1.0  0.1661
  C  C342  1  0.294700  0.672100  0.996200  1.0  0.387
  C  C343  1  0.175200  0.540400  0.026900  1.0  0.1766
  C  C344  1  0.998400  0.927900  0.594300  1.0  -0.1555
  C  C345  1  0.693400  0.004900  0.258700  1.0  0.1701
  C  C346  1  0.788200  0.946400  0.260800  1.0  0.1708
  C  C347  1  0.255100  0.795100  0.764100  1.0  0.1622
  C  C348  1  0.056200  0.884000  0.621800  1.0  0.1714
  C  C349  1  0.285600  0.787600  0.823200  1.0  -0.159
  C  C350  1  0.172000  0.708600  0.757000  1.0  0.182
  C  C351  1  0.722000  0.016600  0.317800  1.0  -0.1745
  C  C352  1  0.197800  0.699300  0.816100  1.0  -0.1781
  C  C353  1  0.967300  0.689300  0.590400  1.0  -0.1674
  C  C354  1  0.876300  0.744100  0.499000  1.0  0.3662
  C  C355  1  0.402200  0.528700  0.000500  1.0  0.3684
  C  C356  1  0.940200  0.699100  0.531200  1.0  -0.0557
  C  C357  1  0.702300  0.916500  0.495700  1.0  -0.1808
  C  C358  1  0.496100  0.615300  0.004600  1.0  -0.1567
  C  C359  1  0.790500  0.773900  0.413600  1.0  0.3826
  C  C360  1  0.279700  0.347500  0.108900  1.0  0.1552
  C  C361  1  0.318000  0.447800  0.994400  1.0  0.3699
  C  C362  1  0.222500  0.361700  0.991400  1.0  -0.1544
  C  C363  1  0.466700  0.572800  0.034600  1.0  -0.088
  C  C364  1  0.555900  0.655600  0.036600  1.0  0.1718
  C  C365  1  0.757200  0.763300  0.349600  1.0  -0.0753
  C  C366  1  0.974000  0.665700  0.501400  1.0  -0.1948
  C  C367  1  0.764700  0.935700  0.612300  1.0  0.1638
  C  C368  1  0.285200  0.398300  0.023500  1.0  -0.0062
  C  C369  1  0.764600  0.878400  0.526500  1.0  -0.0474
  C  C370  1  0.033000  0.625800  0.532100  1.0  0.1738
  C  C371  1  0.321200  0.543900  0.820500  1.0  -0.118
  C  C372  1  0.795900  0.890500  0.585700  1.0  -0.1526
  C  C373  1  0.319800  0.497900  0.913100  1.0  0.3817
  C  C374  1  0.287600  0.508600  0.848900  1.0  -0.0794
  C  C375  1  0.313500  0.390100  0.082700  1.0  -0.1405
  C  C376  1  0.026900  0.647400  0.616900  1.0  0.1743
  C  C377  1  0.192700  0.319900  0.021300  1.0  0.1669
  C  C378  1  0.794700  0.827900  0.496200  1.0  0.3869
  C  C379  1  0.675200  0.959600  0.526900  1.0  0.1762
  C  C380  1  0.498400  0.572100  0.094300  1.0  -0.1553
  C  C381  1  0.193400  0.495100  0.758700  1.0  0.1704
  C  C382  1  0.288200  0.553600  0.760800  1.0  0.1709
  C  C383  1  0.755100  0.704900  0.264100  1.0  0.1625
  C  C384  1  0.556200  0.616000  0.121800  1.0  0.1714
  C  C385  1  0.785600  0.712400  0.323200  1.0  -0.1592
  C  C386  1  0.672000  0.791400  0.257000  1.0  0.1825
  C  C387  1  0.222000  0.483400  0.817800  1.0  -0.1738
  C  C388  1  0.697800  0.800700  0.316100  1.0  -0.1777
  C  C389  1  0.467300  0.189300  0.590400  1.0  -0.1674
  C  C390  1  0.376300  0.244100  0.499000  1.0  0.3662
  C  C391  1  0.902200  0.028700  0.000500  1.0  0.3684
  C  C392  1  0.440200  0.199100  0.531200  1.0  -0.0557
  C  C393  1  0.202300  0.416500  0.495700  1.0  -0.1808
  C  C394  1  0.996100  0.115300  0.004600  1.0  -0.1567
  C  C395  1  0.290500  0.273900  0.413600  1.0  0.3826
  C  C396  1  0.779700  0.847500  0.108900  1.0  0.1552
  C  C397  1  0.818000  0.947800  0.994400  1.0  0.3699
  C  C398  1  0.722500  0.861700  0.991400  1.0  -0.1544
  C  C399  1  0.966700  0.072800  0.034600  1.0  -0.088
  C  C400  1  0.055900  0.155600  0.036600  1.0  0.1718
  C  C401  1  0.257200  0.263300  0.349600  1.0  -0.0753
  C  C402  1  0.474000  0.165700  0.501400  1.0  -0.1948
  C  C403  1  0.264700  0.435700  0.612300  1.0  0.1638
  C  C404  1  0.785200  0.898300  0.023500  1.0  -0.0062
  C  C405  1  0.264600  0.378400  0.526500  1.0  -0.0474
  C  C406  1  0.533000  0.125800  0.532100  1.0  0.1738
  C  C407  1  0.821200  0.043900  0.820500  1.0  -0.118
  C  C408  1  0.295900  0.390500  0.585700  1.0  -0.1526
  C  C409  1  0.819800  0.997900  0.913100  1.0  0.3817
  C  C410  1  0.787600  0.008600  0.848900  1.0  -0.0794
  C  C411  1  0.813500  0.890100  0.082700  1.0  -0.1405
  C  C412  1  0.526900  0.147400  0.616900  1.0  0.1743
  C  C413  1  0.692700  0.819900  0.021300  1.0  0.1669
  C  C414  1  0.294700  0.327900  0.496200  1.0  0.3869
  C  C415  1  0.175200  0.459600  0.526900  1.0  0.1762
  C  C416  1  0.998400  0.072100  0.094300  1.0  -0.1553
  C  C417  1  0.693400  0.995100  0.758700  1.0  0.1704
  C  C418  1  0.788200  0.053600  0.760800  1.0  0.1709
  C  C419  1  0.255100  0.204900  0.264100  1.0  0.1625
  C  C420  1  0.056200  0.116000  0.121800  1.0  0.1714
  C  C421  1  0.285600  0.212400  0.323200  1.0  -0.1592
  C  C422  1  0.172000  0.291400  0.257000  1.0  0.1825
  C  C423  1  0.722000  0.983400  0.817800  1.0  -0.1738
  C  C424  1  0.197800  0.300700  0.316100  1.0  -0.1777
  C  C425  1  0.032700  0.689300  0.909600  1.0  -0.1688
  C  C426  1  0.123700  0.744100  0.001000  1.0  0.3663
  C  C427  1  0.597800  0.528700  0.499500  1.0  0.3681
  C  C428  1  0.059800  0.699100  0.968800  1.0  -0.0547
  C  C429  1  0.297700  0.916500  0.004300  1.0  -0.181
  C  C430  1  0.503900  0.615300  0.495400  1.0  -0.1552
  C  C431  1  0.209500  0.773900  0.086400  1.0  0.3837
  C  C432  1  0.720300  0.347500  0.391100  1.0  0.155
  C  C433  1  0.682000  0.447800  0.505600  1.0  0.3692
  C  C434  1  0.777500  0.361700  0.508600  1.0  -0.1548
  C  C435  1  0.533300  0.572800  0.465400  1.0  -0.0876
  C  C436  1  0.444100  0.655600  0.463400  1.0  0.171
  C  C437  1  0.242800  0.763300  0.150400  1.0  -0.0753
  C  C438  1  0.026000  0.665700  0.998600  1.0  -0.194
  C  C439  1  0.235300  0.935700  0.887700  1.0  0.1653
  C  C440  1  0.714800  0.398300  0.476500  1.0  -0.0089
  C  C441  1  0.235400  0.878400  0.973500  1.0  -0.0481
  C  C442  1  0.967000  0.625800  0.967900  1.0  0.1745
  C  C443  1  0.678800  0.543900  0.679500  1.0  -0.1153
  C  C444  1  0.204100  0.890500  0.914300  1.0  -0.1507
  C  C445  1  0.680200  0.497900  0.586900  1.0  0.3818
  C  C446  1  0.712400  0.508600  0.651100  1.0  -0.0782
  C  C447  1  0.686500  0.390100  0.417300  1.0  -0.1407
  C  C448  1  0.973100  0.647400  0.883100  1.0  0.1737
  C  C449  1  0.807300  0.319900  0.478700  1.0  0.1666
  C  C450  1  0.205300  0.827900  0.003800  1.0  0.3873
  C  C451  1  0.324800  0.959600  0.973100  1.0  0.1756
  C  C452  1  0.501600  0.572100  0.405700  1.0  -0.1517
  C  C453  1  0.806600  0.495100  0.741300  1.0  0.1701
  C  C454  1  0.711800  0.553600  0.739200  1.0  0.17
  C  C455  1  0.244900  0.704900  0.235900  1.0  0.1633
  C  C456  1  0.443800  0.616000  0.378200  1.0  0.1725
  C  C457  1  0.214400  0.712400  0.176800  1.0  -0.1593
  C  C458  1  0.328000  0.791400  0.243000  1.0  0.184
  C  C459  1  0.778000  0.483400  0.682200  1.0  -0.1759
  C  C460  1  0.302200  0.800700  0.183900  1.0  -0.1796
  C  C461  1  0.532700  0.189300  0.909600  1.0  -0.1688
  C  C462  1  0.623700  0.244100  0.001000  1.0  0.3663
  C  C463  1  0.097800  0.028700  0.499500  1.0  0.3681
  C  C464  1  0.559800  0.199100  0.968800  1.0  -0.0547
  C  C465  1  0.797700  0.416500  0.004300  1.0  -0.181
  C  C466  1  0.003900  0.115300  0.495400  1.0  -0.1552
  C  C467  1  0.709500  0.273900  0.086400  1.0  0.3837
  C  C468  1  0.220300  0.847500  0.391100  1.0  0.155
  C  C469  1  0.182000  0.947800  0.505600  1.0  0.3692
  C  C470  1  0.277500  0.861700  0.508600  1.0  -0.1548
  C  C471  1  0.033300  0.072800  0.465400  1.0  -0.0876
  C  C472  1  0.944100  0.155600  0.463400  1.0  0.171
  C  C473  1  0.742800  0.263300  0.150400  1.0  -0.0753
  C  C474  1  0.526000  0.165700  0.998600  1.0  -0.194
  C  C475  1  0.735300  0.435700  0.887700  1.0  0.1653
  C  C476  1  0.214800  0.898300  0.476500  1.0  -0.0089
  C  C477  1  0.735400  0.378400  0.973500  1.0  -0.0481
  C  C478  1  0.467000  0.125800  0.967900  1.0  0.1745
  C  C479  1  0.178800  0.043900  0.679500  1.0  -0.1153
  C  C480  1  0.704100  0.390500  0.914300  1.0  -0.1507
  C  C481  1  0.180200  0.997900  0.586900  1.0  0.3818
  C  C482  1  0.212400  0.008600  0.651100  1.0  -0.0782
  C  C483  1  0.186500  0.890100  0.417300  1.0  -0.1407
  C  C484  1  0.473100  0.147400  0.883100  1.0  0.1737
  C  C485  1  0.307300  0.819900  0.478700  1.0  0.1666
  C  C486  1  0.705300  0.327900  0.003800  1.0  0.3873
  C  C487  1  0.824800  0.459600  0.973100  1.0  0.1756
  C  C488  1  0.001600  0.072100  0.405700  1.0  -0.1517
  C  C489  1  0.306600  0.995100  0.741300  1.0  0.1701
  C  C490  1  0.211800  0.053600  0.739200  1.0  0.17
  C  C491  1  0.744900  0.204900  0.235900  1.0  0.1633
  C  C492  1  0.943800  0.116000  0.378200  1.0  0.1725
  C  C493  1  0.714400  0.212400  0.176800  1.0  -0.1593
  C  C494  1  0.828000  0.291400  0.243000  1.0  0.184
  C  C495  1  0.278000  0.983400  0.682200  1.0  -0.1759
  C  C496  1  0.802200  0.300700  0.183900  1.0  -0.1796
  N  N497  1  0.295700  0.030000  0.416700  1.0  -0.3791
  N  N498  1  0.939200  0.382900  0.410800  1.0  -0.3159
  N  N499  1  0.300800  0.254400  0.769700  1.0  -0.3579
  N  N500  1  0.147700  0.210400  0.471400  1.0  -0.5
  N  N501  1  0.152600  0.266800  0.558100  1.0  -0.4707
  N  N502  1  0.237900  0.177500  0.561700  1.0  -0.5154
  N  N503  1  0.779900  0.687100  0.921100  1.0  -0.3256
  N  N504  1  0.413500  0.343200  0.905900  1.0  -0.3714
  N  N505  1  0.775300  0.470800  0.270000  1.0  -0.3566
  N  N506  1  0.625900  0.512700  0.972100  1.0  -0.4257
  N  N507  1  0.622900  0.463000  0.057500  1.0  -0.5163
  N  N508  1  0.711000  0.549100  0.063500  1.0  -0.4946
  N  N509  1  0.795700  0.530000  0.416700  1.0  -0.3791
  N  N510  1  0.439200  0.882900  0.410800  1.0  -0.3159
  N  N511  1  0.800800  0.754400  0.769700  1.0  -0.3579
  N  N512  1  0.647700  0.710400  0.471400  1.0  -0.5
  N  N513  1  0.652600  0.766800  0.558100  1.0  -0.4707
  N  N514  1  0.737900  0.677500  0.561700  1.0  -0.5154
  N  N515  1  0.279900  0.187100  0.921100  1.0  -0.3256
  N  N516  1  0.913500  0.843200  0.905900  1.0  -0.3714
  N  N517  1  0.275300  0.970800  0.270000  1.0  -0.3566
  N  N518  1  0.125900  0.012700  0.972100  1.0  -0.4257
  N  N519  1  0.122900  0.963000  0.057500  1.0  -0.5163
  N  N520  1  0.211000  0.049100  0.063500  1.0  -0.4946
  N  N521  1  0.704300  0.030000  0.083300  1.0  -0.3782
  N  N522  1  0.060800  0.382900  0.089200  1.0  -0.3174
  N  N523  1  0.699200  0.254400  0.730300  1.0  -0.3581
  N  N524  1  0.852300  0.210400  0.028600  1.0  -0.5027
  N  N525  1  0.847400  0.266800  0.941900  1.0  -0.4703
  N  N526  1  0.762100  0.177500  0.938300  1.0  -0.5186
  N  N527  1  0.220100  0.687100  0.578900  1.0  -0.3268
  N  N528  1  0.586500  0.343200  0.594100  1.0  -0.3685
  N  N529  1  0.224700  0.470800  0.230000  1.0  -0.3574
  N  N530  1  0.374100  0.512700  0.527900  1.0  -0.4244
  N  N531  1  0.377100  0.463000  0.442500  1.0  -0.5152
  N  N532  1  0.289000  0.549100  0.436500  1.0  -0.4947
  N  N533  1  0.204300  0.530000  0.083300  1.0  -0.3782
  N  N534  1  0.560800  0.882900  0.089200  1.0  -0.3174
  N  N535  1  0.199200  0.754400  0.730300  1.0  -0.3581
  N  N536  1  0.352300  0.710400  0.028600  1.0  -0.5027
  N  N537  1  0.347400  0.766800  0.941900  1.0  -0.4703
  N  N538  1  0.262100  0.677500  0.938300  1.0  -0.5186
  N  N539  1  0.720100  0.187100  0.578900  1.0  -0.3268
  N  N540  1  0.086500  0.843200  0.594100  1.0  -0.3685
  N  N541  1  0.724700  0.970800  0.230000  1.0  -0.3574
  N  N542  1  0.874100  0.012700  0.527900  1.0  -0.4244
  N  N543  1  0.877100  0.963000  0.442500  1.0  -0.5152
  N  N544  1  0.789000  0.049100  0.436500  1.0  -0.4947
  N  N545  1  0.704300  0.970000  0.583300  1.0  -0.379
  N  N546  1  0.060800  0.617100  0.589200  1.0  -0.3187
  N  N547  1  0.699200  0.745600  0.230300  1.0  -0.3586
  N  N548  1  0.852300  0.789600  0.528600  1.0  -0.5023
  N  N549  1  0.847400  0.733200  0.441900  1.0  -0.4711
  N  N550  1  0.762100  0.822500  0.438300  1.0  -0.5172
  N  N551  1  0.220100  0.312900  0.078900  1.0  -0.3286
  N  N552  1  0.586500  0.656800  0.094100  1.0  -0.3697
  N  N553  1  0.224700  0.529200  0.730000  1.0  -0.3568
  N  N554  1  0.374100  0.487300  0.027900  1.0  -0.4242
  N  N555  1  0.377100  0.537000  0.942500  1.0  -0.5153
  N  N556  1  0.289000  0.450900  0.936500  1.0  -0.4966
  N  N557  1  0.204300  0.470000  0.583300  1.0  -0.379
  N  N558  1  0.560800  0.117100  0.589200  1.0  -0.3187
  N  N559  1  0.199200  0.245600  0.230300  1.0  -0.3586
  N  N560  1  0.352300  0.289600  0.528600  1.0  -0.5023
  N  N561  1  0.347400  0.233200  0.441900  1.0  -0.4711
  N  N562  1  0.262100  0.322500  0.438300  1.0  -0.5172
  N  N563  1  0.720100  0.812900  0.078900  1.0  -0.3286
  N  N564  1  0.086500  0.156800  0.094100  1.0  -0.3697
  N  N565  1  0.724700  0.029200  0.730000  1.0  -0.3568
  N  N566  1  0.874100  0.987300  0.027900  1.0  -0.4242
  N  N567  1  0.877100  0.037000  0.942500  1.0  -0.5153
  N  N568  1  0.789000  0.950900  0.936500  1.0  -0.4966
  N  N569  1  0.295700  0.970000  0.916700  1.0  -0.3787
  N  N570  1  0.939200  0.617100  0.910800  1.0  -0.3205
  N  N571  1  0.300800  0.745600  0.269700  1.0  -0.3571
  N  N572  1  0.147700  0.789600  0.971400  1.0  -0.4999
  N  N573  1  0.152600  0.733200  0.058100  1.0  -0.4702
  N  N574  1  0.237900  0.822500  0.061700  1.0  -0.5152
  N  N575  1  0.779900  0.312900  0.421100  1.0  -0.3278
  N  N576  1  0.413500  0.656800  0.405900  1.0  -0.3701
  N  N577  1  0.775300  0.529200  0.770000  1.0  -0.3569
  N  N578  1  0.625900  0.487300  0.472100  1.0  -0.4257
  N  N579  1  0.622900  0.537000  0.557500  1.0  -0.5168
  N  N580  1  0.711000  0.450900  0.563500  1.0  -0.4947
  N  N581  1  0.795700  0.470000  0.916700  1.0  -0.3787
  N  N582  1  0.439200  0.117100  0.910800  1.0  -0.3205
  N  N583  1  0.800800  0.245600  0.269700  1.0  -0.3571
  N  N584  1  0.647700  0.289600  0.971400  1.0  -0.4999
  N  N585  1  0.652600  0.233200  0.058100  1.0  -0.4702
  N  N586  1  0.737900  0.322500  0.061700  1.0  -0.5152
  N  N587  1  0.279900  0.812900  0.421100  1.0  -0.3278
  N  N588  1  0.913500  0.156800  0.405900  1.0  -0.3701
  N  N589  1  0.275300  0.029200  0.770000  1.0  -0.3569
  N  N590  1  0.125900  0.987300  0.472100  1.0  -0.4257
  N  N591  1  0.122900  0.037000  0.557500  1.0  -0.5168
  N  N592  1  0.211000  0.950900  0.563500  1.0  -0.4947
