# generated using pymatgen
data_AgH12(C3N)6
_symmetry_space_group_name_H-M   'P 1'
_cell_length_a   13.73930000
_cell_length_b   13.73930000
_cell_length_c   24.57480000
_cell_angle_alpha   78.73940000
_cell_angle_beta   78.47890000
_cell_angle_gamma   107.06700000
_symmetry_Int_Tables_number   1
_chemical_formula_structural   AgH12(C3N)6
_chemical_formula_sum   'Ag8 H96 C144 N48'
_cell_volume   4182.64117400
_cell_formula_units_Z   8
loop_
 _symmetry_equiv_pos_site_id
 _symmetry_equiv_pos_as_xyz
  1  'x, y, z'
loop_
 _atom_site_type_symbol
 _atom_site_label
 _atom_site_symmetry_multiplicity
 _atom_site_fract_x
 _atom_site_fract_y
 _atom_site_fract_z
 _atom_site_occupancy
 _atom_site_charge
  Ag  Ag1  1  0.518560  0.698530  0.867890  1.0  0.3297
  Ag  Ag2  1  0.703950  0.425550  0.367300  1.0  0.3013
  Ag  Ag3  1  0.481440  0.301470  0.132110  1.0  0.3305
  Ag  Ag4  1  0.296050  0.574450  0.632700  1.0  0.3005
  Ag  Ag5  1  0.933580  0.613550  0.367890  1.0  0.3302
  Ag  Ag6  1  0.707150  0.928750  0.867300  1.0  0.301
  Ag  Ag7  1  0.066420  0.386450  0.632110  1.0  0.3306
  Ag  Ag8  1  0.292850  0.071250  0.132700  1.0  0.3004
  H  H9  1  0.645500  0.446800  0.500500  1.0  0.0816
  H  H10  1  0.749000  0.681100  0.844700  1.0  0.0892
  H  H11  1  0.507000  0.888500  0.759900  1.0  0.0785
  H  H12  1  0.872900  0.652500  0.890200  1.0  0.128
  H  H13  1  0.990400  0.511200  0.168600  1.0  0.1245
  H  H14  1  0.557200  0.659100  0.989900  1.0  0.0752
  H  H15  1  0.922100  0.454500  0.267000  1.0  0.0776
  H  H16  1  0.566700  0.627100  0.763600  1.0  0.0778
  H  H17  1  0.622900  0.261300  0.485000  1.0  0.0713
  H  H18  1  0.672100  0.625800  0.040300  1.0  0.1302
  H  H19  1  0.700800  0.502700  0.156300  1.0  0.1238
  H  H20  1  0.691400  0.644200  0.352200  1.0  0.0864
  H  H21  1  0.535400  0.926900  0.661300  1.0  0.1215
  H  H22  1  0.135400  0.706000  0.894000  1.0  0.1217
  H  H23  1  0.187100  0.591200  0.045100  1.0  0.123
  H  H24  1  0.597000  0.657400  0.665200  1.0  0.1175
  H  H25  1  0.661600  0.769500  0.396500  1.0  0.1238
  H  H26  1  0.604400  0.095000  0.536800  1.0  0.1303
  H  H27  1  0.641300  0.443600  0.255100  1.0  0.0759
  H  H28  1  0.356700  0.614800  0.994500  1.0  0.0758
  H  H29  1  0.615100  0.566300  0.549800  1.0  0.1279
  H  H30  1  0.306000  0.729000  0.848800  1.0  0.0809
  H  H31  1  0.678900  0.023900  0.386200  1.0  0.126
  H  H32  1  0.702800  0.194800  0.339400  1.0  0.0797
  H  H33  1  0.464600  0.073100  0.338700  1.0  0.1215
  H  H34  1  0.643300  0.385200  0.005500  1.0  0.0753
  H  H35  1  0.403000  0.342600  0.334800  1.0  0.1177
  H  H36  1  0.327900  0.374200  0.959700  1.0  0.1297
  H  H37  1  0.433300  0.372900  0.236400  1.0  0.0787
  H  H38  1  0.077900  0.545500  0.733000  1.0  0.0788
  H  H39  1  0.321100  0.976100  0.613800  1.0  0.1262
  H  H40  1  0.493000  0.111500  0.240100  1.0  0.0784
  H  H41  1  0.338400  0.230500  0.603500  1.0  0.1233
  H  H42  1  0.395600  0.905000  0.463200  1.0  0.1309
  H  H43  1  0.251000  0.318900  0.155300  1.0  0.0892
  H  H44  1  0.694000  0.271000  0.151200  1.0  0.0803
  H  H45  1  0.442800  0.340900  0.010100  1.0  0.0755
  H  H46  1  0.308600  0.355800  0.647800  1.0  0.086
  H  H47  1  0.864600  0.294000  0.106000  1.0  0.1224
  H  H48  1  0.384900  0.433700  0.450200  1.0  0.1272
  H  H49  1  0.127100  0.347500  0.109800  1.0  0.1278
  H  H50  1  0.812900  0.408800  0.954900  1.0  0.1232
  H  H51  1  0.299200  0.497300  0.843700  1.0  0.1238
  H  H52  1  0.354500  0.553200  0.499500  1.0  0.0821
  H  H53  1  0.009600  0.488800  0.831400  1.0  0.1233
  H  H54  1  0.377100  0.738700  0.515000  1.0  0.071
  H  H55  1  0.358700  0.556400  0.744900  1.0  0.0754
  H  H56  1  0.297200  0.805200  0.660600  1.0  0.0798
  H  H57  1  0.890700  0.648800  0.494500  1.0  0.0768
  H  H58  1  0.109300  0.669700  0.263600  1.0  0.0788
  H  H59  1  0.965800  0.957800  0.839400  1.0  0.08
  H  H60  1  0.868200  0.858800  0.036800  1.0  0.1312
  H  H61  1  0.841000  0.142900  0.656300  1.0  0.1239
  H  H62  1  0.900000  0.970600  0.394000  1.0  0.1228
  H  H63  1  0.552700  0.854000  0.000500  1.0  0.0805
  H  H64  1  0.753700  0.892100  0.985000  1.0  0.0725
  H  H65  1  0.957300  0.236900  0.390200  1.0  0.1268
  H  H66  1  0.177400  0.737800  0.165200  1.0  0.1183
  H  H67  1  0.089900  0.934900  0.886200  1.0  0.1264
  H  H68  1  0.851600  0.733100  0.259900  1.0  0.0786
  H  H69  1  0.922200  0.845200  0.348800  1.0  0.0819
  H  H70  1  0.383900  0.835100  0.049800  1.0  0.1271
  H  H71  1  0.801300  0.103600  0.755100  1.0  0.0745
  H  H72  1  0.911800  0.803300  0.161300  1.0  0.1207
  H  H73  1  0.820200  0.841000  0.668600  1.0  0.1223
  H  H74  1  0.974200  0.406300  0.344700  1.0  0.0889
  H  H75  1  0.833900  0.287600  0.540300  1.0  0.1296
  H  H76  1  0.851000  0.452900  0.489900  1.0  0.0742
  H  H77  1  0.778500  0.810900  0.767000  1.0  0.078
  H  H78  1  0.334000  0.941900  0.896500  1.0  0.1249
  H  H79  1  0.503600  0.956400  0.852200  1.0  0.0877
  H  H80  1  0.863700  0.767800  0.545100  1.0  0.1237
  H  H81  1  0.149000  0.547100  0.510100  1.0  0.0744
  H  H82  1  0.148400  0.266900  0.740100  1.0  0.0782
  H  H83  1  0.159000  0.857100  0.343700  1.0  0.1231
  H  H84  1  0.496400  0.043600  0.147800  1.0  0.0876
  H  H85  1  0.447300  0.146000  0.999500  1.0  0.0807
  H  H86  1  0.910100  0.065100  0.113800  1.0  0.1264
  H  H87  1  0.890700  0.330300  0.736400  1.0  0.0773
  H  H88  1  0.109300  0.351200  0.505500  1.0  0.0766
  H  H89  1  0.616100  0.164900  0.950200  1.0  0.1271
  H  H90  1  0.131800  0.141200  0.963200  1.0  0.1314
  H  H91  1  0.666000  0.058100  0.103500  1.0  0.125
  H  H92  1  0.221500  0.189100  0.233000  1.0  0.0792
  H  H93  1  0.042700  0.763100  0.609800  1.0  0.1265
  H  H94  1  0.088200  0.196700  0.838700  1.0  0.1204
  H  H95  1  0.198700  0.896400  0.244900  1.0  0.0741
  H  H96  1  0.025800  0.593700  0.655300  1.0  0.089
  H  H97  1  0.034200  0.042200  0.160600  1.0  0.0795
  H  H98  1  0.822600  0.262200  0.834800  1.0  0.1172
  H  H99  1  0.179800  0.159000  0.331400  1.0  0.1225
  H  H100  1  0.100000  0.029400  0.606000  1.0  0.123
  H  H101  1  0.077800  0.154800  0.651200  1.0  0.0802
  H  H102  1  0.136300  0.232200  0.454900  1.0  0.1243
  H  H103  1  0.166100  0.712400  0.459700  1.0  0.1292
  H  H104  1  0.246300  0.107900  0.015000  1.0  0.0731
  C  C105  1  0.630800  0.583800  0.509800  1.0  -0.1545
  C  C106  1  0.877500  0.465500  0.244400  1.0  0.1807
  C  C107  1  0.712600  0.459400  0.237600  1.0  0.1722
  C  C108  1  0.786830  0.637700  0.970470  1.0  -0.0976
  C  C109  1  0.809160  0.653700  0.911340  1.0  -0.1417
  C  C110  1  0.639710  0.040900  0.467390  1.0  -0.0802
  C  C111  1  0.919800  0.500600  0.185200  1.0  -0.1646
  C  C112  1  0.621600  0.658000  0.969600  1.0  0.1718
  C  C113  1  0.624280  0.766200  0.507120  1.0  0.3801
  C  C114  1  0.568700  0.796000  0.652100  1.0  -0.1077
  C  C115  1  0.139660  0.642900  0.974640  1.0  -0.0705
  C  C116  1  0.178580  0.686400  0.915420  1.0  -0.1434
  C  C117  1  0.525000  0.841600  0.740600  1.0  0.1731
  C  C118  1  0.668520  0.071300  0.407180  1.0  -0.1533
  C  C119  1  0.560100  0.687800  0.742700  1.0  0.1662
  C  C120  1  0.734300  0.671500  0.884400  1.0  0.1764
  C  C121  1  0.623250  0.113100  0.496650  1.0  -0.1463
  C  C122  1  0.311500  0.633500  0.974200  1.0  0.1765
  C  C123  1  0.590130  0.817800  0.588270  1.0  0.3868
  C  C124  1  0.854680  0.519500  0.151420  1.0  -0.0563
  C  C125  1  0.578500  0.705200  0.683500  1.0  -0.1634
  C  C126  1  0.676050  0.628600  0.392150  1.0  0.1647
  C  C127  1  0.626510  0.932900  0.501390  1.0  0.3797
  C  C128  1  0.027870  0.622100  0.005230  1.0  0.3648
  C  C129  1  0.635400  0.213400  0.465000  1.0  0.1706
  C  C130  1  0.681300  0.173800  0.379500  1.0  0.1782
  C  C131  1  0.895440  0.563500  0.087660  1.0  0.3866
  C  C132  1  0.281540  0.700100  0.888560  1.0  0.1713
  C  C133  1  0.658550  0.704800  0.418450  1.0  -0.1458
  C  C134  1  0.864320  0.618900  0.002580  1.0  0.3843
  C  C135  1  0.690150  0.638300  0.000350  1.0  -0.1619
  C  C136  1  0.636510  0.683300  0.477990  1.0  -0.0699
  C  C137  1  0.649100  0.512500  0.479600  1.0  0.1758
  C  C138  1  0.209070  0.617800  0.005130  1.0  -0.1523
  C  C139  1  0.747600  0.495100  0.178100  1.0  -0.1472
  C  C140  1  0.541900  0.865400  0.681300  1.0  -0.1328
  C  C141  1  0.331480  0.928700  0.592820  1.0  -0.1523
  C  C142  1  0.688500  0.366500  0.025800  1.0  0.1752
  C  C143  1  0.080200  0.499400  0.814800  1.0  -0.1623
  C  C144  1  0.350900  0.487500  0.520400  1.0  0.1738
  C  C145  1  0.373490  0.067100  0.498610  1.0  0.3815
  C  C146  1  0.369200  0.416200  0.490200  1.0  -0.1526
  C  C147  1  0.421500  0.294800  0.316500  1.0  -0.1617
  C  C148  1  0.135680  0.381100  0.997420  1.0  0.3838
  C  C149  1  0.458100  0.134600  0.318700  1.0  -0.1346
  C  C150  1  0.790930  0.382200  0.994870  1.0  -0.1508
  C  C151  1  0.860340  0.357100  0.025360  1.0  -0.0697
  C  C152  1  0.341450  0.295200  0.581550  1.0  -0.1476
  C  C153  1  0.363490  0.316700  0.522010  1.0  -0.0687
  C  C154  1  0.475000  0.158400  0.259400  1.0  0.1734
  C  C155  1  0.287400  0.540600  0.762400  1.0  0.1725
  C  C156  1  0.360290  0.959100  0.532610  1.0  -0.0786
  C  C157  1  0.318700  0.826200  0.620500  1.0  0.1762
  C  C158  1  0.190840  0.346300  0.088660  1.0  -0.1442
  C  C159  1  0.409870  0.182200  0.411730  1.0  0.3863
  C  C160  1  0.718460  0.299900  0.111440  1.0  0.1703
  C  C161  1  0.213170  0.362300  0.029530  1.0  -0.0973
  C  C162  1  0.972130  0.377900  0.994770  1.0  0.3653
  C  C163  1  0.431300  0.204000  0.347900  1.0  -0.108
  C  C164  1  0.323950  0.371400  0.607850  1.0  0.166
  C  C165  1  0.378400  0.342000  0.030400  1.0  0.1721
  C  C166  1  0.821420  0.313600  0.084580  1.0  -0.1449
  C  C167  1  0.439900  0.312200  0.257300  1.0  0.1666
  C  C168  1  0.104560  0.436500  0.912340  1.0  0.3855
  C  C169  1  0.375720  0.233800  0.492880  1.0  0.3812
  C  C170  1  0.364600  0.786600  0.535000  1.0  0.1704
  C  C171  1  0.265700  0.328500  0.115600  1.0  0.1748
  C  C172  1  0.122500  0.534500  0.755600  1.0  0.1761
  C  C173  1  0.145320  0.480500  0.848580  1.0  -0.0577
  C  C174  1  0.252400  0.504900  0.821900  1.0  -0.1476
  C  C175  1  0.376750  0.886900  0.503350  1.0  -0.146
  C  C176  1  0.309850  0.361700  0.999650  1.0  -0.1647
  C  C177  1  0.911340  0.829900  0.388560  1.0  0.1747
  C  C178  1  0.892300  0.714300  0.474200  1.0  0.1731
  C  C179  1  0.826800  0.074300  0.678100  1.0  -0.1449
  C  C180  1  0.093930  0.821600  0.088270  1.0  0.3869
  C  C181  1  0.991710  0.892900  0.967390  1.0  -0.082
  C  C182  1  0.848840  0.016900  0.587660  1.0  0.3856
  C  C183  1  0.226680  0.868600  0.007120  1.0  0.3802
  C  C184  1  0.891830  0.242700  0.470470  1.0  -0.0953
  C  C185  1  0.917800  0.734400  0.240600  1.0  0.1763
  C  C186  1  0.051900  0.779200  0.152100  1.0  -0.1098
  C  C187  1  0.872400  0.408800  0.469600  1.0  0.1706
  C  C188  1  0.861350  0.309500  0.500350  1.0  -0.1658
  C  C189  1  0.877070  0.785800  0.505130  1.0  -0.149
  C  C190  1  0.944100  0.381300  0.384400  1.0  0.1731
  C  C191  1  0.021520  0.924300  0.907180  1.0  -0.1533
  C  C192  1  0.882460  0.885700  0.474640  1.0  -0.0703
  C  C193  1  0.111300  0.738000  0.183500  1.0  -0.1603
  C  C194  1  0.898180  0.906000  0.415420  1.0  -0.1438
  C  C195  1  0.878520  0.133100  0.502580  1.0  0.3841
  C  C196  1  0.790100  0.878100  0.744400  1.0  0.1798
  C  C197  1  0.338710  0.885500  0.977990  1.0  -0.0681
  C  C198  1  0.890250  0.880100  0.996650  1.0  -0.151
  C  C199  1  0.069500  0.697200  0.242700  1.0  0.1686
  C  C200  1  0.946700  0.939200  0.879500  1.0  0.1798
  C  C201  1  0.934960  0.279500  0.411340  1.0  -0.1441
  C  C202  1  0.803000  0.049800  0.737600  1.0  0.1723
  C  C203  1  0.376750  0.923000  0.918450  1.0  -0.1511
  C  C204  1  0.479250  0.931800  0.892150  1.0  0.1597
  C  C205  1  0.872670  0.966900  0.505230  1.0  0.3664
  C  C206  1  0.507900  0.871300  0.979600  1.0  0.1777
  C  C207  1  0.829080  0.993900  0.651420  1.0  -0.0569
  C  C208  1  0.065710  0.872100  0.001390  1.0  0.3796
  C  C209  1  0.953300  0.776800  0.181300  1.0  -0.1303
  C  C210  1  0.814200  0.895000  0.685200  1.0  -0.1631
  C  C211  1  0.821600  0.899600  0.965000  1.0  0.1697
  C  C212  1  0.406400  0.859400  0.009800  1.0  -0.1546
  C  C213  1  0.088660  0.170100  0.611440  1.0  0.1738
  C  C214  1  0.520750  0.068200  0.107850  1.0  0.1578
  C  C215  1  0.623250  0.077000  0.081550  1.0  -0.1506
  C  C216  1  0.178400  0.100400  0.035000  1.0  0.17
  C  C217  1  0.173200  0.925700  0.321900  1.0  -0.1469
  C  C218  1  0.127600  0.591200  0.530400  1.0  0.1704
  C  C219  1  0.185800  0.105000  0.314800  1.0  -0.1641
  C  C220  1  0.127330  0.033100  0.494770  1.0  0.3662
  C  C221  1  0.138650  0.690500  0.499650  1.0  -0.1649
  C  C222  1  0.122930  0.214200  0.494870  1.0  -0.1505
  C  C223  1  0.209900  0.121900  0.255600  1.0  0.1794
  C  C224  1  0.492100  0.128700  0.020400  1.0  0.1768
  C  C225  1  0.046700  0.223200  0.818700  1.0  -0.132
  C  C226  1  0.065040  0.720500  0.588660  1.0  -0.1453
  C  C227  1  0.008290  0.107100  0.032610  1.0  -0.0822
  C  C228  1  0.101820  0.094000  0.584580  1.0  -0.1437
  C  C229  1  0.170920  0.006100  0.348580  1.0  -0.0548
  C  C230  1  0.593600  0.140600  0.990200  1.0  -0.1536
  C  C231  1  0.930500  0.302800  0.757300  1.0  0.1672
  C  C232  1  0.948100  0.220800  0.847900  1.0  -0.1103
  C  C233  1  0.151160  0.983100  0.412340  1.0  0.3846
  C  C234  1  0.773320  0.131400  0.992880  1.0  0.3796
  C  C235  1  0.117540  0.114300  0.525360  1.0  -0.0698
  C  C236  1  0.055900  0.618700  0.615600  1.0  0.1717
  C  C237  1  0.082200  0.265600  0.759400  1.0  0.1752
  C  C238  1  0.661290  0.114500  0.022010  1.0  -0.0669
  C  C239  1  0.934290  0.127900  0.998610  1.0  0.3795
  C  C240  1  0.053300  0.060800  0.120500  1.0  0.1784
  C  C241  1  0.906070  0.178400  0.911730  1.0  0.3863
  C  C242  1  0.197000  0.950200  0.262400  1.0  0.1718
  C  C243  1  0.108170  0.757300  0.529530  1.0  -0.0953
  C  C244  1  0.109750  0.119900  0.003350  1.0  -0.1499
  C  C245  1  0.978480  0.075700  0.092820  1.0  -0.1529
  C  C246  1  0.888700  0.262000  0.816500  1.0  -0.1587
  C  C247  1  0.107700  0.285700  0.525800  1.0  0.1719
  C  C248  1  0.121480  0.866900  0.497420  1.0  0.3852
  N  N249  1  0.597030  0.739390  0.564780  1.0  -0.497
  N  N250  1  0.601160  0.915050  0.558790  1.0  -0.5055
  N  N251  1  0.964430  0.641600  0.972770  1.0  -0.5091
  N  N252  1  0.825080  0.578360  0.059560  1.0  -0.4773
  N  N253  1  0.997820  0.583790  0.063190  1.0  -0.5362
  N  N254  1  0.663990  0.245000  0.407410  1.0  -0.3422
  N  N255  1  0.533140  0.753300  0.771760  1.0  -0.3669
  N  N256  1  0.348690  0.673990  0.916720  1.0  -0.3622
  N  N257  1  0.641610  0.675630  0.912360  1.0  -0.332
  N  N258  1  0.671980  0.533290  0.421530  1.0  -0.3531
  N  N259  1  0.642220  0.862480  0.473300  1.0  -0.5076
  N  N260  1  0.775900  0.446200  0.271500  1.0  -0.3452
  N  N261  1  0.035570  0.358400  0.027230  1.0  -0.5111
  N  N262  1  0.466860  0.246700  0.228240  1.0  -0.365
  N  N263  1  0.398840  0.084950  0.441210  1.0  -0.5106
  N  N264  1  0.336010  0.755000  0.592590  1.0  -0.3416
  N  N265  1  0.002180  0.416210  0.936810  1.0  -0.5448
  N  N266  1  0.328020  0.466710  0.578470  1.0  -0.3499
  N  N267  1  0.651310  0.326010  0.083280  1.0  -0.3619
  N  N268  1  0.224100  0.553800  0.728500  1.0  -0.3472
  N  N269  1  0.402970  0.260610  0.435220  1.0  -0.4943
  N  N270  1  0.358390  0.324370  0.087640  1.0  -0.33
  N  N271  1  0.357780  0.137520  0.526700  1.0  -0.5082
  N  N272  1  0.174920  0.421640  0.940440  1.0  -0.4876
  N  N273  1  0.853020  0.938990  0.563190  1.0  -0.5464
  N  N274  1  0.912010  0.446030  0.412360  1.0  -0.3257
  N  N275  1  0.862080  0.115360  0.559560  1.0  -0.4827
  N  N276  1  0.164220  0.884480  0.973300  1.0  -0.5091
  N  N277  1  0.847590  0.928600  0.907410  1.0  -0.3433
  N  N278  1  0.782300  0.952600  0.771500  1.0  -0.3459
  N  N279  1  0.974940  0.695100  0.271760  1.0  -0.3666
  N  N280  1  0.195830  0.838190  0.064780  1.0  -0.4959
  N  N281  1  0.026160  0.840050  0.058790  1.0  -0.51
  N  N282  1  0.885630  0.062800  0.472770  1.0  -0.5089
  N  N283  1  0.909290  0.734590  0.416720  1.0  -0.3623
  N  N284  1  0.545180  0.906490  0.921530  1.0  -0.3507
  N  N285  1  0.835780  0.115520  0.026700  1.0  -0.5097
  N  N286  1  0.973840  0.159950  0.941210  1.0  -0.5038
  N  N287  1  0.087990  0.553970  0.587640  1.0  -0.3269
  N  N288  1  0.217700  0.047400  0.228500  1.0  -0.3466
  N  N289  1  0.152410  0.071400  0.092590  1.0  -0.3402
  N  N290  1  0.804170  0.161810  0.935220  1.0  -0.4926
  N  N291  1  0.137920  0.884640  0.440440  1.0  -0.4793
  N  N292  1  0.114370  0.937200  0.527230  1.0  -0.5106
  N  N293  1  0.025060  0.304900  0.728240  1.0  -0.3673
  N  N294  1  0.454820  0.093510  0.078470  1.0  -0.352
  N  N295  1  0.090710  0.265410  0.583280  1.0  -0.3627
  N  N296  1  0.146980  0.061010  0.436810  1.0  -0.5394
