# generated using pymatgen
data_AgH12(C3N)6
_symmetry_space_group_name_H-M   'P 1'
_cell_length_a   22.05010000
_cell_length_b   16.50790000
_cell_length_c   25.59600000
_cell_angle_alpha   90.00000000
_cell_angle_beta   115.29100000
_cell_angle_gamma   90.00000000
_symmetry_Int_Tables_number   1
_chemical_formula_structural   AgH12(C3N)6
_chemical_formula_sum   'Ag16 H192 C288 N96'
_cell_volume   8423.93139559
_cell_formula_units_Z   16
loop_
 _symmetry_equiv_pos_site_id
 _symmetry_equiv_pos_as_xyz
  1  'x, y, z'
loop_
 _atom_site_type_symbol
 _atom_site_label
 _atom_site_symmetry_multiplicity
 _atom_site_fract_x
 _atom_site_fract_y
 _atom_site_fract_z
 _atom_site_occupancy
 _atom_site_charge
  Ag  Ag1  1  0.344230  0.542630  0.367550  1.0  0.3356
  Ag  Ag2  1  0.322660  0.246110  0.867000  1.0  0.2547
  Ag  Ag3  1  0.844230  0.042630  0.367550  1.0  0.3356
  Ag  Ag4  1  0.822660  0.746110  0.867000  1.0  0.2547
  Ag  Ag5  1  0.655770  0.542630  0.132450  1.0  0.3358
  Ag  Ag6  1  0.677340  0.246110  0.633000  1.0  0.2546
  Ag  Ag7  1  0.155770  0.042630  0.132450  1.0  0.3358
  Ag  Ag8  1  0.177340  0.746110  0.633000  1.0  0.2546
  Ag  Ag9  1  0.655770  0.457370  0.632450  1.0  0.3358
  Ag  Ag10  1  0.677340  0.753890  0.133000  1.0  0.2548
  Ag  Ag11  1  0.155770  0.957370  0.632450  1.0  0.3358
  Ag  Ag12  1  0.177340  0.253890  0.133000  1.0  0.2548
  Ag  Ag13  1  0.344230  0.457370  0.867550  1.0  0.3354
  Ag  Ag14  1  0.322660  0.753890  0.367000  1.0  0.2548
  Ag  Ag15  1  0.844230  0.957370  0.867550  1.0  0.3354
  Ag  Ag16  1  0.822660  0.253890  0.367000  1.0  0.2548
  H  H17  1  0.700600  0.843100  0.851600  1.0  0.0844
  H  H18  1  0.054300  0.209500  0.388800  1.0  0.1263
  H  H19  1  0.798600  0.865000  0.049100  1.0  0.1257
  H  H20  1  0.423900  0.183500  0.984200  1.0  0.0703
  H  H21  1  0.213400  0.442500  0.348300  1.0  0.0753
  H  H22  1  0.320000  0.411800  0.544600  1.0  0.1223
  H  H23  1  0.523200  0.116700  0.036000  1.0  0.1288
  H  H24  1  0.043100  0.169400  0.539000  1.0  0.1283
  H  H25  1  0.635200  0.061900  0.160500  1.0  0.1151
  H  H26  1  0.162000  0.367700  0.393000  1.0  0.122
  H  H27  1  0.944700  0.102800  0.489000  1.0  0.0747
  H  H28  1  0.849200  0.795500  0.999700  1.0  0.0763
  H  H29  1  0.367400  0.482600  0.493800  1.0  0.0703
  H  H30  1  0.956000  0.138700  0.343800  1.0  0.0808
  H  H31  1  0.519800  0.043300  0.885400  1.0  0.1255
  H  H32  1  0.851300  0.978500  0.262800  1.0  0.0792
  H  H33  1  0.644500  0.912700  0.895200  1.0  0.1192
  H  H34  1  0.689500  0.077400  0.259500  1.0  0.0763
  H  H35  1  0.424400  0.117900  0.838800  1.0  0.0744
  H  H36  1  0.226300  0.170000  0.754100  1.0  0.0746
  H  H37  1  0.324300  0.333200  0.667800  1.0  0.122
  H  H38  1  0.367500  0.319700  0.766200  1.0  0.0745
  H  H39  1  0.802100  0.959500  0.164700  1.0  0.1203
  H  H40  1  0.176700  0.181600  0.655400  1.0  0.1217
  H  H41  1  0.200600  0.343100  0.851600  1.0  0.0844
  H  H42  1  0.554300  0.709500  0.388800  1.0  0.1263
  H  H43  1  0.298600  0.365000  0.049100  1.0  0.1257
  H  H44  1  0.923900  0.683500  0.984200  1.0  0.0704
  H  H45  1  0.713400  0.942500  0.348300  1.0  0.0753
  H  H46  1  0.820000  0.911800  0.544600  1.0  0.1223
  H  H47  1  0.023200  0.616700  0.036000  1.0  0.1288
  H  H48  1  0.543100  0.669400  0.539000  1.0  0.1283
  H  H49  1  0.135200  0.561900  0.160500  1.0  0.1151
  H  H50  1  0.662000  0.867700  0.393000  1.0  0.122
  H  H51  1  0.444700  0.602800  0.489000  1.0  0.0747
  H  H52  1  0.349200  0.295500  0.999700  1.0  0.0763
  H  H53  1  0.867400  0.982600  0.493800  1.0  0.0703
  H  H54  1  0.456000  0.638700  0.343800  1.0  0.0808
  H  H55  1  0.019800  0.543300  0.885400  1.0  0.1255
  H  H56  1  0.351300  0.478500  0.262800  1.0  0.0792
  H  H57  1  0.144500  0.412700  0.895200  1.0  0.1192
  H  H58  1  0.189500  0.577400  0.259500  1.0  0.0763
  H  H59  1  0.924400  0.617900  0.838800  1.0  0.0744
  H  H60  1  0.726300  0.670000  0.754100  1.0  0.0746
  H  H61  1  0.824300  0.833200  0.667800  1.0  0.122
  H  H62  1  0.867500  0.819700  0.766200  1.0  0.0745
  H  H63  1  0.302100  0.459500  0.164700  1.0  0.1203
  H  H64  1  0.676700  0.681600  0.655400  1.0  0.1217
  H  H65  1  0.299400  0.843100  0.648400  1.0  0.0834
  H  H66  1  0.945700  0.209500  0.111200  1.0  0.1262
  H  H67  1  0.201400  0.865000  0.450900  1.0  0.1252
  H  H68  1  0.576100  0.183500  0.515800  1.0  0.071
  H  H69  1  0.786600  0.442500  0.151700  1.0  0.0739
  H  H70  1  0.680000  0.411800  0.955400  1.0  0.123
  H  H71  1  0.476800  0.116700  0.464000  1.0  0.1297
  H  H72  1  0.956900  0.169400  0.961000  1.0  0.1282
  H  H73  1  0.364800  0.061900  0.339500  1.0  0.1147
  H  H74  1  0.838000  0.367700  0.107000  1.0  0.122
  H  H75  1  0.055300  0.102800  0.011000  1.0  0.0748
  H  H76  1  0.150800  0.795500  0.500300  1.0  0.0756
  H  H77  1  0.632600  0.482600  0.006200  1.0  0.0702
  H  H78  1  0.044000  0.138700  0.156200  1.0  0.0812
  H  H79  1  0.480200  0.043300  0.614600  1.0  0.1256
  H  H80  1  0.148700  0.978500  0.237200  1.0  0.0787
  H  H81  1  0.355500  0.912700  0.604800  1.0  0.1198
  H  H82  1  0.310500  0.077400  0.240500  1.0  0.0759
  H  H83  1  0.575600  0.117900  0.661200  1.0  0.0748
  H  H84  1  0.773700  0.170000  0.745900  1.0  0.0734
  H  H85  1  0.675700  0.333200  0.832200  1.0  0.1215
  H  H86  1  0.632500  0.319700  0.733800  1.0  0.0763
  H  H87  1  0.197900  0.959500  0.335300  1.0  0.1208
  H  H88  1  0.823300  0.181600  0.844600  1.0  0.1217
  H  H89  1  0.799400  0.343100  0.648400  1.0  0.0834
  H  H90  1  0.445700  0.709500  0.111200  1.0  0.1262
  H  H91  1  0.701400  0.365000  0.450900  1.0  0.1252
  H  H92  1  0.076100  0.683500  0.515800  1.0  0.071
  H  H93  1  0.286600  0.942500  0.151700  1.0  0.0739
  H  H94  1  0.180000  0.911800  0.955400  1.0  0.123
  H  H95  1  0.976800  0.616700  0.464000  1.0  0.1297
  H  H96  1  0.456900  0.669400  0.961000  1.0  0.1282
  H  H97  1  0.864800  0.561900  0.339500  1.0  0.1147
  H  H98  1  0.338000  0.867700  0.107000  1.0  0.122
  H  H99  1  0.555300  0.602800  0.011000  1.0  0.0748
  H  H100  1  0.650800  0.295500  0.500300  1.0  0.0756
  H  H101  1  0.132600  0.982600  0.006200  1.0  0.0702
  H  H102  1  0.544000  0.638700  0.156200  1.0  0.0812
  H  H103  1  0.980200  0.543300  0.614600  1.0  0.1256
  H  H104  1  0.648700  0.478500  0.237200  1.0  0.0787
  H  H105  1  0.855500  0.412700  0.604800  1.0  0.1198
  H  H106  1  0.810500  0.577400  0.240500  1.0  0.0759
  H  H107  1  0.075600  0.617900  0.661200  1.0  0.0748
  H  H108  1  0.273700  0.670000  0.745900  1.0  0.0734
  H  H109  1  0.175700  0.833200  0.832200  1.0  0.1215
  H  H110  1  0.132500  0.819700  0.733800  1.0  0.0763
  H  H111  1  0.697900  0.459500  0.335300  1.0  0.1208
  H  H112  1  0.323300  0.681600  0.844600  1.0  0.1217
  H  H113  1  0.299400  0.156900  0.148400  1.0  0.0838
  H  H114  1  0.945700  0.790500  0.611200  1.0  0.1264
  H  H115  1  0.201400  0.135000  0.950900  1.0  0.1252
  H  H116  1  0.576100  0.816500  0.015800  1.0  0.0708
  H  H117  1  0.786600  0.557500  0.651700  1.0  0.074
  H  H118  1  0.680000  0.588200  0.455400  1.0  0.1229
  H  H119  1  0.476800  0.883300  0.964000  1.0  0.1291
  H  H120  1  0.956900  0.830600  0.461000  1.0  0.1284
  H  H121  1  0.364800  0.938100  0.839500  1.0  0.1141
  H  H122  1  0.838000  0.632300  0.607000  1.0  0.122
  H  H123  1  0.055300  0.897200  0.511000  1.0  0.0747
  H  H124  1  0.150800  0.204500  0.000300  1.0  0.0753
  H  H125  1  0.632600  0.517400  0.506200  1.0  0.0703
  H  H126  1  0.044000  0.861300  0.656200  1.0  0.0812
  H  H127  1  0.480200  0.956700  0.114600  1.0  0.1255
  H  H128  1  0.148700  0.021500  0.737200  1.0  0.0783
  H  H129  1  0.355500  0.087300  0.104800  1.0  0.1197
  H  H130  1  0.310500  0.922600  0.740500  1.0  0.076
  H  H131  1  0.575600  0.882100  0.161200  1.0  0.0748
  H  H132  1  0.773700  0.830000  0.245900  1.0  0.0729
  H  H133  1  0.675700  0.666800  0.332200  1.0  0.1215
  H  H134  1  0.632500  0.680300  0.233800  1.0  0.0755
  H  H135  1  0.197900  0.040500  0.835300  1.0  0.1207
  H  H136  1  0.823300  0.818400  0.344600  1.0  0.1219
  H  H137  1  0.799400  0.656900  0.148400  1.0  0.0838
  H  H138  1  0.445700  0.290500  0.611200  1.0  0.1264
  H  H139  1  0.701400  0.635000  0.950900  1.0  0.1252
  H  H140  1  0.076100  0.316500  0.015800  1.0  0.0708
  H  H141  1  0.286600  0.057500  0.651700  1.0  0.074
  H  H142  1  0.180000  0.088200  0.455400  1.0  0.1229
  H  H143  1  0.976800  0.383300  0.964000  1.0  0.1291
  H  H144  1  0.456900  0.330600  0.461000  1.0  0.1284
  H  H145  1  0.864800  0.438100  0.839500  1.0  0.1141
  H  H146  1  0.338000  0.132300  0.607000  1.0  0.122
  H  H147  1  0.555300  0.397200  0.511000  1.0  0.0747
  H  H148  1  0.650800  0.704500  0.000300  1.0  0.0753
  H  H149  1  0.132600  0.017400  0.506200  1.0  0.0703
  H  H150  1  0.544000  0.361300  0.656200  1.0  0.0812
  H  H151  1  0.980200  0.456700  0.114600  1.0  0.1255
  H  H152  1  0.648700  0.521500  0.737200  1.0  0.0783
  H  H153  1  0.855500  0.587300  0.104800  1.0  0.1197
  H  H154  1  0.810500  0.422600  0.740500  1.0  0.0763
  H  H155  1  0.075600  0.382100  0.161200  1.0  0.0748
  H  H156  1  0.273700  0.330000  0.245900  1.0  0.0729
  H  H157  1  0.175700  0.166800  0.332200  1.0  0.1215
  H  H158  1  0.132500  0.180300  0.233800  1.0  0.0755
  H  H159  1  0.697900  0.540500  0.835300  1.0  0.1207
  H  H160  1  0.323300  0.318400  0.344600  1.0  0.1219
  H  H161  1  0.700600  0.156900  0.351600  1.0  0.0847
  H  H162  1  0.054300  0.790500  0.888800  1.0  0.1267
  H  H163  1  0.798600  0.135000  0.549100  1.0  0.1255
  H  H164  1  0.423900  0.816500  0.484200  1.0  0.0703
  H  H165  1  0.213400  0.557500  0.848300  1.0  0.0754
  H  H166  1  0.320000  0.588200  0.044600  1.0  0.1224
  H  H167  1  0.523200  0.883300  0.536000  1.0  0.1289
  H  H168  1  0.043100  0.830600  0.039000  1.0  0.1282
  H  H169  1  0.635200  0.938100  0.660500  1.0  0.1152
  H  H170  1  0.162000  0.632300  0.893000  1.0  0.1218
  H  H171  1  0.944700  0.897200  0.989000  1.0  0.0744
  H  H172  1  0.849200  0.204500  0.499700  1.0  0.0764
  H  H173  1  0.367400  0.517400  0.993800  1.0  0.0706
  H  H174  1  0.956000  0.861300  0.843800  1.0  0.0811
  H  H175  1  0.519800  0.956700  0.385400  1.0  0.126
  H  H176  1  0.851300  0.021500  0.762800  1.0  0.0794
  H  H177  1  0.644500  0.087300  0.395200  1.0  0.1193
  H  H178  1  0.689500  0.922600  0.759500  1.0  0.0767
  H  H179  1  0.424400  0.882100  0.338800  1.0  0.0744
  H  H180  1  0.226300  0.830000  0.254100  1.0  0.0741
  H  H181  1  0.324300  0.666800  0.167800  1.0  0.1218
  H  H182  1  0.367500  0.680300  0.266200  1.0  0.0735
  H  H183  1  0.802100  0.040500  0.664700  1.0  0.1204
  H  H184  1  0.176700  0.818400  0.155400  1.0  0.1216
  H  H185  1  0.200600  0.656900  0.351600  1.0  0.0847
  H  H186  1  0.554300  0.290500  0.888800  1.0  0.1267
  H  H187  1  0.298600  0.635000  0.549100  1.0  0.1255
  H  H188  1  0.923900  0.316500  0.484200  1.0  0.0704
  H  H189  1  0.713400  0.057500  0.848300  1.0  0.0754
  H  H190  1  0.820000  0.088200  0.044600  1.0  0.1224
  H  H191  1  0.023200  0.383300  0.536000  1.0  0.1289
  H  H192  1  0.543100  0.330600  0.039000  1.0  0.1282
  H  H193  1  0.135200  0.438100  0.660500  1.0  0.1152
  H  H194  1  0.662000  0.132300  0.893000  1.0  0.1218
  H  H195  1  0.444700  0.397200  0.989000  1.0  0.0744
  H  H196  1  0.349200  0.704500  0.499700  1.0  0.0764
  H  H197  1  0.867400  0.017400  0.993800  1.0  0.0706
  H  H198  1  0.456000  0.361300  0.843800  1.0  0.0811
  H  H199  1  0.019800  0.456700  0.385400  1.0  0.126
  H  H200  1  0.351300  0.521500  0.762800  1.0  0.0794
  H  H201  1  0.144500  0.587300  0.395200  1.0  0.1193
  H  H202  1  0.189500  0.422600  0.759500  1.0  0.0766
  H  H203  1  0.924400  0.382100  0.338800  1.0  0.0744
  H  H204  1  0.726300  0.330000  0.254100  1.0  0.0741
  H  H205  1  0.824300  0.166800  0.167800  1.0  0.1218
  H  H206  1  0.867500  0.180300  0.266200  1.0  0.0735
  H  H207  1  0.302100  0.540500  0.664700  1.0  0.1204
  H  H208  1  0.676700  0.318400  0.155400  1.0  0.1216
  C  C209  1  0.123800  0.243500  0.501400  1.0  0.3756
  C  C210  1  0.598000  0.029300  0.000200  1.0  0.3765
  C  C211  1  0.720300  0.847700  0.891700  1.0  0.163
  C  C212  1  0.032800  0.188500  0.410200  1.0  -0.1623
  C  C213  1  0.059700  0.198700  0.469200  1.0  -0.0557
  C  C214  1  0.777800  0.861600  0.009000  1.0  -0.1535
  C  C215  1  0.444000  0.155800  0.964100  1.0  0.174
  C  C216  1  0.235200  0.435500  0.388200  1.0  0.1689
  C  C217  1  0.297800  0.416000  0.504600  1.0  -0.157
  C  C218  1  0.243000  0.263200  0.650600  1.0  -0.0515
  C  C219  1  0.682400  0.947800  0.006100  1.0  0.3519
  C  C220  1  0.503600  0.115500  0.995800  1.0  -0.1581
  C  C221  1  0.209700  0.273900  0.587000  1.0  0.3852
  C  C222  1  0.025800  0.164900  0.499000  1.0  -0.1783
  C  C223  1  0.533500  0.073400  0.966100  1.0  -0.0803
  C  C224  1  0.235700  0.378700  0.474000  1.0  -0.0925
  C  C225  1  0.205400  0.328000  0.504400  1.0  0.3914
  C  C226  1  0.679200  0.044100  0.180600  1.0  -0.1189
  C  C227  1  0.204000  0.390300  0.414600  1.0  -0.1538
  C  C228  1  0.966900  0.125000  0.468600  1.0  0.1693
  C  C229  1  0.715300  0.898100  0.976900  1.0  0.009
  C  C230  1  0.680200  0.997900  0.087400  1.0  0.381
  C  C231  1  0.712500  0.008300  0.151300  1.0  -0.079
  C  C232  1  0.807800  0.819900  0.978800  1.0  0.1704
  C  C233  1  0.325300  0.459400  0.473400  1.0  0.169
  C  C234  1  0.973300  0.146400  0.383600  1.0  0.1683
  C  C235  1  0.502000  0.072700  0.906500  1.0  -0.1528
  C  C236  1  0.807100  0.995100  0.241900  1.0  0.1597
  C  C237  1  0.686300  0.890100  0.917500  1.0  -0.1613
  C  C238  1  0.712200  0.053300  0.240200  1.0  0.1763
  C  C239  1  0.443900  0.116400  0.878900  1.0  0.1728
  C  C240  1  0.245300  0.204700  0.736600  1.0  0.1651
  C  C241  1  0.302300  0.301500  0.684400  1.0  -0.1799
  C  C242  1  0.328300  0.292000  0.743600  1.0  0.1854
  C  C243  1  0.778100  0.983500  0.182900  1.0  -0.174
  C  C244  1  0.215100  0.211300  0.677300  1.0  -0.1603
  C  C245  1  0.623800  0.743500  0.501400  1.0  0.3756
  C  C246  1  0.098000  0.529300  0.000200  1.0  0.3765
  C  C247  1  0.220300  0.347700  0.891700  1.0  0.163
  C  C248  1  0.532800  0.688500  0.410200  1.0  -0.1623
  C  C249  1  0.559700  0.698700  0.469200  1.0  -0.0557
  C  C250  1  0.277800  0.361600  0.009000  1.0  -0.1535
  C  C251  1  0.944000  0.655800  0.964100  1.0  0.174
  C  C252  1  0.735200  0.935500  0.388200  1.0  0.1689
  C  C253  1  0.797800  0.916000  0.504600  1.0  -0.157
  C  C254  1  0.743000  0.763200  0.650600  1.0  -0.0515
  C  C255  1  0.182400  0.447800  0.006100  1.0  0.3519
  C  C256  1  0.003600  0.615500  0.995800  1.0  -0.1581
  C  C257  1  0.709700  0.773900  0.587000  1.0  0.3852
  C  C258  1  0.525800  0.664900  0.499000  1.0  -0.1783
  C  C259  1  0.033500  0.573400  0.966100  1.0  -0.0803
  C  C260  1  0.735700  0.878700  0.474000  1.0  -0.0925
  C  C261  1  0.705400  0.828000  0.504400  1.0  0.3914
  C  C262  1  0.179200  0.544100  0.180600  1.0  -0.1189
  C  C263  1  0.704000  0.890300  0.414600  1.0  -0.1538
  C  C264  1  0.466900  0.625000  0.468600  1.0  0.1693
  C  C265  1  0.215300  0.398100  0.976900  1.0  0.009
  C  C266  1  0.180200  0.497900  0.087400  1.0  0.381
  C  C267  1  0.212500  0.508300  0.151300  1.0  -0.079
  C  C268  1  0.307800  0.319900  0.978800  1.0  0.1704
  C  C269  1  0.825300  0.959400  0.473400  1.0  0.169
  C  C270  1  0.473300  0.646400  0.383600  1.0  0.1683
  C  C271  1  0.002000  0.572700  0.906500  1.0  -0.1528
  C  C272  1  0.307100  0.495100  0.241900  1.0  0.1597
  C  C273  1  0.186300  0.390100  0.917500  1.0  -0.1613
  C  C274  1  0.212200  0.553300  0.240200  1.0  0.1763
  C  C275  1  0.943900  0.616400  0.878900  1.0  0.1728
  C  C276  1  0.745300  0.704700  0.736600  1.0  0.1651
  C  C277  1  0.802300  0.801500  0.684400  1.0  -0.1799
  C  C278  1  0.828300  0.792000  0.743600  1.0  0.1854
  C  C279  1  0.278100  0.483500  0.182900  1.0  -0.174
  C  C280  1  0.715100  0.711300  0.677300  1.0  -0.1603
  C  C281  1  0.876200  0.243500  0.998600  1.0  0.3754
  C  C282  1  0.402000  0.029300  0.499800  1.0  0.3763
  C  C283  1  0.279700  0.847700  0.608300  1.0  0.1632
  C  C284  1  0.967200  0.188500  0.089800  1.0  -0.1628
  C  C285  1  0.940300  0.198700  0.030800  1.0  -0.0567
  C  C286  1  0.222200  0.861600  0.491000  1.0  -0.1528
  C  C287  1  0.556000  0.155800  0.535900  1.0  0.1748
  C  C288  1  0.764800  0.435500  0.111800  1.0  0.1675
  C  C289  1  0.702200  0.416000  0.995400  1.0  -0.1561
  C  C290  1  0.757000  0.263200  0.849400  1.0  -0.0506
  C  C291  1  0.317600  0.947800  0.493900  1.0  0.3521
  C  C292  1  0.496400  0.115500  0.504200  1.0  -0.1592
  C  C293  1  0.790300  0.273900  0.913000  1.0  0.3848
  C  C294  1  0.974200  0.164900  0.001000  1.0  -0.1786
  C  C295  1  0.466500  0.073400  0.533900  1.0  -0.0809
  C  C296  1  0.764300  0.378700  0.026000  1.0  -0.0917
  C  C297  1  0.794600  0.328000  0.995600  1.0  0.391
  C  C298  1  0.320800  0.044100  0.319400  1.0  -0.1212
  C  C299  1  0.796000  0.390300  0.085400  1.0  -0.1554
  C  C300  1  0.033100  0.125000  0.031400  1.0  0.169
  C  C301  1  0.284700  0.898100  0.523100  1.0  0.0097
  C  C302  1  0.319800  0.997900  0.412600  1.0  0.3809
  C  C303  1  0.287500  0.008300  0.348700  1.0  -0.0785
  C  C304  1  0.192200  0.819900  0.521200  1.0  0.1707
  C  C305  1  0.674700  0.459400  0.026600  1.0  0.1699
  C  C306  1  0.026700  0.146400  0.116400  1.0  0.1689
  C  C307  1  0.498000  0.072700  0.593500  1.0  -0.156
  C  C308  1  0.192900  0.995100  0.258100  1.0  0.1603
  C  C309  1  0.313700  0.890100  0.582500  1.0  -0.1616
  C  C310  1  0.287800  0.053300  0.259800  1.0  0.177
  C  C311  1  0.556100  0.116400  0.621100  1.0  0.1721
  C  C312  1  0.754700  0.204700  0.763400  1.0  0.1641
  C  C313  1  0.697700  0.301500  0.815600  1.0  -0.1778
  C  C314  1  0.671700  0.292000  0.756400  1.0  0.1846
  C  C315  1  0.221900  0.983500  0.317100  1.0  -0.1729
  C  C316  1  0.784900  0.211300  0.822700  1.0  -0.1607
  C  C317  1  0.376200  0.743500  0.998600  1.0  0.3754
  C  C318  1  0.902000  0.529300  0.499800  1.0  0.3763
  C  C319  1  0.779700  0.347700  0.608300  1.0  0.1632
  C  C320  1  0.467200  0.688500  0.089800  1.0  -0.1628
  C  C321  1  0.440300  0.698700  0.030800  1.0  -0.0567
  C  C322  1  0.722200  0.361600  0.491000  1.0  -0.1528
  C  C323  1  0.056000  0.655800  0.535900  1.0  0.1748
  C  C324  1  0.264800  0.935500  0.111800  1.0  0.1675
  C  C325  1  0.202200  0.916000  0.995400  1.0  -0.1561
  C  C326  1  0.257000  0.763200  0.849400  1.0  -0.0506
  C  C327  1  0.817600  0.447800  0.493900  1.0  0.3521
  C  C328  1  0.996400  0.615500  0.504200  1.0  -0.1592
  C  C329  1  0.290300  0.773900  0.913000  1.0  0.3848
  C  C330  1  0.474200  0.664900  0.001000  1.0  -0.1786
  C  C331  1  0.966500  0.573400  0.533900  1.0  -0.0809
  C  C332  1  0.264300  0.878700  0.026000  1.0  -0.0917
  C  C333  1  0.294600  0.828000  0.995600  1.0  0.391
  C  C334  1  0.820800  0.544100  0.319400  1.0  -0.1212
  C  C335  1  0.296000  0.890300  0.085400  1.0  -0.1554
  C  C336  1  0.533100  0.625000  0.031400  1.0  0.169
  C  C337  1  0.784700  0.398100  0.523100  1.0  0.0097
  C  C338  1  0.819800  0.497900  0.412600  1.0  0.3809
  C  C339  1  0.787500  0.508300  0.348700  1.0  -0.0785
  C  C340  1  0.692200  0.319900  0.521200  1.0  0.1707
  C  C341  1  0.174700  0.959400  0.026600  1.0  0.1699
  C  C342  1  0.526700  0.646400  0.116400  1.0  0.1689
  C  C343  1  0.998000  0.572700  0.593500  1.0  -0.156
  C  C344  1  0.692900  0.495100  0.258100  1.0  0.1603
  C  C345  1  0.813700  0.390100  0.582500  1.0  -0.1616
  C  C346  1  0.787800  0.553300  0.259800  1.0  0.177
  C  C347  1  0.056100  0.616400  0.621100  1.0  0.1721
  C  C348  1  0.254700  0.704700  0.763400  1.0  0.1641
  C  C349  1  0.197700  0.801500  0.815600  1.0  -0.1778
  C  C350  1  0.171700  0.792000  0.756400  1.0  0.1846
  C  C351  1  0.721900  0.483500  0.317100  1.0  -0.1729
  C  C352  1  0.284900  0.711300  0.822700  1.0  -0.1607
  C  C353  1  0.876200  0.756500  0.498600  1.0  0.3754
  C  C354  1  0.402000  0.970700  0.999800  1.0  0.376
  C  C355  1  0.279700  0.152300  0.108300  1.0  0.1626
  C  C356  1  0.967200  0.811500  0.589800  1.0  -0.163
  C  C357  1  0.940300  0.801300  0.530800  1.0  -0.0562
  C  C358  1  0.222200  0.138400  0.991000  1.0  -0.1532
  C  C359  1  0.556000  0.844200  0.035900  1.0  0.1749
  C  C360  1  0.764800  0.564500  0.611800  1.0  0.1679
  C  C361  1  0.702200  0.584000  0.495400  1.0  -0.1557
  C  C362  1  0.757000  0.736800  0.349400  1.0  -0.0512
  C  C363  1  0.317600  0.052200  0.993900  1.0  0.3519
  C  C364  1  0.496400  0.884500  0.004200  1.0  -0.159
  C  C365  1  0.790300  0.726100  0.413000  1.0  0.3847
  C  C366  1  0.974200  0.835100  0.501000  1.0  -0.1794
  C  C367  1  0.466500  0.926600  0.033900  1.0  -0.0811
  C  C368  1  0.764300  0.621300  0.526000  1.0  -0.0912
  C  C369  1  0.794600  0.672000  0.495600  1.0  0.3912
  C  C370  1  0.320800  0.955900  0.819400  1.0  -0.1208
  C  C371  1  0.796000  0.609700  0.585400  1.0  -0.1549
  C  C372  1  0.033100  0.875000  0.531400  1.0  0.17
  C  C373  1  0.284700  0.101900  0.023100  1.0  0.0106
  C  C374  1  0.319800  0.002100  0.912600  1.0  0.381
  C  C375  1  0.287500  0.991700  0.848700  1.0  -0.079
  C  C376  1  0.192200  0.180100  0.021200  1.0  0.1701
  C  C377  1  0.674700  0.540600  0.526600  1.0  0.1702
  C  C378  1  0.026700  0.853600  0.616400  1.0  0.1682
  C  C379  1  0.498000  0.927300  0.093500  1.0  -0.1561
  C  C380  1  0.192900  0.004900  0.758100  1.0  0.1603
  C  C381  1  0.313700  0.109900  0.082500  1.0  -0.1615
  C  C382  1  0.287800  0.946700  0.759800  1.0  0.1772
  C  C383  1  0.556100  0.883600  0.121100  1.0  0.172
  C  C384  1  0.754700  0.795300  0.263400  1.0  0.1641
  C  C385  1  0.697700  0.698500  0.315600  1.0  -0.1782
  C  C386  1  0.671700  0.708000  0.256400  1.0  0.184
  C  C387  1  0.221900  0.016500  0.817100  1.0  -0.1734
  C  C388  1  0.784900  0.788700  0.322700  1.0  -0.1607
  C  C389  1  0.376200  0.256500  0.498600  1.0  0.3754
  C  C390  1  0.902000  0.470700  0.999800  1.0  0.376
  C  C391  1  0.779700  0.652300  0.108300  1.0  0.1626
  C  C392  1  0.467200  0.311500  0.589800  1.0  -0.163
  C  C393  1  0.440300  0.301300  0.530800  1.0  -0.0562
  C  C394  1  0.722200  0.638400  0.991000  1.0  -0.1532
  C  C395  1  0.056000  0.344200  0.035900  1.0  0.1749
  C  C396  1  0.264800  0.064500  0.611800  1.0  0.1679
  C  C397  1  0.202200  0.084000  0.495400  1.0  -0.1557
  C  C398  1  0.257000  0.236800  0.349400  1.0  -0.0512
  C  C399  1  0.817600  0.552200  0.993900  1.0  0.3519
  C  C400  1  0.996400  0.384500  0.004200  1.0  -0.159
  C  C401  1  0.290300  0.226100  0.413000  1.0  0.3847
  C  C402  1  0.474200  0.335100  0.501000  1.0  -0.1794
  C  C403  1  0.966500  0.426600  0.033900  1.0  -0.0811
  C  C404  1  0.264300  0.121300  0.526000  1.0  -0.0912
  C  C405  1  0.294600  0.172000  0.495600  1.0  0.3912
  C  C406  1  0.820800  0.455900  0.819400  1.0  -0.1208
  C  C407  1  0.296000  0.109700  0.585400  1.0  -0.1549
  C  C408  1  0.533100  0.375000  0.531400  1.0  0.17
  C  C409  1  0.784700  0.601900  0.023100  1.0  0.0106
  C  C410  1  0.819800  0.502100  0.912600  1.0  0.381
  C  C411  1  0.787500  0.491700  0.848700  1.0  -0.079
  C  C412  1  0.692200  0.680100  0.021200  1.0  0.1701
  C  C413  1  0.174700  0.040600  0.526600  1.0  0.1702
  C  C414  1  0.526700  0.353600  0.616400  1.0  0.1682
  C  C415  1  0.998000  0.427300  0.093500  1.0  -0.1561
  C  C416  1  0.692900  0.504900  0.758100  1.0  0.1603
  C  C417  1  0.813700  0.609900  0.082500  1.0  -0.1615
  C  C418  1  0.787800  0.446700  0.759800  1.0  0.1772
  C  C419  1  0.056100  0.383600  0.121100  1.0  0.172
  C  C420  1  0.254700  0.295300  0.263400  1.0  0.1641
  C  C421  1  0.197700  0.198500  0.315600  1.0  -0.1782
  C  C422  1  0.171700  0.208000  0.256400  1.0  0.184
  C  C423  1  0.721900  0.516500  0.817100  1.0  -0.1734
  C  C424  1  0.284900  0.288700  0.322700  1.0  -0.1607
  C  C425  1  0.123800  0.756500  0.001400  1.0  0.3754
  C  C426  1  0.598000  0.970700  0.500200  1.0  0.3761
  C  C427  1  0.720300  0.152300  0.391700  1.0  0.163
  C  C428  1  0.032800  0.811500  0.910200  1.0  -0.1621
  C  C429  1  0.059700  0.801300  0.969200  1.0  -0.056
  C  C430  1  0.777800  0.138400  0.509000  1.0  -0.1533
  C  C431  1  0.444000  0.844200  0.464100  1.0  0.1746
  C  C432  1  0.235200  0.564500  0.888200  1.0  0.1692
  C  C433  1  0.297800  0.584000  0.004600  1.0  -0.1576
  C  C434  1  0.243000  0.736800  0.150600  1.0  -0.0518
  C  C435  1  0.682400  0.052200  0.506100  1.0  0.3516
  C  C436  1  0.503600  0.884500  0.495800  1.0  -0.158
  C  C437  1  0.209700  0.726100  0.087000  1.0  0.3851
  C  C438  1  0.025800  0.835100  0.999000  1.0  -0.1788
  C  C439  1  0.533500  0.926600  0.466100  1.0  -0.0801
  C  C440  1  0.235700  0.621300  0.974000  1.0  -0.0923
  C  C441  1  0.205400  0.672000  0.004400  1.0  0.3916
  C  C442  1  0.679200  0.955900  0.680600  1.0  -0.1189
  C  C443  1  0.204000  0.609700  0.914600  1.0  -0.1543
  C  C444  1  0.966900  0.875000  0.968600  1.0  0.1688
  C  C445  1  0.715300  0.101900  0.476900  1.0  0.0097
  C  C446  1  0.680200  0.002100  0.587400  1.0  0.3809
  C  C447  1  0.712500  0.991700  0.651300  1.0  -0.0793
  C  C448  1  0.807800  0.180100  0.478800  1.0  0.17
  C  C449  1  0.325300  0.540600  0.973400  1.0  0.169
  C  C450  1  0.973300  0.853600  0.883600  1.0  0.1682
  C  C451  1  0.502000  0.927300  0.406500  1.0  -0.1529
  C  C452  1  0.807100  0.004900  0.741900  1.0  0.1599
  C  C453  1  0.686300  0.109900  0.417500  1.0  -0.1614
  C  C454  1  0.712200  0.946700  0.740200  1.0  0.1762
  C  C455  1  0.443900  0.883600  0.378900  1.0  0.1725
  C  C456  1  0.245300  0.795300  0.236600  1.0  0.1652
  C  C457  1  0.302300  0.698500  0.184400  1.0  -0.1804
  C  C458  1  0.328300  0.708000  0.243600  1.0  0.1847
  C  C459  1  0.778100  0.016500  0.682900  1.0  -0.1735
  C  C460  1  0.215100  0.788700  0.177300  1.0  -0.1604
  C  C461  1  0.623800  0.256500  0.001400  1.0  0.3754
  C  C462  1  0.098000  0.470700  0.500200  1.0  0.3761
  C  C463  1  0.220300  0.652300  0.391700  1.0  0.163
  C  C464  1  0.532800  0.311500  0.910200  1.0  -0.1621
  C  C465  1  0.559700  0.301300  0.969200  1.0  -0.056
  C  C466  1  0.277800  0.638400  0.509000  1.0  -0.1533
  C  C467  1  0.944000  0.344200  0.464100  1.0  0.1746
  C  C468  1  0.735200  0.064500  0.888200  1.0  0.1692
  C  C469  1  0.797800  0.084000  0.004600  1.0  -0.1576
  C  C470  1  0.743000  0.236800  0.150600  1.0  -0.0518
  C  C471  1  0.182400  0.552200  0.506100  1.0  0.3516
  C  C472  1  0.003600  0.384500  0.495800  1.0  -0.158
  C  C473  1  0.709700  0.226100  0.087000  1.0  0.3851
  C  C474  1  0.525800  0.335100  0.999000  1.0  -0.1788
  C  C475  1  0.033500  0.426600  0.466100  1.0  -0.0801
  C  C476  1  0.735700  0.121300  0.974000  1.0  -0.0923
  C  C477  1  0.705400  0.172000  0.004400  1.0  0.3916
  C  C478  1  0.179200  0.455900  0.680600  1.0  -0.1189
  C  C479  1  0.704000  0.109700  0.914600  1.0  -0.1543
  C  C480  1  0.466900  0.375000  0.968600  1.0  0.1688
  C  C481  1  0.215300  0.601900  0.476900  1.0  0.0097
  C  C482  1  0.180200  0.502100  0.587400  1.0  0.3809
  C  C483  1  0.212500  0.491700  0.651300  1.0  -0.0793
  C  C484  1  0.307800  0.680100  0.478800  1.0  0.17
  C  C485  1  0.825300  0.040600  0.973400  1.0  0.169
  C  C486  1  0.473300  0.353600  0.883600  1.0  0.1682
  C  C487  1  0.002000  0.427300  0.406500  1.0  -0.1529
  C  C488  1  0.307100  0.504900  0.741900  1.0  0.1599
  C  C489  1  0.186300  0.609900  0.417500  1.0  -0.1614
  C  C490  1  0.212200  0.446700  0.740200  1.0  0.1762
  C  C491  1  0.943900  0.383600  0.378900  1.0  0.1725
  C  C492  1  0.745300  0.295300  0.236600  1.0  0.1652
  C  C493  1  0.802300  0.198500  0.184400  1.0  -0.1804
  C  C494  1  0.828300  0.208000  0.243600  1.0  0.1847
  C  C495  1  0.278100  0.516500  0.682900  1.0  -0.1735
  C  C496  1  0.715100  0.288700  0.177300  1.0  -0.1604
  N  N497  1  0.939200  0.116200  0.411400  1.0  -0.3226
  N  N498  1  0.295600  0.470000  0.416900  1.0  -0.367
  N  N499  1  0.300800  0.245700  0.770400  1.0  -0.3389
  N  N500  1  0.147800  0.289600  0.471800  1.0  -0.5054
  N  N501  1  0.238000  0.322600  0.562140  1.0  -0.5144
  N  N502  1  0.152900  0.232800  0.558800  1.0  -0.4763
  N  N503  1  0.780000  0.813300  0.921300  1.0  -0.3143
  N  N504  1  0.413600  0.157200  0.906700  1.0  -0.3638
  N  N505  1  0.775400  0.029000  0.270800  1.0  -0.362
  N  N506  1  0.626100  0.987900  0.972540  1.0  -0.4437
  N  N507  1  0.622900  0.037000  0.058000  1.0  -0.506
  N  N508  1  0.711500  0.950500  0.064100  1.0  -0.5038
  N  N509  1  0.439200  0.616200  0.411400  1.0  -0.3226
  N  N510  1  0.795600  0.970000  0.416900  1.0  -0.367
  N  N511  1  0.800800  0.745700  0.770400  1.0  -0.3389
  N  N512  1  0.647800  0.789600  0.471800  1.0  -0.5054
  N  N513  1  0.738000  0.822600  0.562140  1.0  -0.5144
  N  N514  1  0.652900  0.732800  0.558800  1.0  -0.4763
  N  N515  1  0.280000  0.313300  0.921300  1.0  -0.3143
  N  N516  1  0.913600  0.657200  0.906700  1.0  -0.3638
  N  N517  1  0.275400  0.529000  0.270800  1.0  -0.362
  N  N518  1  0.126100  0.487900  0.972540  1.0  -0.4437
  N  N519  1  0.122900  0.537000  0.058000  1.0  -0.506
  N  N520  1  0.211500  0.450500  0.064100  1.0  -0.5038
  N  N521  1  0.060800  0.116200  0.088600  1.0  -0.3203
  N  N522  1  0.704400  0.470000  0.083100  1.0  -0.3685
  N  N523  1  0.699200  0.245700  0.729600  1.0  -0.3428
  N  N524  1  0.852200  0.289600  0.028200  1.0  -0.5075
  N  N525  1  0.762000  0.322600  0.937860  1.0  -0.5156
  N  N526  1  0.847100  0.232800  0.941200  1.0  -0.4754
  N  N527  1  0.220000  0.813300  0.578700  1.0  -0.3136
  N  N528  1  0.586400  0.157200  0.593300  1.0  -0.363
  N  N529  1  0.224600  0.029000  0.229200  1.0  -0.362
  N  N530  1  0.373900  0.987900  0.527460  1.0  -0.4415
  N  N531  1  0.377100  0.037000  0.442000  1.0  -0.5048
  N  N532  1  0.288500  0.950500  0.435900  1.0  -0.506
  N  N533  1  0.560800  0.616200  0.088600  1.0  -0.3203
  N  N534  1  0.204400  0.970000  0.083100  1.0  -0.3685
  N  N535  1  0.199200  0.745700  0.729600  1.0  -0.3428
  N  N536  1  0.352200  0.789600  0.028200  1.0  -0.5075
  N  N537  1  0.262000  0.822600  0.937860  1.0  -0.5156
  N  N538  1  0.347100  0.732800  0.941200  1.0  -0.4754
  N  N539  1  0.720000  0.313300  0.578700  1.0  -0.3136
  N  N540  1  0.086400  0.657200  0.593300  1.0  -0.363
  N  N541  1  0.724600  0.529000  0.229200  1.0  -0.362
  N  N542  1  0.873900  0.487900  0.527460  1.0  -0.4415
  N  N543  1  0.877100  0.537000  0.442000  1.0  -0.5048
  N  N544  1  0.788500  0.450500  0.435900  1.0  -0.506
  N  N545  1  0.060800  0.883800  0.588600  1.0  -0.321
  N  N546  1  0.704400  0.530000  0.583100  1.0  -0.3676
  N  N547  1  0.699200  0.754300  0.229600  1.0  -0.3425
  N  N548  1  0.852200  0.710400  0.528200  1.0  -0.5076
  N  N549  1  0.762000  0.677400  0.437860  1.0  -0.5168
  N  N550  1  0.847100  0.767200  0.441200  1.0  -0.4748
  N  N551  1  0.220000  0.186700  0.078700  1.0  -0.3129
  N  N552  1  0.586400  0.842800  0.093300  1.0  -0.3609
  N  N553  1  0.224600  0.971000  0.729200  1.0  -0.3625
  N  N554  1  0.373900  0.012100  0.027460  1.0  -0.4427
  N  N555  1  0.377100  0.963000  0.942000  1.0  -0.5049
  N  N556  1  0.288500  0.049500  0.935900  1.0  -0.5045
  N  N557  1  0.560800  0.383800  0.588600  1.0  -0.321
  N  N558  1  0.204400  0.030000  0.583100  1.0  -0.3676
  N  N559  1  0.199200  0.254300  0.229600  1.0  -0.3425
  N  N560  1  0.352200  0.210400  0.528200  1.0  -0.5076
  N  N561  1  0.262000  0.177400  0.437860  1.0  -0.5168
  N  N562  1  0.347100  0.267200  0.441200  1.0  -0.4748
  N  N563  1  0.720000  0.686700  0.078700  1.0  -0.3129
  N  N564  1  0.086400  0.342800  0.093300  1.0  -0.3609
  N  N565  1  0.724600  0.471000  0.729200  1.0  -0.3625
  N  N566  1  0.873900  0.512100  0.027460  1.0  -0.4427
  N  N567  1  0.877100  0.463000  0.942000  1.0  -0.5049
  N  N568  1  0.788500  0.549500  0.935900  1.0  -0.5045
  N  N569  1  0.939200  0.883800  0.911400  1.0  -0.3186
  N  N570  1  0.295600  0.530000  0.916900  1.0  -0.3674
  N  N571  1  0.300800  0.754300  0.270400  1.0  -0.3398
  N  N572  1  0.147800  0.710400  0.971800  1.0  -0.5054
  N  N573  1  0.238000  0.677400  0.062140  1.0  -0.5145
  N  N574  1  0.152900  0.767200  0.058800  1.0  -0.4765
  N  N575  1  0.780000  0.186700  0.421300  1.0  -0.312
  N  N576  1  0.413600  0.842800  0.406700  1.0  -0.3649
  N  N577  1  0.775400  0.971000  0.770800  1.0  -0.3618
  N  N578  1  0.626100  0.012100  0.472540  1.0  -0.444
  N  N579  1  0.622900  0.963000  0.558000  1.0  -0.5056
  N  N580  1  0.711500  0.049500  0.564100  1.0  -0.5041
  N  N581  1  0.439200  0.383800  0.911400  1.0  -0.3186
  N  N582  1  0.795600  0.030000  0.916900  1.0  -0.3674
  N  N583  1  0.800800  0.254300  0.270400  1.0  -0.3398
  N  N584  1  0.647800  0.210400  0.971800  1.0  -0.5054
  N  N585  1  0.738000  0.177400  0.062140  1.0  -0.5145
  N  N586  1  0.652900  0.267200  0.058800  1.0  -0.4765
  N  N587  1  0.280000  0.686700  0.421300  1.0  -0.312
  N  N588  1  0.913600  0.342800  0.406700  1.0  -0.3649
  N  N589  1  0.275400  0.471000  0.770800  1.0  -0.3618
  N  N590  1  0.126100  0.512100  0.472540  1.0  -0.444
  N  N591  1  0.122900  0.463000  0.558000  1.0  -0.5056
  N  N592  1  0.211500  0.549500  0.564100  1.0  -0.5041
