# generated using pymatgen
data_AgH12(C3N)6
_symmetry_space_group_name_H-M   'P 1'
_cell_length_a   21.93810000
_cell_length_b   16.71980000
_cell_length_c   25.50370000
_cell_angle_alpha   90.00000000
_cell_angle_beta   115.07400000
_cell_angle_gamma   90.00000000
_symmetry_Int_Tables_number   1
_chemical_formula_structural   AgH12(C3N)6
_chemical_formula_sum   'Ag16 H192 C288 N96'
_cell_volume   8473.19096901
_cell_formula_units_Z   16
loop_
 _symmetry_equiv_pos_site_id
 _symmetry_equiv_pos_as_xyz
  1  'x, y, z'
loop_
 _atom_site_type_symbol
 _atom_site_label
 _atom_site_symmetry_multiplicity
 _atom_site_fract_x
 _atom_site_fract_y
 _atom_site_fract_z
 _atom_site_occupancy
 _atom_site_charge
  Ag  Ag1  1  0.844240  0.043670  0.366650  1.0  0.3258
  Ag  Ag2  1  0.321440  0.243120  0.866220  1.0  0.2791
  Ag  Ag3  1  0.344240  0.543670  0.366650  1.0  0.3258
  Ag  Ag4  1  0.821440  0.743120  0.866220  1.0  0.2791
  Ag  Ag5  1  0.155760  0.043670  0.133350  1.0  0.3249
  Ag  Ag6  1  0.678560  0.243120  0.633780  1.0  0.2778
  Ag  Ag7  1  0.655760  0.543670  0.133350  1.0  0.3249
  Ag  Ag8  1  0.178560  0.743120  0.633780  1.0  0.2778
  Ag  Ag9  1  0.155760  0.956330  0.633350  1.0  0.3252
  Ag  Ag10  1  0.678560  0.756880  0.133780  1.0  0.278
  Ag  Ag11  1  0.655760  0.456330  0.633350  1.0  0.3252
  Ag  Ag12  1  0.178560  0.256880  0.133780  1.0  0.278
  Ag  Ag13  1  0.844240  0.956330  0.866650  1.0  0.326
  Ag  Ag14  1  0.321440  0.756880  0.366220  1.0  0.2792
  Ag  Ag15  1  0.344240  0.456330  0.866650  1.0  0.326
  Ag  Ag16  1  0.821440  0.256880  0.366220  1.0  0.2792
  H  H17  1  0.797000  0.865400  0.047500  1.0  0.1208
  H  H18  1  0.319300  0.414100  0.543400  1.0  0.1205
  H  H19  1  0.054100  0.211400  0.387400  1.0  0.1072
  H  H20  1  0.522400  0.116000  0.034300  1.0  0.1256
  H  H21  1  0.423800  0.183600  0.982400  1.0  0.0737
  H  H22  1  0.700200  0.842400  0.849900  1.0  0.0907
  H  H23  1  0.634600  0.062100  0.158700  1.0  0.1172
  H  H24  1  0.042100  0.171200  0.537000  1.0  0.1254
  H  H25  1  0.214400  0.441600  0.347100  1.0  0.0704
  H  H26  1  0.161600  0.369100  0.391800  1.0  0.1139
  H  H27  1  0.847200  0.794500  0.999200  1.0  0.0708
  H  H28  1  0.643600  0.912300  0.894100  1.0  0.1079
  H  H29  1  0.367200  0.480900  0.493000  1.0  0.0611
  H  H30  1  0.945400  0.104100  0.487700  1.0  0.0711
  H  H31  1  0.954900  0.141400  0.341500  1.0  0.0781
  H  H32  1  0.849900  0.977000  0.261300  1.0  0.0743
  H  H33  1  0.518300  0.040900  0.883600  1.0  0.1235
  H  H34  1  0.687500  0.077200  0.257000  1.0  0.0825
  H  H35  1  0.227100  0.171000  0.752300  1.0  0.056
  H  H36  1  0.175100  0.185200  0.655000  1.0  0.1251
  H  H37  1  0.801900  0.960200  0.163400  1.0  0.1218
  H  H38  1  0.424600  0.117600  0.837600  1.0  0.0721
  H  H39  1  0.324900  0.331200  0.666100  1.0  0.122
  H  H40  1  0.366800  0.317600  0.765200  1.0  0.0763
  H  H41  1  0.297000  0.365400  0.047500  1.0  0.1208
  H  H42  1  0.819300  0.914100  0.543400  1.0  0.1205
  H  H43  1  0.554100  0.711400  0.387400  1.0  0.1072
  H  H44  1  0.022400  0.616000  0.034300  1.0  0.1256
  H  H45  1  0.923800  0.683600  0.982400  1.0  0.0738
  H  H46  1  0.200200  0.342400  0.849900  1.0  0.0907
  H  H47  1  0.134600  0.562100  0.158700  1.0  0.1172
  H  H48  1  0.542100  0.671200  0.537000  1.0  0.1254
  H  H49  1  0.714400  0.941600  0.347100  1.0  0.0704
  H  H50  1  0.661600  0.869100  0.391800  1.0  0.1139
  H  H51  1  0.347200  0.294500  0.999200  1.0  0.0708
  H  H52  1  0.143600  0.412300  0.894100  1.0  0.1079
  H  H53  1  0.867200  0.980900  0.493000  1.0  0.0611
  H  H54  1  0.445400  0.604100  0.487700  1.0  0.0711
  H  H55  1  0.454900  0.641400  0.341500  1.0  0.0781
  H  H56  1  0.349900  0.477000  0.261300  1.0  0.0743
  H  H57  1  0.018300  0.540900  0.883600  1.0  0.1235
  H  H58  1  0.187500  0.577200  0.257000  1.0  0.0823
  H  H59  1  0.727100  0.671000  0.752300  1.0  0.056
  H  H60  1  0.675100  0.685200  0.655000  1.0  0.1251
  H  H61  1  0.301900  0.460200  0.163400  1.0  0.1218
  H  H62  1  0.924600  0.617600  0.837600  1.0  0.0721
  H  H63  1  0.824900  0.831200  0.666100  1.0  0.122
  H  H64  1  0.866800  0.817600  0.765200  1.0  0.0763
  H  H65  1  0.203000  0.865400  0.452500  1.0  0.1206
  H  H66  1  0.680700  0.414100  0.956600  1.0  0.1215
  H  H67  1  0.945900  0.211400  0.112600  1.0  0.1068
  H  H68  1  0.477600  0.116000  0.465700  1.0  0.1268
  H  H69  1  0.576200  0.183600  0.517600  1.0  0.0747
  H  H70  1  0.299800  0.842400  0.650100  1.0  0.0902
  H  H71  1  0.365400  0.062100  0.341300  1.0  0.1173
  H  H72  1  0.957900  0.171200  0.963000  1.0  0.1255
  H  H73  1  0.785600  0.441600  0.152900  1.0  0.0695
  H  H74  1  0.838400  0.369100  0.108200  1.0  0.1141
  H  H75  1  0.152800  0.794500  0.500800  1.0  0.07
  H  H76  1  0.356400  0.912300  0.605900  1.0  0.1087
  H  H77  1  0.632800  0.480900  0.007000  1.0  0.0609
  H  H78  1  0.054600  0.104100  0.012300  1.0  0.0707
  H  H79  1  0.045100  0.141400  0.158500  1.0  0.0782
  H  H80  1  0.150100  0.977000  0.238700  1.0  0.0763
  H  H81  1  0.481700  0.040900  0.616400  1.0  0.1228
  H  H82  1  0.312500  0.077200  0.243000  1.0  0.0834
  H  H83  1  0.772900  0.171000  0.747700  1.0  0.0558
  H  H84  1  0.824900  0.185200  0.845000  1.0  0.1246
  H  H85  1  0.198100  0.960200  0.336600  1.0  0.1224
  H  H86  1  0.575400  0.117600  0.662400  1.0  0.0721
  H  H87  1  0.675100  0.331200  0.833900  1.0  0.1219
  H  H88  1  0.633200  0.317600  0.734800  1.0  0.0763
  H  H89  1  0.703000  0.365400  0.452500  1.0  0.1206
  H  H90  1  0.180700  0.914100  0.956600  1.0  0.1215
  H  H91  1  0.445900  0.711400  0.112600  1.0  0.1068
  H  H92  1  0.977600  0.616000  0.465700  1.0  0.1268
  H  H93  1  0.076200  0.683600  0.517600  1.0  0.0748
  H  H94  1  0.799800  0.342400  0.650100  1.0  0.0902
  H  H95  1  0.865400  0.562100  0.341300  1.0  0.1173
  H  H96  1  0.457900  0.671200  0.963000  1.0  0.1255
  H  H97  1  0.285600  0.941600  0.152900  1.0  0.0695
  H  H98  1  0.338400  0.869100  0.108200  1.0  0.1141
  H  H99  1  0.652800  0.294500  0.500800  1.0  0.07
  H  H100  1  0.856400  0.412300  0.605900  1.0  0.1087
  H  H101  1  0.132800  0.980900  0.007000  1.0  0.0609
  H  H102  1  0.554600  0.604100  0.012300  1.0  0.0707
  H  H103  1  0.545100  0.641400  0.158500  1.0  0.0782
  H  H104  1  0.650100  0.477000  0.238700  1.0  0.0763
  H  H105  1  0.981700  0.540900  0.616400  1.0  0.1228
  H  H106  1  0.812500  0.577200  0.243000  1.0  0.0832
  H  H107  1  0.272900  0.671000  0.747700  1.0  0.0558
  H  H108  1  0.324900  0.685200  0.845000  1.0  0.1246
  H  H109  1  0.698100  0.460200  0.336600  1.0  0.1224
  H  H110  1  0.075400  0.617600  0.662400  1.0  0.0721
  H  H111  1  0.175100  0.831200  0.833900  1.0  0.1219
  H  H112  1  0.133200  0.817600  0.734800  1.0  0.0763
  H  H113  1  0.203000  0.134600  0.952500  1.0  0.1207
  H  H114  1  0.680700  0.585900  0.456600  1.0  0.1211
  H  H115  1  0.945900  0.788600  0.612600  1.0  0.107
  H  H116  1  0.477600  0.884000  0.965700  1.0  0.1265
  H  H117  1  0.576200  0.816400  0.017600  1.0  0.0746
  H  H118  1  0.299800  0.157600  0.150100  1.0  0.0904
  H  H119  1  0.365400  0.937900  0.841300  1.0  0.1168
  H  H120  1  0.957900  0.828800  0.463000  1.0  0.1257
  H  H121  1  0.785600  0.558400  0.652900  1.0  0.0697
  H  H122  1  0.838400  0.630900  0.608200  1.0  0.114
  H  H123  1  0.152800  0.205500  0.000800  1.0  0.0699
  H  H124  1  0.356400  0.087700  0.105900  1.0  0.1082
  H  H125  1  0.632800  0.519100  0.507000  1.0  0.0609
  H  H126  1  0.054600  0.895900  0.512300  1.0  0.0704
  H  H127  1  0.045100  0.858600  0.658500  1.0  0.0784
  H  H128  1  0.150100  0.023000  0.738700  1.0  0.0764
  H  H129  1  0.481700  0.959100  0.116400  1.0  0.1227
  H  H130  1  0.312500  0.922800  0.743000  1.0  0.0832
  H  H131  1  0.772900  0.829000  0.247700  1.0  0.0552
  H  H132  1  0.824900  0.814800  0.345000  1.0  0.1247
  H  H133  1  0.198100  0.039800  0.836600  1.0  0.1223
  H  H134  1  0.575400  0.882400  0.162400  1.0  0.072
  H  H135  1  0.675100  0.668800  0.333900  1.0  0.1219
  H  H136  1  0.633200  0.682400  0.234800  1.0  0.0756
  H  H137  1  0.703000  0.634600  0.952500  1.0  0.1207
  H  H138  1  0.180700  0.085900  0.456600  1.0  0.1211
  H  H139  1  0.445900  0.288600  0.612600  1.0  0.107
  H  H140  1  0.977600  0.384000  0.965700  1.0  0.1265
  H  H141  1  0.076200  0.316400  0.017600  1.0  0.0747
  H  H142  1  0.799800  0.657600  0.150100  1.0  0.0904
  H  H143  1  0.865400  0.437900  0.841300  1.0  0.1168
  H  H144  1  0.457900  0.328800  0.463000  1.0  0.1257
  H  H145  1  0.285600  0.058400  0.652900  1.0  0.0697
  H  H146  1  0.338400  0.130900  0.608200  1.0  0.114
  H  H147  1  0.652800  0.705500  0.000800  1.0  0.0699
  H  H148  1  0.856400  0.587700  0.105900  1.0  0.1082
  H  H149  1  0.132800  0.019100  0.507000  1.0  0.0609
  H  H150  1  0.554600  0.395900  0.512300  1.0  0.0704
  H  H151  1  0.545100  0.358600  0.658500  1.0  0.0784
  H  H152  1  0.650100  0.523000  0.738700  1.0  0.0764
  H  H153  1  0.981700  0.459100  0.116400  1.0  0.1227
  H  H154  1  0.812500  0.422800  0.743000  1.0  0.0832
  H  H155  1  0.272900  0.329000  0.247700  1.0  0.0552
  H  H156  1  0.324900  0.314800  0.345000  1.0  0.1247
  H  H157  1  0.698100  0.539800  0.836600  1.0  0.1223
  H  H158  1  0.075400  0.382400  0.162400  1.0  0.072
  H  H159  1  0.175100  0.168800  0.333900  1.0  0.1219
  H  H160  1  0.133200  0.182400  0.234800  1.0  0.0756
  H  H161  1  0.797000  0.134600  0.547500  1.0  0.1207
  H  H162  1  0.319300  0.585900  0.043400  1.0  0.1206
  H  H163  1  0.054100  0.788600  0.887400  1.0  0.1077
  H  H164  1  0.522400  0.884000  0.534300  1.0  0.1256
  H  H165  1  0.423800  0.816400  0.482400  1.0  0.0738
  H  H166  1  0.700200  0.157600  0.349900  1.0  0.0906
  H  H167  1  0.634600  0.937900  0.658700  1.0  0.1173
  H  H168  1  0.042100  0.828800  0.037000  1.0  0.1254
  H  H169  1  0.214400  0.558400  0.847100  1.0  0.0707
  H  H170  1  0.161600  0.630900  0.891800  1.0  0.1138
  H  H171  1  0.847200  0.205500  0.499200  1.0  0.0708
  H  H172  1  0.643600  0.087700  0.394100  1.0  0.1078
  H  H173  1  0.367200  0.519100  0.993000  1.0  0.0612
  H  H174  1  0.945400  0.895900  0.987700  1.0  0.0708
  H  H175  1  0.954900  0.858600  0.841500  1.0  0.0781
  H  H176  1  0.849900  0.023000  0.761300  1.0  0.0747
  H  H177  1  0.518300  0.959100  0.383600  1.0  0.1237
  H  H178  1  0.687500  0.922800  0.757000  1.0  0.0826
  H  H179  1  0.227100  0.829000  0.252300  1.0  0.0556
  H  H180  1  0.175100  0.814800  0.155000  1.0  0.1249
  H  H181  1  0.801900  0.039800  0.663400  1.0  0.1218
  H  H182  1  0.424600  0.882400  0.337600  1.0  0.0719
  H  H183  1  0.324900  0.668800  0.166100  1.0  0.1217
  H  H184  1  0.366800  0.682400  0.265200  1.0  0.0752
  H  H185  1  0.297000  0.634600  0.547500  1.0  0.1207
  H  H186  1  0.819300  0.085900  0.043400  1.0  0.1206
  H  H187  1  0.554100  0.288600  0.887400  1.0  0.1077
  H  H188  1  0.022400  0.384000  0.534300  1.0  0.1256
  H  H189  1  0.923800  0.316400  0.482400  1.0  0.0739
  H  H190  1  0.200200  0.657600  0.349900  1.0  0.0906
  H  H191  1  0.134600  0.437900  0.658700  1.0  0.1173
  H  H192  1  0.542100  0.328800  0.037000  1.0  0.1254
  H  H193  1  0.714400  0.058400  0.847100  1.0  0.0707
  H  H194  1  0.661600  0.130900  0.891800  1.0  0.1138
  H  H195  1  0.347200  0.705500  0.499200  1.0  0.0708
  H  H196  1  0.143600  0.587700  0.394100  1.0  0.1078
  H  H197  1  0.867200  0.019100  0.993000  1.0  0.0612
  H  H198  1  0.445400  0.395900  0.987700  1.0  0.0708
  H  H199  1  0.454900  0.358600  0.841500  1.0  0.0781
  H  H200  1  0.349900  0.523000  0.761300  1.0  0.0747
  H  H201  1  0.018300  0.459100  0.383600  1.0  0.1237
  H  H202  1  0.187500  0.422800  0.757000  1.0  0.0828
  H  H203  1  0.727100  0.329000  0.252300  1.0  0.0556
  H  H204  1  0.675100  0.314800  0.155000  1.0  0.1249
  H  H205  1  0.301900  0.539800  0.663400  1.0  0.1218
  H  H206  1  0.924600  0.382400  0.337600  1.0  0.0719
  H  H207  1  0.824900  0.168800  0.166100  1.0  0.1217
  H  H208  1  0.866800  0.182400  0.265200  1.0  0.0752
  C  C209  1  0.597500  0.028200  0.998600  1.0  0.3425
  C  C210  1  0.776300  0.861700  0.007300  1.0  -0.1581
  C  C211  1  0.059600  0.199700  0.467400  1.0  0.0079
  C  C212  1  0.297500  0.417200  0.503300  1.0  -0.1857
  C  C213  1  0.123000  0.244500  0.499800  1.0  0.357
  C  C214  1  0.032600  0.190200  0.408800  1.0  -0.1291
  C  C215  1  0.503000  0.114700  0.994000  1.0  -0.1592
  C  C216  1  0.443400  0.155100  0.962200  1.0  0.1725
  C  C217  1  0.242800  0.263200  0.649000  1.0  -0.0272
  C  C218  1  0.681400  0.947600  0.004600  1.0  0.3531
  C  C219  1  0.719700  0.847100  0.890000  1.0  0.1536
  C  C220  1  0.532800  0.072600  0.964700  1.0  -0.054
  C  C221  1  0.235000  0.379100  0.472300  1.0  -0.0212
  C  C222  1  0.678600  0.044200  0.179000  1.0  -0.1319
  C  C223  1  0.209400  0.274300  0.585300  1.0  0.36
  C  C224  1  0.712000  0.008000  0.149900  1.0  -0.0899
  C  C225  1  0.714200  0.899000  0.975500  1.0  0.0428
  C  C226  1  0.025300  0.166300  0.497000  1.0  -0.1939
  C  C227  1  0.235600  0.435300  0.387000  1.0  0.1643
  C  C228  1  0.203900  0.391000  0.413500  1.0  -0.1697
  C  C229  1  0.204500  0.328300  0.502500  1.0  0.3957
  C  C230  1  0.679900  0.997900  0.085700  1.0  0.3582
  C  C231  1  0.806200  0.819400  0.977800  1.0  0.1733
  C  C232  1  0.685500  0.890000  0.916400  1.0  -0.1181
  C  C233  1  0.324700  0.458600  0.472700  1.0  0.1735
  C  C234  1  0.967300  0.126900  0.467100  1.0  0.1731
  C  C235  1  0.972600  0.148500  0.381400  1.0  0.1613
  C  C236  1  0.806100  0.994900  0.240300  1.0  0.1654
  C  C237  1  0.501100  0.071100  0.904900  1.0  -0.1689
  C  C238  1  0.710800  0.053500  0.237800  1.0  0.1619
  C  C239  1  0.245700  0.206200  0.734800  1.0  0.191
  C  C240  1  0.214500  0.213200  0.676400  1.0  -0.1977
  C  C241  1  0.777500  0.983700  0.181600  1.0  -0.1821
  C  C242  1  0.443600  0.115400  0.877800  1.0  0.1743
  C  C243  1  0.302200  0.300400  0.682600  1.0  -0.1806
  C  C244  1  0.327500  0.290300  0.742300  1.0  0.1911
  C  C245  1  0.097500  0.528200  0.998600  1.0  0.3425
  C  C246  1  0.276300  0.361700  0.007300  1.0  -0.1581
  C  C247  1  0.559600  0.699700  0.467400  1.0  0.0079
  C  C248  1  0.797500  0.917200  0.503300  1.0  -0.1857
  C  C249  1  0.623000  0.744500  0.499800  1.0  0.357
  C  C250  1  0.532600  0.690200  0.408800  1.0  -0.1291
  C  C251  1  0.003000  0.614700  0.994000  1.0  -0.1592
  C  C252  1  0.943400  0.655100  0.962200  1.0  0.1725
  C  C253  1  0.742800  0.763200  0.649000  1.0  -0.0272
  C  C254  1  0.181400  0.447600  0.004600  1.0  0.3531
  C  C255  1  0.219700  0.347100  0.890000  1.0  0.1536
  C  C256  1  0.032800  0.572600  0.964700  1.0  -0.054
  C  C257  1  0.735000  0.879100  0.472300  1.0  -0.0212
  C  C258  1  0.178600  0.544200  0.179000  1.0  -0.1319
  C  C259  1  0.709400  0.774300  0.585300  1.0  0.36
  C  C260  1  0.212000  0.508000  0.149900  1.0  -0.0899
  C  C261  1  0.214200  0.399000  0.975500  1.0  0.0428
  C  C262  1  0.525300  0.666300  0.497000  1.0  -0.1939
  C  C263  1  0.735600  0.935300  0.387000  1.0  0.1643
  C  C264  1  0.703900  0.891000  0.413500  1.0  -0.1697
  C  C265  1  0.704500  0.828300  0.502500  1.0  0.3957
  C  C266  1  0.179900  0.497900  0.085700  1.0  0.3582
  C  C267  1  0.306200  0.319400  0.977800  1.0  0.1733
  C  C268  1  0.185500  0.390000  0.916400  1.0  -0.1181
  C  C269  1  0.824700  0.958600  0.472700  1.0  0.1735
  C  C270  1  0.467300  0.626900  0.467100  1.0  0.1731
  C  C271  1  0.472600  0.648500  0.381400  1.0  0.1613
  C  C272  1  0.306100  0.494900  0.240300  1.0  0.1654
  C  C273  1  0.001100  0.571100  0.904900  1.0  -0.1689
  C  C274  1  0.210800  0.553500  0.237800  1.0  0.1619
  C  C275  1  0.745700  0.706200  0.734800  1.0  0.191
  C  C276  1  0.714500  0.713200  0.676400  1.0  -0.1977
  C  C277  1  0.277500  0.483700  0.181600  1.0  -0.1821
  C  C278  1  0.943600  0.615400  0.877800  1.0  0.1743
  C  C279  1  0.802200  0.800400  0.682600  1.0  -0.1806
  C  C280  1  0.827500  0.790300  0.742300  1.0  0.1911
  C  C281  1  0.402500  0.028200  0.501400  1.0  0.3431
  C  C282  1  0.223700  0.861700  0.492700  1.0  -0.158
  C  C283  1  0.940400  0.199700  0.032600  1.0  0.0062
  C  C284  1  0.702500  0.417200  0.996700  1.0  -0.1869
  C  C285  1  0.877000  0.244500  0.000200  1.0  0.3564
  C  C286  1  0.967400  0.190200  0.091200  1.0  -0.1295
  C  C287  1  0.497000  0.114700  0.506000  1.0  -0.1596
  C  C288  1  0.556600  0.155100  0.537800  1.0  0.1726
  C  C289  1  0.757200  0.263200  0.851000  1.0  -0.0261
  C  C290  1  0.318600  0.947600  0.495400  1.0  0.3534
  C  C291  1  0.280300  0.847100  0.610000  1.0  0.1521
  C  C292  1  0.467200  0.072600  0.535300  1.0  -0.0553
  C  C293  1  0.765000  0.379100  0.027700  1.0  -0.0207
  C  C294  1  0.321400  0.044200  0.321000  1.0  -0.1345
  C  C295  1  0.790600  0.274300  0.914700  1.0  0.359
  C  C296  1  0.288000  0.008000  0.350100  1.0  -0.0894
  C  C297  1  0.285800  0.899000  0.524500  1.0  0.043
  C  C298  1  0.974700  0.166300  0.003000  1.0  -0.1937
  C  C299  1  0.764400  0.435300  0.113000  1.0  0.1628
  C  C300  1  0.796100  0.391000  0.086500  1.0  -0.1707
  C  C301  1  0.795500  0.328300  0.997500  1.0  0.3957
  C  C302  1  0.320100  0.997900  0.414300  1.0  0.3577
  C  C303  1  0.193800  0.819400  0.522200  1.0  0.1735
  C  C304  1  0.314500  0.890000  0.583600  1.0  -0.1174
  C  C305  1  0.675300  0.458600  0.027300  1.0  0.173
  C  C306  1  0.032700  0.126900  0.032900  1.0  0.1726
  C  C307  1  0.027400  0.148500  0.118600  1.0  0.1602
  C  C308  1  0.193900  0.994900  0.259700  1.0  0.1653
  C  C309  1  0.498900  0.071100  0.595100  1.0  -0.1711
  C  C310  1  0.289200  0.053500  0.262200  1.0  0.1618
  C  C311  1  0.754300  0.206200  0.765200  1.0  0.1908
  C  C312  1  0.785500  0.213200  0.823600  1.0  -0.1978
  C  C313  1  0.222500  0.983700  0.318400  1.0  -0.181
  C  C314  1  0.556400  0.115400  0.622200  1.0  0.1732
  C  C315  1  0.697800  0.300400  0.817400  1.0  -0.1781
  C  C316  1  0.672500  0.290300  0.757700  1.0  0.1901
  C  C317  1  0.902500  0.528200  0.501400  1.0  0.3431
  C  C318  1  0.723700  0.361700  0.492700  1.0  -0.158
  C  C319  1  0.440400  0.699700  0.032600  1.0  0.0062
  C  C320  1  0.202500  0.917200  0.996700  1.0  -0.1869
  C  C321  1  0.377000  0.744500  0.000200  1.0  0.3564
  C  C322  1  0.467400  0.690200  0.091200  1.0  -0.1295
  C  C323  1  0.997000  0.614700  0.506000  1.0  -0.1596
  C  C324  1  0.056600  0.655100  0.537800  1.0  0.1726
  C  C325  1  0.257200  0.763200  0.851000  1.0  -0.0261
  C  C326  1  0.818600  0.447600  0.495400  1.0  0.3534
  C  C327  1  0.780300  0.347100  0.610000  1.0  0.1521
  C  C328  1  0.967200  0.572600  0.535300  1.0  -0.0553
  C  C329  1  0.265000  0.879100  0.027700  1.0  -0.0207
  C  C330  1  0.821400  0.544200  0.321000  1.0  -0.1345
  C  C331  1  0.290600  0.774300  0.914700  1.0  0.359
  C  C332  1  0.788000  0.508000  0.350100  1.0  -0.0894
  C  C333  1  0.785800  0.399000  0.524500  1.0  0.043
  C  C334  1  0.474700  0.666300  0.003000  1.0  -0.1937
  C  C335  1  0.264400  0.935300  0.113000  1.0  0.1628
  C  C336  1  0.296100  0.891000  0.086500  1.0  -0.1707
  C  C337  1  0.295500  0.828300  0.997500  1.0  0.3957
  C  C338  1  0.820100  0.497900  0.414300  1.0  0.3577
  C  C339  1  0.693800  0.319400  0.522200  1.0  0.1735
  C  C340  1  0.814500  0.390000  0.583600  1.0  -0.1174
  C  C341  1  0.175300  0.958600  0.027300  1.0  0.173
  C  C342  1  0.532700  0.626900  0.032900  1.0  0.1726
  C  C343  1  0.527400  0.648500  0.118600  1.0  0.1602
  C  C344  1  0.693900  0.494900  0.259700  1.0  0.1653
  C  C345  1  0.998900  0.571100  0.595100  1.0  -0.1711
  C  C346  1  0.789200  0.553500  0.262200  1.0  0.1618
  C  C347  1  0.254300  0.706200  0.765200  1.0  0.1908
  C  C348  1  0.285500  0.713200  0.823600  1.0  -0.1978
  C  C349  1  0.722500  0.483700  0.318400  1.0  -0.181
  C  C350  1  0.056400  0.615400  0.622200  1.0  0.1732
  C  C351  1  0.197800  0.800400  0.817400  1.0  -0.1781
  C  C352  1  0.172500  0.790300  0.757700  1.0  0.1901
  C  C353  1  0.402500  0.971800  0.001400  1.0  0.3432
  C  C354  1  0.223700  0.138300  0.992700  1.0  -0.1588
  C  C355  1  0.940400  0.800300  0.532600  1.0  0.0062
  C  C356  1  0.702500  0.582800  0.496700  1.0  -0.187
  C  C357  1  0.877000  0.755500  0.500200  1.0  0.3558
  C  C358  1  0.967400  0.809800  0.591200  1.0  -0.1296
  C  C359  1  0.497000  0.885300  0.006000  1.0  -0.1594
  C  C360  1  0.556600  0.844900  0.037800  1.0  0.1728
  C  C361  1  0.757200  0.736800  0.351000  1.0  -0.0266
  C  C362  1  0.318600  0.052400  0.995400  1.0  0.353
  C  C363  1  0.280300  0.152900  0.110000  1.0  0.1515
  C  C364  1  0.467200  0.927400  0.035300  1.0  -0.0551
  C  C365  1  0.765000  0.620900  0.527700  1.0  -0.0199
  C  C366  1  0.321400  0.955800  0.821000  1.0  -0.1347
  C  C367  1  0.790600  0.725700  0.414700  1.0  0.359
  C  C368  1  0.288000  0.992000  0.850100  1.0  -0.09
  C  C369  1  0.285800  0.101000  0.024500  1.0  0.0433
  C  C370  1  0.974700  0.833700  0.503000  1.0  -0.1944
  C  C371  1  0.764400  0.564700  0.613000  1.0  0.1631
  C  C372  1  0.796100  0.609000  0.586500  1.0  -0.1699
  C  C373  1  0.795500  0.671700  0.497500  1.0  0.3958
  C  C374  1  0.320100  0.002100  0.914300  1.0  0.3576
  C  C375  1  0.193800  0.180600  0.022200  1.0  0.1735
  C  C376  1  0.314500  0.110000  0.083600  1.0  -0.117
  C  C377  1  0.675300  0.541400  0.527300  1.0  0.1738
  C  C378  1  0.032700  0.873100  0.532900  1.0  0.1732
  C  C379  1  0.027400  0.851500  0.618600  1.0  0.1607
  C  C380  1  0.193900  0.005100  0.759700  1.0  0.1652
  C  C381  1  0.498900  0.928900  0.095100  1.0  -0.1702
  C  C382  1  0.289200  0.946500  0.762200  1.0  0.1616
  C  C383  1  0.754300  0.793800  0.265200  1.0  0.1904
  C  C384  1  0.785500  0.786800  0.323600  1.0  -0.1977
  C  C385  1  0.222500  0.016300  0.818400  1.0  -0.1822
  C  C386  1  0.556400  0.884600  0.122200  1.0  0.173
  C  C387  1  0.697800  0.699600  0.317400  1.0  -0.1786
  C  C388  1  0.672500  0.709700  0.257700  1.0  0.1893
  C  C389  1  0.902500  0.471800  0.001400  1.0  0.3432
  C  C390  1  0.723700  0.638300  0.992700  1.0  -0.1588
  C  C391  1  0.440400  0.300300  0.532600  1.0  0.0062
  C  C392  1  0.202500  0.082800  0.496700  1.0  -0.187
  C  C393  1  0.377000  0.255500  0.500200  1.0  0.3558
  C  C394  1  0.467400  0.309800  0.591200  1.0  -0.1296
  C  C395  1  0.997000  0.385300  0.006000  1.0  -0.1594
  C  C396  1  0.056600  0.344900  0.037800  1.0  0.1728
  C  C397  1  0.257200  0.236800  0.351000  1.0  -0.0266
  C  C398  1  0.818600  0.552400  0.995400  1.0  0.353
  C  C399  1  0.780300  0.652900  0.110000  1.0  0.1515
  C  C400  1  0.967200  0.427400  0.035300  1.0  -0.0551
  C  C401  1  0.265000  0.120900  0.527700  1.0  -0.0199
  C  C402  1  0.821400  0.455800  0.821000  1.0  -0.1347
  C  C403  1  0.290600  0.225700  0.414700  1.0  0.359
  C  C404  1  0.788000  0.492000  0.850100  1.0  -0.09
  C  C405  1  0.785800  0.601000  0.024500  1.0  0.0433
  C  C406  1  0.474700  0.333700  0.503000  1.0  -0.1944
  C  C407  1  0.264400  0.064700  0.613000  1.0  0.1631
  C  C408  1  0.296100  0.109000  0.586500  1.0  -0.1699
  C  C409  1  0.295500  0.171700  0.497500  1.0  0.3958
  C  C410  1  0.820100  0.502100  0.914300  1.0  0.3576
  C  C411  1  0.693800  0.680600  0.022200  1.0  0.1735
  C  C412  1  0.814500  0.610000  0.083600  1.0  -0.117
  C  C413  1  0.175300  0.041400  0.527300  1.0  0.1738
  C  C414  1  0.532700  0.373100  0.532900  1.0  0.1732
  C  C415  1  0.527400  0.351500  0.618600  1.0  0.1607
  C  C416  1  0.693900  0.505100  0.759700  1.0  0.1652
  C  C417  1  0.998900  0.428900  0.095100  1.0  -0.1702
  C  C418  1  0.789200  0.446500  0.762200  1.0  0.1616
  C  C419  1  0.254300  0.293800  0.265200  1.0  0.1904
  C  C420  1  0.285500  0.286800  0.323600  1.0  -0.1977
  C  C421  1  0.722500  0.516300  0.818400  1.0  -0.1822
  C  C422  1  0.056400  0.384600  0.122200  1.0  0.173
  C  C423  1  0.197800  0.199600  0.317400  1.0  -0.1786
  C  C424  1  0.172500  0.209700  0.257700  1.0  0.1893
  C  C425  1  0.597500  0.971800  0.498600  1.0  0.3426
  C  C426  1  0.776300  0.138300  0.507300  1.0  -0.1585
  C  C427  1  0.059600  0.800300  0.967400  1.0  0.0072
  C  C428  1  0.297500  0.582800  0.003300  1.0  -0.1859
  C  C429  1  0.123000  0.755500  0.999800  1.0  0.3564
  C  C430  1  0.032600  0.809800  0.908800  1.0  -0.1289
  C  C431  1  0.503000  0.885300  0.494000  1.0  -0.1588
  C  C432  1  0.443400  0.844900  0.462200  1.0  0.1728
  C  C433  1  0.242800  0.736800  0.149000  1.0  -0.0277
  C  C434  1  0.681400  0.052400  0.504600  1.0  0.3527
  C  C435  1  0.719700  0.152900  0.390000  1.0  0.1535
  C  C436  1  0.532800  0.927400  0.464700  1.0  -0.0533
  C  C437  1  0.235000  0.620900  0.972300  1.0  -0.0208
  C  C438  1  0.678600  0.955800  0.679000  1.0  -0.1321
  C  C439  1  0.209400  0.725700  0.085300  1.0  0.3599
  C  C440  1  0.712000  0.992000  0.649900  1.0  -0.0899
  C  C441  1  0.714200  0.101000  0.475500  1.0  0.0427
  C  C442  1  0.025300  0.833700  0.997000  1.0  -0.1944
  C  C443  1  0.235600  0.564700  0.887000  1.0  0.1649
  C  C444  1  0.203900  0.609000  0.913500  1.0  -0.17
  C  C445  1  0.204500  0.671700  0.002500  1.0  0.3956
  C  C446  1  0.679900  0.002100  0.585700  1.0  0.3581
  C  C447  1  0.806200  0.180600  0.477800  1.0  0.1734
  C  C448  1  0.685500  0.110000  0.416400  1.0  -0.1175
  C  C449  1  0.324700  0.541400  0.972700  1.0  0.174
  C  C450  1  0.967300  0.873100  0.967100  1.0  0.172
  C  C451  1  0.972600  0.851500  0.881400  1.0  0.1621
  C  C452  1  0.806100  0.005100  0.740300  1.0  0.1653
  C  C453  1  0.501100  0.928900  0.404900  1.0  -0.1683
  C  C454  1  0.710800  0.946500  0.737800  1.0  0.1614
  C  C455  1  0.245700  0.793800  0.234800  1.0  0.1912
  C  C456  1  0.214500  0.786800  0.176400  1.0  -0.1983
  C  C457  1  0.777500  0.016300  0.681600  1.0  -0.1823
  C  C458  1  0.443600  0.884600  0.377800  1.0  0.1738
  C  C459  1  0.302200  0.699600  0.182600  1.0  -0.1813
  C  C460  1  0.327500  0.709700  0.242300  1.0  0.1902
  C  C461  1  0.097500  0.471800  0.498600  1.0  0.3426
  C  C462  1  0.276300  0.638300  0.507300  1.0  -0.1585
  C  C463  1  0.559600  0.300300  0.967400  1.0  0.0072
  C  C464  1  0.797500  0.082800  0.003300  1.0  -0.1859
  C  C465  1  0.623000  0.255500  0.999800  1.0  0.3564
  C  C466  1  0.532600  0.309800  0.908800  1.0  -0.1289
  C  C467  1  0.003000  0.385300  0.494000  1.0  -0.1588
  C  C468  1  0.943400  0.344900  0.462200  1.0  0.1728
  C  C469  1  0.742800  0.236800  0.149000  1.0  -0.0277
  C  C470  1  0.181400  0.552400  0.504600  1.0  0.3527
  C  C471  1  0.219700  0.652900  0.390000  1.0  0.1535
  C  C472  1  0.032800  0.427400  0.464700  1.0  -0.0533
  C  C473  1  0.735000  0.120900  0.972300  1.0  -0.0208
  C  C474  1  0.178600  0.455800  0.679000  1.0  -0.1321
  C  C475  1  0.709400  0.225700  0.085300  1.0  0.3599
  C  C476  1  0.212000  0.492000  0.649900  1.0  -0.0899
  C  C477  1  0.214200  0.601000  0.475500  1.0  0.0427
  C  C478  1  0.525300  0.333700  0.997000  1.0  -0.1944
  C  C479  1  0.735600  0.064700  0.887000  1.0  0.1649
  C  C480  1  0.703900  0.109000  0.913500  1.0  -0.17
  C  C481  1  0.704500  0.171700  0.002500  1.0  0.3956
  C  C482  1  0.179900  0.502100  0.585700  1.0  0.3581
  C  C483  1  0.306200  0.680600  0.477800  1.0  0.1734
  C  C484  1  0.185500  0.610000  0.416400  1.0  -0.1175
  C  C485  1  0.824700  0.041400  0.972700  1.0  0.174
  C  C486  1  0.467300  0.373100  0.967100  1.0  0.172
  C  C487  1  0.472600  0.351500  0.881400  1.0  0.1621
  C  C488  1  0.306100  0.505100  0.740300  1.0  0.1653
  C  C489  1  0.001100  0.428900  0.404900  1.0  -0.1683
  C  C490  1  0.210800  0.446500  0.737800  1.0  0.1614
  C  C491  1  0.745700  0.293800  0.234800  1.0  0.1912
  C  C492  1  0.714500  0.286800  0.176400  1.0  -0.1983
  C  C493  1  0.277500  0.516300  0.681600  1.0  -0.1823
  C  C494  1  0.943600  0.384600  0.377800  1.0  0.1738
  C  C495  1  0.802200  0.199600  0.182600  1.0  -0.1813
  C  C496  1  0.827500  0.209700  0.242300  1.0  0.1902
  N  N497  1  0.939500  0.118500  0.410200  1.0  -0.3054
  N  N498  1  0.295200  0.469500  0.416000  1.0  -0.3688
  N  N499  1  0.300100  0.245300  0.768700  1.0  -0.3414
  N  N500  1  0.152000  0.234500  0.556900  1.0  -0.5162
  N  N501  1  0.147500  0.290400  0.470400  1.0  -0.4795
  N  N502  1  0.237300  0.322900  0.560500  1.0  -0.5129
  N  N503  1  0.412800  0.155700  0.905100  1.0  -0.3627
  N  N504  1  0.779500  0.812500  0.920500  1.0  -0.3248
  N  N505  1  0.775300  0.029700  0.269300  1.0  -0.3662
  N  N506  1  0.622500  0.037200  0.056300  1.0  -0.5077
  N  N507  1  0.624800  0.986900  0.970700  1.0  -0.4436
  N  N508  1  0.710300  0.950800  0.062400  1.0  -0.481
  N  N509  1  0.439500  0.618500  0.410200  1.0  -0.3054
  N  N510  1  0.795200  0.969500  0.416000  1.0  -0.3688
  N  N511  1  0.800100  0.745300  0.768700  1.0  -0.3414
  N  N512  1  0.652000  0.734500  0.556900  1.0  -0.5162
  N  N513  1  0.647500  0.790400  0.470400  1.0  -0.4795
  N  N514  1  0.737300  0.822900  0.560500  1.0  -0.5129
  N  N515  1  0.912800  0.655700  0.905100  1.0  -0.3627
  N  N516  1  0.279500  0.312500  0.920500  1.0  -0.3248
  N  N517  1  0.275300  0.529700  0.269300  1.0  -0.3662
  N  N518  1  0.122500  0.537200  0.056300  1.0  -0.5077
  N  N519  1  0.124800  0.486900  0.970700  1.0  -0.4436
  N  N520  1  0.210300  0.450800  0.062400  1.0  -0.481
  N  N521  1  0.060500  0.118500  0.089800  1.0  -0.3025
  N  N522  1  0.704800  0.469500  0.084000  1.0  -0.369
  N  N523  1  0.699900  0.245300  0.731300  1.0  -0.3427
  N  N524  1  0.848000  0.234500  0.943100  1.0  -0.5145
  N  N525  1  0.852500  0.290400  0.029600  1.0  -0.483
  N  N526  1  0.762700  0.322900  0.939500  1.0  -0.5144
  N  N527  1  0.587200  0.155700  0.594900  1.0  -0.3639
  N  N528  1  0.220500  0.812500  0.579500  1.0  -0.3254
  N  N529  1  0.224700  0.029700  0.230700  1.0  -0.367
  N  N530  1  0.377500  0.037200  0.443700  1.0  -0.5063
  N  N531  1  0.375200  0.986900  0.529300  1.0  -0.4425
  N  N532  1  0.289700  0.950800  0.437600  1.0  -0.4828
  N  N533  1  0.560500  0.618500  0.089800  1.0  -0.3025
  N  N534  1  0.204800  0.969500  0.084000  1.0  -0.369
  N  N535  1  0.199900  0.745300  0.731300  1.0  -0.3427
  N  N536  1  0.348000  0.734500  0.943100  1.0  -0.5145
  N  N537  1  0.352500  0.790400  0.029600  1.0  -0.483
  N  N538  1  0.262700  0.822900  0.939500  1.0  -0.5144
  N  N539  1  0.087200  0.655700  0.594900  1.0  -0.3639
  N  N540  1  0.720500  0.312500  0.579500  1.0  -0.3254
  N  N541  1  0.724700  0.529700  0.230700  1.0  -0.367
  N  N542  1  0.877500  0.537200  0.443700  1.0  -0.5063
  N  N543  1  0.875200  0.486900  0.529300  1.0  -0.4425
  N  N544  1  0.789700  0.450800  0.437600  1.0  -0.4828
  N  N545  1  0.060500  0.881500  0.589800  1.0  -0.3045
  N  N546  1  0.704800  0.530500  0.584000  1.0  -0.3682
  N  N547  1  0.699900  0.754700  0.231300  1.0  -0.3419
  N  N548  1  0.848000  0.765500  0.443100  1.0  -0.5133
  N  N549  1  0.852500  0.709600  0.529600  1.0  -0.4831
  N  N550  1  0.762700  0.677100  0.439500  1.0  -0.516
  N  N551  1  0.587200  0.844300  0.094900  1.0  -0.362
  N  N552  1  0.220500  0.187500  0.079500  1.0  -0.3237
  N  N553  1  0.224700  0.970300  0.730700  1.0  -0.3675
  N  N554  1  0.377500  0.962800  0.943700  1.0  -0.5065
  N  N555  1  0.375200  0.013100  0.029300  1.0  -0.443
  N  N556  1  0.289700  0.049200  0.937600  1.0  -0.481
  N  N557  1  0.560500  0.381500  0.589800  1.0  -0.3045
  N  N558  1  0.204800  0.030500  0.584000  1.0  -0.3682
  N  N559  1  0.199900  0.254700  0.231300  1.0  -0.3419
  N  N560  1  0.348000  0.265500  0.443100  1.0  -0.5133
  N  N561  1  0.352500  0.209600  0.529600  1.0  -0.4831
  N  N562  1  0.262700  0.177100  0.439500  1.0  -0.516
  N  N563  1  0.087200  0.344300  0.094900  1.0  -0.362
  N  N564  1  0.720500  0.687500  0.079500  1.0  -0.3237
  N  N565  1  0.724700  0.470300  0.730700  1.0  -0.3675
  N  N566  1  0.877500  0.462800  0.943700  1.0  -0.5065
  N  N567  1  0.875200  0.513100  0.029300  1.0  -0.443
  N  N568  1  0.789700  0.549200  0.937600  1.0  -0.481
  N  N569  1  0.939500  0.881500  0.910200  1.0  -0.3032
  N  N570  1  0.295200  0.530500  0.916000  1.0  -0.3692
  N  N571  1  0.300100  0.754700  0.268700  1.0  -0.3419
  N  N572  1  0.152000  0.765500  0.056900  1.0  -0.5161
  N  N573  1  0.147500  0.709600  0.970400  1.0  -0.4798
  N  N574  1  0.237300  0.677100  0.060500  1.0  -0.5131
  N  N575  1  0.412800  0.844300  0.405100  1.0  -0.3638
  N  N576  1  0.779500  0.187500  0.420500  1.0  -0.3215
  N  N577  1  0.775300  0.970300  0.769300  1.0  -0.3658
  N  N578  1  0.622500  0.962800  0.556300  1.0  -0.5074
  N  N579  1  0.624800  0.013100  0.470700  1.0  -0.4434
  N  N580  1  0.710300  0.049200  0.562400  1.0  -0.4813
  N  N581  1  0.439500  0.381500  0.910200  1.0  -0.3032
  N  N582  1  0.795200  0.030500  0.916000  1.0  -0.3692
  N  N583  1  0.800100  0.254700  0.268700  1.0  -0.3419
  N  N584  1  0.652000  0.265500  0.056900  1.0  -0.5161
  N  N585  1  0.647500  0.209600  0.970400  1.0  -0.4798
  N  N586  1  0.737300  0.177100  0.060500  1.0  -0.5131
  N  N587  1  0.912800  0.344300  0.405100  1.0  -0.3638
  N  N588  1  0.279500  0.687500  0.420500  1.0  -0.3215
  N  N589  1  0.275300  0.470300  0.769300  1.0  -0.3658
  N  N590  1  0.122500  0.462800  0.556300  1.0  -0.5074
  N  N591  1  0.124800  0.513100  0.470700  1.0  -0.4434
  N  N592  1  0.210300  0.549200  0.562400  1.0  -0.4813
