# generated using pymatgen
data_AgH12(C3N)6
_symmetry_space_group_name_H-M   'P 1'
_cell_length_a   21.95040000
_cell_length_b   16.70950000
_cell_length_c   25.61280000
_cell_angle_alpha   90.00000000
_cell_angle_beta   115.36600000
_cell_angle_gamma   90.00000000
_symmetry_Int_Tables_number   1
_chemical_formula_structural   AgH12(C3N)6
_chemical_formula_sum   'Ag16 H192 C288 N96'
_cell_volume   8488.56363214
_cell_formula_units_Z   16
loop_
 _symmetry_equiv_pos_site_id
 _symmetry_equiv_pos_as_xyz
  1  'x, y, z'
loop_
 _atom_site_type_symbol
 _atom_site_label
 _atom_site_symmetry_multiplicity
 _atom_site_fract_x
 _atom_site_fract_y
 _atom_site_fract_z
 _atom_site_occupancy
 _atom_site_charge
  Ag  Ag1  1  0.273630  0.208790  0.867940  1.0  0.3313
  Ag  Ag2  1  0.795570  0.503130  0.367440  1.0  0.2891
  Ag  Ag3  1  0.773630  0.708790  0.867940  1.0  0.3313
  Ag  Ag4  1  0.295570  0.003130  0.367440  1.0  0.2891
  Ag  Ag5  1  0.726370  0.208790  0.632060  1.0  0.3309
  Ag  Ag6  1  0.204430  0.503130  0.132560  1.0  0.2895
  Ag  Ag7  1  0.226370  0.708790  0.632060  1.0  0.3309
  Ag  Ag8  1  0.704430  0.003130  0.132560  1.0  0.2895
  Ag  Ag9  1  0.726370  0.791210  0.132060  1.0  0.3308
  Ag  Ag10  1  0.204430  0.496870  0.632560  1.0  0.2894
  Ag  Ag11  1  0.226370  0.291210  0.132060  1.0  0.3308
  Ag  Ag12  1  0.704430  0.996870  0.632560  1.0  0.2894
  Ag  Ag13  1  0.273630  0.791210  0.367940  1.0  0.3311
  Ag  Ag14  1  0.795570  0.496870  0.867440  1.0  0.2889
  Ag  Ag15  1  0.773630  0.291210  0.367940  1.0  0.3311
  Ag  Ag16  1  0.295570  0.996870  0.867440  1.0  0.2889
  H  H17  1  0.401400  0.902500  0.351800  1.0  0.0957
  H  H18  1  0.584900  0.539700  0.889200  1.0  0.122
  H  H19  1  0.810800  0.565900  0.484800  1.0  0.0805
  H  H20  1  0.501300  0.884200  0.548800  1.0  0.122
  H  H21  1  0.384700  0.309500  0.848900  1.0  0.072
  H  H22  1  0.763400  0.633100  0.535800  1.0  0.1284
  H  H23  1  0.745300  0.580400  0.038100  1.0  0.1231
  H  H24  1  0.501600  0.836200  0.395700  1.0  0.1149
  H  H25  1  0.475100  0.337600  0.045400  1.0  0.1216
  H  H26  1  0.793700  0.646500  0.988600  1.0  0.073
  H  H27  1  0.480900  0.383300  0.893000  1.0  0.1228
  H  H28  1  0.775800  0.689500  0.659800  1.0  0.1173
  H  H29  1  0.638200  0.609800  0.844400  1.0  0.0839
  H  H30  1  0.820200  0.673800  0.758600  1.0  0.0702
  H  H31  1  0.377700  0.267100  0.994900  1.0  0.0697
  H  H32  1  0.614000  0.791800  0.665400  1.0  0.1249
  H  H33  1  0.615800  0.703900  0.385900  1.0  0.1188
  H  H34  1  0.663300  0.774000  0.762900  1.0  0.0741
  H  H35  1  0.729000  0.566700  0.155500  1.0  0.1219
  H  H36  1  0.401900  0.953600  0.500200  1.0  0.0787
  H  H37  1  0.777600  0.578200  0.254000  1.0  0.0752
  H  H38  1  0.594400  0.414700  0.168100  1.0  0.1266
  H  H39  1  0.652600  0.424800  0.266700  1.0  0.0802
  H  H40  1  0.664200  0.628600  0.338900  1.0  0.0781
  H  H41  1  0.901400  0.402500  0.351800  1.0  0.0957
  H  H42  1  0.084900  0.039700  0.889200  1.0  0.122
  H  H43  1  0.310800  0.065900  0.484800  1.0  0.0806
  H  H44  1  0.001300  0.384200  0.548800  1.0  0.122
  H  H45  1  0.884700  0.809500  0.848900  1.0  0.072
  H  H46  1  0.263400  0.133100  0.535800  1.0  0.1284
  H  H47  1  0.245300  0.080400  0.038100  1.0  0.1231
  H  H48  1  0.001600  0.336200  0.395700  1.0  0.1149
  H  H49  1  0.975100  0.837600  0.045400  1.0  0.1216
  H  H50  1  0.293700  0.146500  0.988600  1.0  0.073
  H  H51  1  0.980900  0.883300  0.893000  1.0  0.1228
  H  H52  1  0.275800  0.189500  0.659800  1.0  0.1173
  H  H53  1  0.138200  0.109800  0.844400  1.0  0.0839
  H  H54  1  0.320200  0.173800  0.758600  1.0  0.0702
  H  H55  1  0.877700  0.767100  0.994900  1.0  0.0697
  H  H56  1  0.114000  0.291800  0.665400  1.0  0.1249
  H  H57  1  0.115800  0.203900  0.385900  1.0  0.1188
  H  H58  1  0.163300  0.274000  0.762900  1.0  0.0741
  H  H59  1  0.229000  0.066700  0.155500  1.0  0.1219
  H  H60  1  0.901900  0.453600  0.500200  1.0  0.0787
  H  H61  1  0.277600  0.078200  0.254000  1.0  0.0752
  H  H62  1  0.094400  0.914700  0.168100  1.0  0.1266
  H  H63  1  0.152600  0.924800  0.266700  1.0  0.0802
  H  H64  1  0.164200  0.128600  0.338900  1.0  0.0781
  H  H65  1  0.598600  0.902500  0.148200  1.0  0.0955
  H  H66  1  0.415100  0.539700  0.610800  1.0  0.1228
  H  H67  1  0.189200  0.565900  0.015200  1.0  0.0798
  H  H68  1  0.498700  0.884200  0.951200  1.0  0.1217
  H  H69  1  0.615300  0.309500  0.651100  1.0  0.0711
  H  H70  1  0.236600  0.633100  0.964200  1.0  0.1295
  H  H71  1  0.254700  0.580400  0.461900  1.0  0.123
  H  H72  1  0.498400  0.836200  0.104300  1.0  0.1139
  H  H73  1  0.524900  0.337600  0.454600  1.0  0.121
  H  H74  1  0.206300  0.646500  0.511400  1.0  0.0729
  H  H75  1  0.519100  0.383300  0.607000  1.0  0.1226
  H  H76  1  0.224200  0.689500  0.840200  1.0  0.1183
  H  H77  1  0.361800  0.609800  0.655600  1.0  0.0847
  H  H78  1  0.179800  0.673800  0.741400  1.0  0.0701
  H  H79  1  0.622300  0.267100  0.505100  1.0  0.0696
  H  H80  1  0.386000  0.791800  0.834600  1.0  0.125
  H  H81  1  0.384200  0.703900  0.114100  1.0  0.1194
  H  H82  1  0.336700  0.774000  0.737100  1.0  0.074
  H  H83  1  0.271000  0.566700  0.344500  1.0  0.1215
  H  H84  1  0.598100  0.953600  0.999800  1.0  0.0788
  H  H85  1  0.222400  0.578200  0.246000  1.0  0.0748
  H  H86  1  0.405600  0.414700  0.331900  1.0  0.1267
  H  H87  1  0.347400  0.424800  0.233300  1.0  0.0794
  H  H88  1  0.335800  0.628600  0.161100  1.0  0.0775
  H  H89  1  0.098600  0.402500  0.148200  1.0  0.0955
  H  H90  1  0.915100  0.039700  0.610800  1.0  0.1228
  H  H91  1  0.689200  0.065900  0.015200  1.0  0.0798
  H  H92  1  0.998700  0.384200  0.951200  1.0  0.1217
  H  H93  1  0.115300  0.809500  0.651100  1.0  0.0711
  H  H94  1  0.736600  0.133100  0.964200  1.0  0.1295
  H  H95  1  0.754700  0.080400  0.461900  1.0  0.123
  H  H96  1  0.998400  0.336200  0.104300  1.0  0.1139
  H  H97  1  0.024900  0.837600  0.454600  1.0  0.121
  H  H98  1  0.706300  0.146500  0.511400  1.0  0.0729
  H  H99  1  0.019100  0.883300  0.607000  1.0  0.1226
  H  H100  1  0.724200  0.189500  0.840200  1.0  0.1183
  H  H101  1  0.861800  0.109800  0.655600  1.0  0.0847
  H  H102  1  0.679800  0.173800  0.741400  1.0  0.0701
  H  H103  1  0.122300  0.767100  0.505100  1.0  0.0696
  H  H104  1  0.886000  0.291800  0.834600  1.0  0.125
  H  H105  1  0.884200  0.203900  0.114100  1.0  0.1194
  H  H106  1  0.836700  0.274000  0.737100  1.0  0.074
  H  H107  1  0.771000  0.066700  0.344500  1.0  0.1215
  H  H108  1  0.098100  0.453600  0.999800  1.0  0.0788
  H  H109  1  0.722400  0.078200  0.246000  1.0  0.0748
  H  H110  1  0.905600  0.914700  0.331900  1.0  0.1267
  H  H111  1  0.847400  0.924800  0.233300  1.0  0.0794
  H  H112  1  0.835800  0.128600  0.161100  1.0  0.0775
  H  H113  1  0.598600  0.097500  0.648200  1.0  0.0959
  H  H114  1  0.415100  0.460300  0.110800  1.0  0.123
  H  H115  1  0.189200  0.434100  0.515200  1.0  0.0801
  H  H116  1  0.498700  0.115800  0.451200  1.0  0.1219
  H  H117  1  0.615300  0.690500  0.151100  1.0  0.0709
  H  H118  1  0.236600  0.366900  0.464200  1.0  0.1296
  H  H119  1  0.254700  0.419600  0.961900  1.0  0.1228
  H  H120  1  0.498400  0.163800  0.604300  1.0  0.1143
  H  H121  1  0.524900  0.662400  0.954600  1.0  0.1213
  H  H122  1  0.206300  0.353500  0.011400  1.0  0.0729
  H  H123  1  0.519100  0.616700  0.107000  1.0  0.1227
  H  H124  1  0.224200  0.310500  0.340200  1.0  0.1183
  H  H125  1  0.361800  0.390200  0.155600  1.0  0.0838
  H  H126  1  0.179800  0.326200  0.241400  1.0  0.0698
  H  H127  1  0.622300  0.732900  0.005100  1.0  0.0694
  H  H128  1  0.386000  0.208200  0.334600  1.0  0.1246
  H  H129  1  0.384200  0.296100  0.614100  1.0  0.1194
  H  H130  1  0.336700  0.226000  0.237100  1.0  0.0741
  H  H131  1  0.271000  0.433300  0.844500  1.0  0.1216
  H  H132  1  0.598100  0.046400  0.499800  1.0  0.0788
  H  H133  1  0.222400  0.421800  0.746000  1.0  0.0752
  H  H134  1  0.405600  0.585300  0.831900  1.0  0.127
  H  H135  1  0.347400  0.575200  0.733300  1.0  0.0788
  H  H136  1  0.335800  0.371400  0.661100  1.0  0.0775
  H  H137  1  0.098600  0.597500  0.648200  1.0  0.0959
  H  H138  1  0.915100  0.960300  0.110800  1.0  0.123
  H  H139  1  0.689200  0.934100  0.515200  1.0  0.0801
  H  H140  1  0.998700  0.615800  0.451200  1.0  0.1219
  H  H141  1  0.115300  0.190500  0.151100  1.0  0.0709
  H  H142  1  0.736600  0.866900  0.464200  1.0  0.1296
  H  H143  1  0.754700  0.919600  0.961900  1.0  0.1228
  H  H144  1  0.998400  0.663800  0.604300  1.0  0.1143
  H  H145  1  0.024900  0.162400  0.954600  1.0  0.1213
  H  H146  1  0.706300  0.853500  0.011400  1.0  0.0729
  H  H147  1  0.019100  0.116700  0.107000  1.0  0.1227
  H  H148  1  0.724200  0.810500  0.340200  1.0  0.1183
  H  H149  1  0.861800  0.890200  0.155600  1.0  0.0838
  H  H150  1  0.679800  0.826200  0.241400  1.0  0.0698
  H  H151  1  0.122300  0.232900  0.005100  1.0  0.0694
  H  H152  1  0.886000  0.708200  0.334600  1.0  0.1246
  H  H153  1  0.884200  0.796100  0.614100  1.0  0.1194
  H  H154  1  0.836700  0.726000  0.237100  1.0  0.0741
  H  H155  1  0.771000  0.933300  0.844500  1.0  0.1216
  H  H156  1  0.098100  0.546400  0.499800  1.0  0.0788
  H  H157  1  0.722400  0.921800  0.746000  1.0  0.0752
  H  H158  1  0.905600  0.085300  0.831900  1.0  0.127
  H  H159  1  0.847400  0.075200  0.733300  1.0  0.0788
  H  H160  1  0.835800  0.871400  0.661100  1.0  0.0775
  H  H161  1  0.401400  0.097500  0.851800  1.0  0.0956
  H  H162  1  0.584900  0.460300  0.389200  1.0  0.1217
  H  H163  1  0.810800  0.434100  0.984800  1.0  0.0805
  H  H164  1  0.501300  0.115800  0.048800  1.0  0.1222
  H  H165  1  0.384700  0.690500  0.348900  1.0  0.072
  H  H166  1  0.763400  0.366900  0.035800  1.0  0.1284
  H  H167  1  0.745300  0.419600  0.538100  1.0  0.1231
  H  H168  1  0.501600  0.163800  0.895700  1.0  0.1149
  H  H169  1  0.475100  0.662400  0.545400  1.0  0.1214
  H  H170  1  0.793700  0.353500  0.488600  1.0  0.0732
  H  H171  1  0.480900  0.616700  0.393000  1.0  0.1228
  H  H172  1  0.775800  0.310500  0.159800  1.0  0.1176
  H  H173  1  0.638200  0.390200  0.344400  1.0  0.0831
  H  H174  1  0.820200  0.326200  0.258600  1.0  0.0703
  H  H175  1  0.377700  0.732900  0.494900  1.0  0.0696
  H  H176  1  0.614000  0.208200  0.165400  1.0  0.1254
  H  H177  1  0.615800  0.296100  0.885900  1.0  0.1188
  H  H178  1  0.663300  0.226000  0.262900  1.0  0.0746
  H  H179  1  0.729000  0.433300  0.655500  1.0  0.1219
  H  H180  1  0.401900  0.046400  0.000200  1.0  0.0787
  H  H181  1  0.777600  0.421800  0.754000  1.0  0.0755
  H  H182  1  0.594400  0.585300  0.668100  1.0  0.1265
  H  H183  1  0.652600  0.575200  0.766700  1.0  0.0798
  H  H184  1  0.664200  0.371400  0.838900  1.0  0.078
  H  H185  1  0.901400  0.597500  0.851800  1.0  0.0956
  H  H186  1  0.084900  0.960300  0.389200  1.0  0.1217
  H  H187  1  0.310800  0.934100  0.984800  1.0  0.0805
  H  H188  1  0.001300  0.615800  0.048800  1.0  0.1222
  H  H189  1  0.884700  0.190500  0.348900  1.0  0.072
  H  H190  1  0.263400  0.866900  0.035800  1.0  0.1284
  H  H191  1  0.245300  0.919600  0.538100  1.0  0.1231
  H  H192  1  0.001600  0.663800  0.895700  1.0  0.1149
  H  H193  1  0.975100  0.162400  0.545400  1.0  0.1214
  H  H194  1  0.293700  0.853500  0.488600  1.0  0.0732
  H  H195  1  0.980900  0.116700  0.393000  1.0  0.1228
  H  H196  1  0.275800  0.810500  0.159800  1.0  0.1176
  H  H197  1  0.138200  0.890200  0.344400  1.0  0.0831
  H  H198  1  0.320200  0.826200  0.258600  1.0  0.0702
  H  H199  1  0.877700  0.232900  0.494900  1.0  0.0696
  H  H200  1  0.114000  0.708200  0.165400  1.0  0.1254
  H  H201  1  0.115800  0.796100  0.885900  1.0  0.1188
  H  H202  1  0.163300  0.726000  0.262900  1.0  0.0746
  H  H203  1  0.229000  0.933300  0.655500  1.0  0.1219
  H  H204  1  0.901900  0.546400  0.000200  1.0  0.0787
  H  H205  1  0.277600  0.921800  0.754000  1.0  0.0755
  H  H206  1  0.094400  0.085300  0.668100  1.0  0.1265
  H  H207  1  0.152600  0.075200  0.766700  1.0  0.0798
  H  H208  1  0.164200  0.871400  0.838900  1.0  0.078
  C  C209  1  0.653100  0.719800  0.500300  1.0  0.3458
  C  C210  1  0.422200  0.899500  0.391900  1.0  0.1449
  C  C211  1  0.627600  0.561100  0.910600  1.0  -0.188
  C  C212  1  0.627500  0.506700  0.001700  1.0  0.3631
  C  C213  1  0.574600  0.801600  0.506000  1.0  0.3604
  C  C214  1  0.770700  0.593500  0.464600  1.0  0.1689
  C  C215  1  0.481900  0.887300  0.508700  1.0  -0.1577
  C  C216  1  0.402900  0.315900  0.888800  1.0  0.1644
  C  C217  1  0.742800  0.633900  0.495600  1.0  -0.1633
  C  C218  1  0.658900  0.551500  0.969000  1.0  -0.0371
  C  C219  1  0.722400  0.585100  0.998200  1.0  -0.1768
  C  C220  1  0.683600  0.675900  0.466300  1.0  -0.0134
  C  C221  1  0.626900  0.475300  0.087200  1.0  0.3661
  C  C222  1  0.658100  0.485800  0.150500  1.0  -0.0638
  C  C223  1  0.481900  0.858400  0.418000  1.0  -0.147
  C  C224  1  0.549600  0.422500  0.004600  1.0  0.3825
  C  C225  1  0.689900  0.742000  0.651500  1.0  -0.0379
  C  C226  1  0.457200  0.334100  0.005300  1.0  -0.1604
  C  C227  1  0.751000  0.624800  0.968100  1.0  0.1736
  C  C228  1  0.460700  0.360900  0.914900  1.0  -0.1528
  C  C229  1  0.751800  0.707100  0.680000  1.0  -0.1508
  C  C230  1  0.660500  0.603000  0.884200  1.0  0.1775
  C  C231  1  0.778300  0.698200  0.739600  1.0  0.1718
  C  C232  1  0.399000  0.290900  0.974300  1.0  0.1741
  C  C233  1  0.656100  0.767700  0.683300  1.0  -0.1954
  C  C234  1  0.658300  0.751500  0.587200  1.0  0.3544
  C  C235  1  0.512400  0.850000  0.476900  1.0  -0.0342
  C  C236  1  0.655000  0.675100  0.407000  1.0  -0.1614
  C  C237  1  0.686400  0.756700  0.741900  1.0  0.1729
  C  C238  1  0.712400  0.537000  0.177300  1.0  -0.1615
  C  C239  1  0.488500  0.372500  0.974500  1.0  -0.0587
  C  C240  1  0.422100  0.929100  0.479000  1.0  0.1646
  C  C241  1  0.741500  0.543300  0.236600  1.0  0.1654
  C  C242  1  0.633000  0.446000  0.184400  1.0  -0.1882
  C  C243  1  0.667700  0.454600  0.243800  1.0  0.19
  C  C244  1  0.685300  0.631000  0.379000  1.0  0.1752
  C  C245  1  0.153100  0.219800  0.500300  1.0  0.3458
  C  C246  1  0.922200  0.399500  0.391900  1.0  0.1449
  C  C247  1  0.127600  0.061100  0.910600  1.0  -0.188
  C  C248  1  0.127500  0.006700  0.001700  1.0  0.3631
  C  C249  1  0.074600  0.301600  0.506000  1.0  0.3604
  C  C250  1  0.270700  0.093500  0.464600  1.0  0.1689
  C  C251  1  0.981900  0.387300  0.508700  1.0  -0.1577
  C  C252  1  0.902900  0.815900  0.888800  1.0  0.1644
  C  C253  1  0.242800  0.133900  0.495600  1.0  -0.1633
  C  C254  1  0.158900  0.051500  0.969000  1.0  -0.0371
  C  C255  1  0.222400  0.085100  0.998200  1.0  -0.1768
  C  C256  1  0.183600  0.175900  0.466300  1.0  -0.0134
  C  C257  1  0.126900  0.975300  0.087200  1.0  0.3661
  C  C258  1  0.158100  0.985800  0.150500  1.0  -0.0638
  C  C259  1  0.981900  0.358400  0.418000  1.0  -0.147
  C  C260  1  0.049600  0.922500  0.004600  1.0  0.3825
  C  C261  1  0.189900  0.242000  0.651500  1.0  -0.0379
  C  C262  1  0.957200  0.834100  0.005300  1.0  -0.1604
  C  C263  1  0.251000  0.124800  0.968100  1.0  0.1736
  C  C264  1  0.960700  0.860900  0.914900  1.0  -0.1528
  C  C265  1  0.251800  0.207100  0.680000  1.0  -0.1508
  C  C266  1  0.160500  0.103000  0.884200  1.0  0.1775
  C  C267  1  0.278300  0.198200  0.739600  1.0  0.1718
  C  C268  1  0.899000  0.790900  0.974300  1.0  0.1741
  C  C269  1  0.156100  0.267700  0.683300  1.0  -0.1954
  C  C270  1  0.158300  0.251500  0.587200  1.0  0.3544
  C  C271  1  0.012400  0.350000  0.476900  1.0  -0.0342
  C  C272  1  0.155000  0.175100  0.407000  1.0  -0.1614
  C  C273  1  0.186400  0.256700  0.741900  1.0  0.1729
  C  C274  1  0.212400  0.037000  0.177300  1.0  -0.1615
  C  C275  1  0.988500  0.872500  0.974500  1.0  -0.0587
  C  C276  1  0.922100  0.429100  0.479000  1.0  0.1646
  C  C277  1  0.241500  0.043300  0.236600  1.0  0.1654
  C  C278  1  0.133000  0.946000  0.184400  1.0  -0.1882
  C  C279  1  0.167700  0.954600  0.243800  1.0  0.19
  C  C280  1  0.185300  0.131000  0.379000  1.0  0.1752
  C  C281  1  0.346900  0.719800  0.999700  1.0  0.3459
  C  C282  1  0.577800  0.899500  0.108100  1.0  0.1429
  C  C283  1  0.372400  0.561100  0.589400  1.0  -0.1902
  C  C284  1  0.372500  0.506700  0.498300  1.0  0.3634
  C  C285  1  0.425400  0.801600  0.994000  1.0  0.3594
  C  C286  1  0.229300  0.593500  0.035400  1.0  0.169
  C  C287  1  0.518100  0.887300  0.991300  1.0  -0.1597
  C  C288  1  0.597100  0.315900  0.611200  1.0  0.1649
  C  C289  1  0.257200  0.633900  0.004400  1.0  -0.1624
  C  C290  1  0.341100  0.551500  0.531000  1.0  -0.0371
  C  C291  1  0.277600  0.585100  0.501800  1.0  -0.1778
  C  C292  1  0.316400  0.675900  0.033700  1.0  -0.0139
  C  C293  1  0.373100  0.475300  0.412800  1.0  0.3667
  C  C294  1  0.341900  0.485800  0.349500  1.0  -0.0625
  C  C295  1  0.518100  0.858400  0.082000  1.0  -0.1514
  C  C296  1  0.450400  0.422500  0.495400  1.0  0.3818
  C  C297  1  0.310100  0.742000  0.848500  1.0  -0.0388
  C  C298  1  0.542800  0.334100  0.494700  1.0  -0.163
  C  C299  1  0.249000  0.624800  0.531900  1.0  0.1747
  C  C300  1  0.539300  0.360900  0.585100  1.0  -0.1532
  C  C301  1  0.248200  0.707100  0.820000  1.0  -0.1479
  C  C302  1  0.339500  0.603000  0.615800  1.0  0.176
  C  C303  1  0.221700  0.698200  0.760400  1.0  0.1721
  C  C304  1  0.601000  0.290900  0.525700  1.0  0.174
  C  C305  1  0.343900  0.767700  0.816700  1.0  -0.1948
  C  C306  1  0.341700  0.751500  0.912800  1.0  0.3545
  C  C307  1  0.487600  0.850000  0.023100  1.0  -0.0342
  C  C308  1  0.345000  0.675100  0.093000  1.0  -0.1609
  C  C309  1  0.313600  0.756700  0.758100  1.0  0.1726
  C  C310  1  0.287600  0.537000  0.322700  1.0  -0.16
  C  C311  1  0.511500  0.372500  0.525500  1.0  -0.0585
  C  C312  1  0.577900  0.929100  0.021000  1.0  0.1657
  C  C313  1  0.258500  0.543300  0.263400  1.0  0.166
  C  C314  1  0.367000  0.446000  0.315600  1.0  -0.1888
  C  C315  1  0.332300  0.454600  0.256200  1.0  0.1909
  C  C316  1  0.314700  0.631000  0.121000  1.0  0.1759
  C  C317  1  0.846900  0.219800  0.999700  1.0  0.3459
  C  C318  1  0.077800  0.399500  0.108100  1.0  0.1429
  C  C319  1  0.872400  0.061100  0.589400  1.0  -0.1902
  C  C320  1  0.872500  0.006700  0.498300  1.0  0.3634
  C  C321  1  0.925400  0.301600  0.994000  1.0  0.3594
  C  C322  1  0.729300  0.093500  0.035400  1.0  0.169
  C  C323  1  0.018100  0.387300  0.991300  1.0  -0.1597
  C  C324  1  0.097100  0.815900  0.611200  1.0  0.1649
  C  C325  1  0.757200  0.133900  0.004400  1.0  -0.1624
  C  C326  1  0.841100  0.051500  0.531000  1.0  -0.0371
  C  C327  1  0.777600  0.085100  0.501800  1.0  -0.1778
  C  C328  1  0.816400  0.175900  0.033700  1.0  -0.0139
  C  C329  1  0.873100  0.975300  0.412800  1.0  0.3667
  C  C330  1  0.841900  0.985800  0.349500  1.0  -0.0625
  C  C331  1  0.018100  0.358400  0.082000  1.0  -0.1514
  C  C332  1  0.950400  0.922500  0.495400  1.0  0.3818
  C  C333  1  0.810100  0.242000  0.848500  1.0  -0.0388
  C  C334  1  0.042800  0.834100  0.494700  1.0  -0.163
  C  C335  1  0.749000  0.124800  0.531900  1.0  0.1747
  C  C336  1  0.039300  0.860900  0.585100  1.0  -0.1532
  C  C337  1  0.748200  0.207100  0.820000  1.0  -0.1479
  C  C338  1  0.839500  0.103000  0.615800  1.0  0.176
  C  C339  1  0.721700  0.198200  0.760400  1.0  0.1721
  C  C340  1  0.101000  0.790900  0.525700  1.0  0.174
  C  C341  1  0.843900  0.267700  0.816700  1.0  -0.1948
  C  C342  1  0.841700  0.251500  0.912800  1.0  0.3545
  C  C343  1  0.987600  0.350000  0.023100  1.0  -0.0342
  C  C344  1  0.845000  0.175100  0.093000  1.0  -0.1609
  C  C345  1  0.813600  0.256700  0.758100  1.0  0.1726
  C  C346  1  0.787600  0.037000  0.322700  1.0  -0.16
  C  C347  1  0.011500  0.872500  0.525500  1.0  -0.0585
  C  C348  1  0.077900  0.429100  0.021000  1.0  0.1657
  C  C349  1  0.758500  0.043300  0.263400  1.0  0.166
  C  C350  1  0.867000  0.946000  0.315600  1.0  -0.1888
  C  C351  1  0.832300  0.954600  0.256200  1.0  0.1909
  C  C352  1  0.814700  0.131000  0.121000  1.0  0.1759
  C  C353  1  0.346900  0.280200  0.499700  1.0  0.346
  C  C354  1  0.577800  0.100500  0.608100  1.0  0.1432
  C  C355  1  0.372400  0.438900  0.089400  1.0  -0.1897
  C  C356  1  0.372500  0.493300  0.998300  1.0  0.364
  C  C357  1  0.425400  0.198400  0.494000  1.0  0.3594
  C  C358  1  0.229300  0.406500  0.535400  1.0  0.1687
  C  C359  1  0.518100  0.112700  0.491300  1.0  -0.1595
  C  C360  1  0.597100  0.684100  0.111200  1.0  0.1644
  C  C361  1  0.257200  0.366100  0.504400  1.0  -0.1625
  C  C362  1  0.341100  0.448500  0.031000  1.0  -0.0369
  C  C363  1  0.277600  0.414900  0.001800  1.0  -0.1779
  C  C364  1  0.316400  0.324100  0.533700  1.0  -0.014
  C  C365  1  0.373100  0.524700  0.912800  1.0  0.3667
  C  C366  1  0.341900  0.514200  0.849500  1.0  -0.0622
  C  C367  1  0.518100  0.141600  0.582000  1.0  -0.1514
  C  C368  1  0.450400  0.577500  0.995400  1.0  0.3816
  C  C369  1  0.310100  0.258000  0.348500  1.0  -0.038
  C  C370  1  0.542800  0.665900  0.994700  1.0  -0.1635
  C  C371  1  0.249000  0.375200  0.031900  1.0  0.1758
  C  C372  1  0.539300  0.639100  0.085100  1.0  -0.1533
  C  C373  1  0.248200  0.292900  0.320000  1.0  -0.1483
  C  C374  1  0.339500  0.397000  0.115800  1.0  0.1772
  C  C375  1  0.221700  0.301800  0.260400  1.0  0.1722
  C  C376  1  0.601000  0.709100  0.025700  1.0  0.1735
  C  C377  1  0.343900  0.232300  0.316700  1.0  -0.195
  C  C378  1  0.341700  0.248500  0.412800  1.0  0.3548
  C  C379  1  0.487600  0.150000  0.523100  1.0  -0.0345
  C  C380  1  0.345000  0.324900  0.593000  1.0  -0.1609
  C  C381  1  0.313600  0.243300  0.258100  1.0  0.1726
  C  C382  1  0.287600  0.463000  0.822700  1.0  -0.1599
  C  C383  1  0.511500  0.627500  0.025500  1.0  -0.0586
  C  C384  1  0.577900  0.070900  0.521000  1.0  0.1659
  C  C385  1  0.258500  0.456700  0.763400  1.0  0.1657
  C  C386  1  0.367000  0.554000  0.815600  1.0  -0.1886
  C  C387  1  0.332300  0.545400  0.756200  1.0  0.1913
  C  C388  1  0.314700  0.369000  0.621000  1.0  0.1762
  C  C389  1  0.846900  0.780200  0.499700  1.0  0.346
  C  C390  1  0.077800  0.600500  0.608100  1.0  0.1432
  C  C391  1  0.872400  0.938900  0.089400  1.0  -0.1897
  C  C392  1  0.872500  0.993300  0.998300  1.0  0.364
  C  C393  1  0.925400  0.698400  0.494000  1.0  0.3594
  C  C394  1  0.729300  0.906500  0.535400  1.0  0.1687
  C  C395  1  0.018100  0.612700  0.491300  1.0  -0.1595
  C  C396  1  0.097100  0.184100  0.111200  1.0  0.1644
  C  C397  1  0.757200  0.866100  0.504400  1.0  -0.1625
  C  C398  1  0.841100  0.948500  0.031000  1.0  -0.0369
  C  C399  1  0.777600  0.914900  0.001800  1.0  -0.1779
  C  C400  1  0.816400  0.824100  0.533700  1.0  -0.014
  C  C401  1  0.873100  0.024700  0.912800  1.0  0.3667
  C  C402  1  0.841900  0.014200  0.849500  1.0  -0.0622
  C  C403  1  0.018100  0.641600  0.582000  1.0  -0.1514
  C  C404  1  0.950400  0.077500  0.995400  1.0  0.3816
  C  C405  1  0.810100  0.758000  0.348500  1.0  -0.038
  C  C406  1  0.042800  0.165900  0.994700  1.0  -0.1635
  C  C407  1  0.749000  0.875200  0.031900  1.0  0.1758
  C  C408  1  0.039300  0.139100  0.085100  1.0  -0.1533
  C  C409  1  0.748200  0.792900  0.320000  1.0  -0.1483
  C  C410  1  0.839500  0.897000  0.115800  1.0  0.1772
  C  C411  1  0.721700  0.801800  0.260400  1.0  0.1722
  C  C412  1  0.101000  0.209100  0.025700  1.0  0.1735
  C  C413  1  0.843900  0.732300  0.316700  1.0  -0.195
  C  C414  1  0.841700  0.748500  0.412800  1.0  0.3548
  C  C415  1  0.987600  0.650000  0.523100  1.0  -0.0345
  C  C416  1  0.845000  0.824900  0.593000  1.0  -0.1609
  C  C417  1  0.813600  0.743300  0.258100  1.0  0.1726
  C  C418  1  0.787600  0.963000  0.822700  1.0  -0.1599
  C  C419  1  0.011500  0.127500  0.025500  1.0  -0.0586
  C  C420  1  0.077900  0.570900  0.521000  1.0  0.1659
  C  C421  1  0.758500  0.956700  0.763400  1.0  0.1657
  C  C422  1  0.867000  0.054000  0.815600  1.0  -0.1886
  C  C423  1  0.832300  0.045400  0.756200  1.0  0.1913
  C  C424  1  0.814700  0.869000  0.621000  1.0  0.1762
  C  C425  1  0.653100  0.280200  0.000300  1.0  0.346
  C  C426  1  0.422200  0.100500  0.891900  1.0  0.1439
  C  C427  1  0.627600  0.438900  0.410600  1.0  -0.188
  C  C428  1  0.627500  0.493300  0.501700  1.0  0.3635
  C  C429  1  0.574600  0.198400  0.006000  1.0  0.36
  C  C430  1  0.770700  0.406500  0.964600  1.0  0.1683
  C  C431  1  0.481900  0.112700  0.008700  1.0  -0.1578
  C  C432  1  0.402900  0.684100  0.388800  1.0  0.1639
  C  C433  1  0.742800  0.366100  0.995600  1.0  -0.1637
  C  C434  1  0.658900  0.448500  0.469000  1.0  -0.0376
  C  C435  1  0.722400  0.414900  0.498200  1.0  -0.177
  C  C436  1  0.683600  0.324100  0.966300  1.0  -0.0138
  C  C437  1  0.626900  0.524700  0.587200  1.0  0.366
  C  C438  1  0.658100  0.514200  0.650500  1.0  -0.0635
  C  C439  1  0.481900  0.141600  0.918000  1.0  -0.1482
  C  C440  1  0.549600  0.577500  0.504600  1.0  0.3823
  C  C441  1  0.689900  0.258000  0.151500  1.0  -0.0375
  C  C442  1  0.457200  0.665900  0.505300  1.0  -0.1603
  C  C443  1  0.751000  0.375200  0.468100  1.0  0.1744
  C  C444  1  0.460700  0.639100  0.414900  1.0  -0.1525
  C  C445  1  0.751800  0.292900  0.180000  1.0  -0.1511
  C  C446  1  0.660500  0.397000  0.384200  1.0  0.177
  C  C447  1  0.778300  0.301800  0.239600  1.0  0.1724
  C  C448  1  0.399000  0.709100  0.474300  1.0  0.1737
  C  C449  1  0.656100  0.232300  0.183300  1.0  -0.1952
  C  C450  1  0.658300  0.248500  0.087200  1.0  0.3548
  C  C451  1  0.512400  0.150000  0.976900  1.0  -0.0338
  C  C452  1  0.655000  0.324900  0.907000  1.0  -0.1609
  C  C453  1  0.686400  0.243300  0.241900  1.0  0.173
  C  C454  1  0.712400  0.463000  0.677300  1.0  -0.1608
  C  C455  1  0.488500  0.627500  0.474500  1.0  -0.059
  C  C456  1  0.422100  0.070900  0.979000  1.0  0.1654
  C  C457  1  0.741500  0.456700  0.736600  1.0  0.1655
  C  C458  1  0.633000  0.554000  0.684400  1.0  -0.1878
  C  C459  1  0.667700  0.545400  0.743800  1.0  0.1909
  C  C460  1  0.685300  0.369000  0.879000  1.0  0.1757
  C  C461  1  0.153100  0.780200  0.000300  1.0  0.346
  C  C462  1  0.922200  0.600500  0.891900  1.0  0.1439
  C  C463  1  0.127600  0.938900  0.410600  1.0  -0.188
  C  C464  1  0.127500  0.993300  0.501700  1.0  0.3635
  C  C465  1  0.074600  0.698400  0.006000  1.0  0.36
  C  C466  1  0.270700  0.906500  0.964600  1.0  0.1683
  C  C467  1  0.981900  0.612700  0.008700  1.0  -0.1578
  C  C468  1  0.902900  0.184100  0.388800  1.0  0.1639
  C  C469  1  0.242800  0.866100  0.995600  1.0  -0.1637
  C  C470  1  0.158900  0.948500  0.469000  1.0  -0.0376
  C  C471  1  0.222400  0.914900  0.498200  1.0  -0.177
  C  C472  1  0.183600  0.824100  0.966300  1.0  -0.0138
  C  C473  1  0.126900  0.024700  0.587200  1.0  0.366
  C  C474  1  0.158100  0.014200  0.650500  1.0  -0.0635
  C  C475  1  0.981900  0.641600  0.918000  1.0  -0.1482
  C  C476  1  0.049600  0.077500  0.504600  1.0  0.3823
  C  C477  1  0.189900  0.758000  0.151500  1.0  -0.0375
  C  C478  1  0.957200  0.165900  0.505300  1.0  -0.1603
  C  C479  1  0.251000  0.875200  0.468100  1.0  0.1744
  C  C480  1  0.960700  0.139100  0.414900  1.0  -0.1525
  C  C481  1  0.251800  0.792900  0.180000  1.0  -0.1511
  C  C482  1  0.160500  0.897000  0.384200  1.0  0.177
  C  C483  1  0.278300  0.801800  0.239600  1.0  0.1724
  C  C484  1  0.899000  0.209100  0.474300  1.0  0.1737
  C  C485  1  0.156100  0.732300  0.183300  1.0  -0.1952
  C  C486  1  0.158300  0.748500  0.087200  1.0  0.3548
  C  C487  1  0.012400  0.650000  0.976900  1.0  -0.0338
  C  C488  1  0.155000  0.824900  0.907000  1.0  -0.1609
  C  C489  1  0.186400  0.743300  0.241900  1.0  0.173
  C  C490  1  0.212400  0.963000  0.677300  1.0  -0.1608
  C  C491  1  0.988500  0.127500  0.474500  1.0  -0.059
  C  C492  1  0.922100  0.570900  0.979000  1.0  0.1654
  C  C493  1  0.241500  0.956700  0.736600  1.0  0.1655
  C  C494  1  0.133000  0.054000  0.684400  1.0  -0.1878
  C  C495  1  0.167700  0.045400  0.743800  1.0  0.1909
  C  C496  1  0.185300  0.869000  0.879000  1.0  0.1757
  N  N497  1  0.371500  0.280900  0.917500  1.0  -0.3594
  N  N498  1  0.721600  0.634500  0.911100  1.0  -0.3233
  N  N499  1  0.720300  0.501400  0.270600  1.0  -0.3556
  N  N500  1  0.573900  0.461000  0.972100  1.0  -0.4918
  N  N501  1  0.655700  0.517100  0.058300  1.0  -0.5428
  N  N502  1  0.574900  0.427200  0.062600  1.0  -0.459
  N  N503  1  0.743600  0.591400  0.406800  1.0  -0.3591
  N  N504  1  0.746300  0.723200  0.771000  1.0  -0.3557
  N  N505  1  0.392200  0.935800  0.422000  1.0  -0.333
  N  N506  1  0.597300  0.761100  0.472900  1.0  -0.4338
  N  N507  1  0.685800  0.712900  0.558300  1.0  -0.4664
  N  N508  1  0.603500  0.798800  0.563900  1.0  -0.503
  N  N509  1  0.871500  0.780900  0.917500  1.0  -0.3594
  N  N510  1  0.221600  0.134500  0.911100  1.0  -0.3233
  N  N511  1  0.220300  0.001400  0.270600  1.0  -0.3556
  N  N512  1  0.073900  0.961000  0.972100  1.0  -0.4918
  N  N513  1  0.155700  0.017100  0.058300  1.0  -0.5428
  N  N514  1  0.074900  0.927200  0.062600  1.0  -0.459
  N  N515  1  0.243600  0.091400  0.406800  1.0  -0.3591
  N  N516  1  0.246300  0.223200  0.771000  1.0  -0.3557
  N  N517  1  0.892200  0.435800  0.422000  1.0  -0.333
  N  N518  1  0.097300  0.261100  0.472900  1.0  -0.4338
  N  N519  1  0.185800  0.212900  0.558300  1.0  -0.4664
  N  N520  1  0.103500  0.298800  0.563900  1.0  -0.503
  N  N521  1  0.628500  0.280900  0.582500  1.0  -0.358
  N  N522  1  0.278400  0.634500  0.588900  1.0  -0.3223
  N  N523  1  0.279700  0.501400  0.229400  1.0  -0.3556
  N  N524  1  0.426100  0.461000  0.527900  1.0  -0.4937
  N  N525  1  0.344300  0.517100  0.441700  1.0  -0.542
  N  N526  1  0.425100  0.427200  0.437400  1.0  -0.458
  N  N527  1  0.256400  0.591400  0.093200  1.0  -0.3556
  N  N528  1  0.253700  0.723200  0.729000  1.0  -0.3538
  N  N529  1  0.607800  0.935800  0.078000  1.0  -0.3334
  N  N530  1  0.402700  0.761100  0.027100  1.0  -0.4325
  N  N531  1  0.314200  0.712900  0.941700  1.0  -0.4682
  N  N532  1  0.396500  0.798800  0.936100  1.0  -0.498
  N  N533  1  0.128500  0.780900  0.582500  1.0  -0.358
  N  N534  1  0.778400  0.134500  0.588900  1.0  -0.3223
  N  N535  1  0.779700  0.001400  0.229400  1.0  -0.3556
  N  N536  1  0.926100  0.961000  0.527900  1.0  -0.4937
  N  N537  1  0.844300  0.017100  0.441700  1.0  -0.542
  N  N538  1  0.925100  0.927200  0.437400  1.0  -0.458
  N  N539  1  0.756400  0.091400  0.093200  1.0  -0.3556
  N  N540  1  0.753700  0.223200  0.729000  1.0  -0.3538
  N  N541  1  0.107800  0.435800  0.078000  1.0  -0.3334
  N  N542  1  0.902700  0.261100  0.027100  1.0  -0.4325
  N  N543  1  0.814200  0.212900  0.941700  1.0  -0.4682
  N  N544  1  0.896500  0.298800  0.936100  1.0  -0.498
  N  N545  1  0.628500  0.719100  0.082500  1.0  -0.3602
  N  N546  1  0.278400  0.365500  0.088900  1.0  -0.3259
  N  N547  1  0.279700  0.498600  0.729400  1.0  -0.356
  N  N548  1  0.426100  0.539000  0.027900  1.0  -0.4935
  N  N549  1  0.344300  0.482900  0.941700  1.0  -0.5421
  N  N550  1  0.425100  0.572800  0.937400  1.0  -0.4572
  N  N551  1  0.256400  0.408600  0.593200  1.0  -0.3575
  N  N552  1  0.253700  0.276800  0.229000  1.0  -0.3532
  N  N553  1  0.607800  0.064200  0.578000  1.0  -0.333
  N  N554  1  0.402700  0.238900  0.527100  1.0  -0.4318
  N  N555  1  0.314200  0.287100  0.441700  1.0  -0.4676
  N  N556  1  0.396500  0.201200  0.436100  1.0  -0.4991
  N  N557  1  0.128500  0.219100  0.082500  1.0  -0.3602
  N  N558  1  0.778400  0.865500  0.088900  1.0  -0.3259
  N  N559  1  0.779700  0.998600  0.729400  1.0  -0.356
  N  N560  1  0.926100  0.039000  0.027900  1.0  -0.4935
  N  N561  1  0.844300  0.982900  0.941700  1.0  -0.5421
  N  N562  1  0.925100  0.072800  0.937400  1.0  -0.4572
  N  N563  1  0.756400  0.908600  0.593200  1.0  -0.3575
  N  N564  1  0.753700  0.776800  0.229000  1.0  -0.3532
  N  N565  1  0.107800  0.564200  0.578000  1.0  -0.333
  N  N566  1  0.902700  0.738900  0.527100  1.0  -0.4318
  N  N567  1  0.814200  0.787100  0.441700  1.0  -0.4676
  N  N568  1  0.896500  0.701200  0.436100  1.0  -0.4991
  N  N569  1  0.371500  0.719100  0.417500  1.0  -0.3598
  N  N570  1  0.721600  0.365500  0.411100  1.0  -0.3268
  N  N571  1  0.720300  0.498600  0.770600  1.0  -0.3544
  N  N572  1  0.573900  0.539000  0.472100  1.0  -0.4917
  N  N573  1  0.655700  0.482900  0.558300  1.0  -0.5425
  N  N574  1  0.574900  0.572800  0.562600  1.0  -0.4602
  N  N575  1  0.743600  0.408600  0.906800  1.0  -0.3576
  N  N576  1  0.746300  0.276800  0.271000  1.0  -0.3562
  N  N577  1  0.392200  0.064200  0.922000  1.0  -0.3369
  N  N578  1  0.597300  0.238900  0.972900  1.0  -0.4339
  N  N579  1  0.685800  0.287100  0.058300  1.0  -0.4676
  N  N580  1  0.603500  0.201200  0.063900  1.0  -0.5023
  N  N581  1  0.871500  0.219100  0.417500  1.0  -0.3598
  N  N582  1  0.221600  0.865500  0.411100  1.0  -0.3268
  N  N583  1  0.220300  0.998600  0.770600  1.0  -0.3544
  N  N584  1  0.073900  0.039000  0.472100  1.0  -0.4917
  N  N585  1  0.155700  0.982900  0.558300  1.0  -0.5425
  N  N586  1  0.074900  0.072800  0.562600  1.0  -0.4602
  N  N587  1  0.243600  0.908600  0.906800  1.0  -0.3576
  N  N588  1  0.246300  0.776800  0.271000  1.0  -0.3562
  N  N589  1  0.892200  0.564200  0.922000  1.0  -0.3369
  N  N590  1  0.097300  0.738900  0.972900  1.0  -0.4339
  N  N591  1  0.185800  0.787100  0.058300  1.0  -0.4676
  N  N592  1  0.103500  0.701200  0.063900  1.0  -0.5023
