# generated using pymatgen
data_AgH12(C3N)6
_symmetry_space_group_name_H-M   'P 1'
_cell_length_a   21.93680000
_cell_length_b   16.81550000
_cell_length_c   25.49980000
_cell_angle_alpha   90.00000000
_cell_angle_beta   115.12100000
_cell_angle_gamma   90.00000000
_symmetry_Int_Tables_number   1
_chemical_formula_structural   AgH12(C3N)6
_chemical_formula_sum   'Ag16 H192 C288 N96'
_cell_volume   8516.60855321
_cell_formula_units_Z   16
loop_
 _symmetry_equiv_pos_site_id
 _symmetry_equiv_pos_as_xyz
  1  'x, y, z'
loop_
 _atom_site_type_symbol
 _atom_site_label
 _atom_site_symmetry_multiplicity
 _atom_site_fract_x
 _atom_site_fract_y
 _atom_site_fract_z
 _atom_site_occupancy
 _atom_site_charge
  Ag  Ag1  1  0.655770  0.456430  0.633450  1.0  0.3278
  Ag  Ag2  1  0.678830  0.756990  0.133740  1.0  0.3024
  Ag  Ag3  1  0.155770  0.956430  0.633450  1.0  0.3278
  Ag  Ag4  1  0.178830  0.256990  0.133740  1.0  0.3024
  Ag  Ag5  1  0.344230  0.456430  0.866550  1.0  0.3282
  Ag  Ag6  1  0.321170  0.756990  0.366260  1.0  0.3018
  Ag  Ag7  1  0.844230  0.956430  0.866550  1.0  0.3282
  Ag  Ag8  1  0.821170  0.256990  0.366260  1.0  0.3018
  Ag  Ag9  1  0.344230  0.543570  0.366550  1.0  0.3282
  Ag  Ag10  1  0.321170  0.243010  0.866260  1.0  0.3015
  Ag  Ag11  1  0.844230  0.043570  0.366550  1.0  0.3282
  Ag  Ag12  1  0.821170  0.743010  0.866260  1.0  0.3015
  Ag  Ag13  1  0.655770  0.543570  0.133450  1.0  0.3276
  Ag  Ag14  1  0.678830  0.243010  0.633740  1.0  0.302
  Ag  Ag15  1  0.155770  0.043570  0.133450  1.0  0.3276
  Ag  Ag16  1  0.178830  0.743010  0.633740  1.0  0.302
  H  H17  1  0.946500  0.787900  0.612900  1.0  0.1144
  H  H18  1  0.680300  0.587100  0.456100  1.0  0.124
  H  H19  1  0.575700  0.817600  0.017000  1.0  0.0792
  H  H20  1  0.476700  0.882900  0.965800  1.0  0.1287
  H  H21  1  0.299500  0.156500  0.149500  1.0  0.0831
  H  H22  1  0.203400  0.136100  0.951700  1.0  0.1275
  H  H23  1  0.785800  0.557600  0.652700  1.0  0.0722
  H  H24  1  0.957800  0.830200  0.462600  1.0  0.1275
  H  H25  1  0.838200  0.631800  0.608500  1.0  0.1223
  H  H26  1  0.365400  0.937400  0.842200  1.0  0.1208
  H  H27  1  0.632800  0.518700  0.507100  1.0  0.0697
  H  H28  1  0.152700  0.205500  0.001300  1.0  0.0759
  H  H29  1  0.355400  0.086600  0.105800  1.0  0.1128
  H  H30  1  0.055100  0.894800  0.512900  1.0  0.0633
  H  H31  1  0.481100  0.956200  0.116600  1.0  0.1285
  H  H32  1  0.045100  0.858200  0.658400  1.0  0.0814
  H  H33  1  0.312100  0.924000  0.742800  1.0  0.0704
  H  H34  1  0.151400  0.023300  0.738100  1.0  0.0721
  H  H35  1  0.773900  0.829600  0.248300  1.0  0.0752
  H  H36  1  0.198600  0.040800  0.837100  1.0  0.1258
  H  H37  1  0.576200  0.884400  0.162300  1.0  0.0624
  H  H38  1  0.826300  0.812200  0.345800  1.0  0.1265
  H  H39  1  0.674800  0.668500  0.333333  1.0  0.1253
  H  H40  1  0.633700  0.681900  0.235500  1.0  0.0729
  H  H41  1  0.446500  0.287900  0.612900  1.0  0.1144
  H  H42  1  0.180300  0.087100  0.456100  1.0  0.124
  H  H43  1  0.075700  0.317600  0.017000  1.0  0.0792
  H  H44  1  0.976700  0.382900  0.965800  1.0  0.1287
  H  H45  1  0.799500  0.656500  0.149500  1.0  0.0831
  H  H46  1  0.703400  0.636100  0.951700  1.0  0.1275
  H  H47  1  0.285800  0.057600  0.652700  1.0  0.0722
  H  H48  1  0.457800  0.330200  0.462600  1.0  0.1275
  H  H49  1  0.338200  0.131800  0.608500  1.0  0.1223
  H  H50  1  0.865400  0.437400  0.842200  1.0  0.1208
  H  H51  1  0.132800  0.018700  0.507100  1.0  0.0697
  H  H52  1  0.652700  0.705500  0.001300  1.0  0.0759
  H  H53  1  0.855400  0.586600  0.105800  1.0  0.1128
  H  H54  1  0.555100  0.394800  0.512900  1.0  0.0633
  H  H55  1  0.981100  0.456200  0.116600  1.0  0.1285
  H  H56  1  0.545100  0.358200  0.658400  1.0  0.0814
  H  H57  1  0.812100  0.424000  0.742800  1.0  0.0704
  H  H58  1  0.651400  0.523300  0.738100  1.0  0.0721
  H  H59  1  0.273900  0.329600  0.248300  1.0  0.0752
  H  H60  1  0.698600  0.540800  0.837100  1.0  0.1258
  H  H61  1  0.076200  0.384400  0.162300  1.0  0.0624
  H  H62  1  0.326300  0.312200  0.345800  1.0  0.1265
  H  H63  1  0.174800  0.168500  0.333333  1.0  0.1253
  H  H64  1  0.133700  0.181900  0.235500  1.0  0.0729
  H  H65  1  0.053500  0.787900  0.887100  1.0  0.1148
  H  H66  1  0.319700  0.587100  0.043900  1.0  0.1237
  H  H67  1  0.424300  0.817600  0.483000  1.0  0.0781
  H  H68  1  0.523300  0.882900  0.534200  1.0  0.128
  H  H69  1  0.700500  0.156500  0.350500  1.0  0.0838
  H  H70  1  0.796600  0.136100  0.548300  1.0  0.1274
  H  H71  1  0.214200  0.557600  0.847300  1.0  0.0731
  H  H72  1  0.042200  0.830200  0.037400  1.0  0.127
  H  H73  1  0.161800  0.631800  0.891500  1.0  0.1223
  H  H74  1  0.634600  0.937400  0.657800  1.0  0.1208
  H  H75  1  0.367200  0.518700  0.992900  1.0  0.0702
  H  H76  1  0.847300  0.205500  0.498700  1.0  0.0761
  H  H77  1  0.644600  0.086600  0.394200  1.0  0.1125
  H  H78  1  0.944900  0.894800  0.987100  1.0  0.0637
  H  H79  1  0.518900  0.956200  0.383400  1.0  0.1288
  H  H80  1  0.954900  0.858200  0.841600  1.0  0.0811
  H  H81  1  0.687900  0.924000  0.757200  1.0  0.0703
  H  H82  1  0.848600  0.023300  0.761900  1.0  0.0741
  H  H83  1  0.226100  0.829600  0.251700  1.0  0.0757
  H  H84  1  0.801400  0.040800  0.662900  1.0  0.1256
  H  H85  1  0.423800  0.884400  0.337700  1.0  0.0617
  H  H86  1  0.173700  0.812200  0.154200  1.0  0.1269
  H  H87  1  0.325200  0.668500  0.166700  1.0  0.1257
  H  H88  1  0.366300  0.681900  0.264500  1.0  0.0725
  H  H89  1  0.553500  0.287900  0.887100  1.0  0.1148
  H  H90  1  0.819700  0.087100  0.043900  1.0  0.1237
  H  H91  1  0.924300  0.317600  0.483000  1.0  0.0781
  H  H92  1  0.023300  0.382900  0.534200  1.0  0.128
  H  H93  1  0.200500  0.656500  0.350500  1.0  0.0838
  H  H94  1  0.296600  0.636100  0.548300  1.0  0.1274
  H  H95  1  0.714200  0.057600  0.847300  1.0  0.0731
  H  H96  1  0.542200  0.330200  0.037400  1.0  0.127
  H  H97  1  0.661800  0.131800  0.891500  1.0  0.1223
  H  H98  1  0.134600  0.437400  0.657800  1.0  0.1208
  H  H99  1  0.867200  0.018700  0.992900  1.0  0.0702
  H  H100  1  0.347300  0.705500  0.498700  1.0  0.0761
  H  H101  1  0.144600  0.586600  0.394200  1.0  0.1125
  H  H102  1  0.444900  0.394800  0.987100  1.0  0.0637
  H  H103  1  0.018900  0.456200  0.383400  1.0  0.1288
  H  H104  1  0.454900  0.358200  0.841600  1.0  0.0811
  H  H105  1  0.187900  0.424000  0.757200  1.0  0.0703
  H  H106  1  0.348600  0.523300  0.761900  1.0  0.0741
  H  H107  1  0.726100  0.329600  0.251700  1.0  0.0757
  H  H108  1  0.301400  0.540800  0.662900  1.0  0.1256
  H  H109  1  0.923800  0.384400  0.337700  1.0  0.0617
  H  H110  1  0.673700  0.312200  0.154200  1.0  0.1269
  H  H111  1  0.825200  0.168500  0.166700  1.0  0.1257
  H  H112  1  0.866300  0.181900  0.264500  1.0  0.0725
  H  H113  1  0.053500  0.212100  0.387100  1.0  0.1145
  H  H114  1  0.319700  0.412900  0.543900  1.0  0.1236
  H  H115  1  0.424300  0.182400  0.983000  1.0  0.078
  H  H116  1  0.523300  0.117100  0.034200  1.0  0.1277
  H  H117  1  0.700500  0.843500  0.850500  1.0  0.0837
  H  H118  1  0.796600  0.863900  0.048300  1.0  0.1276
  H  H119  1  0.214200  0.442400  0.347300  1.0  0.073
  H  H120  1  0.042200  0.169800  0.537400  1.0  0.1271
  H  H121  1  0.161800  0.368200  0.391500  1.0  0.1224
  H  H122  1  0.634600  0.062600  0.157800  1.0  0.1208
  H  H123  1  0.367200  0.481300  0.492900  1.0  0.0698
  H  H124  1  0.847300  0.794500  0.998700  1.0  0.0759
  H  H125  1  0.644600  0.913400  0.894200  1.0  0.1124
  H  H126  1  0.944900  0.105200  0.487100  1.0  0.0641
  H  H127  1  0.518900  0.043800  0.883400  1.0  0.1285
  H  H128  1  0.954900  0.141800  0.341600  1.0  0.0809
  H  H129  1  0.687900  0.076000  0.257200  1.0  0.0699
  H  H130  1  0.848600  0.976700  0.261900  1.0  0.074
  H  H131  1  0.226100  0.170400  0.751700  1.0  0.0762
  H  H132  1  0.801400  0.959200  0.162900  1.0  0.1255
  H  H133  1  0.423800  0.115600  0.837700  1.0  0.0618
  H  H134  1  0.173700  0.187800  0.654200  1.0  0.1265
  H  H135  1  0.325200  0.331500  0.666667  1.0  0.1259
  H  H136  1  0.366300  0.318100  0.764500  1.0  0.0724
  H  H137  1  0.553500  0.712100  0.387100  1.0  0.1145
  H  H138  1  0.819700  0.912900  0.543900  1.0  0.1236
  H  H139  1  0.924300  0.682400  0.983000  1.0  0.0781
  H  H140  1  0.023300  0.617100  0.034200  1.0  0.1277
  H  H141  1  0.200500  0.343500  0.850500  1.0  0.0837
  H  H142  1  0.296600  0.363900  0.048300  1.0  0.1276
  H  H143  1  0.714200  0.942400  0.347300  1.0  0.073
  H  H144  1  0.542200  0.669800  0.537400  1.0  0.1271
  H  H145  1  0.661800  0.868200  0.391500  1.0  0.1224
  H  H146  1  0.134600  0.562600  0.157800  1.0  0.1208
  H  H147  1  0.867200  0.981300  0.492900  1.0  0.0698
  H  H148  1  0.347300  0.294500  0.998700  1.0  0.0759
  H  H149  1  0.144600  0.413400  0.894200  1.0  0.1124
  H  H150  1  0.444900  0.605200  0.487100  1.0  0.0641
  H  H151  1  0.018900  0.543800  0.883400  1.0  0.1285
  H  H152  1  0.454900  0.641800  0.341600  1.0  0.0809
  H  H153  1  0.187900  0.576000  0.257200  1.0  0.0699
  H  H154  1  0.348600  0.476700  0.261900  1.0  0.074
  H  H155  1  0.726100  0.670400  0.751700  1.0  0.0762
  H  H156  1  0.301400  0.459200  0.162900  1.0  0.1255
  H  H157  1  0.923800  0.615600  0.837700  1.0  0.0618
  H  H158  1  0.673700  0.687800  0.654200  1.0  0.1265
  H  H159  1  0.825200  0.831500  0.666667  1.0  0.1259
  H  H160  1  0.866300  0.818100  0.764500  1.0  0.0724
  H  H161  1  0.946500  0.212100  0.112900  1.0  0.1142
  H  H162  1  0.680300  0.412900  0.956100  1.0  0.1243
  H  H163  1  0.575700  0.182400  0.517000  1.0  0.0793
  H  H164  1  0.476700  0.117100  0.465800  1.0  0.1288
  H  H165  1  0.299500  0.843500  0.649500  1.0  0.0828
  H  H166  1  0.203400  0.863900  0.451700  1.0  0.1275
  H  H167  1  0.785800  0.442400  0.152700  1.0  0.072
  H  H168  1  0.957800  0.169800  0.962600  1.0  0.1274
  H  H169  1  0.838200  0.368200  0.108500  1.0  0.1224
  H  H170  1  0.365400  0.062600  0.342200  1.0  0.1212
  H  H171  1  0.632800  0.481300  0.007100  1.0  0.0696
  H  H172  1  0.152700  0.794500  0.501300  1.0  0.0761
  H  H173  1  0.355400  0.913400  0.605800  1.0  0.113
  H  H174  1  0.055100  0.105200  0.012900  1.0  0.0635
  H  H175  1  0.481100  0.043800  0.616600  1.0  0.1285
  H  H176  1  0.045100  0.141800  0.158400  1.0  0.0813
  H  H177  1  0.312100  0.076000  0.242800  1.0  0.0703
  H  H178  1  0.151400  0.976700  0.238100  1.0  0.0727
  H  H179  1  0.773900  0.170400  0.748300  1.0  0.0759
  H  H180  1  0.198600  0.959200  0.337100  1.0  0.1261
  H  H181  1  0.576200  0.115600  0.662300  1.0  0.0624
  H  H182  1  0.826300  0.187800  0.845800  1.0  0.1261
  H  H183  1  0.674800  0.331500  0.833300  1.0  0.1253
  H  H184  1  0.633700  0.318100  0.735500  1.0  0.0723
  H  H185  1  0.446500  0.712100  0.112900  1.0  0.1142
  H  H186  1  0.180300  0.912900  0.956100  1.0  0.1243
  H  H187  1  0.075700  0.682400  0.517000  1.0  0.0794
  H  H188  1  0.976700  0.617100  0.465800  1.0  0.1288
  H  H189  1  0.799500  0.343500  0.649500  1.0  0.0828
  H  H190  1  0.703400  0.363900  0.451700  1.0  0.1275
  H  H191  1  0.285800  0.942400  0.152700  1.0  0.072
  H  H192  1  0.457800  0.669800  0.962600  1.0  0.1274
  H  H193  1  0.338200  0.868200  0.108500  1.0  0.1224
  H  H194  1  0.865400  0.562600  0.342200  1.0  0.1212
  H  H195  1  0.132800  0.981300  0.007100  1.0  0.0696
  H  H196  1  0.652700  0.294500  0.501300  1.0  0.0761
  H  H197  1  0.855400  0.413400  0.605800  1.0  0.113
  H  H198  1  0.555100  0.605200  0.012900  1.0  0.0635
  H  H199  1  0.981100  0.543800  0.616600  1.0  0.1285
  H  H200  1  0.545100  0.641800  0.158400  1.0  0.0813
  H  H201  1  0.812100  0.576000  0.242800  1.0  0.0703
  H  H202  1  0.651400  0.476700  0.238100  1.0  0.0727
  H  H203  1  0.273900  0.670400  0.748300  1.0  0.0759
  H  H204  1  0.698600  0.459200  0.337100  1.0  0.1261
  H  H205  1  0.076200  0.615600  0.662300  1.0  0.0624
  H  H206  1  0.326300  0.687800  0.845800  1.0  0.1261
  H  H207  1  0.174800  0.831500  0.833300  1.0  0.1253
  H  H208  1  0.133700  0.818100  0.735500  1.0  0.0723
  C  C209  1  0.402600  0.971600  0.001700  1.0  0.3536
  C  C210  1  0.967800  0.809200  0.591400  1.0  -0.1629
  C  C211  1  0.877100  0.755700  0.500500  1.0  0.3618
  C  C212  1  0.940400  0.799500  0.532700  1.0  -0.0241
  C  C213  1  0.702300  0.583400  0.496300  1.0  -0.1749
  C  C214  1  0.556000  0.845300  0.037300  1.0  0.1797
  C  C215  1  0.496700  0.884800  0.006100  1.0  -0.1618
  C  C216  1  0.319500  0.052300  0.995800  1.0  0.3424
  C  C217  1  0.467300  0.927500  0.035600  1.0  -0.0365
  C  C218  1  0.279900  0.152200  0.109400  1.0  0.1628
  C  C219  1  0.223700  0.139000  0.991900  1.0  -0.1679
  C  C220  1  0.790300  0.725300  0.414500  1.0  0.3543
  C  C221  1  0.757700  0.736600  0.351000  1.0  -0.0794
  C  C222  1  0.764500  0.564300  0.612800  1.0  0.1625
  C  C223  1  0.288100  0.991400  0.850000  1.0  -0.067
  C  C224  1  0.765000  0.621000  0.527700  1.0  0.0141
  C  C225  1  0.286300  0.101300  0.025000  1.0  -0.1037
  C  C226  1  0.974800  0.834000  0.502700  1.0  -0.1967
  C  C227  1  0.796200  0.609400  0.586600  1.0  -0.1659
  C  C228  1  0.321600  0.955600  0.821800  1.0  -0.1513
  C  C229  1  0.320200  0.001600  0.913900  1.0  0.3522
  C  C230  1  0.794900  0.671500  0.497000  1.0  0.3966
  C  C231  1  0.675200  0.541000  0.527400  1.0  0.1803
  C  C232  1  0.193900  0.180800  0.022400  1.0  0.1724
  C  C233  1  0.313800  0.109500  0.083300  1.0  -0.1293
  C  C234  1  0.032900  0.872700  0.533400  1.0  0.1788
  C  C235  1  0.498900  0.927600  0.095200  1.0  -0.1625
  C  C236  1  0.027500  0.851200  0.618500  1.0  0.1722
  C  C237  1  0.288700  0.947000  0.761900  1.0  0.1678
  C  C238  1  0.195100  0.005000  0.759400  1.0  0.1668
  C  C239  1  0.755500  0.794200  0.265600  1.0  0.17
  C  C240  1  0.222900  0.016900  0.819000  1.0  -0.2013
  C  C241  1  0.556400  0.885100  0.122100  1.0  0.179
  C  C242  1  0.786400  0.785500  0.324100  1.0  -0.1524
  C  C243  1  0.697500  0.699200  0.317000  1.0  -0.1857
  C  C244  1  0.672900  0.709200  0.258300  1.0  0.1878
  C  C245  1  0.902600  0.471600  0.001700  1.0  0.3536
  C  C246  1  0.467800  0.309200  0.591400  1.0  -0.1629
  C  C247  1  0.377100  0.255700  0.500500  1.0  0.3618
  C  C248  1  0.440400  0.299500  0.532700  1.0  -0.0241
  C  C249  1  0.202300  0.083400  0.496300  1.0  -0.1749
  C  C250  1  0.056000  0.345300  0.037300  1.0  0.1797
  C  C251  1  0.996700  0.384800  0.006100  1.0  -0.1618
  C  C252  1  0.819500  0.552300  0.995800  1.0  0.3424
  C  C253  1  0.967300  0.427500  0.035600  1.0  -0.0365
  C  C254  1  0.779900  0.652200  0.109400  1.0  0.1628
  C  C255  1  0.723700  0.639000  0.991900  1.0  -0.1679
  C  C256  1  0.290300  0.225300  0.414500  1.0  0.3543
  C  C257  1  0.257700  0.236600  0.351000  1.0  -0.0794
  C  C258  1  0.264500  0.064300  0.612800  1.0  0.1625
  C  C259  1  0.788100  0.491400  0.850000  1.0  -0.067
  C  C260  1  0.265000  0.121000  0.527700  1.0  0.0141
  C  C261  1  0.786300  0.601300  0.025000  1.0  -0.1037
  C  C262  1  0.474800  0.334000  0.502700  1.0  -0.1967
  C  C263  1  0.296200  0.109400  0.586600  1.0  -0.1659
  C  C264  1  0.821600  0.455600  0.821800  1.0  -0.1513
  C  C265  1  0.820200  0.501600  0.913900  1.0  0.3522
  C  C266  1  0.294900  0.171500  0.497000  1.0  0.3966
  C  C267  1  0.175200  0.041000  0.527400  1.0  0.1803
  C  C268  1  0.693900  0.680800  0.022400  1.0  0.1724
  C  C269  1  0.813800  0.609500  0.083300  1.0  -0.1293
  C  C270  1  0.532900  0.372700  0.533400  1.0  0.1788
  C  C271  1  0.998900  0.427600  0.095200  1.0  -0.1625
  C  C272  1  0.527500  0.351200  0.618500  1.0  0.1722
  C  C273  1  0.788700  0.447000  0.761900  1.0  0.1678
  C  C274  1  0.695100  0.505000  0.759400  1.0  0.1668
  C  C275  1  0.255500  0.294200  0.265600  1.0  0.17
  C  C276  1  0.722900  0.516900  0.819000  1.0  -0.2013
  C  C277  1  0.056400  0.385100  0.122100  1.0  0.179
  C  C278  1  0.286400  0.285500  0.324100  1.0  -0.1524
  C  C279  1  0.197500  0.199200  0.317000  1.0  -0.1857
  C  C280  1  0.172900  0.209200  0.258300  1.0  0.1878
  C  C281  1  0.597400  0.971600  0.498300  1.0  0.3542
  C  C282  1  0.032200  0.809200  0.908600  1.0  -0.1639
  C  C283  1  0.122900  0.755700  0.999500  1.0  0.3628
  C  C284  1  0.059600  0.799500  0.967300  1.0  -0.0244
  C  C285  1  0.297700  0.583400  0.003700  1.0  -0.1762
  C  C286  1  0.444000  0.845300  0.462700  1.0  0.1795
  C  C287  1  0.503300  0.884800  0.493900  1.0  -0.1607
  C  C288  1  0.680500  0.052300  0.504200  1.0  0.3415
  C  C289  1  0.532700  0.927500  0.464400  1.0  -0.035
  C  C290  1  0.720100  0.152200  0.390600  1.0  0.1634
  C  C291  1  0.776300  0.139000  0.508100  1.0  -0.1693
  C  C292  1  0.209700  0.725300  0.085500  1.0  0.3555
  C  C293  1  0.242300  0.736600  0.149000  1.0  -0.0798
  C  C294  1  0.235500  0.564300  0.887200  1.0  0.1633
  C  C295  1  0.711900  0.991400  0.650000  1.0  -0.0658
  C  C296  1  0.235000  0.621000  0.972300  1.0  0.0128
  C  C297  1  0.713700  0.101300  0.475000  1.0  -0.1033
  C  C298  1  0.025200  0.834000  0.997300  1.0  -0.1943
  C  C299  1  0.203800  0.609400  0.913400  1.0  -0.1652
  C  C300  1  0.678400  0.955600  0.678200  1.0  -0.1489
  C  C301  1  0.679800  0.001600  0.586100  1.0  0.3525
  C  C302  1  0.205100  0.671500  0.003000  1.0  0.3966
  C  C303  1  0.324800  0.541000  0.972600  1.0  0.1804
  C  C304  1  0.806100  0.180800  0.477600  1.0  0.1731
  C  C305  1  0.686200  0.109500  0.416700  1.0  -0.1298
  C  C306  1  0.967100  0.872700  0.966600  1.0  0.1777
  C  C307  1  0.501100  0.927600  0.404800  1.0  -0.1601
  C  C308  1  0.972500  0.851200  0.881500  1.0  0.1724
  C  C309  1  0.711300  0.947000  0.738100  1.0  0.1672
  C  C310  1  0.804900  0.005000  0.740600  1.0  0.1662
  C  C311  1  0.244500  0.794200  0.234400  1.0  0.1709
  C  C312  1  0.777100  0.016900  0.681000  1.0  -0.2027
  C  C313  1  0.443600  0.885100  0.377900  1.0  0.1807
  C  C314  1  0.213600  0.785500  0.175900  1.0  -0.1527
  C  C315  1  0.302500  0.699200  0.183000  1.0  -0.1767
  C  C316  1  0.327100  0.709200  0.241700  1.0  0.1885
  C  C317  1  0.097400  0.471600  0.498300  1.0  0.3542
  C  C318  1  0.532200  0.309200  0.908600  1.0  -0.1639
  C  C319  1  0.622900  0.255700  0.999500  1.0  0.3628
  C  C320  1  0.559600  0.299500  0.967300  1.0  -0.0244
  C  C321  1  0.797700  0.083400  0.003700  1.0  -0.1762
  C  C322  1  0.944000  0.345300  0.462700  1.0  0.1795
  C  C323  1  0.003300  0.384800  0.493900  1.0  -0.1607
  C  C324  1  0.180500  0.552300  0.504200  1.0  0.3415
  C  C325  1  0.032700  0.427500  0.464400  1.0  -0.035
  C  C326  1  0.220100  0.652200  0.390600  1.0  0.1634
  C  C327  1  0.276300  0.639000  0.508100  1.0  -0.1693
  C  C328  1  0.709700  0.225300  0.085500  1.0  0.3555
  C  C329  1  0.742300  0.236600  0.149000  1.0  -0.0798
  C  C330  1  0.735500  0.064300  0.887200  1.0  0.1633
  C  C331  1  0.211900  0.491400  0.650000  1.0  -0.0658
  C  C332  1  0.735000  0.121000  0.972300  1.0  0.0128
  C  C333  1  0.213700  0.601300  0.475000  1.0  -0.1033
  C  C334  1  0.525200  0.334000  0.997300  1.0  -0.1943
  C  C335  1  0.703800  0.109400  0.913400  1.0  -0.1652
  C  C336  1  0.178400  0.455600  0.678200  1.0  -0.1489
  C  C337  1  0.179800  0.501600  0.586100  1.0  0.3525
  C  C338  1  0.705100  0.171500  0.003000  1.0  0.3966
  C  C339  1  0.824800  0.041000  0.972600  1.0  0.1804
  C  C340  1  0.306100  0.680800  0.477600  1.0  0.1731
  C  C341  1  0.186200  0.609500  0.416700  1.0  -0.1298
  C  C342  1  0.467100  0.372700  0.966600  1.0  0.1777
  C  C343  1  0.001100  0.427600  0.404800  1.0  -0.1601
  C  C344  1  0.472500  0.351200  0.881500  1.0  0.1724
  C  C345  1  0.211300  0.447000  0.738100  1.0  0.1672
  C  C346  1  0.304900  0.505000  0.740600  1.0  0.1662
  C  C347  1  0.744500  0.294200  0.234400  1.0  0.1709
  C  C348  1  0.277100  0.516900  0.681000  1.0  -0.2027
  C  C349  1  0.943600  0.385100  0.377900  1.0  0.1807
  C  C350  1  0.713600  0.285500  0.175900  1.0  -0.1527
  C  C351  1  0.802500  0.199200  0.183000  1.0  -0.1767
  C  C352  1  0.827100  0.209200  0.241700  1.0  0.1885
  C  C353  1  0.597400  0.028400  0.998300  1.0  0.3543
  C  C354  1  0.032200  0.190800  0.408600  1.0  -0.1637
  C  C355  1  0.122900  0.244300  0.499500  1.0  0.3631
  C  C356  1  0.059600  0.200500  0.467300  1.0  -0.024
  C  C357  1  0.297700  0.416600  0.503700  1.0  -0.1762
  C  C358  1  0.444000  0.154700  0.962700  1.0  0.1791
  C  C359  1  0.503300  0.115200  0.993900  1.0  -0.161
  C  C360  1  0.680500  0.947700  0.004200  1.0  0.3414
  C  C361  1  0.532700  0.072500  0.964400  1.0  -0.0356
  C  C362  1  0.720100  0.847800  0.890600  1.0  0.163
  C  C363  1  0.776300  0.861000  0.008100  1.0  -0.1692
  C  C364  1  0.209700  0.274700  0.585500  1.0  0.3555
  C  C365  1  0.242300  0.263400  0.649000  1.0  -0.0795
  C  C366  1  0.235500  0.435700  0.387200  1.0  0.1633
  C  C367  1  0.711900  0.008600  0.150000  1.0  -0.0657
  C  C368  1  0.235000  0.379000  0.472300  1.0  0.0129
  C  C369  1  0.713700  0.898700  0.975000  1.0  -0.1039
  C  C370  1  0.025200  0.166000  0.497300  1.0  -0.1943
  C  C371  1  0.203800  0.390600  0.413400  1.0  -0.165
  C  C372  1  0.678400  0.044400  0.178200  1.0  -0.1492
  C  C373  1  0.679800  0.998400  0.086100  1.0  0.3525
  C  C374  1  0.205100  0.328500  0.503000  1.0  0.3967
  C  C375  1  0.324800  0.459000  0.472600  1.0  0.1798
  C  C376  1  0.806100  0.819200  0.977600  1.0  0.1733
  C  C377  1  0.686200  0.890500  0.916700  1.0  -0.1302
  C  C378  1  0.967100  0.127300  0.466600  1.0  0.179
  C  C379  1  0.501100  0.072400  0.904800  1.0  -0.1595
  C  C380  1  0.972500  0.148800  0.381500  1.0  0.1723
  C  C381  1  0.711300  0.053000  0.238100  1.0  0.1674
  C  C382  1  0.804900  0.995000  0.240600  1.0  0.1667
  C  C383  1  0.244500  0.205800  0.734400  1.0  0.1705
  C  C384  1  0.777100  0.983100  0.181000  1.0  -0.2027
  C  C385  1  0.443600  0.114900  0.877900  1.0  0.1809
  C  C386  1  0.213600  0.214500  0.675900  1.0  -0.1521
  C  C387  1  0.302500  0.300800  0.683000  1.0  -0.1873
  C  C388  1  0.327100  0.290800  0.741700  1.0  0.1891
  C  C389  1  0.097400  0.528400  0.998300  1.0  0.3543
  C  C390  1  0.532200  0.690800  0.408600  1.0  -0.1637
  C  C391  1  0.622900  0.744300  0.499500  1.0  0.3631
  C  C392  1  0.559600  0.700500  0.467300  1.0  -0.024
  C  C393  1  0.797700  0.916600  0.503700  1.0  -0.1762
  C  C394  1  0.944000  0.654700  0.962700  1.0  0.1791
  C  C395  1  0.003300  0.615200  0.993900  1.0  -0.161
  C  C396  1  0.180500  0.447700  0.004200  1.0  0.3414
  C  C397  1  0.032700  0.572500  0.964400  1.0  -0.0356
  C  C398  1  0.220100  0.347800  0.890600  1.0  0.163
  C  C399  1  0.276300  0.361000  0.008100  1.0  -0.1692
  C  C400  1  0.709700  0.774700  0.585500  1.0  0.3555
  C  C401  1  0.742300  0.763400  0.649000  1.0  -0.0795
  C  C402  1  0.735500  0.935700  0.387200  1.0  0.1633
  C  C403  1  0.211900  0.508600  0.150000  1.0  -0.0657
  C  C404  1  0.735000  0.879000  0.472300  1.0  0.0129
  C  C405  1  0.213700  0.398700  0.975000  1.0  -0.1039
  C  C406  1  0.525200  0.666000  0.497300  1.0  -0.1943
  C  C407  1  0.703800  0.890600  0.413400  1.0  -0.165
  C  C408  1  0.178400  0.544400  0.178200  1.0  -0.1492
  C  C409  1  0.179800  0.498400  0.086100  1.0  0.3525
  C  C410  1  0.705100  0.828500  0.503000  1.0  0.3967
  C  C411  1  0.824800  0.959000  0.472600  1.0  0.1798
  C  C412  1  0.306100  0.319200  0.977600  1.0  0.1733
  C  C413  1  0.186200  0.390500  0.916700  1.0  -0.1302
  C  C414  1  0.467100  0.627300  0.466600  1.0  0.179
  C  C415  1  0.001100  0.572400  0.904800  1.0  -0.1595
  C  C416  1  0.472500  0.648800  0.381500  1.0  0.1723
  C  C417  1  0.211300  0.553000  0.238100  1.0  0.1674
  C  C418  1  0.304900  0.495000  0.240600  1.0  0.1667
  C  C419  1  0.744500  0.705800  0.734400  1.0  0.1705
  C  C420  1  0.277100  0.483100  0.181000  1.0  -0.2027
  C  C421  1  0.943600  0.614900  0.877900  1.0  0.1809
  C  C422  1  0.713600  0.714500  0.675900  1.0  -0.1521
  C  C423  1  0.802500  0.800800  0.683000  1.0  -0.1873
  C  C424  1  0.827100  0.790800  0.741700  1.0  0.1891
  C  C425  1  0.402600  0.028400  0.501700  1.0  0.3536
  C  C426  1  0.967800  0.190800  0.091400  1.0  -0.1622
  C  C427  1  0.877100  0.244300  0.000500  1.0  0.3623
  C  C428  1  0.940400  0.200500  0.032700  1.0  -0.0244
  C  C429  1  0.702300  0.416600  0.996300  1.0  -0.1751
  C  C430  1  0.556000  0.154700  0.537300  1.0  0.1795
  C  C431  1  0.496700  0.115200  0.506100  1.0  -0.1621
  C  C432  1  0.319500  0.947700  0.495800  1.0  0.3422
  C  C433  1  0.467300  0.072500  0.535600  1.0  -0.0365
  C  C434  1  0.279900  0.847800  0.609400  1.0  0.1636
  C  C435  1  0.223700  0.861000  0.491900  1.0  -0.1675
  C  C436  1  0.790300  0.274700  0.914500  1.0  0.3544
  C  C437  1  0.757700  0.263400  0.851000  1.0  -0.0789
  C  C438  1  0.764500  0.435700  0.112800  1.0  0.1622
  C  C439  1  0.288100  0.008600  0.350000  1.0  -0.0664
  C  C440  1  0.765000  0.379000  0.027700  1.0  0.0143
  C  C441  1  0.286300  0.898700  0.525000  1.0  -0.1041
  C  C442  1  0.974800  0.166000  0.002700  1.0  -0.1961
  C  C443  1  0.796200  0.390600  0.086600  1.0  -0.1666
  C  C444  1  0.321600  0.044400  0.321800  1.0  -0.1515
  C  C445  1  0.320200  0.998400  0.413900  1.0  0.353
  C  C446  1  0.794900  0.328500  0.997000  1.0  0.3965
  C  C447  1  0.675200  0.459000  0.027400  1.0  0.1794
  C  C448  1  0.193900  0.819200  0.522400  1.0  0.1725
  C  C449  1  0.313800  0.890500  0.583300  1.0  -0.1292
  C  C450  1  0.032900  0.127300  0.033400  1.0  0.1781
  C  C451  1  0.498900  0.072400  0.595200  1.0  -0.1622
  C  C452  1  0.027500  0.148800  0.118500  1.0  0.1722
  C  C453  1  0.288700  0.053000  0.261900  1.0  0.1677
  C  C454  1  0.195100  0.995000  0.259400  1.0  0.1671
  C  C455  1  0.755500  0.205800  0.765600  1.0  0.1701
  C  C456  1  0.222900  0.983100  0.319000  1.0  -0.2012
  C  C457  1  0.556400  0.114900  0.622100  1.0  0.1791
  C  C458  1  0.786400  0.214500  0.824100  1.0  -0.1521
  C  C459  1  0.697500  0.300800  0.817000  1.0  -0.175
  C  C460  1  0.672900  0.290800  0.758300  1.0  0.1883
  C  C461  1  0.902600  0.528400  0.501700  1.0  0.3536
  C  C462  1  0.467800  0.690800  0.091400  1.0  -0.1622
  C  C463  1  0.377100  0.744300  0.000500  1.0  0.3623
  C  C464  1  0.440400  0.700500  0.032700  1.0  -0.0244
  C  C465  1  0.202300  0.916600  0.996300  1.0  -0.1751
  C  C466  1  0.056000  0.654700  0.537300  1.0  0.1795
  C  C467  1  0.996700  0.615200  0.506100  1.0  -0.1621
  C  C468  1  0.819500  0.447700  0.495800  1.0  0.3422
  C  C469  1  0.967300  0.572500  0.535600  1.0  -0.0365
  C  C470  1  0.779900  0.347800  0.609400  1.0  0.1636
  C  C471  1  0.723700  0.361000  0.491900  1.0  -0.1675
  C  C472  1  0.290300  0.774700  0.914500  1.0  0.3544
  C  C473  1  0.257700  0.763400  0.851000  1.0  -0.0789
  C  C474  1  0.264500  0.935700  0.112800  1.0  0.1622
  C  C475  1  0.788100  0.508600  0.350000  1.0  -0.0664
  C  C476  1  0.265000  0.879000  0.027700  1.0  0.0143
  C  C477  1  0.786300  0.398700  0.525000  1.0  -0.1041
  C  C478  1  0.474800  0.666000  0.002700  1.0  -0.1961
  C  C479  1  0.296200  0.890600  0.086600  1.0  -0.1666
  C  C480  1  0.821600  0.544400  0.321800  1.0  -0.1515
  C  C481  1  0.820200  0.498400  0.413900  1.0  0.353
  C  C482  1  0.294900  0.828500  0.997000  1.0  0.3965
  C  C483  1  0.175200  0.959000  0.027400  1.0  0.1794
  C  C484  1  0.693900  0.319200  0.522400  1.0  0.1725
  C  C485  1  0.813800  0.390500  0.583300  1.0  -0.1292
  C  C486  1  0.532900  0.627300  0.033400  1.0  0.1781
  C  C487  1  0.998900  0.572400  0.595200  1.0  -0.1622
  C  C488  1  0.527500  0.648800  0.118500  1.0  0.1722
  C  C489  1  0.788700  0.553000  0.261900  1.0  0.1677
  C  C490  1  0.695100  0.495000  0.259400  1.0  0.1671
  C  C491  1  0.255500  0.705800  0.765600  1.0  0.1701
  C  C492  1  0.722900  0.483100  0.319000  1.0  -0.2012
  C  C493  1  0.056400  0.614900  0.622100  1.0  0.1791
  C  C494  1  0.286400  0.714500  0.824100  1.0  -0.1521
  C  C495  1  0.197500  0.800800  0.817000  1.0  -0.175
  C  C496  1  0.172900  0.790800  0.758300  1.0  0.1883
  N  N497  1  0.704600  0.529700  0.583700  1.0  -0.3634
  N  N498  1  0.060800  0.881700  0.590300  1.0  -0.3018
  N  N499  1  0.699700  0.754100  0.231500  1.0  -0.3491
  N  N500  1  0.763000  0.677100  0.439700  1.0  -0.4682
  N  N501  1  0.852400  0.709900  0.529800  1.0  -0.5096
  N  N502  1  0.847900  0.765500  0.443200  1.0  -0.4892
  N  N503  1  0.586700  0.844100  0.094700  1.0  -0.3589
  N  N504  1  0.220700  0.187200  0.079500  1.0  -0.3114
  N  N505  1  0.225500  0.970000  0.730700  1.0  -0.3397
  N  N506  1  0.377400  0.962300  0.943700  1.0  -0.5022
  N  N507  1  0.375200  0.013000  0.029100  1.0  -0.4433
  N  N508  1  0.290000  0.049300  0.937800  1.0  -0.4971
  N  N509  1  0.204600  0.029700  0.583700  1.0  -0.3634
  N  N510  1  0.560800  0.381700  0.590300  1.0  -0.3018
  N  N511  1  0.199700  0.254100  0.231500  1.0  -0.3491
  N  N512  1  0.263000  0.177100  0.439700  1.0  -0.4682
  N  N513  1  0.352400  0.209900  0.529800  1.0  -0.5096
  N  N514  1  0.347900  0.265500  0.443200  1.0  -0.4892
  N  N515  1  0.086700  0.344100  0.094700  1.0  -0.3589
  N  N516  1  0.720700  0.687200  0.079500  1.0  -0.3114
  N  N517  1  0.725500  0.470000  0.730700  1.0  -0.3397
  N  N518  1  0.877400  0.462300  0.943700  1.0  -0.5022
  N  N519  1  0.875200  0.513000  0.029100  1.0  -0.4433
  N  N520  1  0.790000  0.549300  0.937800  1.0  -0.4971
  N  N521  1  0.295400  0.529700  0.916300  1.0  -0.3651
  N  N522  1  0.939200  0.881700  0.909700  1.0  -0.3001
  N  N523  1  0.300300  0.754100  0.268500  1.0  -0.3517
  N  N524  1  0.237000  0.677100  0.060300  1.0  -0.4659
  N  N525  1  0.147600  0.709900  0.970200  1.0  -0.5063
  N  N526  1  0.152100  0.765500  0.056800  1.0  -0.4894
  N  N527  1  0.413300  0.844100  0.405300  1.0  -0.3615
  N  N528  1  0.779300  0.187200  0.420500  1.0  -0.3096
  N  N529  1  0.774500  0.970000  0.769300  1.0  -0.3387
  N  N530  1  0.622600  0.962300  0.556300  1.0  -0.5026
  N  N531  1  0.624800  0.013000  0.470900  1.0  -0.4416
  N  N532  1  0.710000  0.049300  0.562200  1.0  -0.4974
  N  N533  1  0.795400  0.029700  0.916300  1.0  -0.3651
  N  N534  1  0.439200  0.381700  0.909700  1.0  -0.3001
  N  N535  1  0.800300  0.254100  0.268500  1.0  -0.3517
  N  N536  1  0.737000  0.177100  0.060300  1.0  -0.4659
  N  N537  1  0.647600  0.209900  0.970200  1.0  -0.5063
  N  N538  1  0.652100  0.265500  0.056800  1.0  -0.4894
  N  N539  1  0.913300  0.344100  0.405300  1.0  -0.3615
  N  N540  1  0.279300  0.687200  0.420500  1.0  -0.3096
  N  N541  1  0.274500  0.470000  0.769300  1.0  -0.3387
  N  N542  1  0.122600  0.462300  0.556300  1.0  -0.5026
  N  N543  1  0.124800  0.513000  0.470900  1.0  -0.4416
  N  N544  1  0.210000  0.549300  0.562200  1.0  -0.4974
  N  N545  1  0.295400  0.470300  0.416300  1.0  -0.3646
  N  N546  1  0.939200  0.118300  0.409700  1.0  -0.304
  N  N547  1  0.300300  0.245900  0.768500  1.0  -0.351
  N  N548  1  0.237000  0.322900  0.560300  1.0  -0.4676
  N  N549  1  0.147600  0.290100  0.470200  1.0  -0.506
  N  N550  1  0.152100  0.234500  0.556800  1.0  -0.4892
  N  N551  1  0.413300  0.155900  0.905300  1.0  -0.3606
  N  N552  1  0.779300  0.812800  0.920500  1.0  -0.3121
  N  N553  1  0.774500  0.030000  0.269300  1.0  -0.3394
  N  N554  1  0.622600  0.037700  0.056300  1.0  -0.5029
  N  N555  1  0.624800  0.987000  0.970900  1.0  -0.4422
  N  N556  1  0.710000  0.950700  0.062200  1.0  -0.4973
  N  N557  1  0.795400  0.970300  0.416300  1.0  -0.3646
  N  N558  1  0.439200  0.618300  0.409700  1.0  -0.304
  N  N559  1  0.800300  0.745900  0.768500  1.0  -0.351
  N  N560  1  0.737000  0.822900  0.560300  1.0  -0.4676
  N  N561  1  0.647600  0.790100  0.470200  1.0  -0.506
  N  N562  1  0.652100  0.734500  0.556800  1.0  -0.4892
  N  N563  1  0.913300  0.655900  0.905300  1.0  -0.3606
  N  N564  1  0.279300  0.312800  0.920500  1.0  -0.3121
  N  N565  1  0.274500  0.530000  0.269300  1.0  -0.3394
  N  N566  1  0.122600  0.537700  0.056300  1.0  -0.5029
  N  N567  1  0.124800  0.487000  0.970900  1.0  -0.4422
  N  N568  1  0.210000  0.450700  0.062200  1.0  -0.4973
  N  N569  1  0.704600  0.470300  0.083700  1.0  -0.3646
  N  N570  1  0.060800  0.118300  0.090300  1.0  -0.302
  N  N571  1  0.699700  0.245900  0.731500  1.0  -0.3497
  N  N572  1  0.763000  0.322900  0.939700  1.0  -0.468
  N  N573  1  0.852400  0.290100  0.029800  1.0  -0.5094
  N  N574  1  0.847900  0.234500  0.943200  1.0  -0.4893
  N  N575  1  0.586700  0.155900  0.594700  1.0  -0.3609
  N  N576  1  0.220700  0.812800  0.579500  1.0  -0.3122
  N  N577  1  0.225500  0.030000  0.230700  1.0  -0.3389
  N  N578  1  0.377400  0.037700  0.443700  1.0  -0.502
  N  N579  1  0.375200  0.987000  0.529100  1.0  -0.4429
  N  N580  1  0.290000  0.950700  0.437800  1.0  -0.4989
  N  N581  1  0.204600  0.970300  0.083700  1.0  -0.3646
  N  N582  1  0.560800  0.618300  0.090300  1.0  -0.302
  N  N583  1  0.199700  0.745900  0.731500  1.0  -0.3497
  N  N584  1  0.263000  0.822900  0.939700  1.0  -0.468
  N  N585  1  0.352400  0.790100  0.029800  1.0  -0.5094
  N  N586  1  0.347900  0.734500  0.943200  1.0  -0.4893
  N  N587  1  0.086700  0.655900  0.594700  1.0  -0.3609
  N  N588  1  0.720700  0.312800  0.579500  1.0  -0.3122
  N  N589  1  0.725500  0.530000  0.230700  1.0  -0.3389
  N  N590  1  0.877400  0.537700  0.443700  1.0  -0.502
  N  N591  1  0.875200  0.487000  0.529100  1.0  -0.4429
  N  N592  1  0.790000  0.450700  0.437800  1.0  -0.4989
