# generated using pymatgen
data_AgH12(C3N)6
_symmetry_space_group_name_H-M   'P 1'
_cell_length_a   21.94750000
_cell_length_b   16.67410000
_cell_length_c   25.52260000
_cell_angle_alpha   90.00000000
_cell_angle_beta   115.11900000
_cell_angle_gamma   90.00000000
_symmetry_Int_Tables_number   1
_chemical_formula_structural   AgH12(C3N)6
_chemical_formula_sum   'Ag16 H192 C288 N96'
_cell_volume   8456.80530763
_cell_formula_units_Z   16
loop_
 _symmetry_equiv_pos_site_id
 _symmetry_equiv_pos_as_xyz
  1  'x, y, z'
loop_
 _atom_site_type_symbol
 _atom_site_label
 _atom_site_symmetry_multiplicity
 _atom_site_fract_x
 _atom_site_fract_y
 _atom_site_fract_z
 _atom_site_occupancy
 _atom_site_charge
  Ag  Ag1  1  0.321700  0.743860  0.866430  1.0  0.2579
  Ag  Ag2  1  0.844250  0.543320  0.366890  1.0  0.3258
  Ag  Ag3  1  0.821700  0.243860  0.866430  1.0  0.2579
  Ag  Ag4  1  0.344250  0.043320  0.366890  1.0  0.3258
  Ag  Ag5  1  0.678300  0.743860  0.633570  1.0  0.257
  Ag  Ag6  1  0.155750  0.543320  0.133110  1.0  0.325
  Ag  Ag7  1  0.178300  0.243860  0.633570  1.0  0.257
  Ag  Ag8  1  0.655750  0.043320  0.133110  1.0  0.325
  Ag  Ag9  1  0.678300  0.256140  0.133570  1.0  0.2571
  Ag  Ag10  1  0.155750  0.456680  0.633110  1.0  0.3256
  Ag  Ag11  1  0.178300  0.756140  0.133570  1.0  0.2571
  Ag  Ag12  1  0.655750  0.956680  0.633110  1.0  0.3256
  Ag  Ag13  1  0.321700  0.256140  0.366430  1.0  0.258
  Ag  Ag14  1  0.844250  0.456680  0.866890  1.0  0.326
  Ag  Ag15  1  0.821700  0.756140  0.366430  1.0  0.258
  Ag  Ag16  1  0.344250  0.956680  0.866890  1.0  0.326
  H  H17  1  0.796900  0.364600  0.048300  1.0  0.1219
  H  H18  1  0.523300  0.616500  0.035000  1.0  0.1278
  H  H19  1  0.819500  0.412300  0.543900  1.0  0.1221
  H  H20  1  0.553500  0.212900  0.388000  1.0  0.1108
  H  H21  1  0.700400  0.342500  0.850400  1.0  0.0878
  H  H22  1  0.423800  0.683300  0.982900  1.0  0.0739
  H  H23  1  0.635000  0.561800  0.159000  1.0  0.1115
  H  H24  1  0.714800  0.441200  0.347300  1.0  0.0737
  H  H25  1  0.661700  0.368400  0.392000  1.0  0.1235
  H  H26  1  0.542800  0.169000  0.537900  1.0  0.1279
  H  H27  1  0.867400  0.481700  0.493800  1.0  0.0704
  H  H28  1  0.643400  0.411100  0.894400  1.0  0.1067
  H  H29  1  0.847600  0.294300  0.999100  1.0  0.076
  H  H30  1  0.850100  0.477200  0.261800  1.0  0.0759
  H  H31  1  0.444300  0.104500  0.487600  1.0  0.0731
  H  H32  1  0.455900  0.139800  0.342200  1.0  0.0801
  H  H33  1  0.688100  0.578500  0.257400  1.0  0.0843
  H  H34  1  0.726800  0.171000  0.753100  1.0  0.0706
  H  H35  1  0.519100  0.542500  0.884000  1.0  0.1201
  H  H36  1  0.424800  0.618800  0.837600  1.0  0.0723
  H  H37  1  0.824800  0.330800  0.666300  1.0  0.1226
  H  H38  1  0.675300  0.184400  0.654900  1.0  0.1219
  H  H39  1  0.802200  0.461400  0.163200  1.0  0.1238
  H  H40  1  0.866900  0.318200  0.765300  1.0  0.0767
  H  H41  1  0.296900  0.864600  0.048300  1.0  0.1219
  H  H42  1  0.023300  0.116500  0.035000  1.0  0.1278
  H  H43  1  0.319500  0.912300  0.543900  1.0  0.1221
  H  H44  1  0.053500  0.712900  0.388000  1.0  0.1108
  H  H45  1  0.200400  0.842500  0.850400  1.0  0.0878
  H  H46  1  0.923800  0.183300  0.982900  1.0  0.0739
  H  H47  1  0.135000  0.061800  0.159000  1.0  0.1115
  H  H48  1  0.214800  0.941200  0.347300  1.0  0.0737
  H  H49  1  0.161700  0.868400  0.392000  1.0  0.1235
  H  H50  1  0.042800  0.669000  0.537900  1.0  0.1279
  H  H51  1  0.367400  0.981700  0.493800  1.0  0.0704
  H  H52  1  0.143400  0.911100  0.894400  1.0  0.1067
  H  H53  1  0.347600  0.794300  0.999100  1.0  0.076
  H  H54  1  0.350100  0.977200  0.261800  1.0  0.0759
  H  H55  1  0.944300  0.604500  0.487600  1.0  0.0731
  H  H56  1  0.955900  0.639800  0.342200  1.0  0.0801
  H  H57  1  0.188100  0.078500  0.257400  1.0  0.0843
  H  H58  1  0.226800  0.671000  0.753100  1.0  0.0706
  H  H59  1  0.019100  0.042500  0.884000  1.0  0.1201
  H  H60  1  0.924800  0.118800  0.837600  1.0  0.0723
  H  H61  1  0.324800  0.830800  0.666300  1.0  0.1226
  H  H62  1  0.175300  0.684400  0.654900  1.0  0.1219
  H  H63  1  0.302200  0.961400  0.163200  1.0  0.1238
  H  H64  1  0.366900  0.818200  0.765300  1.0  0.0767
  H  H65  1  0.203100  0.364600  0.451700  1.0  0.1219
  H  H66  1  0.476700  0.616500  0.465000  1.0  0.1288
  H  H67  1  0.180500  0.412300  0.956100  1.0  0.1231
  H  H68  1  0.446500  0.212900  0.112000  1.0  0.1102
  H  H69  1  0.299600  0.342500  0.649600  1.0  0.0874
  H  H70  1  0.576200  0.683300  0.517100  1.0  0.075
  H  H71  1  0.365000  0.561800  0.341000  1.0  0.111
  H  H72  1  0.285200  0.441200  0.152700  1.0  0.0728
  H  H73  1  0.338300  0.368400  0.108000  1.0  0.1237
  H  H74  1  0.457200  0.169000  0.962100  1.0  0.1281
  H  H75  1  0.132600  0.481700  0.006200  1.0  0.0697
  H  H76  1  0.356600  0.411100  0.605600  1.0  0.1074
  H  H77  1  0.152400  0.294300  0.500900  1.0  0.0755
  H  H78  1  0.149900  0.477200  0.238200  1.0  0.0776
  H  H79  1  0.555700  0.104500  0.012400  1.0  0.0727
  H  H80  1  0.544100  0.139800  0.157800  1.0  0.0811
  H  H81  1  0.311900  0.578500  0.242600  1.0  0.084
  H  H82  1  0.273200  0.171000  0.746900  1.0  0.0695
  H  H83  1  0.480900  0.542500  0.616000  1.0  0.1204
  H  H84  1  0.575200  0.618800  0.662400  1.0  0.0731
  H  H85  1  0.175200  0.330800  0.833700  1.0  0.1222
  H  H86  1  0.324700  0.184400  0.845100  1.0  0.1215
  H  H87  1  0.197800  0.461400  0.336800  1.0  0.1246
  H  H88  1  0.133100  0.318200  0.734700  1.0  0.077
  H  H89  1  0.703100  0.864600  0.451700  1.0  0.1219
  H  H90  1  0.976700  0.116500  0.465000  1.0  0.1288
  H  H91  1  0.680500  0.912300  0.956100  1.0  0.1231
  H  H92  1  0.946500  0.712900  0.112000  1.0  0.1102
  H  H93  1  0.799600  0.842500  0.649600  1.0  0.0874
  H  H94  1  0.076200  0.183300  0.517100  1.0  0.075
  H  H95  1  0.865000  0.061800  0.341000  1.0  0.111
  H  H96  1  0.785200  0.941200  0.152700  1.0  0.0728
  H  H97  1  0.838300  0.868400  0.108000  1.0  0.1237
  H  H98  1  0.957200  0.669000  0.962100  1.0  0.1281
  H  H99  1  0.632600  0.981700  0.006200  1.0  0.0697
  H  H100  1  0.856600  0.911100  0.605600  1.0  0.1074
  H  H101  1  0.652400  0.794300  0.500900  1.0  0.0755
  H  H102  1  0.649900  0.977200  0.238200  1.0  0.0776
  H  H103  1  0.055700  0.604500  0.012400  1.0  0.0727
  H  H104  1  0.044100  0.639800  0.157800  1.0  0.0811
  H  H105  1  0.811900  0.078500  0.242600  1.0  0.084
  H  H106  1  0.773200  0.671000  0.746900  1.0  0.0695
  H  H107  1  0.980900  0.042500  0.616000  1.0  0.1204
  H  H108  1  0.075200  0.118800  0.662400  1.0  0.0731
  H  H109  1  0.675200  0.830800  0.833700  1.0  0.1222
  H  H110  1  0.824700  0.684400  0.845100  1.0  0.1215
  H  H111  1  0.697800  0.961400  0.336800  1.0  0.1246
  H  H112  1  0.633100  0.818200  0.734700  1.0  0.077
  H  H113  1  0.203100  0.635400  0.951700  1.0  0.122
  H  H114  1  0.476700  0.383500  0.965000  1.0  0.1286
  H  H115  1  0.180500  0.587700  0.456100  1.0  0.1228
  H  H116  1  0.446500  0.787100  0.612000  1.0  0.1105
  H  H117  1  0.299600  0.657500  0.149600  1.0  0.0876
  H  H118  1  0.576200  0.316700  0.017100  1.0  0.075
  H  H119  1  0.365000  0.438200  0.841000  1.0  0.1107
  H  H120  1  0.285200  0.558800  0.652700  1.0  0.0729
  H  H121  1  0.338300  0.631600  0.608000  1.0  0.1236
  H  H122  1  0.457200  0.831000  0.462100  1.0  0.1283
  H  H123  1  0.132600  0.518300  0.506200  1.0  0.0696
  H  H124  1  0.356600  0.588900  0.105600  1.0  0.1073
  H  H125  1  0.152400  0.705700  0.000900  1.0  0.0755
  H  H126  1  0.149900  0.522800  0.738200  1.0  0.0776
  H  H127  1  0.555700  0.895500  0.512400  1.0  0.0724
  H  H128  1  0.544100  0.860200  0.657800  1.0  0.0811
  H  H129  1  0.311900  0.421500  0.742600  1.0  0.0842
  H  H130  1  0.273200  0.829000  0.246900  1.0  0.0693
  H  H131  1  0.480900  0.457500  0.116000  1.0  0.1202
  H  H132  1  0.575200  0.381200  0.162400  1.0  0.073
  H  H133  1  0.175200  0.669200  0.333700  1.0  0.1224
  H  H134  1  0.324700  0.815600  0.345100  1.0  0.1214
  H  H135  1  0.197800  0.538600  0.836800  1.0  0.1244
  H  H136  1  0.133100  0.681800  0.234700  1.0  0.0763
  H  H137  1  0.703100  0.135400  0.951700  1.0  0.122
  H  H138  1  0.976700  0.883500  0.965000  1.0  0.1286
  H  H139  1  0.680500  0.087700  0.456100  1.0  0.1228
  H  H140  1  0.946500  0.287100  0.612000  1.0  0.1105
  H  H141  1  0.799600  0.157500  0.149600  1.0  0.0876
  H  H142  1  0.076200  0.816700  0.017100  1.0  0.075
  H  H143  1  0.865000  0.938200  0.841000  1.0  0.1107
  H  H144  1  0.785200  0.058800  0.652700  1.0  0.0729
  H  H145  1  0.838300  0.131600  0.608000  1.0  0.1236
  H  H146  1  0.957200  0.331000  0.462100  1.0  0.1283
  H  H147  1  0.632600  0.018300  0.506200  1.0  0.0696
  H  H148  1  0.856600  0.088900  0.105600  1.0  0.1073
  H  H149  1  0.652400  0.205700  0.000900  1.0  0.0755
  H  H150  1  0.649900  0.022800  0.738200  1.0  0.0776
  H  H151  1  0.055700  0.395500  0.512400  1.0  0.0724
  H  H152  1  0.044100  0.360200  0.657800  1.0  0.0811
  H  H153  1  0.811900  0.921500  0.742600  1.0  0.0842
  H  H154  1  0.773200  0.329000  0.246900  1.0  0.0693
  H  H155  1  0.980900  0.957500  0.116000  1.0  0.1202
  H  H156  1  0.075200  0.881200  0.162400  1.0  0.073
  H  H157  1  0.675200  0.169200  0.333700  1.0  0.1224
  H  H158  1  0.824700  0.315600  0.345100  1.0  0.1214
  H  H159  1  0.697800  0.038600  0.836800  1.0  0.1244
  H  H160  1  0.633100  0.181800  0.234700  1.0  0.0763
  H  H161  1  0.796900  0.635400  0.548300  1.0  0.1218
  H  H162  1  0.523300  0.383500  0.535000  1.0  0.1278
  H  H163  1  0.819500  0.587700  0.043900  1.0  0.1223
  H  H164  1  0.553500  0.787100  0.888000  1.0  0.1111
  H  H165  1  0.700400  0.657500  0.350400  1.0  0.088
  H  H166  1  0.423800  0.316700  0.482900  1.0  0.074
  H  H167  1  0.635000  0.438200  0.659000  1.0  0.1115
  H  H168  1  0.714800  0.558800  0.847300  1.0  0.0739
  H  H169  1  0.661700  0.631600  0.892000  1.0  0.1234
  H  H170  1  0.542800  0.831000  0.037900  1.0  0.1276
  H  H171  1  0.867400  0.518300  0.993800  1.0  0.0706
  H  H172  1  0.643400  0.588900  0.394400  1.0  0.1066
  H  H173  1  0.847600  0.705700  0.499100  1.0  0.076
  H  H174  1  0.850100  0.522800  0.761800  1.0  0.0763
  H  H175  1  0.444300  0.895500  0.987600  1.0  0.0727
  H  H176  1  0.455900  0.860200  0.842200  1.0  0.0803
  H  H177  1  0.688100  0.421500  0.757400  1.0  0.0847
  H  H178  1  0.726800  0.829000  0.253100  1.0  0.0703
  H  H179  1  0.519100  0.457500  0.384000  1.0  0.1204
  H  H180  1  0.424800  0.381200  0.337600  1.0  0.0722
  H  H181  1  0.824800  0.669200  0.166300  1.0  0.1222
  H  H182  1  0.675300  0.815600  0.154900  1.0  0.1218
  H  H183  1  0.802200  0.538600  0.663200  1.0  0.1238
  H  H184  1  0.866900  0.681800  0.265300  1.0  0.0758
  H  H185  1  0.296900  0.135400  0.548300  1.0  0.1218
  H  H186  1  0.023300  0.883500  0.535000  1.0  0.1278
  H  H187  1  0.319500  0.087700  0.043900  1.0  0.1223
  H  H188  1  0.053500  0.287100  0.888000  1.0  0.1111
  H  H189  1  0.200400  0.157500  0.350400  1.0  0.088
  H  H190  1  0.923800  0.816700  0.482900  1.0  0.074
  H  H191  1  0.135000  0.938200  0.659000  1.0  0.1115
  H  H192  1  0.214800  0.058800  0.847300  1.0  0.0739
  H  H193  1  0.161700  0.131600  0.892000  1.0  0.1234
  H  H194  1  0.042800  0.331000  0.037900  1.0  0.1276
  H  H195  1  0.367400  0.018300  0.993800  1.0  0.0706
  H  H196  1  0.143400  0.088900  0.394400  1.0  0.1066
  H  H197  1  0.347600  0.205700  0.499100  1.0  0.076
  H  H198  1  0.350100  0.022800  0.761800  1.0  0.0763
  H  H199  1  0.944300  0.395500  0.987600  1.0  0.0727
  H  H200  1  0.955900  0.360200  0.842200  1.0  0.0803
  H  H201  1  0.188100  0.921500  0.757400  1.0  0.0847
  H  H202  1  0.226800  0.329000  0.253100  1.0  0.0703
  H  H203  1  0.019100  0.957500  0.384000  1.0  0.1204
  H  H204  1  0.924800  0.881200  0.337600  1.0  0.0722
  H  H205  1  0.324800  0.169200  0.166300  1.0  0.1222
  H  H206  1  0.175300  0.315600  0.154900  1.0  0.1218
  H  H207  1  0.302200  0.038600  0.663200  1.0  0.1238
  H  H208  1  0.366900  0.181800  0.265300  1.0  0.0758
  C  C209  1  0.597500  0.528300  0.998900  1.0  0.3667
  C  C210  1  0.623400  0.244000  0.500400  1.0  0.3712
  C  C211  1  0.559700  0.198700  0.468000  1.0  -0.0176
  C  C212  1  0.776400  0.361500  0.008100  1.0  -0.1597
  C  C213  1  0.503600  0.615000  0.994800  1.0  -0.1547
  C  C214  1  0.797500  0.416400  0.503800  1.0  -0.1812
  C  C215  1  0.532500  0.190400  0.409400  1.0  -0.1173
  C  C216  1  0.681400  0.447800  0.005000  1.0  0.3735
  C  C217  1  0.719800  0.347100  0.890500  1.0  0.1609
  C  C218  1  0.443700  0.655100  0.962800  1.0  0.1726
  C  C219  1  0.679000  0.544000  0.179400  1.0  -0.1232
  C  C220  1  0.709600  0.274000  0.585800  1.0  0.3717
  C  C221  1  0.533000  0.572700  0.964900  1.0  -0.0785
  C  C222  1  0.742700  0.263700  0.649200  1.0  0.0029
  C  C223  1  0.735200  0.379100  0.473000  1.0  -0.0043
  C  C224  1  0.679900  0.498000  0.085700  1.0  0.3689
  C  C225  1  0.712000  0.507600  0.150400  1.0  -0.0979
  C  C226  1  0.735800  0.435100  0.387200  1.0  0.1673
  C  C227  1  0.703800  0.390500  0.413800  1.0  -0.1481
  C  C228  1  0.704600  0.327800  0.503100  1.0  0.3844
  C  C229  1  0.714600  0.399000  0.976100  1.0  -0.0158
  C  C230  1  0.525600  0.165000  0.497800  1.0  -0.1931
  C  C231  1  0.825200  0.459000  0.473400  1.0  0.1747
  C  C232  1  0.685600  0.389400  0.916700  1.0  -0.1388
  C  C233  1  0.806500  0.319200  0.977900  1.0  0.1732
  C  C234  1  0.806200  0.494900  0.240800  1.0  0.1679
  C  C235  1  0.466900  0.126500  0.467300  1.0  0.1708
  C  C236  1  0.473000  0.147900  0.382000  1.0  0.1626
  C  C237  1  0.711100  0.553900  0.238400  1.0  0.1631
  C  C238  1  0.745600  0.205800  0.735500  1.0  0.1783
  C  C239  1  0.501500  0.572200  0.905300  1.0  -0.16
  C  C240  1  0.443800  0.616300  0.877800  1.0  0.1714
  C  C241  1  0.802000  0.300200  0.682800  1.0  -0.1932
  C  C242  1  0.714500  0.212900  0.676500  1.0  -0.1916
  C  C243  1  0.777700  0.484000  0.181600  1.0  -0.184
  C  C244  1  0.827700  0.290500  0.742600  1.0  0.1904
  C  C245  1  0.097500  0.028300  0.998900  1.0  0.3667
  C  C246  1  0.123400  0.744000  0.500400  1.0  0.3712
  C  C247  1  0.059700  0.698700  0.468000  1.0  -0.0176
  C  C248  1  0.276400  0.861500  0.008100  1.0  -0.1597
  C  C249  1  0.003600  0.115000  0.994800  1.0  -0.1547
  C  C250  1  0.297500  0.916400  0.503800  1.0  -0.1812
  C  C251  1  0.032500  0.690400  0.409400  1.0  -0.1173
  C  C252  1  0.181400  0.947800  0.005000  1.0  0.3735
  C  C253  1  0.219800  0.847100  0.890500  1.0  0.1609
  C  C254  1  0.943700  0.155100  0.962800  1.0  0.1726
  C  C255  1  0.179000  0.044000  0.179400  1.0  -0.1232
  C  C256  1  0.209600  0.774000  0.585800  1.0  0.3717
  C  C257  1  0.033000  0.072700  0.964900  1.0  -0.0785
  C  C258  1  0.242700  0.763700  0.649200  1.0  0.0029
  C  C259  1  0.235200  0.879100  0.473000  1.0  -0.0043
  C  C260  1  0.179900  0.998000  0.085700  1.0  0.3689
  C  C261  1  0.212000  0.007600  0.150400  1.0  -0.0979
  C  C262  1  0.235800  0.935100  0.387200  1.0  0.1673
  C  C263  1  0.203800  0.890500  0.413800  1.0  -0.1481
  C  C264  1  0.204600  0.827800  0.503100  1.0  0.3844
  C  C265  1  0.214600  0.899000  0.976100  1.0  -0.0158
  C  C266  1  0.025600  0.665000  0.497800  1.0  -0.1931
  C  C267  1  0.325200  0.959000  0.473400  1.0  0.1747
  C  C268  1  0.185600  0.889400  0.916700  1.0  -0.1388
  C  C269  1  0.306500  0.819200  0.977900  1.0  0.1732
  C  C270  1  0.306200  0.994900  0.240800  1.0  0.1679
  C  C271  1  0.966900  0.626500  0.467300  1.0  0.1708
  C  C272  1  0.973000  0.647900  0.382000  1.0  0.1626
  C  C273  1  0.211100  0.053900  0.238400  1.0  0.1631
  C  C274  1  0.245600  0.705800  0.735500  1.0  0.1783
  C  C275  1  0.001500  0.072200  0.905300  1.0  -0.16
  C  C276  1  0.943800  0.116300  0.877800  1.0  0.1714
  C  C277  1  0.302000  0.800200  0.682800  1.0  -0.1932
  C  C278  1  0.214500  0.712900  0.676500  1.0  -0.1916
  C  C279  1  0.277700  0.984000  0.181600  1.0  -0.184
  C  C280  1  0.327700  0.790500  0.742600  1.0  0.1904
  C  C281  1  0.402500  0.528300  0.501100  1.0  0.367
  C  C282  1  0.376600  0.244000  0.999600  1.0  0.3712
  C  C283  1  0.440300  0.198700  0.032000  1.0  -0.0203
  C  C284  1  0.223600  0.361500  0.491900  1.0  -0.1584
  C  C285  1  0.496400  0.615000  0.505200  1.0  -0.1563
  C  C286  1  0.202500  0.416400  0.996200  1.0  -0.181
  C  C287  1  0.467500  0.190400  0.090600  1.0  -0.1189
  C  C288  1  0.318600  0.447800  0.495000  1.0  0.3738
  C  C289  1  0.280200  0.347100  0.609500  1.0  0.1606
  C  C290  1  0.556300  0.655100  0.537200  1.0  0.1737
  C  C291  1  0.321000  0.544000  0.320600  1.0  -0.1266
  C  C292  1  0.290400  0.274000  0.914200  1.0  0.3714
  C  C293  1  0.467000  0.572700  0.535100  1.0  -0.08
  C  C294  1  0.257300  0.263700  0.850800  1.0  0.0024
  C  C295  1  0.264800  0.379100  0.027000  1.0  -0.0038
  C  C296  1  0.320100  0.498000  0.414300  1.0  0.3693
  C  C297  1  0.288000  0.507600  0.349600  1.0  -0.0983
  C  C298  1  0.264200  0.435100  0.112800  1.0  0.1658
  C  C299  1  0.296200  0.390500  0.086200  1.0  -0.1486
  C  C300  1  0.295400  0.327800  0.996900  1.0  0.3847
  C  C301  1  0.285400  0.399000  0.523900  1.0  -0.0159
  C  C302  1  0.474400  0.165000  0.002200  1.0  -0.1937
  C  C303  1  0.174800  0.459000  0.026600  1.0  0.1741
  C  C304  1  0.314400  0.389400  0.583300  1.0  -0.1385
  C  C305  1  0.193500  0.319200  0.522100  1.0  0.173
  C  C306  1  0.193800  0.494900  0.259200  1.0  0.168
  C  C307  1  0.533100  0.126500  0.032700  1.0  0.1702
  C  C308  1  0.527000  0.147900  0.118000  1.0  0.1617
  C  C309  1  0.288900  0.553900  0.261600  1.0  0.1629
  C  C310  1  0.254400  0.205800  0.764500  1.0  0.1777
  C  C311  1  0.498500  0.572200  0.594700  1.0  -0.1622
  C  C312  1  0.556200  0.616300  0.622200  1.0  0.171
  C  C313  1  0.198000  0.300200  0.817200  1.0  -0.1904
  C  C314  1  0.285500  0.212900  0.823500  1.0  -0.1909
  C  C315  1  0.222300  0.484000  0.318400  1.0  -0.1822
  C  C316  1  0.172300  0.290500  0.757400  1.0  0.1895
  C  C317  1  0.902500  0.028300  0.501100  1.0  0.367
  C  C318  1  0.876600  0.744000  0.999600  1.0  0.3712
  C  C319  1  0.940300  0.698700  0.032000  1.0  -0.0203
  C  C320  1  0.723600  0.861500  0.491900  1.0  -0.1584
  C  C321  1  0.996400  0.115000  0.505200  1.0  -0.1563
  C  C322  1  0.702500  0.916400  0.996200  1.0  -0.181
  C  C323  1  0.967500  0.690400  0.090600  1.0  -0.1189
  C  C324  1  0.818600  0.947800  0.495000  1.0  0.3738
  C  C325  1  0.780200  0.847100  0.609500  1.0  0.1606
  C  C326  1  0.056300  0.155100  0.537200  1.0  0.1737
  C  C327  1  0.821000  0.044000  0.320600  1.0  -0.1266
  C  C328  1  0.790400  0.774000  0.914200  1.0  0.3714
  C  C329  1  0.967000  0.072700  0.535100  1.0  -0.08
  C  C330  1  0.757300  0.763700  0.850800  1.0  0.0024
  C  C331  1  0.764800  0.879100  0.027000  1.0  -0.0038
  C  C332  1  0.820100  0.998000  0.414300  1.0  0.3693
  C  C333  1  0.788000  0.007600  0.349600  1.0  -0.0983
  C  C334  1  0.764200  0.935100  0.112800  1.0  0.1658
  C  C335  1  0.796200  0.890500  0.086200  1.0  -0.1486
  C  C336  1  0.795400  0.827800  0.996900  1.0  0.3847
  C  C337  1  0.785400  0.899000  0.523900  1.0  -0.0159
  C  C338  1  0.974400  0.665000  0.002200  1.0  -0.1937
  C  C339  1  0.674800  0.959000  0.026600  1.0  0.1741
  C  C340  1  0.814400  0.889400  0.583300  1.0  -0.1385
  C  C341  1  0.693500  0.819200  0.522100  1.0  0.173
  C  C342  1  0.693800  0.994900  0.259200  1.0  0.168
  C  C343  1  0.033100  0.626500  0.032700  1.0  0.1702
  C  C344  1  0.027000  0.647900  0.118000  1.0  0.1617
  C  C345  1  0.788900  0.053900  0.261600  1.0  0.1629
  C  C346  1  0.754400  0.705800  0.764500  1.0  0.1777
  C  C347  1  0.998500  0.072200  0.594700  1.0  -0.1622
  C  C348  1  0.056200  0.116300  0.622200  1.0  0.171
  C  C349  1  0.698000  0.800200  0.817200  1.0  -0.1904
  C  C350  1  0.785500  0.712900  0.823500  1.0  -0.1909
  C  C351  1  0.722300  0.984000  0.318400  1.0  -0.1822
  C  C352  1  0.672300  0.790500  0.757400  1.0  0.1895
  C  C353  1  0.402500  0.471700  0.001100  1.0  0.3669
  C  C354  1  0.376600  0.756000  0.499600  1.0  0.371
  C  C355  1  0.440300  0.801300  0.532000  1.0  -0.0199
  C  C356  1  0.223600  0.638500  0.991900  1.0  -0.1587
  C  C357  1  0.496400  0.385000  0.005200  1.0  -0.1562
  C  C358  1  0.202500  0.583600  0.496200  1.0  -0.1808
  C  C359  1  0.467500  0.809600  0.590600  1.0  -0.1194
  C  C360  1  0.318600  0.552200  0.995000  1.0  0.3739
  C  C361  1  0.280200  0.652900  0.109500  1.0  0.1598
  C  C362  1  0.556300  0.344900  0.037200  1.0  0.1736
  C  C363  1  0.321000  0.456000  0.820600  1.0  -0.1264
  C  C364  1  0.290400  0.726000  0.414200  1.0  0.3714
  C  C365  1  0.467000  0.427300  0.035100  1.0  -0.0799
  C  C366  1  0.257300  0.736300  0.350800  1.0  0.0018
  C  C367  1  0.264800  0.620900  0.527000  1.0  -0.0038
  C  C368  1  0.320100  0.502000  0.914300  1.0  0.3691
  C  C369  1  0.288000  0.492400  0.849600  1.0  -0.0983
  C  C370  1  0.264200  0.564900  0.612800  1.0  0.1659
  C  C371  1  0.296200  0.609500  0.586200  1.0  -0.1482
  C  C372  1  0.295400  0.672200  0.496900  1.0  0.3849
  C  C373  1  0.285400  0.601000  0.023900  1.0  -0.0157
  C  C374  1  0.474400  0.835000  0.502200  1.0  -0.1942
  C  C375  1  0.174800  0.541000  0.526600  1.0  0.1748
  C  C376  1  0.314400  0.610600  0.083300  1.0  -0.1386
  C  C377  1  0.193500  0.680800  0.022100  1.0  0.1727
  C  C378  1  0.193800  0.505100  0.759200  1.0  0.1675
  C  C379  1  0.533100  0.873500  0.532700  1.0  0.1704
  C  C380  1  0.527000  0.852100  0.618000  1.0  0.1618
  C  C381  1  0.288900  0.446100  0.761600  1.0  0.1626
  C  C382  1  0.254400  0.794200  0.264500  1.0  0.1773
  C  C383  1  0.498500  0.427800  0.094700  1.0  -0.1616
  C  C384  1  0.556200  0.383700  0.122200  1.0  0.1707
  C  C385  1  0.198000  0.699800  0.317200  1.0  -0.1907
  C  C386  1  0.285500  0.787100  0.323500  1.0  -0.191
  C  C387  1  0.222300  0.516000  0.818400  1.0  -0.1832
  C  C388  1  0.172300  0.709500  0.257400  1.0  0.1889
  C  C389  1  0.902500  0.971700  0.001100  1.0  0.3669
  C  C390  1  0.876600  0.256000  0.499600  1.0  0.371
  C  C391  1  0.940300  0.301300  0.532000  1.0  -0.0199
  C  C392  1  0.723600  0.138500  0.991900  1.0  -0.1587
  C  C393  1  0.996400  0.885000  0.005200  1.0  -0.1562
  C  C394  1  0.702500  0.083600  0.496200  1.0  -0.1808
  C  C395  1  0.967500  0.309600  0.590600  1.0  -0.1194
  C  C396  1  0.818600  0.052200  0.995000  1.0  0.3739
  C  C397  1  0.780200  0.152900  0.109500  1.0  0.1598
  C  C398  1  0.056300  0.844900  0.037200  1.0  0.1736
  C  C399  1  0.821000  0.956000  0.820600  1.0  -0.1264
  C  C400  1  0.790400  0.226000  0.414200  1.0  0.3714
  C  C401  1  0.967000  0.927300  0.035100  1.0  -0.0799
  C  C402  1  0.757300  0.236300  0.350800  1.0  0.0018
  C  C403  1  0.764800  0.120900  0.527000  1.0  -0.0038
  C  C404  1  0.820100  0.002000  0.914300  1.0  0.3691
  C  C405  1  0.788000  0.992400  0.849600  1.0  -0.0983
  C  C406  1  0.764200  0.064900  0.612800  1.0  0.1659
  C  C407  1  0.796200  0.109500  0.586200  1.0  -0.1482
  C  C408  1  0.795400  0.172200  0.496900  1.0  0.3849
  C  C409  1  0.785400  0.101000  0.023900  1.0  -0.0157
  C  C410  1  0.974400  0.335000  0.502200  1.0  -0.1942
  C  C411  1  0.674800  0.041000  0.526600  1.0  0.1748
  C  C412  1  0.814400  0.110600  0.083300  1.0  -0.1386
  C  C413  1  0.693500  0.180800  0.022100  1.0  0.1727
  C  C414  1  0.693800  0.005100  0.759200  1.0  0.1675
  C  C415  1  0.033100  0.373500  0.532700  1.0  0.1704
  C  C416  1  0.027000  0.352100  0.618000  1.0  0.1618
  C  C417  1  0.788900  0.946100  0.761600  1.0  0.1626
  C  C418  1  0.754400  0.294200  0.264500  1.0  0.1773
  C  C419  1  0.998500  0.927800  0.094700  1.0  -0.1616
  C  C420  1  0.056200  0.883700  0.122200  1.0  0.1707
  C  C421  1  0.698000  0.199800  0.317200  1.0  -0.1907
  C  C422  1  0.785500  0.287100  0.323500  1.0  -0.191
  C  C423  1  0.722300  0.016000  0.818400  1.0  -0.1832
  C  C424  1  0.672300  0.209500  0.257400  1.0  0.1889
  C  C425  1  0.597500  0.471700  0.498900  1.0  0.3666
  C  C426  1  0.623400  0.756000  0.000400  1.0  0.371
  C  C427  1  0.559700  0.801300  0.968000  1.0  -0.0181
  C  C428  1  0.776400  0.638500  0.508100  1.0  -0.1596
  C  C429  1  0.503600  0.385000  0.494800  1.0  -0.1544
  C  C430  1  0.797500  0.583600  0.003800  1.0  -0.1817
  C  C431  1  0.532500  0.809600  0.909400  1.0  -0.117
  C  C432  1  0.681400  0.552200  0.505000  1.0  0.3736
  C  C433  1  0.719800  0.652900  0.390500  1.0  0.1614
  C  C434  1  0.443700  0.344900  0.462800  1.0  0.1729
  C  C435  1  0.679000  0.456000  0.679400  1.0  -0.123
  C  C436  1  0.709600  0.726000  0.085800  1.0  0.3716
  C  C437  1  0.533000  0.427300  0.464900  1.0  -0.0782
  C  C438  1  0.742700  0.736300  0.149200  1.0  0.0028
  C  C439  1  0.735200  0.620900  0.973000  1.0  -0.0047
  C  C440  1  0.679900  0.502000  0.585700  1.0  0.3686
  C  C441  1  0.712000  0.492400  0.650400  1.0  -0.0975
  C  C442  1  0.735800  0.564900  0.887200  1.0  0.1673
  C  C443  1  0.703800  0.609500  0.913800  1.0  -0.1475
  C  C444  1  0.704600  0.672200  0.003100  1.0  0.3846
  C  C445  1  0.714600  0.601000  0.476100  1.0  -0.0154
  C  C446  1  0.525600  0.835000  0.997800  1.0  -0.193
  C  C447  1  0.825200  0.541000  0.973400  1.0  0.1754
  C  C448  1  0.685600  0.610600  0.416700  1.0  -0.1385
  C  C449  1  0.806500  0.680800  0.477900  1.0  0.1729
  C  C450  1  0.806200  0.505100  0.740800  1.0  0.1673
  C  C451  1  0.466900  0.873500  0.967300  1.0  0.1692
  C  C452  1  0.473000  0.852100  0.882000  1.0  0.163
  C  C453  1  0.711100  0.446100  0.738400  1.0  0.1626
  C  C454  1  0.745600  0.794200  0.235500  1.0  0.1784
  C  C455  1  0.501500  0.427800  0.405300  1.0  -0.1599
  C  C456  1  0.443800  0.383700  0.377800  1.0  0.171
  C  C457  1  0.802000  0.699800  0.182800  1.0  -0.1936
  C  C458  1  0.714500  0.787100  0.176500  1.0  -0.1921
  C  C459  1  0.777700  0.516000  0.681600  1.0  -0.1843
  C  C460  1  0.827700  0.709500  0.242600  1.0  0.1896
  C  C461  1  0.097500  0.971700  0.498900  1.0  0.3666
  C  C462  1  0.123400  0.256000  0.000400  1.0  0.371
  C  C463  1  0.059700  0.301300  0.968000  1.0  -0.0181
  C  C464  1  0.276400  0.138500  0.508100  1.0  -0.1596
  C  C465  1  0.003600  0.885000  0.494800  1.0  -0.1544
  C  C466  1  0.297500  0.083600  0.003800  1.0  -0.1817
  C  C467  1  0.032500  0.309600  0.909400  1.0  -0.117
  C  C468  1  0.181400  0.052200  0.505000  1.0  0.3736
  C  C469  1  0.219800  0.152900  0.390500  1.0  0.1614
  C  C470  1  0.943700  0.844900  0.462800  1.0  0.1729
  C  C471  1  0.179000  0.956000  0.679400  1.0  -0.123
  C  C472  1  0.209600  0.226000  0.085800  1.0  0.3716
  C  C473  1  0.033000  0.927300  0.464900  1.0  -0.0782
  C  C474  1  0.242700  0.236300  0.149200  1.0  0.0028
  C  C475  1  0.235200  0.120900  0.973000  1.0  -0.0047
  C  C476  1  0.179900  0.002000  0.585700  1.0  0.3686
  C  C477  1  0.212000  0.992400  0.650400  1.0  -0.0975
  C  C478  1  0.235800  0.064900  0.887200  1.0  0.1673
  C  C479  1  0.203800  0.109500  0.913800  1.0  -0.1475
  C  C480  1  0.204600  0.172200  0.003100  1.0  0.3846
  C  C481  1  0.214600  0.101000  0.476100  1.0  -0.0154
  C  C482  1  0.025600  0.335000  0.997800  1.0  -0.193
  C  C483  1  0.325200  0.041000  0.973400  1.0  0.1754
  C  C484  1  0.185600  0.110600  0.416700  1.0  -0.1385
  C  C485  1  0.306500  0.180800  0.477900  1.0  0.1729
  C  C486  1  0.306200  0.005100  0.740800  1.0  0.1673
  C  C487  1  0.966900  0.373500  0.967300  1.0  0.1692
  C  C488  1  0.973000  0.352100  0.882000  1.0  0.163
  C  C489  1  0.211100  0.946100  0.738400  1.0  0.1626
  C  C490  1  0.245600  0.294200  0.235500  1.0  0.1784
  C  C491  1  0.001500  0.927800  0.405300  1.0  -0.1599
  C  C492  1  0.943800  0.883700  0.377800  1.0  0.171
  C  C493  1  0.302000  0.199800  0.182800  1.0  -0.1936
  C  C494  1  0.214500  0.287100  0.176500  1.0  -0.1921
  C  C495  1  0.277700  0.016000  0.681600  1.0  -0.1843
  C  C496  1  0.327700  0.209500  0.242600  1.0  0.1896
  N  N497  1  0.413200  0.655800  0.905500  1.0  -0.3603
  N  N498  1  0.779300  0.312900  0.920700  1.0  -0.3114
  N  N499  1  0.775300  0.529000  0.269900  1.0  -0.3658
  N  N500  1  0.622800  0.537200  0.057100  1.0  -0.5097
  N  N501  1  0.625200  0.486900  0.971100  1.0  -0.4419
  N  N502  1  0.710900  0.450200  0.062800  1.0  -0.5058
  N  N503  1  0.795500  0.469800  0.416600  1.0  -0.3624
  N  N504  1  0.439600  0.118200  0.410500  1.0  -0.3051
  N  N505  1  0.800800  0.245500  0.769200  1.0  -0.3459
  N  N506  1  0.737700  0.322900  0.561000  1.0  -0.532
  N  N507  1  0.647600  0.290000  0.470600  1.0  -0.4981
  N  N508  1  0.652500  0.233700  0.557500  1.0  -0.5328
  N  N509  1  0.913200  0.155800  0.905500  1.0  -0.3603
  N  N510  1  0.279300  0.812900  0.920700  1.0  -0.3114
  N  N511  1  0.275300  0.029000  0.269900  1.0  -0.3658
  N  N512  1  0.122800  0.037200  0.057100  1.0  -0.5097
  N  N513  1  0.125200  0.986900  0.971100  1.0  -0.4419
  N  N514  1  0.210900  0.950200  0.062800  1.0  -0.5058
  N  N515  1  0.295500  0.969800  0.416600  1.0  -0.3624
  N  N516  1  0.939600  0.618200  0.410500  1.0  -0.3051
  N  N517  1  0.300800  0.745500  0.769200  1.0  -0.3459
  N  N518  1  0.237700  0.822900  0.561000  1.0  -0.532
  N  N519  1  0.147600  0.790000  0.470600  1.0  -0.4981
  N  N520  1  0.152500  0.733700  0.557500  1.0  -0.5328
  N  N521  1  0.586800  0.655800  0.594500  1.0  -0.361
  N  N522  1  0.220700  0.312900  0.579300  1.0  -0.3098
  N  N523  1  0.224700  0.529000  0.230100  1.0  -0.3657
  N  N524  1  0.377200  0.537200  0.442900  1.0  -0.5077
  N  N525  1  0.374800  0.486900  0.528900  1.0  -0.4373
  N  N526  1  0.289100  0.450200  0.437200  1.0  -0.5073
  N  N527  1  0.204500  0.469800  0.083400  1.0  -0.3616
  N  N528  1  0.560400  0.118200  0.089500  1.0  -0.3016
  N  N529  1  0.199200  0.245500  0.730800  1.0  -0.3463
  N  N530  1  0.262300  0.322900  0.939000  1.0  -0.5329
  N  N531  1  0.352400  0.290000  0.029400  1.0  -0.5002
  N  N532  1  0.347500  0.233700  0.942500  1.0  -0.5315
  N  N533  1  0.086800  0.155800  0.594500  1.0  -0.361
  N  N534  1  0.720700  0.812900  0.579300  1.0  -0.3098
  N  N535  1  0.724700  0.029000  0.230100  1.0  -0.3657
  N  N536  1  0.877200  0.037200  0.442900  1.0  -0.5077
  N  N537  1  0.874800  0.986900  0.528900  1.0  -0.4373
  N  N538  1  0.789100  0.950200  0.437200  1.0  -0.5073
  N  N539  1  0.704500  0.969800  0.083400  1.0  -0.3616
  N  N540  1  0.060400  0.618200  0.089500  1.0  -0.3016
  N  N541  1  0.699200  0.745500  0.730800  1.0  -0.3463
  N  N542  1  0.762300  0.822900  0.939000  1.0  -0.5329
  N  N543  1  0.852400  0.790000  0.029400  1.0  -0.5002
  N  N544  1  0.847500  0.733700  0.942500  1.0  -0.5315
  N  N545  1  0.586800  0.344200  0.094500  1.0  -0.3592
  N  N546  1  0.220700  0.687100  0.079300  1.0  -0.3093
  N  N547  1  0.224700  0.471000  0.730100  1.0  -0.3663
  N  N548  1  0.377200  0.462800  0.942900  1.0  -0.5073
  N  N549  1  0.374800  0.513100  0.028900  1.0  -0.4377
  N  N550  1  0.289100  0.549800  0.937200  1.0  -0.5052
  N  N551  1  0.204500  0.530200  0.583400  1.0  -0.3607
  N  N552  1  0.560400  0.881800  0.589500  1.0  -0.3042
  N  N553  1  0.199200  0.754500  0.230800  1.0  -0.3458
  N  N554  1  0.262300  0.677100  0.439000  1.0  -0.534
  N  N555  1  0.352400  0.710000  0.529400  1.0  -0.5005
  N  N556  1  0.347500  0.766300  0.442500  1.0  -0.5305
  N  N557  1  0.086800  0.844200  0.094500  1.0  -0.3592
  N  N558  1  0.720700  0.187100  0.079300  1.0  -0.3093
  N  N559  1  0.724700  0.971000  0.730100  1.0  -0.3663
  N  N560  1  0.877200  0.962800  0.942900  1.0  -0.5073
  N  N561  1  0.874800  0.013100  0.028900  1.0  -0.4377
  N  N562  1  0.789100  0.049800  0.937200  1.0  -0.5052
  N  N563  1  0.704500  0.030200  0.583400  1.0  -0.3607
  N  N564  1  0.060400  0.381800  0.589500  1.0  -0.3042
  N  N565  1  0.699200  0.254500  0.230800  1.0  -0.3458
  N  N566  1  0.762300  0.177100  0.439000  1.0  -0.534
  N  N567  1  0.852400  0.210000  0.529400  1.0  -0.5005
  N  N568  1  0.847500  0.266300  0.442500  1.0  -0.5305
  N  N569  1  0.413200  0.344200  0.405500  1.0  -0.361
  N  N570  1  0.779300  0.687100  0.420700  1.0  -0.309
  N  N571  1  0.775300  0.471000  0.769900  1.0  -0.3655
  N  N572  1  0.622800  0.462800  0.557100  1.0  -0.509
  N  N573  1  0.625200  0.513100  0.471100  1.0  -0.4416
  N  N574  1  0.710900  0.549800  0.562800  1.0  -0.5057
  N  N575  1  0.795500  0.530200  0.916600  1.0  -0.3627
  N  N576  1  0.439600  0.881800  0.910500  1.0  -0.3029
  N  N577  1  0.800800  0.754500  0.269200  1.0  -0.3468
  N  N578  1  0.737700  0.677100  0.061000  1.0  -0.5319
  N  N579  1  0.647600  0.710000  0.970600  1.0  -0.4983
  N  N580  1  0.652500  0.766300  0.057500  1.0  -0.5334
  N  N581  1  0.913200  0.844200  0.405500  1.0  -0.361
  N  N582  1  0.279300  0.187100  0.420700  1.0  -0.309
  N  N583  1  0.275300  0.971000  0.769900  1.0  -0.3655
  N  N584  1  0.122800  0.962800  0.557100  1.0  -0.509
  N  N585  1  0.125200  0.013100  0.471100  1.0  -0.4416
  N  N586  1  0.210900  0.049800  0.562800  1.0  -0.5057
  N  N587  1  0.295500  0.030200  0.916600  1.0  -0.3627
  N  N588  1  0.939600  0.381800  0.910500  1.0  -0.3029
  N  N589  1  0.300800  0.254500  0.269200  1.0  -0.3468
  N  N590  1  0.237700  0.177100  0.061000  1.0  -0.5319
  N  N591  1  0.147600  0.210000  0.970600  1.0  -0.4983
  N  N592  1  0.152500  0.266300  0.057500  1.0  -0.5334
