# generated using pymatgen
data_AgH12(C3N)6
_symmetry_space_group_name_H-M   'P 1'
_cell_length_a   22.07650000
_cell_length_b   16.31580000
_cell_length_c   25.68000000
_cell_angle_alpha   90.00000000
_cell_angle_beta   115.41600000
_cell_angle_gamma   90.00000000
_symmetry_Int_Tables_number   1
_chemical_formula_structural   AgH12(C3N)6
_chemical_formula_sum   'Ag16 H192 C288 N96'
_cell_volume   8354.58697537
_cell_formula_units_Z   16
loop_
 _symmetry_equiv_pos_site_id
 _symmetry_equiv_pos_as_xyz
  1  'x, y, z'
loop_
 _atom_site_type_symbol
 _atom_site_label
 _atom_site_symmetry_multiplicity
 _atom_site_fract_x
 _atom_site_fract_y
 _atom_site_fract_z
 _atom_site_occupancy
 _atom_site_charge
  Ag  Ag1  1  0.822800  0.249590  0.867410  1.0  0.2995
  Ag  Ag2  1  0.343480  0.457250  0.367670  1.0  0.3267
  Ag  Ag3  1  0.322800  0.749590  0.867410  1.0  0.2995
  Ag  Ag4  1  0.843480  0.957250  0.367670  1.0  0.3267
  Ag  Ag5  1  0.177200  0.249590  0.632590  1.0  0.2996
  Ag  Ag6  1  0.656520  0.457250  0.132330  1.0  0.3272
  Ag  Ag7  1  0.677200  0.749590  0.632590  1.0  0.2996
  Ag  Ag8  1  0.156520  0.957250  0.132330  1.0  0.3272
  Ag  Ag9  1  0.177200  0.750410  0.132590  1.0  0.2994
  Ag  Ag10  1  0.656520  0.542750  0.632330  1.0  0.3273
  Ag  Ag11  1  0.677200  0.250410  0.132590  1.0  0.2994
  Ag  Ag12  1  0.156520  0.042750  0.632330  1.0  0.3273
  Ag  Ag13  1  0.822800  0.750410  0.367410  1.0  0.2994
  Ag  Ag14  1  0.343480  0.542750  0.867670  1.0  0.3268
  Ag  Ag15  1  0.322800  0.250410  0.367410  1.0  0.2994
  Ag  Ag16  1  0.843480  0.042750  0.867670  1.0  0.3268
  H  H17  1  0.021500  0.381800  0.036800  1.0  0.1292
  H  H18  1  0.054400  0.790500  0.390000  1.0  0.1274
  H  H19  1  0.298300  0.633800  0.049600  1.0  0.125
  H  H20  1  0.214000  0.560400  0.348800  1.0  0.0855
  H  H21  1  0.199300  0.655300  0.852500  1.0  0.084
  H  H22  1  0.922300  0.315200  0.985600  1.0  0.0757
  H  H23  1  0.043600  0.832000  0.540000  1.0  0.1271
  H  H24  1  0.943700  0.897900  0.489600  1.0  0.0788
  H  H25  1  0.349800  0.524300  0.263800  1.0  0.0797
  H  H26  1  0.133400  0.438600  0.161800  1.0  0.1215
  H  H27  1  0.020200  0.453200  0.886600  1.0  0.1289
  H  H28  1  0.367800  0.516400  0.494800  1.0  0.0738
  H  H29  1  0.365300  0.673400  0.767200  1.0  0.0777
  H  H30  1  0.349000  0.703400  0.000600  1.0  0.0837
  H  H31  1  0.320900  0.588600  0.545000  1.0  0.1229
  H  H32  1  0.956400  0.862500  0.344800  1.0  0.0825
  H  H33  1  0.923000  0.379800  0.839600  1.0  0.0834
  H  H34  1  0.301000  0.541200  0.165500  1.0  0.122
  H  H35  1  0.144000  0.585100  0.896400  1.0  0.1183
  H  H36  1  0.187300  0.424500  0.260000  1.0  0.0791
  H  H37  1  0.162900  0.635100  0.393800  1.0  0.1209
  H  H38  1  0.177300  0.818800  0.656700  1.0  0.1227
  H  H39  1  0.225500  0.828000  0.755300  1.0  0.0778
  H  H40  1  0.322700  0.662100  0.668900  1.0  0.1261
  H  H41  1  0.521500  0.881800  0.036800  1.0  0.1292
  H  H42  1  0.554400  0.290500  0.390000  1.0  0.1274
  H  H43  1  0.798300  0.133800  0.049600  1.0  0.125
  H  H44  1  0.714000  0.060400  0.348800  1.0  0.0855
  H  H45  1  0.699300  0.155300  0.852500  1.0  0.084
  H  H46  1  0.422300  0.815200  0.985600  1.0  0.0757
  H  H47  1  0.543600  0.332000  0.540000  1.0  0.1271
  H  H48  1  0.443700  0.397900  0.489600  1.0  0.0788
  H  H49  1  0.849800  0.024300  0.263800  1.0  0.0797
  H  H50  1  0.633400  0.938600  0.161800  1.0  0.1215
  H  H51  1  0.520200  0.953200  0.886600  1.0  0.1289
  H  H52  1  0.867800  0.016400  0.494800  1.0  0.0738
  H  H53  1  0.865300  0.173400  0.767200  1.0  0.0777
  H  H54  1  0.849000  0.203400  0.000600  1.0  0.0837
  H  H55  1  0.820900  0.088600  0.545000  1.0  0.1229
  H  H56  1  0.456400  0.362500  0.344800  1.0  0.0825
  H  H57  1  0.423000  0.879800  0.839600  1.0  0.0834
  H  H58  1  0.801000  0.041200  0.165500  1.0  0.122
  H  H59  1  0.644000  0.085100  0.896400  1.0  0.1183
  H  H60  1  0.687300  0.924500  0.260000  1.0  0.0791
  H  H61  1  0.662900  0.135100  0.393800  1.0  0.1209
  H  H62  1  0.677300  0.318800  0.656700  1.0  0.1227
  H  H63  1  0.725500  0.328000  0.755300  1.0  0.0778
  H  H64  1  0.822700  0.162100  0.668900  1.0  0.1261
  H  H65  1  0.978500  0.381800  0.463200  1.0  0.1296
  H  H66  1  0.945600  0.790500  0.110000  1.0  0.1273
  H  H67  1  0.701700  0.633800  0.450400  1.0  0.125
  H  H68  1  0.786000  0.560400  0.151200  1.0  0.084
  H  H69  1  0.800700  0.655300  0.647500  1.0  0.0831
  H  H70  1  0.077700  0.315200  0.514400  1.0  0.0764
  H  H71  1  0.956400  0.832000  0.960000  1.0  0.127
  H  H72  1  0.056300  0.897900  0.010400  1.0  0.0786
  H  H73  1  0.650200  0.524300  0.236200  1.0  0.0785
  H  H74  1  0.866600  0.438600  0.338200  1.0  0.1198
  H  H75  1  0.979800  0.453200  0.613400  1.0  0.1283
  H  H76  1  0.632200  0.516400  0.005200  1.0  0.0734
  H  H77  1  0.634700  0.673400  0.732800  1.0  0.0775
  H  H78  1  0.651000  0.703400  0.499400  1.0  0.0822
  H  H79  1  0.679100  0.588600  0.955000  1.0  0.1236
  H  H80  1  0.043600  0.862500  0.155200  1.0  0.0831
  H  H81  1  0.077000  0.379800  0.660400  1.0  0.0828
  H  H82  1  0.699000  0.541200  0.334500  1.0  0.1225
  H  H83  1  0.856000  0.585100  0.603600  1.0  0.1189
  H  H84  1  0.812700  0.424500  0.240000  1.0  0.0791
  H  H85  1  0.837100  0.635100  0.106200  1.0  0.12
  H  H86  1  0.822700  0.818800  0.843300  1.0  0.1226
  H  H87  1  0.774500  0.828000  0.744700  1.0  0.0765
  H  H88  1  0.677300  0.662100  0.831100  1.0  0.1266
  H  H89  1  0.478500  0.881800  0.463200  1.0  0.1296
  H  H90  1  0.445600  0.290500  0.110000  1.0  0.1273
  H  H91  1  0.201700  0.133800  0.450400  1.0  0.125
  H  H92  1  0.286000  0.060400  0.151200  1.0  0.084
  H  H93  1  0.300700  0.155300  0.647500  1.0  0.0831
  H  H94  1  0.577700  0.815200  0.514400  1.0  0.0764
  H  H95  1  0.456400  0.332000  0.960000  1.0  0.127
  H  H96  1  0.556300  0.397900  0.010400  1.0  0.0786
  H  H97  1  0.150200  0.024300  0.236200  1.0  0.0785
  H  H98  1  0.366600  0.938600  0.338200  1.0  0.1198
  H  H99  1  0.479800  0.953200  0.613400  1.0  0.1283
  H  H100  1  0.132200  0.016400  0.005200  1.0  0.0734
  H  H101  1  0.134700  0.173400  0.732800  1.0  0.0775
  H  H102  1  0.151000  0.203400  0.499400  1.0  0.0822
  H  H103  1  0.179100  0.088600  0.955000  1.0  0.1236
  H  H104  1  0.543600  0.362500  0.155200  1.0  0.0831
  H  H105  1  0.577000  0.879800  0.660400  1.0  0.0828
  H  H106  1  0.199000  0.041200  0.334500  1.0  0.1225
  H  H107  1  0.356000  0.085100  0.603600  1.0  0.1189
  H  H108  1  0.312700  0.924500  0.240000  1.0  0.0791
  H  H109  1  0.337100  0.135100  0.106200  1.0  0.12
  H  H110  1  0.322700  0.318800  0.843300  1.0  0.1226
  H  H111  1  0.274500  0.328000  0.744700  1.0  0.0765
  H  H112  1  0.177300  0.162100  0.831100  1.0  0.1266
  H  H113  1  0.978500  0.618200  0.963200  1.0  0.13
  H  H114  1  0.945600  0.209500  0.610000  1.0  0.127
  H  H115  1  0.701700  0.366200  0.950400  1.0  0.125
  H  H116  1  0.786000  0.439600  0.651200  1.0  0.0839
  H  H117  1  0.800700  0.344700  0.147500  1.0  0.0828
  H  H118  1  0.077700  0.684800  0.014400  1.0  0.0767
  H  H119  1  0.956400  0.168000  0.460000  1.0  0.1269
  H  H120  1  0.056300  0.102100  0.510400  1.0  0.0787
  H  H121  1  0.650200  0.475700  0.736200  1.0  0.0788
  H  H122  1  0.866600  0.561400  0.838200  1.0  0.1207
  H  H123  1  0.979800  0.546800  0.113400  1.0  0.1284
  H  H124  1  0.632200  0.483600  0.505200  1.0  0.0732
  H  H125  1  0.634700  0.326600  0.232800  1.0  0.0781
  H  H126  1  0.651000  0.296600  0.999400  1.0  0.0826
  H  H127  1  0.679100  0.411400  0.455000  1.0  0.1239
  H  H128  1  0.043600  0.137500  0.655200  1.0  0.083
  H  H129  1  0.077000  0.620200  0.160400  1.0  0.0827
  H  H130  1  0.699000  0.458800  0.834500  1.0  0.1228
  H  H131  1  0.856000  0.414900  0.103600  1.0  0.1192
  H  H132  1  0.812700  0.575500  0.740000  1.0  0.0791
  H  H133  1  0.837100  0.364900  0.606200  1.0  0.1201
  H  H134  1  0.822700  0.181200  0.343300  1.0  0.1223
  H  H135  1  0.774500  0.172000  0.244700  1.0  0.0768
  H  H136  1  0.677300  0.337900  0.331100  1.0  0.1268
  H  H137  1  0.478500  0.118200  0.963200  1.0  0.13
  H  H138  1  0.445600  0.709500  0.610000  1.0  0.127
  H  H139  1  0.201700  0.866200  0.950400  1.0  0.125
  H  H140  1  0.286000  0.939600  0.651200  1.0  0.0839
  H  H141  1  0.300700  0.844700  0.147500  1.0  0.0828
  H  H142  1  0.577700  0.184800  0.014400  1.0  0.0767
  H  H143  1  0.456400  0.668000  0.460000  1.0  0.1269
  H  H144  1  0.556300  0.602100  0.510400  1.0  0.0787
  H  H145  1  0.150200  0.975700  0.736200  1.0  0.0788
  H  H146  1  0.366600  0.061400  0.838200  1.0  0.1207
  H  H147  1  0.479800  0.046800  0.113400  1.0  0.1284
  H  H148  1  0.132200  0.983600  0.505200  1.0  0.0732
  H  H149  1  0.134700  0.826600  0.232800  1.0  0.0781
  H  H150  1  0.151000  0.796600  0.999400  1.0  0.0826
  H  H151  1  0.179100  0.911400  0.455000  1.0  0.1239
  H  H152  1  0.543600  0.637500  0.655200  1.0  0.083
  H  H153  1  0.577000  0.120200  0.160400  1.0  0.0827
  H  H154  1  0.199000  0.958800  0.834500  1.0  0.1228
  H  H155  1  0.356000  0.914900  0.103600  1.0  0.1192
  H  H156  1  0.312700  0.075500  0.740000  1.0  0.0791
  H  H157  1  0.337100  0.864900  0.606200  1.0  0.1201
  H  H158  1  0.322700  0.681200  0.343300  1.0  0.1223
  H  H159  1  0.274500  0.672000  0.244700  1.0  0.0768
  H  H160  1  0.177300  0.837900  0.331100  1.0  0.1268
  H  H161  1  0.021500  0.618200  0.536800  1.0  0.129
  H  H162  1  0.054400  0.209500  0.890000  1.0  0.1271
  H  H163  1  0.298300  0.366200  0.549600  1.0  0.1252
  H  H164  1  0.214000  0.439600  0.848800  1.0  0.0854
  H  H165  1  0.199300  0.344700  0.352500  1.0  0.0839
  H  H166  1  0.922300  0.684800  0.485600  1.0  0.0757
  H  H167  1  0.043600  0.168000  0.040000  1.0  0.1273
  H  H168  1  0.943700  0.102100  0.989600  1.0  0.0791
  H  H169  1  0.349800  0.475700  0.763800  1.0  0.0796
  H  H170  1  0.133400  0.561400  0.661800  1.0  0.1213
  H  H171  1  0.020200  0.546800  0.386600  1.0  0.1286
  H  H172  1  0.367800  0.483600  0.994800  1.0  0.0737
  H  H173  1  0.365300  0.326600  0.267200  1.0  0.0781
  H  H174  1  0.349000  0.296600  0.500600  1.0  0.0835
  H  H175  1  0.320900  0.411400  0.045000  1.0  0.1229
  H  H176  1  0.956400  0.137500  0.844800  1.0  0.0824
  H  H177  1  0.923000  0.620200  0.339600  1.0  0.0834
  H  H178  1  0.301000  0.458800  0.665500  1.0  0.1221
  H  H179  1  0.144000  0.414900  0.396400  1.0  0.1186
  H  H180  1  0.187300  0.575500  0.760000  1.0  0.0791
  H  H181  1  0.162900  0.364900  0.893800  1.0  0.1206
  H  H182  1  0.177300  0.181200  0.156700  1.0  0.1229
  H  H183  1  0.225500  0.172000  0.255300  1.0  0.0779
  H  H184  1  0.322700  0.337900  0.168900  1.0  0.1265
  H  H185  1  0.521500  0.118200  0.536800  1.0  0.129
  H  H186  1  0.554400  0.709500  0.890000  1.0  0.1271
  H  H187  1  0.798300  0.866200  0.549600  1.0  0.1252
  H  H188  1  0.714000  0.939600  0.848800  1.0  0.0854
  H  H189  1  0.699300  0.844700  0.352500  1.0  0.0839
  H  H190  1  0.422300  0.184800  0.485600  1.0  0.0757
  H  H191  1  0.543600  0.668000  0.040000  1.0  0.1273
  H  H192  1  0.443700  0.602100  0.989600  1.0  0.0791
  H  H193  1  0.849800  0.975700  0.763800  1.0  0.0796
  H  H194  1  0.633400  0.061400  0.661800  1.0  0.1213
  H  H195  1  0.520200  0.046800  0.386600  1.0  0.1286
  H  H196  1  0.867800  0.983600  0.994800  1.0  0.0737
  H  H197  1  0.865300  0.826600  0.267200  1.0  0.0781
  H  H198  1  0.849000  0.796600  0.500600  1.0  0.0835
  H  H199  1  0.820900  0.911400  0.045000  1.0  0.1229
  H  H200  1  0.456400  0.637500  0.844800  1.0  0.0824
  H  H201  1  0.423000  0.120200  0.339600  1.0  0.0834
  H  H202  1  0.801000  0.958800  0.665500  1.0  0.1221
  H  H203  1  0.644000  0.914900  0.396400  1.0  0.1186
  H  H204  1  0.687300  0.075500  0.760000  1.0  0.0791
  H  H205  1  0.662900  0.864900  0.893800  1.0  0.1206
  H  H206  1  0.677300  0.681200  0.156700  1.0  0.1229
  H  H207  1  0.725500  0.672000  0.255300  1.0  0.0779
  H  H208  1  0.822700  0.837900  0.168900  1.0  0.1265
  C  C209  1  0.002060  0.382700  0.996710  1.0  -0.1461
  C  C210  1  0.032900  0.812000  0.411190  1.0  -0.1614
  C  C211  1  0.123900  0.757500  0.502680  1.0  0.3802
  C  C212  1  0.059780  0.802100  0.470460  1.0  -0.0733
  C  C213  1  0.277500  0.636900  0.009550  1.0  -0.1429
  C  C214  1  0.235880  0.566700  0.388560  1.0  0.1699
  C  C215  1  0.219500  0.650500  0.892470  1.0  0.1698
  C  C216  1  0.942660  0.342400  0.965510  1.0  0.1698
  C  C217  1  0.097030  0.468600  0.001500  1.0  0.3828
  C  C218  1  0.026030  0.836200  0.500120  1.0  -0.15
  C  C219  1  0.209690  0.726300  0.587920  1.0  0.3753
  C  C220  1  0.966280  0.876100  0.469480  1.0  0.1717
  C  C221  1  0.032480  0.424700  0.967400  1.0  -0.0813
  C  C222  1  0.305800  0.506900  0.242890  1.0  0.1676
  C  C223  1  0.215220  0.599800  0.978130  1.0  -0.0283
  C  C224  1  0.177400  0.456700  0.181730  1.0  -0.1343
  C  C225  1  0.001620  0.424500  0.907490  1.0  -0.1486
  C  C226  1  0.326110  0.540600  0.474370  1.0  0.1764
  C  C227  1  0.242810  0.736100  0.651920  1.0  -0.0663
  C  C228  1  0.326600  0.702500  0.744690  1.0  0.1769
  C  C229  1  0.307600  0.678700  0.979630  1.0  0.1625
  C  C230  1  0.298480  0.584400  0.505120  1.0  -0.1654
  C  C231  1  0.973480  0.854500  0.384420  1.0  0.1716
  C  C232  1  0.179090  0.502100  0.088440  1.0  0.3781
  C  C233  1  0.206000  0.672700  0.505720  1.0  0.4024
  C  C234  1  0.942730  0.381000  0.879670  1.0  0.1825
  C  C235  1  0.276800  0.517700  0.183740  1.0  -0.1682
  C  C236  1  0.185850  0.608000  0.918530  1.0  -0.1535
  C  C237  1  0.181980  0.550400  0.007180  1.0  0.366
  C  C238  1  0.210200  0.448200  0.240740  1.0  0.1767
  C  C239  1  0.236360  0.622000  0.475020  1.0  -0.0787
  C  C240  1  0.210730  0.492800  0.152110  1.0  -0.0709
  C  C241  1  0.204710  0.611700  0.415340  1.0  -0.1562
  C  C242  1  0.215100  0.787800  0.678510  1.0  -0.1599
  C  C243  1  0.244400  0.792900  0.737840  1.0  0.1678
  C  C244  1  0.301200  0.694500  0.685640  1.0  -0.1668
  C  C245  1  0.502060  0.882700  0.996710  1.0  -0.1461
  C  C246  1  0.532900  0.312000  0.411190  1.0  -0.1614
  C  C247  1  0.623900  0.257500  0.502680  1.0  0.3802
  C  C248  1  0.559780  0.302100  0.470460  1.0  -0.0733
  C  C249  1  0.777500  0.136900  0.009550  1.0  -0.1429
  C  C250  1  0.735880  0.066700  0.388560  1.0  0.1699
  C  C251  1  0.719500  0.150500  0.892470  1.0  0.1698
  C  C252  1  0.442660  0.842400  0.965510  1.0  0.1698
  C  C253  1  0.597030  0.968600  0.001500  1.0  0.3828
  C  C254  1  0.526030  0.336200  0.500120  1.0  -0.15
  C  C255  1  0.709690  0.226300  0.587920  1.0  0.3753
  C  C256  1  0.466280  0.376100  0.469480  1.0  0.1717
  C  C257  1  0.532480  0.924700  0.967400  1.0  -0.0813
  C  C258  1  0.805800  0.006900  0.242890  1.0  0.1676
  C  C259  1  0.715220  0.099800  0.978130  1.0  -0.0283
  C  C260  1  0.677400  0.956700  0.181730  1.0  -0.1343
  C  C261  1  0.501620  0.924500  0.907490  1.0  -0.1486
  C  C262  1  0.826110  0.040600  0.474370  1.0  0.1764
  C  C263  1  0.742810  0.236100  0.651920  1.0  -0.0663
  C  C264  1  0.826600  0.202500  0.744690  1.0  0.1769
  C  C265  1  0.807600  0.178700  0.979630  1.0  0.1625
  C  C266  1  0.798480  0.084400  0.505120  1.0  -0.1654
  C  C267  1  0.473480  0.354500  0.384420  1.0  0.1716
  C  C268  1  0.679090  0.002100  0.088440  1.0  0.3781
  C  C269  1  0.706000  0.172700  0.505720  1.0  0.4024
  C  C270  1  0.442730  0.881000  0.879670  1.0  0.1825
  C  C271  1  0.776800  0.017700  0.183740  1.0  -0.1682
  C  C272  1  0.685850  0.108000  0.918530  1.0  -0.1535
  C  C273  1  0.681980  0.050400  0.007180  1.0  0.366
  C  C274  1  0.710200  0.948200  0.240740  1.0  0.1767
  C  C275  1  0.736360  0.122000  0.475020  1.0  -0.0787
  C  C276  1  0.710730  0.992800  0.152110  1.0  -0.0709
  C  C277  1  0.704710  0.111700  0.415340  1.0  -0.1562
  C  C278  1  0.715100  0.287800  0.678510  1.0  -0.1599
  C  C279  1  0.744400  0.292900  0.737840  1.0  0.1678
  C  C280  1  0.801200  0.194500  0.685640  1.0  -0.1668
  C  C281  1  0.997940  0.382700  0.503290  1.0  -0.1457
  C  C282  1  0.967100  0.812000  0.088810  1.0  -0.1641
  C  C283  1  0.876100  0.757500  0.997320  1.0  0.3803
  C  C284  1  0.940220  0.802100  0.029540  1.0  -0.0721
  C  C285  1  0.722500  0.636900  0.490450  1.0  -0.1423
  C  C286  1  0.764120  0.566700  0.111440  1.0  0.1683
  C  C287  1  0.780500  0.650500  0.607530  1.0  0.1698
  C  C288  1  0.057340  0.342400  0.534490  1.0  0.17
  C  C289  1  0.902970  0.468600  0.498500  1.0  0.3817
  C  C290  1  0.973970  0.836200  0.999880  1.0  -0.1497
  C  C291  1  0.790310  0.726300  0.912080  1.0  0.375
  C  C292  1  0.033720  0.876100  0.030520  1.0  0.1722
  C  C293  1  0.967520  0.424700  0.532600  1.0  -0.0826
  C  C294  1  0.694200  0.506900  0.257110  1.0  0.1679
  C  C295  1  0.784780  0.599800  0.521870  1.0  -0.0271
  C  C296  1  0.822600  0.456700  0.318270  1.0  -0.1362
  C  C297  1  0.998380  0.424500  0.592510  1.0  -0.1527
  C  C298  1  0.673890  0.540600  0.025630  1.0  0.1766
  C  C299  1  0.757190  0.736100  0.848080  1.0  -0.0651
  C  C300  1  0.673400  0.702500  0.755310  1.0  0.1767
  C  C301  1  0.692400  0.678700  0.520370  1.0  0.1622
  C  C302  1  0.701520  0.584400  0.994880  1.0  -0.164
  C  C303  1  0.026520  0.854500  0.115580  1.0  0.171
  C  C304  1  0.820910  0.502100  0.411560  1.0  0.377
  C  C305  1  0.794000  0.672700  0.994280  1.0  0.4022
  C  C306  1  0.057270  0.381000  0.620330  1.0  0.1826
  C  C307  1  0.723200  0.517700  0.316260  1.0  -0.169
  C  C308  1  0.814150  0.608000  0.581470  1.0  -0.1543
  C  C309  1  0.818020  0.550400  0.492820  1.0  0.3667
  C  C310  1  0.789800  0.448200  0.259260  1.0  0.1784
  C  C311  1  0.763640  0.622000  0.024980  1.0  -0.0778
  C  C312  1  0.789270  0.492800  0.347890  1.0  -0.0711
  C  C313  1  0.795290  0.611700  0.084660  1.0  -0.1567
  C  C314  1  0.784900  0.787800  0.821490  1.0  -0.1609
  C  C315  1  0.755600  0.792900  0.762160  1.0  0.1672
  C  C316  1  0.698800  0.694500  0.814360  1.0  -0.1659
  C  C317  1  0.497940  0.882700  0.503290  1.0  -0.1457
  C  C318  1  0.467100  0.312000  0.088810  1.0  -0.1641
  C  C319  1  0.376100  0.257500  0.997320  1.0  0.3803
  C  C320  1  0.440220  0.302100  0.029540  1.0  -0.0721
  C  C321  1  0.222500  0.136900  0.490450  1.0  -0.1423
  C  C322  1  0.264120  0.066700  0.111440  1.0  0.1683
  C  C323  1  0.280500  0.150500  0.607530  1.0  0.1698
  C  C324  1  0.557340  0.842400  0.534490  1.0  0.17
  C  C325  1  0.402970  0.968600  0.498500  1.0  0.3817
  C  C326  1  0.473970  0.336200  0.999880  1.0  -0.1497
  C  C327  1  0.290310  0.226300  0.912080  1.0  0.375
  C  C328  1  0.533720  0.376100  0.030520  1.0  0.1722
  C  C329  1  0.467520  0.924700  0.532600  1.0  -0.0826
  C  C330  1  0.194200  0.006900  0.257110  1.0  0.1679
  C  C331  1  0.284780  0.099800  0.521870  1.0  -0.0271
  C  C332  1  0.322600  0.956700  0.318270  1.0  -0.1362
  C  C333  1  0.498380  0.924500  0.592510  1.0  -0.1527
  C  C334  1  0.173890  0.040600  0.025630  1.0  0.1766
  C  C335  1  0.257190  0.236100  0.848080  1.0  -0.0651
  C  C336  1  0.173400  0.202500  0.755310  1.0  0.1767
  C  C337  1  0.192400  0.178700  0.520370  1.0  0.1622
  C  C338  1  0.201520  0.084400  0.994880  1.0  -0.164
  C  C339  1  0.526520  0.354500  0.115580  1.0  0.171
  C  C340  1  0.320910  0.002100  0.411560  1.0  0.377
  C  C341  1  0.294000  0.172700  0.994280  1.0  0.4022
  C  C342  1  0.557270  0.881000  0.620330  1.0  0.1826
  C  C343  1  0.223200  0.017700  0.316260  1.0  -0.169
  C  C344  1  0.314150  0.108000  0.581470  1.0  -0.1543
  C  C345  1  0.318020  0.050400  0.492820  1.0  0.3667
  C  C346  1  0.289800  0.948200  0.259260  1.0  0.1784
  C  C347  1  0.263640  0.122000  0.024980  1.0  -0.0778
  C  C348  1  0.289270  0.992800  0.347890  1.0  -0.0711
  C  C349  1  0.295290  0.111700  0.084660  1.0  -0.1567
  C  C350  1  0.284900  0.287800  0.821490  1.0  -0.1609
  C  C351  1  0.255600  0.292900  0.762160  1.0  0.1672
  C  C352  1  0.198800  0.194500  0.814360  1.0  -0.1659
  C  C353  1  0.997940  0.617300  0.003290  1.0  -0.1464
  C  C354  1  0.967100  0.188000  0.588810  1.0  -0.1633
  C  C355  1  0.876100  0.242500  0.497320  1.0  0.3804
  C  C356  1  0.940220  0.197900  0.529540  1.0  -0.0733
  C  C357  1  0.722500  0.363100  0.990450  1.0  -0.142
  C  C358  1  0.764120  0.433300  0.611440  1.0  0.1679
  C  C359  1  0.780500  0.349500  0.107530  1.0  0.1705
  C  C360  1  0.057340  0.657600  0.034490  1.0  0.1694
  C  C361  1  0.902970  0.531400  0.998500  1.0  0.3817
  C  C362  1  0.973970  0.163800  0.499880  1.0  -0.15
  C  C363  1  0.790310  0.273700  0.412080  1.0  0.3754
  C  C364  1  0.033720  0.123900  0.530520  1.0  0.172
  C  C365  1  0.967520  0.575300  0.032600  1.0  -0.0831
  C  C366  1  0.694200  0.493100  0.757110  1.0  0.1679
  C  C367  1  0.784780  0.400200  0.021870  1.0  -0.0278
  C  C368  1  0.822600  0.543300  0.818270  1.0  -0.1361
  C  C369  1  0.998380  0.575500  0.092510  1.0  -0.1532
  C  C370  1  0.673890  0.459400  0.525630  1.0  0.1761
  C  C371  1  0.757190  0.263900  0.348080  1.0  -0.0652
  C  C372  1  0.673400  0.297500  0.255310  1.0  0.1774
  C  C373  1  0.692400  0.321300  0.020370  1.0  0.1625
  C  C374  1  0.701520  0.415600  0.494880  1.0  -0.1643
  C  C375  1  0.026520  0.145500  0.615580  1.0  0.1712
  C  C376  1  0.820910  0.497900  0.911560  1.0  0.3768
  C  C377  1  0.794000  0.327300  0.494280  1.0  0.4021
  C  C378  1  0.057270  0.619000  0.120330  1.0  0.1827
  C  C379  1  0.723200  0.482300  0.816260  1.0  -0.168
  C  C380  1  0.814150  0.392000  0.081470  1.0  -0.1542
  C  C381  1  0.818020  0.449600  0.992820  1.0  0.3665
  C  C382  1  0.789800  0.551800  0.759260  1.0  0.1784
  C  C383  1  0.763640  0.378000  0.524980  1.0  -0.0782
  C  C384  1  0.789270  0.507200  0.847890  1.0  -0.0708
  C  C385  1  0.795290  0.388300  0.584660  1.0  -0.1566
  C  C386  1  0.784900  0.212200  0.321490  1.0  -0.1611
  C  C387  1  0.755600  0.207100  0.262160  1.0  0.1673
  C  C388  1  0.698800  0.305500  0.314360  1.0  -0.1657
  C  C389  1  0.497940  0.117300  0.003290  1.0  -0.1464
  C  C390  1  0.467100  0.688000  0.588810  1.0  -0.1633
  C  C391  1  0.376100  0.742500  0.497320  1.0  0.3804
  C  C392  1  0.440220  0.697900  0.529540  1.0  -0.0733
  C  C393  1  0.222500  0.863100  0.990450  1.0  -0.142
  C  C394  1  0.264120  0.933300  0.611440  1.0  0.1679
  C  C395  1  0.280500  0.849500  0.107530  1.0  0.1705
  C  C396  1  0.557340  0.157600  0.034490  1.0  0.1694
  C  C397  1  0.402970  0.031400  0.998500  1.0  0.3817
  C  C398  1  0.473970  0.663800  0.499880  1.0  -0.15
  C  C399  1  0.290310  0.773700  0.412080  1.0  0.3754
  C  C400  1  0.533720  0.623900  0.530520  1.0  0.172
  C  C401  1  0.467520  0.075300  0.032600  1.0  -0.0831
  C  C402  1  0.194200  0.993100  0.757110  1.0  0.1679
  C  C403  1  0.284780  0.900200  0.021870  1.0  -0.0278
  C  C404  1  0.322600  0.043300  0.818270  1.0  -0.1361
  C  C405  1  0.498380  0.075500  0.092510  1.0  -0.1532
  C  C406  1  0.173890  0.959400  0.525630  1.0  0.1761
  C  C407  1  0.257190  0.763900  0.348080  1.0  -0.0652
  C  C408  1  0.173400  0.797500  0.255310  1.0  0.1774
  C  C409  1  0.192400  0.821300  0.020370  1.0  0.1625
  C  C410  1  0.201520  0.915600  0.494880  1.0  -0.1643
  C  C411  1  0.526520  0.645500  0.615580  1.0  0.1712
  C  C412  1  0.320910  0.997900  0.911560  1.0  0.3768
  C  C413  1  0.294000  0.827300  0.494280  1.0  0.4021
  C  C414  1  0.557270  0.119000  0.120330  1.0  0.1827
  C  C415  1  0.223200  0.982300  0.816260  1.0  -0.168
  C  C416  1  0.314150  0.892000  0.081470  1.0  -0.1542
  C  C417  1  0.318020  0.949600  0.992820  1.0  0.3665
  C  C418  1  0.289800  0.051800  0.759260  1.0  0.1784
  C  C419  1  0.263640  0.878000  0.524980  1.0  -0.0782
  C  C420  1  0.289270  0.007200  0.847890  1.0  -0.0708
  C  C421  1  0.295290  0.888300  0.584660  1.0  -0.1566
  C  C422  1  0.284900  0.712200  0.321490  1.0  -0.1611
  C  C423  1  0.255600  0.707100  0.262160  1.0  0.1673
  C  C424  1  0.198800  0.805500  0.314360  1.0  -0.1657
  C  C425  1  0.002060  0.617300  0.496710  1.0  -0.1465
  C  C426  1  0.032900  0.188000  0.911190  1.0  -0.161
  C  C427  1  0.123900  0.242500  0.002680  1.0  0.3804
  C  C428  1  0.059780  0.197900  0.970460  1.0  -0.0734
  C  C429  1  0.277500  0.363100  0.509550  1.0  -0.1435
  C  C430  1  0.235880  0.433300  0.888560  1.0  0.1697
  C  C431  1  0.219500  0.349500  0.392470  1.0  0.1701
  C  C432  1  0.942660  0.657600  0.465510  1.0  0.1689
  C  C433  1  0.097030  0.531400  0.501500  1.0  0.3829
  C  C434  1  0.026030  0.163800  0.000120  1.0  -0.1507
  C  C435  1  0.209690  0.273700  0.087920  1.0  0.3756
  C  C436  1  0.966280  0.123900  0.969480  1.0  0.1734
  C  C437  1  0.032480  0.575300  0.467400  1.0  -0.0822
  C  C438  1  0.305800  0.493100  0.742890  1.0  0.1677
  C  C439  1  0.215220  0.400200  0.478130  1.0  -0.0285
  C  C440  1  0.177400  0.543300  0.681730  1.0  -0.1342
  C  C441  1  0.001620  0.575500  0.407490  1.0  -0.1489
  C  C442  1  0.326110  0.459400  0.974370  1.0  0.1762
  C  C443  1  0.242810  0.263900  0.151920  1.0  -0.0658
  C  C444  1  0.326600  0.297500  0.244690  1.0  0.1776
  C  C445  1  0.307600  0.321300  0.479630  1.0  0.1629
  C  C446  1  0.298480  0.415600  0.005120  1.0  -0.1651
  C  C447  1  0.973480  0.145500  0.884420  1.0  0.1713
  C  C448  1  0.179090  0.497900  0.588440  1.0  0.3778
  C  C449  1  0.206000  0.327300  0.005720  1.0  0.4023
  C  C450  1  0.942730  0.619000  0.379670  1.0  0.183
  C  C451  1  0.276800  0.482300  0.683740  1.0  -0.1678
  C  C452  1  0.185850  0.392000  0.418530  1.0  -0.1533
  C  C453  1  0.181980  0.449600  0.507180  1.0  0.3658
  C  C454  1  0.210200  0.551800  0.740740  1.0  0.1772
  C  C455  1  0.236360  0.378000  0.975020  1.0  -0.0789
  C  C456  1  0.210730  0.507200  0.652110  1.0  -0.0707
  C  C457  1  0.204710  0.388300  0.915340  1.0  -0.1561
  C  C458  1  0.215100  0.212200  0.178510  1.0  -0.1601
  C  C459  1  0.244400  0.207100  0.237840  1.0  0.1676
  C  C460  1  0.301200  0.305500  0.185640  1.0  -0.1667
  C  C461  1  0.502060  0.117300  0.496710  1.0  -0.1465
  C  C462  1  0.532900  0.688000  0.911190  1.0  -0.161
  C  C463  1  0.623900  0.742500  0.002680  1.0  0.3804
  C  C464  1  0.559780  0.697900  0.970460  1.0  -0.0734
  C  C465  1  0.777500  0.863100  0.509550  1.0  -0.1435
  C  C466  1  0.735880  0.933300  0.888560  1.0  0.1697
  C  C467  1  0.719500  0.849500  0.392470  1.0  0.1701
  C  C468  1  0.442660  0.157600  0.465510  1.0  0.1689
  C  C469  1  0.597030  0.031400  0.501500  1.0  0.3829
  C  C470  1  0.526030  0.663800  0.000120  1.0  -0.1507
  C  C471  1  0.709690  0.773700  0.087920  1.0  0.3756
  C  C472  1  0.466280  0.623900  0.969480  1.0  0.1734
  C  C473  1  0.532480  0.075300  0.467400  1.0  -0.0822
  C  C474  1  0.805800  0.993100  0.742890  1.0  0.1677
  C  C475  1  0.715220  0.900200  0.478130  1.0  -0.0285
  C  C476  1  0.677400  0.043300  0.681730  1.0  -0.1342
  C  C477  1  0.501620  0.075500  0.407490  1.0  -0.1489
  C  C478  1  0.826110  0.959400  0.974370  1.0  0.1762
  C  C479  1  0.742810  0.763900  0.151920  1.0  -0.0658
  C  C480  1  0.826600  0.797500  0.244690  1.0  0.1776
  C  C481  1  0.807600  0.821300  0.479630  1.0  0.1629
  C  C482  1  0.798480  0.915600  0.005120  1.0  -0.1651
  C  C483  1  0.473480  0.645500  0.884420  1.0  0.1713
  C  C484  1  0.679090  0.997900  0.588440  1.0  0.3778
  C  C485  1  0.706000  0.827300  0.005720  1.0  0.4023
  C  C486  1  0.442730  0.119000  0.379670  1.0  0.183
  C  C487  1  0.776800  0.982300  0.683740  1.0  -0.1678
  C  C488  1  0.685850  0.892000  0.418530  1.0  -0.1533
  C  C489  1  0.681980  0.949600  0.507180  1.0  0.3658
  C  C490  1  0.710200  0.051800  0.740740  1.0  0.1772
  C  C491  1  0.736360  0.878000  0.975020  1.0  -0.0789
  C  C492  1  0.710730  0.007200  0.652110  1.0  -0.0707
  C  C493  1  0.704710  0.888300  0.915340  1.0  -0.1561
  C  C494  1  0.715100  0.712200  0.178510  1.0  -0.1601
  C  C495  1  0.744400  0.707100  0.237840  1.0  0.1676
  C  C496  1  0.801200  0.805500  0.185640  1.0  -0.1667
  N  N497  1  0.912340  0.340100  0.907460  1.0  -0.3585
  N  N498  1  0.274100  0.472600  0.271800  1.0  -0.3541
  N  N499  1  0.279630  0.685230  0.921600  1.0  -0.3311
  N  N500  1  0.125830  0.509400  0.973380  1.0  -0.5061
  N  N501  1  0.121310  0.462000  0.058970  1.0  -0.5216
  N  N502  1  0.210460  0.548800  0.064880  1.0  -0.4931
  N  N503  1  0.296320  0.531100  0.416910  1.0  -0.3615
  N  N504  1  0.938860  0.885100  0.411840  1.0  -0.3316
  N  N505  1  0.299040  0.749400  0.771710  1.0  -0.348
  N  N506  1  0.148060  0.710500  0.472920  1.0  -0.5398
  N  N507  1  0.153140  0.768300  0.559840  1.0  -0.4894
  N  N508  1  0.238480  0.677300  0.563330  1.0  -0.5302
  N  N509  1  0.412340  0.840100  0.907460  1.0  -0.3585
  N  N510  1  0.774100  0.972600  0.271800  1.0  -0.3541
  N  N511  1  0.779630  0.185230  0.921600  1.0  -0.3311
  N  N512  1  0.625830  0.009400  0.973380  1.0  -0.5061
  N  N513  1  0.621310  0.962000  0.058970  1.0  -0.5216
  N  N514  1  0.710460  0.048800  0.064880  1.0  -0.4931
  N  N515  1  0.796320  0.031100  0.416910  1.0  -0.3615
  N  N516  1  0.438860  0.385100  0.411840  1.0  -0.3316
  N  N517  1  0.799040  0.249400  0.771710  1.0  -0.348
  N  N518  1  0.648060  0.210500  0.472920  1.0  -0.5398
  N  N519  1  0.653140  0.268300  0.559840  1.0  -0.4894
  N  N520  1  0.738480  0.177300  0.563330  1.0  -0.5302
  N  N521  1  0.087660  0.340100  0.592540  1.0  -0.3554
  N  N522  1  0.725900  0.472600  0.228200  1.0  -0.3552
  N  N523  1  0.720370  0.685230  0.578400  1.0  -0.3317
  N  N524  1  0.874170  0.509400  0.526620  1.0  -0.506
  N  N525  1  0.878690  0.462000  0.441030  1.0  -0.5211
  N  N526  1  0.789540  0.548800  0.435120  1.0  -0.4932
  N  N527  1  0.703680  0.531100  0.083090  1.0  -0.3621
  N  N528  1  0.061140  0.885100  0.088160  1.0  -0.3334
  N  N529  1  0.700960  0.749400  0.728290  1.0  -0.351
  N  N530  1  0.851940  0.710500  0.027080  1.0  -0.5409
  N  N531  1  0.846860  0.768300  0.940160  1.0  -0.4878
  N  N532  1  0.761520  0.677300  0.936670  1.0  -0.5321
  N  N533  1  0.587660  0.840100  0.592540  1.0  -0.3554
  N  N534  1  0.225900  0.972600  0.228200  1.0  -0.3552
  N  N535  1  0.220370  0.185230  0.578400  1.0  -0.3317
  N  N536  1  0.374170  0.009400  0.526620  1.0  -0.506
  N  N537  1  0.378690  0.962000  0.441030  1.0  -0.5211
  N  N538  1  0.289540  0.048800  0.435120  1.0  -0.4932
  N  N539  1  0.203680  0.031100  0.083090  1.0  -0.3621
  N  N540  1  0.561140  0.385100  0.088160  1.0  -0.3334
  N  N541  1  0.200960  0.249400  0.728290  1.0  -0.351
  N  N542  1  0.351940  0.210500  0.027080  1.0  -0.5409
  N  N543  1  0.346860  0.268300  0.940160  1.0  -0.4878
  N  N544  1  0.261520  0.177300  0.936670  1.0  -0.5321
  N  N545  1  0.087660  0.659900  0.092540  1.0  -0.3564
  N  N546  1  0.725900  0.527400  0.728200  1.0  -0.3543
  N  N547  1  0.720370  0.314770  0.078400  1.0  -0.3318
  N  N548  1  0.874170  0.490600  0.026620  1.0  -0.5045
  N  N549  1  0.878690  0.538000  0.941030  1.0  -0.5207
  N  N550  1  0.789540  0.451200  0.935120  1.0  -0.4943
  N  N551  1  0.703680  0.468900  0.583090  1.0  -0.3636
  N  N552  1  0.061140  0.114900  0.588160  1.0  -0.3343
  N  N553  1  0.700960  0.250600  0.228290  1.0  -0.3515
  N  N554  1  0.851940  0.289500  0.527080  1.0  -0.5408
  N  N555  1  0.846860  0.231700  0.440160  1.0  -0.4884
  N  N556  1  0.761520  0.322700  0.436670  1.0  -0.5313
  N  N557  1  0.587660  0.159900  0.092540  1.0  -0.3564
  N  N558  1  0.225900  0.027400  0.728200  1.0  -0.3543
  N  N559  1  0.220370  0.814770  0.078400  1.0  -0.3318
  N  N560  1  0.374170  0.990600  0.026620  1.0  -0.5045
  N  N561  1  0.378690  0.038000  0.941030  1.0  -0.5207
  N  N562  1  0.289540  0.951200  0.935120  1.0  -0.4943
  N  N563  1  0.203680  0.968900  0.583090  1.0  -0.3636
  N  N564  1  0.561140  0.614900  0.588160  1.0  -0.3343
  N  N565  1  0.200960  0.750600  0.228290  1.0  -0.3515
  N  N566  1  0.351940  0.789500  0.527080  1.0  -0.5408
  N  N567  1  0.346860  0.731700  0.440160  1.0  -0.4884
  N  N568  1  0.261520  0.822700  0.436670  1.0  -0.5313
  N  N569  1  0.912340  0.659900  0.407460  1.0  -0.3573
  N  N570  1  0.274100  0.527400  0.771800  1.0  -0.3545
  N  N571  1  0.279630  0.314770  0.421600  1.0  -0.3332
  N  N572  1  0.125830  0.490600  0.473380  1.0  -0.506
  N  N573  1  0.121310  0.538000  0.558970  1.0  -0.5225
  N  N574  1  0.210460  0.451200  0.564880  1.0  -0.493
  N  N575  1  0.296320  0.468900  0.916910  1.0  -0.3604
  N  N576  1  0.938860  0.114900  0.911840  1.0  -0.3365
  N  N577  1  0.299040  0.250600  0.271710  1.0  -0.3479
  N  N578  1  0.148060  0.289500  0.972920  1.0  -0.5395
  N  N579  1  0.153140  0.231700  0.059840  1.0  -0.489
  N  N580  1  0.238480  0.322700  0.063330  1.0  -0.5307
  N  N581  1  0.412340  0.159900  0.407460  1.0  -0.3573
  N  N582  1  0.774100  0.027400  0.771800  1.0  -0.3545
  N  N583  1  0.779630  0.814770  0.421600  1.0  -0.3332
  N  N584  1  0.625830  0.990600  0.473380  1.0  -0.506
  N  N585  1  0.621310  0.038000  0.558970  1.0  -0.5225
  N  N586  1  0.710460  0.951200  0.564880  1.0  -0.493
  N  N587  1  0.796320  0.968900  0.916910  1.0  -0.3604
  N  N588  1  0.438860  0.614900  0.911840  1.0  -0.3365
  N  N589  1  0.799040  0.750600  0.271710  1.0  -0.3479
  N  N590  1  0.648060  0.789500  0.972920  1.0  -0.5395
  N  N591  1  0.653140  0.731700  0.059840  1.0  -0.489
  N  N592  1  0.738480  0.822700  0.063330  1.0  -0.5307
