# generated using pymatgen
data_AgH12(C3N)6
_symmetry_space_group_name_H-M   'P 1'
_cell_length_a   22.05320000
_cell_length_b   16.38280000
_cell_length_c   25.68090000
_cell_angle_alpha   90.00000000
_cell_angle_beta   115.39100000
_cell_angle_gamma   90.00000000
_symmetry_Int_Tables_number   1
_chemical_formula_structural   AgH12(C3N)6
_chemical_formula_sum   'Ag16 H192 C288 N96'
_cell_volume   8382.07127862
_cell_formula_units_Z   16
loop_
 _symmetry_equiv_pos_site_id
 _symmetry_equiv_pos_as_xyz
  1  'x, y, z'
loop_
 _atom_site_type_symbol
 _atom_site_label
 _atom_site_symmetry_multiplicity
 _atom_site_fract_x
 _atom_site_fract_y
 _atom_site_fract_z
 _atom_site_occupancy
 _atom_site_charge
  Ag  Ag1  1  0.343890  0.457940  0.367960  1.0  0.3317
  Ag  Ag2  1  0.823010  0.250060  0.867550  1.0  0.2892
  Ag  Ag3  1  0.843890  0.957940  0.367960  1.0  0.3317
  Ag  Ag4  1  0.323010  0.750060  0.867550  1.0  0.2892
  Ag  Ag5  1  0.656110  0.457940  0.132040  1.0  0.3317
  Ag  Ag6  1  0.176990  0.250060  0.632450  1.0  0.2888
  Ag  Ag7  1  0.156110  0.957940  0.132040  1.0  0.3317
  Ag  Ag8  1  0.676990  0.750060  0.632450  1.0  0.2888
  Ag  Ag9  1  0.656110  0.542060  0.632040  1.0  0.3317
  Ag  Ag10  1  0.176990  0.749940  0.132450  1.0  0.2886
  Ag  Ag11  1  0.156110  0.042060  0.632040  1.0  0.3317
  Ag  Ag12  1  0.676990  0.249940  0.132450  1.0  0.2886
  Ag  Ag13  1  0.343890  0.542060  0.867960  1.0  0.3317
  Ag  Ag14  1  0.823010  0.749940  0.367550  1.0  0.2891
  Ag  Ag15  1  0.843890  0.042060  0.867960  1.0  0.3317
  Ag  Ag16  1  0.323010  0.249940  0.367550  1.0  0.2891
  H  H17  1  0.021800  0.382000  0.036900  1.0  0.1303
  H  H18  1  0.554700  0.289800  0.390400  1.0  0.1296
  H  H19  1  0.298500  0.633900  0.049500  1.0  0.1283
  H  H20  1  0.714000  0.060900  0.349000  1.0  0.0874
  H  H21  1  0.199300  0.655800  0.853000  1.0  0.0862
  H  H22  1  0.923200  0.314900  0.985800  1.0  0.0747
  H  H23  1  0.543900  0.331000  0.540300  1.0  0.1315
  H  H24  1  0.134100  0.439500  0.162000  1.0  0.1186
  H  H25  1  0.350300  0.523700  0.263800  1.0  0.0774
  H  H26  1  0.444900  0.399100  0.490000  1.0  0.0788
  H  H27  1  0.867600  0.016400  0.495000  1.0  0.0737
  H  H28  1  0.865500  0.173600  0.767400  1.0  0.0787
  H  H29  1  0.144400  0.584700  0.896500  1.0  0.1244
  H  H30  1  0.820900  0.088400  0.545400  1.0  0.1244
  H  H31  1  0.349300  0.702600  0.000800  1.0  0.0827
  H  H32  1  0.455900  0.362000  0.344800  1.0  0.0855
  H  H33  1  0.187800  0.424500  0.259900  1.0  0.0816
  H  H34  1  0.020800  0.453200  0.886900  1.0  0.1272
  H  H35  1  0.301400  0.542500  0.165800  1.0  0.1216
  H  H36  1  0.662600  0.133900  0.394200  1.0  0.1209
  H  H37  1  0.923100  0.380300  0.839700  1.0  0.0844
  H  H38  1  0.726600  0.328600  0.755400  1.0  0.0772
  H  H39  1  0.677800  0.319300  0.656800  1.0  0.1255
  H  H40  1  0.822700  0.161800  0.668800  1.0  0.1262
  H  H41  1  0.521800  0.882000  0.036900  1.0  0.1303
  H  H42  1  0.054700  0.789800  0.390400  1.0  0.1296
  H  H43  1  0.798500  0.133900  0.049500  1.0  0.1283
  H  H44  1  0.214000  0.560900  0.349000  1.0  0.0874
  H  H45  1  0.699300  0.155800  0.853000  1.0  0.0862
  H  H46  1  0.423200  0.814900  0.985800  1.0  0.0747
  H  H47  1  0.043900  0.831000  0.540300  1.0  0.1315
  H  H48  1  0.634100  0.939500  0.162000  1.0  0.1186
  H  H49  1  0.850300  0.023700  0.263800  1.0  0.0774
  H  H50  1  0.944900  0.899100  0.490000  1.0  0.0788
  H  H51  1  0.367600  0.516400  0.495000  1.0  0.0737
  H  H52  1  0.365500  0.673600  0.767400  1.0  0.0787
  H  H53  1  0.644400  0.084700  0.896500  1.0  0.1244
  H  H54  1  0.320900  0.588400  0.545400  1.0  0.1244
  H  H55  1  0.849300  0.202600  0.000800  1.0  0.0827
  H  H56  1  0.955900  0.862000  0.344800  1.0  0.0855
  H  H57  1  0.687800  0.924500  0.259900  1.0  0.0816
  H  H58  1  0.520800  0.953200  0.886900  1.0  0.1272
  H  H59  1  0.801400  0.042500  0.165800  1.0  0.1216
  H  H60  1  0.162600  0.633900  0.394200  1.0  0.1209
  H  H61  1  0.423100  0.880300  0.839700  1.0  0.0844
  H  H62  1  0.226600  0.828600  0.755400  1.0  0.0772
  H  H63  1  0.177800  0.819300  0.656800  1.0  0.1255
  H  H64  1  0.322700  0.661800  0.668800  1.0  0.1262
  H  H65  1  0.978200  0.382000  0.463100  1.0  0.1306
  H  H66  1  0.445300  0.289800  0.109600  1.0  0.129
  H  H67  1  0.701500  0.633900  0.450500  1.0  0.1284
  H  H68  1  0.286000  0.060900  0.151000  1.0  0.0859
  H  H69  1  0.800700  0.655800  0.647000  1.0  0.0856
  H  H70  1  0.076800  0.314900  0.514200  1.0  0.0749
  H  H71  1  0.456100  0.331000  0.959700  1.0  0.1314
  H  H72  1  0.865900  0.439500  0.338000  1.0  0.1172
  H  H73  1  0.649700  0.523700  0.236200  1.0  0.0754
  H  H74  1  0.555100  0.399100  0.010000  1.0  0.0787
  H  H75  1  0.132400  0.016400  0.005000  1.0  0.0724
  H  H76  1  0.134500  0.173600  0.732600  1.0  0.0795
  H  H77  1  0.855600  0.584700  0.603500  1.0  0.1247
  H  H78  1  0.179100  0.088400  0.954600  1.0  0.125
  H  H79  1  0.650700  0.702600  0.499200  1.0  0.0814
  H  H80  1  0.544100  0.362000  0.155200  1.0  0.0857
  H  H81  1  0.812200  0.424500  0.240100  1.0  0.0811
  H  H82  1  0.979200  0.453200  0.613100  1.0  0.1267
  H  H83  1  0.698600  0.542500  0.334200  1.0  0.1221
  H  H84  1  0.337400  0.133900  0.105800  1.0  0.1207
  H  H85  1  0.076900  0.380300  0.660300  1.0  0.0846
  H  H86  1  0.273400  0.328600  0.744600  1.0  0.0761
  H  H87  1  0.322200  0.319300  0.843200  1.0  0.1258
  H  H88  1  0.177300  0.161800  0.831200  1.0  0.1263
  H  H89  1  0.478200  0.882000  0.463100  1.0  0.1306
  H  H90  1  0.945300  0.789800  0.109600  1.0  0.129
  H  H91  1  0.201500  0.133900  0.450500  1.0  0.1284
  H  H92  1  0.786000  0.560900  0.151000  1.0  0.0859
  H  H93  1  0.300700  0.155800  0.647000  1.0  0.0856
  H  H94  1  0.576800  0.814900  0.514200  1.0  0.0749
  H  H95  1  0.956100  0.831000  0.959700  1.0  0.1314
  H  H96  1  0.365900  0.939500  0.338000  1.0  0.1172
  H  H97  1  0.149700  0.023700  0.236200  1.0  0.0754
  H  H98  1  0.055100  0.899100  0.010000  1.0  0.0787
  H  H99  1  0.632400  0.516400  0.005000  1.0  0.0724
  H  H100  1  0.634500  0.673600  0.732600  1.0  0.0795
  H  H101  1  0.355600  0.084700  0.603500  1.0  0.1247
  H  H102  1  0.679100  0.588400  0.954600  1.0  0.125
  H  H103  1  0.150700  0.202600  0.499200  1.0  0.0814
  H  H104  1  0.044100  0.862000  0.155200  1.0  0.0857
  H  H105  1  0.312200  0.924500  0.240100  1.0  0.081
  H  H106  1  0.479200  0.953200  0.613100  1.0  0.1267
  H  H107  1  0.198600  0.042500  0.334200  1.0  0.1221
  H  H108  1  0.837400  0.633900  0.105800  1.0  0.1207
  H  H109  1  0.576900  0.880300  0.660300  1.0  0.0846
  H  H110  1  0.773400  0.828600  0.744600  1.0  0.0761
  H  H111  1  0.822200  0.819300  0.843200  1.0  0.1258
  H  H112  1  0.677300  0.661800  0.831200  1.0  0.1263
  H  H113  1  0.978200  0.618000  0.963100  1.0  0.1308
  H  H114  1  0.445300  0.710200  0.609600  1.0  0.1288
  H  H115  1  0.701500  0.366100  0.950500  1.0  0.1283
  H  H116  1  0.286000  0.939100  0.651000  1.0  0.0858
  H  H117  1  0.800700  0.344200  0.147000  1.0  0.0852
  H  H118  1  0.076800  0.685100  0.014200  1.0  0.0753
  H  H119  1  0.456100  0.669000  0.459700  1.0  0.1312
  H  H120  1  0.865900  0.560500  0.838000  1.0  0.1181
  H  H121  1  0.649700  0.476300  0.736200  1.0  0.0756
  H  H122  1  0.555100  0.600900  0.510000  1.0  0.079
  H  H123  1  0.132400  0.983600  0.505000  1.0  0.0724
  H  H124  1  0.134500  0.826400  0.232600  1.0  0.0799
  H  H125  1  0.855600  0.415300  0.103500  1.0  0.1248
  H  H126  1  0.179100  0.911600  0.454600  1.0  0.1253
  H  H127  1  0.650700  0.297400  0.999200  1.0  0.0818
  H  H128  1  0.544100  0.638000  0.655200  1.0  0.0858
  H  H129  1  0.812200  0.575500  0.740100  1.0  0.081
  H  H130  1  0.979200  0.546800  0.113100  1.0  0.1268
  H  H131  1  0.698600  0.457500  0.834200  1.0  0.1223
  H  H132  1  0.337400  0.866100  0.605800  1.0  0.1208
  H  H133  1  0.076900  0.619700  0.160300  1.0  0.0844
  H  H134  1  0.273400  0.671400  0.244600  1.0  0.0767
  H  H135  1  0.322200  0.680700  0.343200  1.0  0.1257
  H  H136  1  0.177300  0.838200  0.331200  1.0  0.1264
  H  H137  1  0.478200  0.118000  0.963100  1.0  0.1308
  H  H138  1  0.945300  0.210200  0.609600  1.0  0.1288
  H  H139  1  0.201500  0.866100  0.950500  1.0  0.1283
  H  H140  1  0.786000  0.439100  0.651000  1.0  0.0858
  H  H141  1  0.300700  0.844200  0.147000  1.0  0.0852
  H  H142  1  0.576800  0.185100  0.014200  1.0  0.0753
  H  H143  1  0.956100  0.169000  0.459700  1.0  0.1312
  H  H144  1  0.365900  0.060500  0.838000  1.0  0.1181
  H  H145  1  0.149700  0.976300  0.736200  1.0  0.0756
  H  H146  1  0.055100  0.100900  0.510000  1.0  0.079
  H  H147  1  0.632400  0.483600  0.505000  1.0  0.0724
  H  H148  1  0.634500  0.326400  0.232600  1.0  0.0799
  H  H149  1  0.355600  0.915300  0.103500  1.0  0.1248
  H  H150  1  0.679100  0.411600  0.454600  1.0  0.1253
  H  H151  1  0.150700  0.797400  0.999200  1.0  0.0818
  H  H152  1  0.044100  0.138000  0.655200  1.0  0.0858
  H  H153  1  0.312200  0.075500  0.740100  1.0  0.0812
  H  H154  1  0.479200  0.046800  0.113100  1.0  0.1268
  H  H155  1  0.198600  0.957500  0.834200  1.0  0.1223
  H  H156  1  0.837400  0.366100  0.605800  1.0  0.1208
  H  H157  1  0.576900  0.119700  0.160300  1.0  0.0844
  H  H158  1  0.773400  0.171400  0.244600  1.0  0.0767
  H  H159  1  0.822200  0.180700  0.343200  1.0  0.1257
  H  H160  1  0.677300  0.338200  0.331200  1.0  0.1264
  H  H161  1  0.021800  0.618000  0.536900  1.0  0.13
  H  H162  1  0.554700  0.710200  0.890400  1.0  0.1294
  H  H163  1  0.298500  0.366100  0.549500  1.0  0.1285
  H  H164  1  0.714000  0.939100  0.849000  1.0  0.0872
  H  H165  1  0.199300  0.344200  0.353000  1.0  0.086
  H  H166  1  0.923200  0.685100  0.485800  1.0  0.0748
  H  H167  1  0.543900  0.669000  0.040300  1.0  0.1314
  H  H168  1  0.134100  0.560500  0.662000  1.0  0.1185
  H  H169  1  0.350300  0.476300  0.763800  1.0  0.0773
  H  H170  1  0.444900  0.600900  0.990000  1.0  0.0793
  H  H171  1  0.867600  0.983600  0.995000  1.0  0.0733
  H  H172  1  0.865500  0.826400  0.267400  1.0  0.0791
  H  H173  1  0.144400  0.415300  0.396500  1.0  0.1246
  H  H174  1  0.820900  0.911600  0.045400  1.0  0.1244
  H  H175  1  0.349300  0.297400  0.500800  1.0  0.0827
  H  H176  1  0.455900  0.638000  0.844800  1.0  0.0855
  H  H177  1  0.187800  0.575500  0.759900  1.0  0.0812
  H  H178  1  0.020800  0.546800  0.386900  1.0  0.127
  H  H179  1  0.301400  0.457500  0.665800  1.0  0.1218
  H  H180  1  0.662600  0.866100  0.894200  1.0  0.1208
  H  H181  1  0.923100  0.619700  0.339700  1.0  0.0844
  H  H182  1  0.726600  0.671400  0.255400  1.0  0.0775
  H  H183  1  0.677800  0.680700  0.156800  1.0  0.1257
  H  H184  1  0.822700  0.838200  0.168800  1.0  0.1265
  H  H185  1  0.521800  0.118000  0.536900  1.0  0.13
  H  H186  1  0.054700  0.210200  0.890400  1.0  0.1294
  H  H187  1  0.798500  0.866100  0.549500  1.0  0.1285
  H  H188  1  0.214000  0.439100  0.849000  1.0  0.0872
  H  H189  1  0.699300  0.844200  0.353000  1.0  0.086
  H  H190  1  0.423200  0.185100  0.485800  1.0  0.0748
  H  H191  1  0.043900  0.169000  0.040300  1.0  0.1314
  H  H192  1  0.634100  0.060500  0.662000  1.0  0.1185
  H  H193  1  0.850300  0.976300  0.763800  1.0  0.0773
  H  H194  1  0.944900  0.100900  0.990000  1.0  0.0793
  H  H195  1  0.367600  0.483600  0.995000  1.0  0.0733
  H  H196  1  0.365500  0.326400  0.267400  1.0  0.0791
  H  H197  1  0.644400  0.915300  0.396500  1.0  0.1246
  H  H198  1  0.320900  0.411600  0.045400  1.0  0.1244
  H  H199  1  0.849300  0.797400  0.500800  1.0  0.0827
  H  H200  1  0.955900  0.138000  0.844800  1.0  0.0855
  H  H201  1  0.687800  0.075500  0.759900  1.0  0.0813
  H  H202  1  0.520800  0.046800  0.386900  1.0  0.127
  H  H203  1  0.801400  0.957500  0.665800  1.0  0.1218
  H  H204  1  0.162600  0.366100  0.894200  1.0  0.1208
  H  H205  1  0.423100  0.119700  0.339700  1.0  0.0844
  H  H206  1  0.226600  0.171400  0.255400  1.0  0.0775
  H  H207  1  0.177800  0.180700  0.156800  1.0  0.1257
  H  H208  1  0.322700  0.338200  0.168800  1.0  0.1265
  C  C209  1  0.624260  0.257300  0.502690  1.0  0.379
  C  C210  1  0.002460  0.382800  0.996850  1.0  -0.1492
  C  C211  1  0.533290  0.311600  0.411540  1.0  -0.1514
  C  C212  1  0.277670  0.637100  0.009520  1.0  -0.1588
  C  C213  1  0.735740  0.066700  0.388820  1.0  0.1707
  C  C214  1  0.560030  0.302500  0.470560  1.0  -0.0902
  C  C215  1  0.097310  0.469100  0.001600  1.0  0.3884
  C  C216  1  0.219650  0.650600  0.892870  1.0  0.1613
  C  C217  1  0.710010  0.226500  0.587940  1.0  0.3811
  C  C218  1  0.943360  0.342400  0.965700  1.0  0.1683
  C  C219  1  0.526620  0.335900  0.500490  1.0  -0.1759
  C  C220  1  0.743220  0.236800  0.651830  1.0  -0.0706
  C  C221  1  0.178200  0.457200  0.181880  1.0  -0.1272
  C  C222  1  0.306100  0.506800  0.242960  1.0  0.172
  C  C223  1  0.215440  0.600300  0.978150  1.0  -0.0312
  C  C224  1  0.467100  0.376500  0.469700  1.0  0.172
  C  C225  1  0.179550  0.502400  0.088700  1.0  0.3858
  C  C226  1  0.032720  0.424800  0.967470  1.0  -0.0965
  C  C227  1  0.825860  0.040700  0.474620  1.0  0.1777
  C  C228  1  0.827000  0.202800  0.744800  1.0  0.1801
  C  C229  1  0.186080  0.608000  0.918610  1.0  -0.1554
  C  C230  1  0.798550  0.084200  0.505510  1.0  -0.1707
  C  C231  1  0.706000  0.172500  0.505840  1.0  0.4019
  C  C232  1  0.182100  0.550900  0.007200  1.0  0.3474
  C  C233  1  0.307790  0.678400  0.979750  1.0  0.181
  C  C234  1  0.473270  0.354500  0.384470  1.0  0.1822
  C  C235  1  0.210770  0.448400  0.240780  1.0  0.1797
  C  C236  1  0.002080  0.424700  0.907780  1.0  -0.1513
  C  C237  1  0.277370  0.518300  0.183890  1.0  -0.1684
  C  C238  1  0.704630  0.111100  0.415620  1.0  -0.1578
  C  C239  1  0.942990  0.381300  0.879790  1.0  0.1785
  C  C240  1  0.211200  0.492500  0.152230  1.0  -0.08
  C  C241  1  0.736340  0.121900  0.475070  1.0  -0.0877
  C  C242  1  0.745200  0.293500  0.737820  1.0  0.1755
  C  C243  1  0.715640  0.288400  0.678490  1.0  -0.1506
  C  C244  1  0.801460  0.194600  0.685480  1.0  -0.1453
  C  C245  1  0.124260  0.757300  0.502690  1.0  0.379
  C  C246  1  0.502460  0.882800  0.996850  1.0  -0.1492
  C  C247  1  0.033290  0.811600  0.411540  1.0  -0.1514
  C  C248  1  0.777670  0.137100  0.009520  1.0  -0.1588
  C  C249  1  0.235740  0.566700  0.388820  1.0  0.1707
  C  C250  1  0.060030  0.802500  0.470560  1.0  -0.0902
  C  C251  1  0.597310  0.969100  0.001600  1.0  0.3884
  C  C252  1  0.719650  0.150600  0.892870  1.0  0.1613
  C  C253  1  0.210010  0.726500  0.587940  1.0  0.3811
  C  C254  1  0.443360  0.842400  0.965700  1.0  0.1683
  C  C255  1  0.026620  0.835900  0.500490  1.0  -0.1759
  C  C256  1  0.243220  0.736800  0.651830  1.0  -0.0706
  C  C257  1  0.678200  0.957200  0.181880  1.0  -0.1272
  C  C258  1  0.806100  0.006800  0.242960  1.0  0.172
  C  C259  1  0.715440  0.100300  0.978150  1.0  -0.0312
  C  C260  1  0.967100  0.876500  0.469700  1.0  0.172
  C  C261  1  0.679550  0.002400  0.088700  1.0  0.3858
  C  C262  1  0.532720  0.924800  0.967470  1.0  -0.0965
  C  C263  1  0.325860  0.540700  0.474620  1.0  0.1777
  C  C264  1  0.327000  0.702800  0.744800  1.0  0.1801
  C  C265  1  0.686080  0.108000  0.918610  1.0  -0.1554
  C  C266  1  0.298550  0.584200  0.505510  1.0  -0.1707
  C  C267  1  0.206000  0.672500  0.505840  1.0  0.4019
  C  C268  1  0.682100  0.050900  0.007200  1.0  0.3474
  C  C269  1  0.807790  0.178400  0.979750  1.0  0.181
  C  C270  1  0.973270  0.854500  0.384470  1.0  0.1822
  C  C271  1  0.710770  0.948400  0.240780  1.0  0.1797
  C  C272  1  0.502080  0.924700  0.907780  1.0  -0.1513
  C  C273  1  0.777370  0.018300  0.183890  1.0  -0.1684
  C  C274  1  0.204630  0.611100  0.415620  1.0  -0.1578
  C  C275  1  0.442990  0.881300  0.879790  1.0  0.1785
  C  C276  1  0.711200  0.992500  0.152230  1.0  -0.08
  C  C277  1  0.236340  0.621900  0.475070  1.0  -0.0877
  C  C278  1  0.245200  0.793500  0.737820  1.0  0.1755
  C  C279  1  0.215640  0.788400  0.678490  1.0  -0.1506
  C  C280  1  0.301460  0.694600  0.685480  1.0  -0.1453
  C  C281  1  0.375740  0.257300  0.997310  1.0  0.3795
  C  C282  1  0.997540  0.382800  0.503150  1.0  -0.1496
  C  C283  1  0.466710  0.311600  0.088460  1.0  -0.1534
  C  C284  1  0.722330  0.637100  0.490480  1.0  -0.159
  C  C285  1  0.264260  0.066700  0.111180  1.0  0.169
  C  C286  1  0.439970  0.302500  0.029440  1.0  -0.0902
  C  C287  1  0.902690  0.469100  0.498400  1.0  0.3874
  C  C288  1  0.780350  0.650600  0.607130  1.0  0.1603
  C  C289  1  0.289990  0.226500  0.912060  1.0  0.3801
  C  C290  1  0.056640  0.342400  0.534300  1.0  0.169
  C  C291  1  0.473380  0.335900  0.999510  1.0  -0.1757
  C  C292  1  0.256780  0.236800  0.848170  1.0  -0.0693
  C  C293  1  0.821800  0.457200  0.318120  1.0  -0.1295
  C  C294  1  0.693900  0.506800  0.257040  1.0  0.1726
  C  C295  1  0.784560  0.600300  0.521850  1.0  -0.0297
  C  C296  1  0.532900  0.376500  0.030300  1.0  0.1727
  C  C297  1  0.820450  0.502400  0.411300  1.0  0.3853
  C  C298  1  0.967280  0.424800  0.532530  1.0  -0.0969
  C  C299  1  0.174140  0.040700  0.025380  1.0  0.1781
  C  C300  1  0.173000  0.202800  0.755200  1.0  0.181
  C  C301  1  0.813920  0.608000  0.581390  1.0  -0.1562
  C  C302  1  0.201450  0.084200  0.994490  1.0  -0.1678
  C  C303  1  0.294000  0.172500  0.994160  1.0  0.4016
  C  C304  1  0.817900  0.550900  0.492800  1.0  0.348
  C  C305  1  0.692210  0.678400  0.520250  1.0  0.1806
  C  C306  1  0.526730  0.354500  0.115530  1.0  0.1816
  C  C307  1  0.789230  0.448400  0.259220  1.0  0.1806
  C  C308  1  0.997920  0.424700  0.592220  1.0  -0.1553
  C  C309  1  0.722630  0.518300  0.316110  1.0  -0.1681
  C  C310  1  0.295370  0.111100  0.084380  1.0  -0.1582
  C  C311  1  0.057010  0.381300  0.620210  1.0  0.1786
  C  C312  1  0.788800  0.492500  0.347770  1.0  -0.0797
  C  C313  1  0.263660  0.121900  0.024930  1.0  -0.0867
  C  C314  1  0.254800  0.293500  0.762180  1.0  0.1755
  C  C315  1  0.284360  0.288400  0.821510  1.0  -0.1518
  C  C316  1  0.198540  0.194600  0.814520  1.0  -0.1454
  C  C317  1  0.875740  0.757300  0.997310  1.0  0.3795
  C  C318  1  0.497540  0.882800  0.503150  1.0  -0.1496
  C  C319  1  0.966710  0.811600  0.088460  1.0  -0.1534
  C  C320  1  0.222330  0.137100  0.490480  1.0  -0.159
  C  C321  1  0.764260  0.566700  0.111180  1.0  0.169
  C  C322  1  0.939970  0.802500  0.029440  1.0  -0.0902
  C  C323  1  0.402690  0.969100  0.498400  1.0  0.3874
  C  C324  1  0.280350  0.150600  0.607130  1.0  0.1603
  C  C325  1  0.789990  0.726500  0.912060  1.0  0.3801
  C  C326  1  0.556640  0.842400  0.534300  1.0  0.169
  C  C327  1  0.973380  0.835900  0.999510  1.0  -0.1757
  C  C328  1  0.756780  0.736800  0.848170  1.0  -0.0693
  C  C329  1  0.321800  0.957200  0.318120  1.0  -0.1295
  C  C330  1  0.193900  0.006800  0.257040  1.0  0.1726
  C  C331  1  0.284560  0.100300  0.521850  1.0  -0.0297
  C  C332  1  0.032900  0.876500  0.030300  1.0  0.1727
  C  C333  1  0.320450  0.002400  0.411300  1.0  0.3853
  C  C334  1  0.467280  0.924800  0.532530  1.0  -0.0969
  C  C335  1  0.674140  0.540700  0.025380  1.0  0.1781
  C  C336  1  0.673000  0.702800  0.755200  1.0  0.181
  C  C337  1  0.313920  0.108000  0.581390  1.0  -0.1562
  C  C338  1  0.701450  0.584200  0.994490  1.0  -0.1678
  C  C339  1  0.794000  0.672500  0.994160  1.0  0.4016
  C  C340  1  0.317900  0.050900  0.492800  1.0  0.348
  C  C341  1  0.192210  0.178400  0.520250  1.0  0.1806
  C  C342  1  0.026730  0.854500  0.115530  1.0  0.1816
  C  C343  1  0.289230  0.948400  0.259220  1.0  0.1806
  C  C344  1  0.497920  0.924700  0.592220  1.0  -0.1553
  C  C345  1  0.222630  0.018300  0.316110  1.0  -0.1681
  C  C346  1  0.795370  0.611100  0.084380  1.0  -0.1582
  C  C347  1  0.557010  0.881300  0.620210  1.0  0.1786
  C  C348  1  0.288800  0.992500  0.347770  1.0  -0.0797
  C  C349  1  0.763660  0.621900  0.024930  1.0  -0.0867
  C  C350  1  0.754800  0.793500  0.762180  1.0  0.1755
  C  C351  1  0.784360  0.788400  0.821510  1.0  -0.1518
  C  C352  1  0.698540  0.694600  0.814520  1.0  -0.1454
  C  C353  1  0.375740  0.742700  0.497310  1.0  0.3794
  C  C354  1  0.997540  0.617200  0.003150  1.0  -0.1501
  C  C355  1  0.466710  0.688400  0.588460  1.0  -0.1527
  C  C356  1  0.722330  0.362900  0.990480  1.0  -0.1583
  C  C357  1  0.264260  0.933300  0.611180  1.0  0.1686
  C  C358  1  0.439970  0.697500  0.529440  1.0  -0.091
  C  C359  1  0.902690  0.530900  0.998400  1.0  0.3872
  C  C360  1  0.780350  0.349400  0.107130  1.0  0.1611
  C  C361  1  0.289990  0.773500  0.412060  1.0  0.3803
  C  C362  1  0.056640  0.657600  0.034300  1.0  0.1685
  C  C363  1  0.473380  0.664100  0.499510  1.0  -0.1749
  C  C364  1  0.256780  0.763200  0.348170  1.0  -0.0693
  C  C365  1  0.821800  0.542800  0.818120  1.0  -0.1297
  C  C366  1  0.693900  0.493200  0.757040  1.0  0.1726
  C  C367  1  0.784560  0.399700  0.021850  1.0  -0.0305
  C  C368  1  0.532900  0.623500  0.530300  1.0  0.1723
  C  C369  1  0.820450  0.497600  0.911300  1.0  0.3851
  C  C370  1  0.967280  0.575200  0.032530  1.0  -0.0974
  C  C371  1  0.174140  0.959300  0.525380  1.0  0.1776
  C  C372  1  0.173000  0.797200  0.255200  1.0  0.1812
  C  C373  1  0.813920  0.392000  0.081390  1.0  -0.1565
  C  C374  1  0.201450  0.915800  0.494490  1.0  -0.1681
  C  C375  1  0.294000  0.827500  0.494160  1.0  0.4015
  C  C376  1  0.817900  0.449100  0.992800  1.0  0.3479
  C  C377  1  0.692210  0.321600  0.020250  1.0  0.1812
  C  C378  1  0.526730  0.645500  0.615530  1.0  0.1812
  C  C379  1  0.789230  0.551600  0.759220  1.0  0.1807
  C  C380  1  0.997920  0.575300  0.092220  1.0  -0.1554
  C  C381  1  0.722630  0.481700  0.816110  1.0  -0.1666
  C  C382  1  0.295370  0.888900  0.584380  1.0  -0.1585
  C  C383  1  0.057010  0.618700  0.120210  1.0  0.1786
  C  C384  1  0.788800  0.507500  0.847770  1.0  -0.0792
  C  C385  1  0.263660  0.878100  0.524930  1.0  -0.0872
  C  C386  1  0.254800  0.706500  0.262180  1.0  0.1759
  C  C387  1  0.284360  0.711600  0.321510  1.0  -0.152
  C  C388  1  0.198540  0.805400  0.314520  1.0  -0.1451
  C  C389  1  0.875740  0.242700  0.497310  1.0  0.3794
  C  C390  1  0.497540  0.117200  0.003150  1.0  -0.1501
  C  C391  1  0.966710  0.188400  0.588460  1.0  -0.1527
  C  C392  1  0.222330  0.862900  0.990480  1.0  -0.1583
  C  C393  1  0.764260  0.433300  0.611180  1.0  0.1686
  C  C394  1  0.939970  0.197500  0.529440  1.0  -0.091
  C  C395  1  0.402690  0.030900  0.998400  1.0  0.3872
  C  C396  1  0.280350  0.849400  0.107130  1.0  0.1611
  C  C397  1  0.789990  0.273500  0.412060  1.0  0.3803
  C  C398  1  0.556640  0.157600  0.034300  1.0  0.1685
  C  C399  1  0.973380  0.164100  0.499510  1.0  -0.1749
  C  C400  1  0.756780  0.263200  0.348170  1.0  -0.0693
  C  C401  1  0.321800  0.042800  0.818120  1.0  -0.1297
  C  C402  1  0.193900  0.993200  0.757040  1.0  0.1726
  C  C403  1  0.284560  0.899700  0.021850  1.0  -0.0305
  C  C404  1  0.032900  0.123500  0.530300  1.0  0.1723
  C  C405  1  0.320450  0.997600  0.911300  1.0  0.3851
  C  C406  1  0.467280  0.075200  0.032530  1.0  -0.0974
  C  C407  1  0.674140  0.459300  0.525380  1.0  0.1776
  C  C408  1  0.673000  0.297200  0.255200  1.0  0.1812
  C  C409  1  0.313920  0.892000  0.081390  1.0  -0.1565
  C  C410  1  0.701450  0.415800  0.494490  1.0  -0.1681
  C  C411  1  0.794000  0.327500  0.494160  1.0  0.4015
  C  C412  1  0.317900  0.949100  0.992800  1.0  0.3479
  C  C413  1  0.192210  0.821600  0.020250  1.0  0.1812
  C  C414  1  0.026730  0.145500  0.615530  1.0  0.1812
  C  C415  1  0.289230  0.051600  0.759220  1.0  0.1807
  C  C416  1  0.497920  0.075300  0.092220  1.0  -0.1554
  C  C417  1  0.222630  0.981700  0.816110  1.0  -0.1666
  C  C418  1  0.795370  0.388900  0.584380  1.0  -0.1585
  C  C419  1  0.557010  0.118700  0.120210  1.0  0.1786
  C  C420  1  0.288800  0.007500  0.847770  1.0  -0.0792
  C  C421  1  0.763660  0.378100  0.524930  1.0  -0.0872
  C  C422  1  0.754800  0.206500  0.262180  1.0  0.1759
  C  C423  1  0.784360  0.211600  0.321510  1.0  -0.152
  C  C424  1  0.698540  0.305400  0.314520  1.0  -0.1451
  C  C425  1  0.624260  0.742700  0.002690  1.0  0.3792
  C  C426  1  0.002460  0.617200  0.496850  1.0  -0.1498
  C  C427  1  0.533290  0.688400  0.911540  1.0  -0.1516
  C  C428  1  0.277670  0.362900  0.509520  1.0  -0.159
  C  C429  1  0.735740  0.933300  0.888820  1.0  0.1704
  C  C430  1  0.560030  0.697500  0.970560  1.0  -0.0903
  C  C431  1  0.097310  0.530900  0.501600  1.0  0.3884
  C  C432  1  0.219650  0.349400  0.392870  1.0  0.1613
  C  C433  1  0.710010  0.773500  0.087940  1.0  0.3813
  C  C434  1  0.943360  0.657600  0.465700  1.0  0.1677
  C  C435  1  0.526620  0.664100  0.000490  1.0  -0.1754
  C  C436  1  0.743220  0.763200  0.151830  1.0  -0.0702
  C  C437  1  0.178200  0.542800  0.681880  1.0  -0.1273
  C  C438  1  0.306100  0.493200  0.742960  1.0  0.1719
  C  C439  1  0.215440  0.399700  0.478150  1.0  -0.0316
  C  C440  1  0.467100  0.623500  0.969700  1.0  0.1736
  C  C441  1  0.179550  0.497600  0.588700  1.0  0.3856
  C  C442  1  0.032720  0.575200  0.467470  1.0  -0.0974
  C  C443  1  0.825860  0.959300  0.974620  1.0  0.1768
  C  C444  1  0.827000  0.797200  0.244800  1.0  0.1803
  C  C445  1  0.186080  0.392000  0.418610  1.0  -0.1556
  C  C446  1  0.798550  0.915800  0.005510  1.0  -0.1702
  C  C447  1  0.706000  0.827500  0.005840  1.0  0.4018
  C  C448  1  0.182100  0.449100  0.507200  1.0  0.3473
  C  C449  1  0.307790  0.321600  0.479750  1.0  0.1816
  C  C450  1  0.473270  0.645500  0.884470  1.0  0.1812
  C  C451  1  0.210770  0.551600  0.740780  1.0  0.1803
  C  C452  1  0.002080  0.575300  0.407780  1.0  -0.1517
  C  C453  1  0.277370  0.481700  0.683890  1.0  -0.1678
  C  C454  1  0.704630  0.888900  0.915620  1.0  -0.1576
  C  C455  1  0.942990  0.618700  0.379790  1.0  0.179
  C  C456  1  0.211200  0.507500  0.652230  1.0  -0.0797
  C  C457  1  0.736340  0.878100  0.975070  1.0  -0.0878
  C  C458  1  0.745200  0.706500  0.237820  1.0  0.1755
  C  C459  1  0.715640  0.711600  0.178490  1.0  -0.1509
  C  C460  1  0.801460  0.805400  0.185480  1.0  -0.1453
  C  C461  1  0.124260  0.242700  0.002690  1.0  0.3792
  C  C462  1  0.502460  0.117200  0.496850  1.0  -0.1498
  C  C463  1  0.033290  0.188400  0.911540  1.0  -0.1516
  C  C464  1  0.777670  0.862900  0.509520  1.0  -0.159
  C  C465  1  0.235740  0.433300  0.888820  1.0  0.1704
  C  C466  1  0.060030  0.197500  0.970560  1.0  -0.0903
  C  C467  1  0.597310  0.030900  0.501600  1.0  0.3884
  C  C468  1  0.719650  0.849400  0.392870  1.0  0.1613
  C  C469  1  0.210010  0.273500  0.087940  1.0  0.3813
  C  C470  1  0.443360  0.157600  0.465700  1.0  0.1677
  C  C471  1  0.026620  0.164100  0.000490  1.0  -0.1754
  C  C472  1  0.243220  0.263200  0.151830  1.0  -0.0702
  C  C473  1  0.678200  0.042800  0.681880  1.0  -0.1273
  C  C474  1  0.806100  0.993200  0.742960  1.0  0.1719
  C  C475  1  0.715440  0.899700  0.478150  1.0  -0.0316
  C  C476  1  0.967100  0.123500  0.969700  1.0  0.1736
  C  C477  1  0.679550  0.997600  0.588700  1.0  0.3856
  C  C478  1  0.532720  0.075200  0.467470  1.0  -0.0974
  C  C479  1  0.325860  0.459300  0.974620  1.0  0.1768
  C  C480  1  0.327000  0.297200  0.244800  1.0  0.1803
  C  C481  1  0.686080  0.892000  0.418610  1.0  -0.1556
  C  C482  1  0.298550  0.415800  0.005510  1.0  -0.1702
  C  C483  1  0.206000  0.327500  0.005840  1.0  0.4018
  C  C484  1  0.682100  0.949100  0.507200  1.0  0.3473
  C  C485  1  0.807790  0.821600  0.479750  1.0  0.1816
  C  C486  1  0.973270  0.145500  0.884470  1.0  0.1812
  C  C487  1  0.710770  0.051600  0.740780  1.0  0.1803
  C  C488  1  0.502080  0.075300  0.407780  1.0  -0.1517
  C  C489  1  0.777370  0.981700  0.683890  1.0  -0.1678
  C  C490  1  0.204630  0.388900  0.915620  1.0  -0.1576
  C  C491  1  0.442990  0.118700  0.379790  1.0  0.179
  C  C492  1  0.711200  0.007500  0.652230  1.0  -0.0797
  C  C493  1  0.236340  0.378100  0.975070  1.0  -0.0878
  C  C494  1  0.245200  0.206500  0.237820  1.0  0.1755
  C  C495  1  0.215640  0.211600  0.178490  1.0  -0.1509
  C  C496  1  0.301460  0.305400  0.185480  1.0  -0.1453
  N  N497  1  0.439240  0.385400  0.412060  1.0  -0.3266
  N  N498  1  0.796310  0.031080  0.417310  1.0  -0.3612
  N  N499  1  0.799710  0.250100  0.771500  1.0  -0.3443
  N  N500  1  0.648180  0.210800  0.472940  1.0  -0.5393
  N  N501  1  0.738660  0.177170  0.563360  1.0  -0.5316
  N  N502  1  0.653330  0.268300  0.559910  1.0  -0.4859
  N  N503  1  0.912940  0.340400  0.907760  1.0  -0.3511
  N  N504  1  0.280010  0.685300  0.921950  1.0  -0.3341
  N  N505  1  0.274830  0.473100  0.272010  1.0  -0.3643
  N  N506  1  0.126030  0.509900  0.973410  1.0  -0.5047
  N  N507  1  0.210810  0.549100  0.065050  1.0  -0.4936
  N  N508  1  0.121850  0.462400  0.059180  1.0  -0.5175
  N  N509  1  0.939240  0.885400  0.412060  1.0  -0.3266
  N  N510  1  0.296310  0.531080  0.417310  1.0  -0.3612
  N  N511  1  0.299710  0.750100  0.771500  1.0  -0.3443
  N  N512  1  0.148180  0.710800  0.472940  1.0  -0.5393
  N  N513  1  0.238660  0.677170  0.563360  1.0  -0.5316
  N  N514  1  0.153330  0.768300  0.559910  1.0  -0.4859
  N  N515  1  0.412940  0.840400  0.907760  1.0  -0.3511
  N  N516  1  0.780010  0.185300  0.921950  1.0  -0.3341
  N  N517  1  0.774830  0.973100  0.272010  1.0  -0.3643
  N  N518  1  0.626030  0.009900  0.973410  1.0  -0.5047
  N  N519  1  0.710810  0.049100  0.065050  1.0  -0.4936
  N  N520  1  0.621850  0.962400  0.059180  1.0  -0.5175
  N  N521  1  0.560760  0.385400  0.087940  1.0  -0.3276
  N  N522  1  0.203690  0.031080  0.082690  1.0  -0.3613
  N  N523  1  0.200290  0.250100  0.728500  1.0  -0.3472
  N  N524  1  0.351820  0.210800  0.027060  1.0  -0.5401
  N  N525  1  0.261340  0.177170  0.936640  1.0  -0.5329
  N  N526  1  0.346670  0.268300  0.940090  1.0  -0.4838
  N  N527  1  0.087060  0.340400  0.592240  1.0  -0.3474
  N  N528  1  0.719990  0.685300  0.578050  1.0  -0.3347
  N  N529  1  0.725170  0.473100  0.227990  1.0  -0.365
  N  N530  1  0.873970  0.509900  0.526590  1.0  -0.5044
  N  N531  1  0.789190  0.549100  0.434950  1.0  -0.4939
  N  N532  1  0.878150  0.462400  0.440820  1.0  -0.5169
  N  N533  1  0.060760  0.885400  0.087940  1.0  -0.3276
  N  N534  1  0.703690  0.531080  0.082690  1.0  -0.3613
  N  N535  1  0.700290  0.750100  0.728500  1.0  -0.3472
  N  N536  1  0.851820  0.710800  0.027060  1.0  -0.5401
  N  N537  1  0.761340  0.677170  0.936640  1.0  -0.5329
  N  N538  1  0.846670  0.768300  0.940090  1.0  -0.4838
  N  N539  1  0.587060  0.840400  0.592240  1.0  -0.3474
  N  N540  1  0.219990  0.185300  0.578050  1.0  -0.3347
  N  N541  1  0.225170  0.973100  0.227990  1.0  -0.365
  N  N542  1  0.373970  0.009900  0.526590  1.0  -0.5044
  N  N543  1  0.289190  0.049100  0.434950  1.0  -0.4939
  N  N544  1  0.378150  0.962400  0.440820  1.0  -0.5169
  N  N545  1  0.560760  0.614600  0.587940  1.0  -0.3281
  N  N546  1  0.203690  0.968920  0.582690  1.0  -0.3628
  N  N547  1  0.200290  0.749900  0.228500  1.0  -0.3475
  N  N548  1  0.351820  0.789200  0.527060  1.0  -0.5399
  N  N549  1  0.261340  0.822830  0.436640  1.0  -0.532
  N  N550  1  0.346670  0.731700  0.440090  1.0  -0.4846
  N  N551  1  0.087060  0.659600  0.092240  1.0  -0.3488
  N  N552  1  0.719990  0.314700  0.078050  1.0  -0.3349
  N  N553  1  0.725170  0.526900  0.727990  1.0  -0.3643
  N  N554  1  0.873970  0.490100  0.026590  1.0  -0.5028
  N  N555  1  0.789190  0.450900  0.934950  1.0  -0.4945
  N  N556  1  0.878150  0.537600  0.940820  1.0  -0.5167
  N  N557  1  0.060760  0.114600  0.587940  1.0  -0.3281
  N  N558  1  0.703690  0.468920  0.582690  1.0  -0.3628
  N  N559  1  0.700290  0.249900  0.228500  1.0  -0.3475
  N  N560  1  0.851820  0.289200  0.527060  1.0  -0.5399
  N  N561  1  0.761340  0.322830  0.436640  1.0  -0.532
  N  N562  1  0.846670  0.231700  0.440090  1.0  -0.4846
  N  N563  1  0.587060  0.159600  0.092240  1.0  -0.3488
  N  N564  1  0.219990  0.814700  0.078050  1.0  -0.3349
  N  N565  1  0.225170  0.026900  0.727990  1.0  -0.3643
  N  N566  1  0.373970  0.990100  0.026590  1.0  -0.5028
  N  N567  1  0.289190  0.950900  0.934950  1.0  -0.4945
  N  N568  1  0.378150  0.037600  0.940820  1.0  -0.5167
  N  N569  1  0.439240  0.614600  0.912060  1.0  -0.3308
  N  N570  1  0.796310  0.968920  0.917310  1.0  -0.3599
  N  N571  1  0.799710  0.749900  0.271500  1.0  -0.3439
  N  N572  1  0.648180  0.789200  0.972940  1.0  -0.5391
  N  N573  1  0.738660  0.822830  0.063360  1.0  -0.5322
  N  N574  1  0.653330  0.731700  0.059910  1.0  -0.4855
  N  N575  1  0.912940  0.659600  0.407760  1.0  -0.35
  N  N576  1  0.280010  0.314700  0.421950  1.0  -0.3363
  N  N577  1  0.274830  0.526900  0.772010  1.0  -0.3641
  N  N578  1  0.126030  0.490100  0.473410  1.0  -0.5041
  N  N579  1  0.210810  0.450900  0.565050  1.0  -0.4928
  N  N580  1  0.121850  0.537600  0.559180  1.0  -0.5178
  N  N581  1  0.939240  0.114600  0.912060  1.0  -0.3308
  N  N582  1  0.296310  0.468920  0.917310  1.0  -0.3599
  N  N583  1  0.299710  0.249900  0.271500  1.0  -0.3439
  N  N584  1  0.148180  0.289200  0.972940  1.0  -0.5391
  N  N585  1  0.238660  0.322830  0.063360  1.0  -0.5322
  N  N586  1  0.153330  0.231700  0.059910  1.0  -0.4855
  N  N587  1  0.412940  0.159600  0.407760  1.0  -0.35
  N  N588  1  0.780010  0.814700  0.421950  1.0  -0.3363
  N  N589  1  0.774830  0.026900  0.772010  1.0  -0.3641
  N  N590  1  0.626030  0.990100  0.473410  1.0  -0.5041
  N  N591  1  0.710810  0.950900  0.565050  1.0  -0.4928
  N  N592  1  0.621850  0.037600  0.559180  1.0  -0.5178
