# generated using pymatgen
data_AgH12(C3N)6
_symmetry_space_group_name_H-M   'P 1'
_cell_length_a   22.06000000
_cell_length_b   16.34720000
_cell_length_c   25.67700000
_cell_angle_alpha   90.00000000
_cell_angle_beta   115.39200000
_cell_angle_gamma   90.00000000
_symmetry_Int_Tables_number   1
_chemical_formula_structural   AgH12(C3N)6
_chemical_formula_sum   'Ag16 H192 C288 N96'
_cell_volume   8365.09604569
_cell_formula_units_Z   16
loop_
 _symmetry_equiv_pos_site_id
 _symmetry_equiv_pos_as_xyz
  1  'x, y, z'
loop_
 _atom_site_type_symbol
 _atom_site_label
 _atom_site_symmetry_multiplicity
 _atom_site_fract_x
 _atom_site_fract_y
 _atom_site_fract_z
 _atom_site_occupancy
 _atom_site_charge
  Ag  Ag1  1  0.343700  0.042360  0.367830  1.0  0.3334
  Ag  Ag2  1  0.822920  0.250160  0.867490  1.0  0.2931
  Ag  Ag3  1  0.843700  0.542360  0.367830  1.0  0.3334
  Ag  Ag4  1  0.322920  0.750160  0.867490  1.0  0.2931
  Ag  Ag5  1  0.656300  0.042360  0.132170  1.0  0.3339
  Ag  Ag6  1  0.177080  0.250160  0.632510  1.0  0.2925
  Ag  Ag7  1  0.156300  0.542360  0.132170  1.0  0.3339
  Ag  Ag8  1  0.677080  0.750160  0.632510  1.0  0.2925
  Ag  Ag9  1  0.656300  0.957640  0.632170  1.0  0.3338
  Ag  Ag10  1  0.177080  0.749840  0.132510  1.0  0.2926
  Ag  Ag11  1  0.156300  0.457640  0.632170  1.0  0.3338
  Ag  Ag12  1  0.677080  0.249840  0.132510  1.0  0.2926
  Ag  Ag13  1  0.343700  0.957640  0.867830  1.0  0.3334
  Ag  Ag14  1  0.822920  0.749840  0.367490  1.0  0.2932
  Ag  Ag15  1  0.843700  0.457640  0.867830  1.0  0.3334
  Ag  Ag16  1  0.322920  0.249840  0.367490  1.0  0.2932
  H  H17  1  0.444200  0.101600  0.490100  1.0  0.086
  H  H18  1  0.456200  0.137600  0.344900  1.0  0.0827
  H  H19  1  0.543800  0.168500  0.540100  1.0  0.1245
  H  H20  1  0.554500  0.210200  0.390300  1.0  0.1306
  H  H21  1  0.820800  0.412100  0.545300  1.0  0.1244
  H  H22  1  0.662600  0.366100  0.394100  1.0  0.1175
  H  H23  1  0.677300  0.181100  0.656900  1.0  0.1259
  H  H24  1  0.822800  0.338200  0.668800  1.0  0.1271
  H  H25  1  0.867900  0.483100  0.494700  1.0  0.0728
  H  H26  1  0.714100  0.438800  0.348600  1.0  0.0865
  H  H27  1  0.726300  0.171400  0.755400  1.0  0.0765
  H  H28  1  0.865600  0.325900  0.767400  1.0  0.0832
  H  H29  1  0.922600  0.185000  0.985900  1.0  0.0779
  H  H30  1  0.923300  0.120400  0.839600  1.0  0.0827
  H  H31  1  0.021900  0.118000  0.036900  1.0  0.1279
  H  H32  1  0.020400  0.046200  0.886700  1.0  0.1252
  H  H33  1  0.298500  0.865300  0.049500  1.0  0.1283
  H  H34  1  0.144400  0.914900  0.896400  1.0  0.1185
  H  H35  1  0.133600  0.060600  0.161700  1.0  0.1218
  H  H36  1  0.301300  0.957900  0.165800  1.0  0.1216
  H  H37  1  0.349200  0.797700  0.000500  1.0  0.0798
  H  H38  1  0.199100  0.845000  0.852700  1.0  0.087
  H  H39  1  0.187600  0.075500  0.259800  1.0  0.0798
  H  H40  1  0.350000  0.976100  0.263800  1.0  0.0775
  H  H41  1  0.944200  0.601600  0.490100  1.0  0.086
  H  H42  1  0.956200  0.637600  0.344900  1.0  0.0827
  H  H43  1  0.043800  0.668500  0.540100  1.0  0.1245
  H  H44  1  0.054500  0.710200  0.390300  1.0  0.1306
  H  H45  1  0.320800  0.912100  0.545300  1.0  0.1244
  H  H46  1  0.162600  0.866100  0.394100  1.0  0.1175
  H  H47  1  0.177300  0.681100  0.656900  1.0  0.1259
  H  H48  1  0.322800  0.838200  0.668800  1.0  0.1271
  H  H49  1  0.367900  0.983100  0.494700  1.0  0.0728
  H  H50  1  0.214100  0.938800  0.348600  1.0  0.0865
  H  H51  1  0.226300  0.671400  0.755400  1.0  0.0765
  H  H52  1  0.365600  0.825900  0.767400  1.0  0.0832
  H  H53  1  0.422600  0.685000  0.985900  1.0  0.078
  H  H54  1  0.423300  0.620400  0.839600  1.0  0.0827
  H  H55  1  0.521900  0.618000  0.036900  1.0  0.1279
  H  H56  1  0.520400  0.546200  0.886700  1.0  0.1252
  H  H57  1  0.798500  0.365300  0.049500  1.0  0.1283
  H  H58  1  0.644400  0.414900  0.896400  1.0  0.1185
  H  H59  1  0.633600  0.560600  0.161700  1.0  0.1218
  H  H60  1  0.801300  0.457900  0.165800  1.0  0.1216
  H  H61  1  0.849200  0.297700  0.000500  1.0  0.0798
  H  H62  1  0.699100  0.345000  0.852700  1.0  0.087
  H  H63  1  0.687600  0.575500  0.259800  1.0  0.0798
  H  H64  1  0.850000  0.476100  0.263800  1.0  0.0775
  H  H65  1  0.555800  0.101600  0.009900  1.0  0.0855
  H  H66  1  0.543800  0.137600  0.155100  1.0  0.083
  H  H67  1  0.456200  0.168500  0.959900  1.0  0.1242
  H  H68  1  0.445500  0.210200  0.109700  1.0  0.1305
  H  H69  1  0.179200  0.412100  0.954700  1.0  0.1252
  H  H70  1  0.337400  0.366100  0.105900  1.0  0.1181
  H  H71  1  0.322700  0.181100  0.843100  1.0  0.1259
  H  H72  1  0.177200  0.338200  0.831200  1.0  0.127
  H  H73  1  0.132100  0.483100  0.005300  1.0  0.0722
  H  H74  1  0.285900  0.438800  0.151400  1.0  0.0854
  H  H75  1  0.273700  0.171400  0.744600  1.0  0.0754
  H  H76  1  0.134400  0.325900  0.732600  1.0  0.0843
  H  H77  1  0.077400  0.185000  0.514100  1.0  0.0784
  H  H78  1  0.076700  0.120400  0.660400  1.0  0.0827
  H  H79  1  0.978100  0.118000  0.463100  1.0  0.1284
  H  H80  1  0.979600  0.046200  0.613300  1.0  0.1253
  H  H81  1  0.701500  0.865300  0.450500  1.0  0.1282
  H  H82  1  0.855600  0.914900  0.603600  1.0  0.1191
  H  H83  1  0.866400  0.060600  0.338300  1.0  0.1215
  H  H84  1  0.698700  0.957900  0.334200  1.0  0.1219
  H  H85  1  0.650800  0.797700  0.499500  1.0  0.0787
  H  H86  1  0.800900  0.845000  0.647300  1.0  0.0859
  H  H87  1  0.812400  0.075500  0.240200  1.0  0.0797
  H  H88  1  0.650000  0.976100  0.236200  1.0  0.0764
  H  H89  1  0.055800  0.601600  0.009900  1.0  0.0855
  H  H90  1  0.043800  0.637600  0.155100  1.0  0.083
  H  H91  1  0.956200  0.668500  0.959900  1.0  0.1242
  H  H92  1  0.945500  0.710200  0.109700  1.0  0.1305
  H  H93  1  0.679200  0.912100  0.954700  1.0  0.1252
  H  H94  1  0.837400  0.866100  0.105900  1.0  0.1181
  H  H95  1  0.822700  0.681100  0.843100  1.0  0.1259
  H  H96  1  0.677200  0.838200  0.831200  1.0  0.127
  H  H97  1  0.632100  0.983100  0.005300  1.0  0.0722
  H  H98  1  0.785900  0.938800  0.151400  1.0  0.0854
  H  H99  1  0.773700  0.671400  0.744600  1.0  0.0754
  H  H100  1  0.634400  0.825900  0.732600  1.0  0.0843
  H  H101  1  0.577400  0.685000  0.514100  1.0  0.0785
  H  H102  1  0.576700  0.620400  0.660400  1.0  0.0827
  H  H103  1  0.478100  0.618000  0.463100  1.0  0.1284
  H  H104  1  0.479600  0.546200  0.613300  1.0  0.1253
  H  H105  1  0.201500  0.365300  0.450500  1.0  0.1282
  H  H106  1  0.355600  0.414900  0.603600  1.0  0.1191
  H  H107  1  0.366400  0.560600  0.338300  1.0  0.1215
  H  H108  1  0.198700  0.457900  0.334200  1.0  0.1219
  H  H109  1  0.150800  0.297700  0.499500  1.0  0.0787
  H  H110  1  0.300900  0.345000  0.647300  1.0  0.0859
  H  H111  1  0.312400  0.575500  0.240200  1.0  0.0797
  H  H112  1  0.150000  0.476100  0.236200  1.0  0.0764
  H  H113  1  0.555800  0.898400  0.509900  1.0  0.0855
  H  H114  1  0.543800  0.862400  0.655100  1.0  0.083
  H  H115  1  0.456200  0.831500  0.459900  1.0  0.1243
  H  H116  1  0.445500  0.789800  0.609700  1.0  0.1308
  H  H117  1  0.179200  0.587900  0.454700  1.0  0.1249
  H  H118  1  0.337400  0.633900  0.605900  1.0  0.1179
  H  H119  1  0.322700  0.818900  0.343100  1.0  0.1257
  H  H120  1  0.177200  0.661800  0.331200  1.0  0.1269
  H  H121  1  0.132100  0.516900  0.505300  1.0  0.0723
  H  H122  1  0.285900  0.561200  0.651400  1.0  0.0855
  H  H123  1  0.273700  0.828600  0.244600  1.0  0.0751
  H  H124  1  0.134400  0.674100  0.232600  1.0  0.0841
  H  H125  1  0.077400  0.815000  0.014100  1.0  0.0782
  H  H126  1  0.076700  0.879600  0.160400  1.0  0.0828
  H  H127  1  0.978100  0.882000  0.963100  1.0  0.1281
  H  H128  1  0.979600  0.953800  0.113300  1.0  0.125
  H  H129  1  0.701500  0.134700  0.950500  1.0  0.1283
  H  H130  1  0.855600  0.085100  0.103600  1.0  0.1187
  H  H131  1  0.866400  0.939400  0.838300  1.0  0.1209
  H  H132  1  0.698700  0.042100  0.834200  1.0  0.1215
  H  H133  1  0.650800  0.202300  0.999500  1.0  0.0784
  H  H134  1  0.800900  0.155000  0.147300  1.0  0.0863
  H  H135  1  0.812400  0.924500  0.740200  1.0  0.08
  H  H136  1  0.650000  0.023900  0.736200  1.0  0.0761
  H  H137  1  0.055800  0.398400  0.509900  1.0  0.0855
  H  H138  1  0.043800  0.362400  0.655100  1.0  0.083
  H  H139  1  0.956200  0.331500  0.459900  1.0  0.1243
  H  H140  1  0.945500  0.289800  0.609700  1.0  0.1308
  H  H141  1  0.679200  0.087900  0.454700  1.0  0.1249
  H  H142  1  0.837400  0.133900  0.605900  1.0  0.1179
  H  H143  1  0.822700  0.318900  0.343100  1.0  0.1257
  H  H144  1  0.677200  0.161800  0.331200  1.0  0.1269
  H  H145  1  0.632100  0.016900  0.505300  1.0  0.0723
  H  H146  1  0.785900  0.061200  0.651400  1.0  0.0855
  H  H147  1  0.773700  0.328600  0.244600  1.0  0.0751
  H  H148  1  0.634400  0.174100  0.232600  1.0  0.0841
  H  H149  1  0.577400  0.315000  0.014100  1.0  0.0782
  H  H150  1  0.576700  0.379600  0.160400  1.0  0.0828
  H  H151  1  0.478100  0.382000  0.963100  1.0  0.1281
  H  H152  1  0.479600  0.453800  0.113300  1.0  0.125
  H  H153  1  0.201500  0.634700  0.950500  1.0  0.1283
  H  H154  1  0.355600  0.585100  0.103600  1.0  0.1187
  H  H155  1  0.366400  0.439400  0.838300  1.0  0.1209
  H  H156  1  0.198700  0.542100  0.834200  1.0  0.1215
  H  H157  1  0.150800  0.702300  0.999500  1.0  0.0784
  H  H158  1  0.300900  0.655000  0.147300  1.0  0.0863
  H  H159  1  0.312400  0.424500  0.740200  1.0  0.08
  H  H160  1  0.150000  0.523900  0.736200  1.0  0.0761
  H  H161  1  0.444200  0.898400  0.990100  1.0  0.0856
  H  H162  1  0.456200  0.862400  0.844900  1.0  0.0827
  H  H163  1  0.543800  0.831500  0.040100  1.0  0.1244
  H  H164  1  0.554500  0.789800  0.890300  1.0  0.1309
  H  H165  1  0.820800  0.587900  0.045300  1.0  0.1244
  H  H166  1  0.662600  0.633900  0.894100  1.0  0.1177
  H  H167  1  0.677300  0.818900  0.156900  1.0  0.1257
  H  H168  1  0.822800  0.661800  0.168800  1.0  0.1267
  H  H169  1  0.867900  0.516900  0.994700  1.0  0.0731
  H  H170  1  0.714100  0.561200  0.848600  1.0  0.0866
  H  H171  1  0.726300  0.828600  0.255400  1.0  0.0763
  H  H172  1  0.865600  0.674100  0.267400  1.0  0.0828
  H  H173  1  0.922600  0.815000  0.485900  1.0  0.0779
  H  H174  1  0.923300  0.879600  0.339600  1.0  0.0827
  H  H175  1  0.021900  0.882000  0.536900  1.0  0.1281
  H  H176  1  0.020400  0.953800  0.386700  1.0  0.1255
  H  H177  1  0.298500  0.134700  0.549500  1.0  0.1281
  H  H178  1  0.144400  0.085100  0.396400  1.0  0.1186
  H  H179  1  0.133600  0.939400  0.661700  1.0  0.1218
  H  H180  1  0.301300  0.042100  0.665800  1.0  0.1215
  H  H181  1  0.349200  0.202300  0.500500  1.0  0.0798
  H  H182  1  0.199100  0.155000  0.352700  1.0  0.0871
  H  H183  1  0.187600  0.924500  0.759800  1.0  0.0801
  H  H184  1  0.350000  0.023900  0.763800  1.0  0.0777
  H  H185  1  0.944200  0.398400  0.990100  1.0  0.0856
  H  H186  1  0.956200  0.362400  0.844900  1.0  0.0827
  H  H187  1  0.043800  0.331500  0.040100  1.0  0.1244
  H  H188  1  0.054500  0.289800  0.890300  1.0  0.1309
  H  H189  1  0.320800  0.087900  0.045300  1.0  0.1244
  H  H190  1  0.162600  0.133900  0.894100  1.0  0.1177
  H  H191  1  0.177300  0.318900  0.156900  1.0  0.1257
  H  H192  1  0.322800  0.161800  0.168800  1.0  0.1267
  H  H193  1  0.367900  0.016900  0.994700  1.0  0.0731
  H  H194  1  0.214100  0.061200  0.848600  1.0  0.0866
  H  H195  1  0.226300  0.328600  0.255400  1.0  0.0763
  H  H196  1  0.365600  0.174100  0.267400  1.0  0.0828
  H  H197  1  0.422600  0.315000  0.485900  1.0  0.0779
  H  H198  1  0.423300  0.379600  0.339600  1.0  0.0827
  H  H199  1  0.521900  0.382000  0.536900  1.0  0.1281
  H  H200  1  0.520400  0.453800  0.386700  1.0  0.1255
  H  H201  1  0.798500  0.634700  0.549500  1.0  0.1281
  H  H202  1  0.644400  0.585100  0.396400  1.0  0.1186
  H  H203  1  0.633600  0.439400  0.661700  1.0  0.1218
  H  H204  1  0.801300  0.542100  0.665800  1.0  0.1215
  H  H205  1  0.849200  0.702300  0.500500  1.0  0.0798
  H  H206  1  0.699100  0.655000  0.352700  1.0  0.0871
  H  H207  1  0.687600  0.424500  0.759800  1.0  0.0801
  H  H208  1  0.850000  0.523900  0.763800  1.0  0.0777
  C  C209  1  0.466590  0.123700  0.469830  1.0  0.1728
  C  C210  1  0.473360  0.145500  0.384510  1.0  0.1759
  C  C211  1  0.526260  0.164000  0.500170  1.0  -0.1488
  C  C212  1  0.533090  0.188400  0.411430  1.0  -0.1517
  C  C213  1  0.559950  0.197800  0.470580  1.0  -0.1
  C  C214  1  0.624150  0.243000  0.502660  1.0  0.3823
  C  C215  1  0.706140  0.327400  0.505610  1.0  0.3672
  C  C216  1  0.709800  0.273500  0.587740  1.0  0.378
  C  C217  1  0.736290  0.377800  0.475030  1.0  -0.0634
  C  C218  1  0.742920  0.263300  0.651840  1.0  -0.072
  C  C219  1  0.798540  0.415900  0.505370  1.0  -0.1638
  C  C220  1  0.704680  0.388800  0.415520  1.0  -0.1462
  C  C221  1  0.715270  0.211800  0.678600  1.0  -0.1543
  C  C222  1  0.801450  0.305500  0.685460  1.0  -0.1551
  C  C223  1  0.826010  0.459200  0.474370  1.0  0.1791
  C  C224  1  0.735760  0.433200  0.388500  1.0  0.1679
  C  C225  1  0.744940  0.206800  0.737870  1.0  0.1746
  C  C226  1  0.826800  0.297100  0.744750  1.0  0.1848
  C  C227  1  0.942930  0.157700  0.965800  1.0  0.1662
  C  C228  1  0.942990  0.119000  0.879720  1.0  0.1741
  C  C229  1  0.002290  0.117200  0.996770  1.0  -0.132
  C  C230  1  0.001890  0.075100  0.907600  1.0  -0.1422
  C  C231  1  0.032500  0.075200  0.967250  1.0  -0.108
  C  C232  1  0.097190  0.030800  0.001410  1.0  0.3683
  C  C233  1  0.181970  0.949300  0.007240  1.0  0.368
  C  C234  1  0.179460  0.997900  0.088650  1.0  0.3809
  C  C235  1  0.215060  0.900000  0.978040  1.0  -0.0039
  C  C236  1  0.210980  0.007300  0.152240  1.0  -0.0898
  C  C237  1  0.277660  0.862600  0.009500  1.0  -0.1597
  C  C238  1  0.186130  0.891900  0.918590  1.0  -0.1586
  C  C239  1  0.177630  0.042900  0.181620  1.0  -0.1299
  C  C240  1  0.277210  0.981800  0.183920  1.0  -0.1658
  C  C241  1  0.307550  0.821700  0.979510  1.0  0.1749
  C  C242  1  0.219420  0.849600  0.892670  1.0  0.1651
  C  C243  1  0.210510  0.051600  0.240650  1.0  0.1779
  C  C244  1  0.305830  0.993200  0.242880  1.0  0.1674
  C  C245  1  0.966590  0.623700  0.469830  1.0  0.1728
  C  C246  1  0.973360  0.645500  0.384510  1.0  0.1759
  C  C247  1  0.026260  0.664000  0.500170  1.0  -0.1488
  C  C248  1  0.033090  0.688400  0.411430  1.0  -0.1517
  C  C249  1  0.059950  0.697800  0.470580  1.0  -0.1
  C  C250  1  0.124150  0.743000  0.502660  1.0  0.3823
  C  C251  1  0.206140  0.827400  0.505610  1.0  0.3672
  C  C252  1  0.209800  0.773500  0.587740  1.0  0.378
  C  C253  1  0.236290  0.877800  0.475030  1.0  -0.0634
  C  C254  1  0.242920  0.763300  0.651840  1.0  -0.072
  C  C255  1  0.298540  0.915900  0.505370  1.0  -0.1638
  C  C256  1  0.204680  0.888800  0.415520  1.0  -0.1462
  C  C257  1  0.215270  0.711800  0.678600  1.0  -0.1543
  C  C258  1  0.301450  0.805500  0.685460  1.0  -0.1551
  C  C259  1  0.326010  0.959200  0.474370  1.0  0.1791
  C  C260  1  0.235760  0.933200  0.388500  1.0  0.1679
  C  C261  1  0.244940  0.706800  0.737870  1.0  0.1746
  C  C262  1  0.326800  0.797100  0.744750  1.0  0.1848
  C  C263  1  0.442930  0.657700  0.965800  1.0  0.1662
  C  C264  1  0.442990  0.619000  0.879720  1.0  0.1741
  C  C265  1  0.502290  0.617200  0.996770  1.0  -0.132
  C  C266  1  0.501890  0.575100  0.907600  1.0  -0.1422
  C  C267  1  0.532500  0.575200  0.967250  1.0  -0.108
  C  C268  1  0.597190  0.530800  0.001410  1.0  0.3683
  C  C269  1  0.681970  0.449300  0.007240  1.0  0.368
  C  C270  1  0.679460  0.497900  0.088650  1.0  0.3809
  C  C271  1  0.715060  0.400000  0.978040  1.0  -0.0039
  C  C272  1  0.710980  0.507300  0.152240  1.0  -0.0898
  C  C273  1  0.777660  0.362600  0.009500  1.0  -0.1597
  C  C274  1  0.686130  0.391900  0.918590  1.0  -0.1586
  C  C275  1  0.677630  0.542900  0.181620  1.0  -0.1299
  C  C276  1  0.777210  0.481800  0.183920  1.0  -0.1658
  C  C277  1  0.807550  0.321700  0.979510  1.0  0.1749
  C  C278  1  0.719420  0.349600  0.892670  1.0  0.1651
  C  C279  1  0.710510  0.551600  0.240650  1.0  0.1779
  C  C280  1  0.805830  0.493200  0.242880  1.0  0.1674
  C  C281  1  0.533410  0.123700  0.030170  1.0  0.1721
  C  C282  1  0.526640  0.145500  0.115490  1.0  0.1757
  C  C283  1  0.473740  0.164000  0.999830  1.0  -0.1478
  C  C284  1  0.466910  0.188400  0.088570  1.0  -0.1544
  C  C285  1  0.440050  0.197800  0.029420  1.0  -0.1009
  C  C286  1  0.375850  0.243000  0.997340  1.0  0.3828
  C  C287  1  0.293860  0.327400  0.994390  1.0  0.3671
  C  C288  1  0.290200  0.273500  0.912260  1.0  0.3772
  C  C289  1  0.263710  0.377800  0.024970  1.0  -0.0628
  C  C290  1  0.257080  0.263300  0.848160  1.0  -0.0713
  C  C291  1  0.201460  0.415900  0.994630  1.0  -0.1623
  C  C292  1  0.295320  0.388800  0.084480  1.0  -0.1476
  C  C293  1  0.284730  0.211800  0.821400  1.0  -0.1554
  C  C294  1  0.198550  0.305500  0.814540  1.0  -0.1548
  C  C295  1  0.173990  0.459200  0.025630  1.0  0.1794
  C  C296  1  0.264240  0.433200  0.111500  1.0  0.1662
  C  C297  1  0.255060  0.206800  0.762130  1.0  0.1741
  C  C298  1  0.173200  0.297100  0.755250  1.0  0.1849
  C  C299  1  0.057070  0.157700  0.534200  1.0  0.1673
  C  C300  1  0.057010  0.119000  0.620280  1.0  0.1737
  C  C301  1  0.997710  0.117200  0.503230  1.0  -0.1316
  C  C302  1  0.998110  0.075100  0.592400  1.0  -0.1462
  C  C303  1  0.967500  0.075200  0.532750  1.0  -0.1092
  C  C304  1  0.902810  0.030800  0.498590  1.0  0.3677
  C  C305  1  0.818030  0.949300  0.492760  1.0  0.3683
  C  C306  1  0.820540  0.997900  0.411350  1.0  0.38
  C  C307  1  0.784940  0.900000  0.521960  1.0  -0.0035
  C  C308  1  0.789020  0.007300  0.347760  1.0  -0.0897
  C  C309  1  0.722340  0.862600  0.490500  1.0  -0.1604
  C  C310  1  0.813870  0.891900  0.581410  1.0  -0.1599
  C  C311  1  0.822370  0.042900  0.318380  1.0  -0.1314
  C  C312  1  0.722790  0.981800  0.316080  1.0  -0.1662
  C  C313  1  0.692450  0.821700  0.520490  1.0  0.175
  C  C314  1  0.780580  0.849600  0.607330  1.0  0.1649
  C  C315  1  0.789490  0.051600  0.259350  1.0  0.1787
  C  C316  1  0.694170  0.993200  0.257120  1.0  0.1677
  C  C317  1  0.033410  0.623700  0.030170  1.0  0.1721
  C  C318  1  0.026640  0.645500  0.115490  1.0  0.1757
  C  C319  1  0.973740  0.664000  0.999830  1.0  -0.1478
  C  C320  1  0.966910  0.688400  0.088570  1.0  -0.1544
  C  C321  1  0.940050  0.697800  0.029420  1.0  -0.1009
  C  C322  1  0.875850  0.743000  0.997340  1.0  0.3828
  C  C323  1  0.793860  0.827400  0.994390  1.0  0.3671
  C  C324  1  0.790200  0.773500  0.912260  1.0  0.3772
  C  C325  1  0.763710  0.877800  0.024970  1.0  -0.0628
  C  C326  1  0.757080  0.763300  0.848160  1.0  -0.0713
  C  C327  1  0.701460  0.915900  0.994630  1.0  -0.1623
  C  C328  1  0.795320  0.888800  0.084480  1.0  -0.1476
  C  C329  1  0.784730  0.711800  0.821400  1.0  -0.1554
  C  C330  1  0.698550  0.805500  0.814540  1.0  -0.1548
  C  C331  1  0.673990  0.959200  0.025630  1.0  0.1794
  C  C332  1  0.764240  0.933200  0.111500  1.0  0.1662
  C  C333  1  0.755060  0.706800  0.762130  1.0  0.1741
  C  C334  1  0.673200  0.797100  0.755250  1.0  0.1849
  C  C335  1  0.557070  0.657700  0.534200  1.0  0.1673
  C  C336  1  0.557010  0.619000  0.620280  1.0  0.1737
  C  C337  1  0.497710  0.617200  0.503230  1.0  -0.1316
  C  C338  1  0.498110  0.575100  0.592400  1.0  -0.1462
  C  C339  1  0.467500  0.575200  0.532750  1.0  -0.1092
  C  C340  1  0.402810  0.530800  0.498590  1.0  0.3677
  C  C341  1  0.318030  0.449300  0.492760  1.0  0.3683
  C  C342  1  0.320540  0.497900  0.411350  1.0  0.38
  C  C343  1  0.284940  0.400000  0.521960  1.0  -0.0035
  C  C344  1  0.289020  0.507300  0.347760  1.0  -0.0897
  C  C345  1  0.222340  0.362600  0.490500  1.0  -0.1604
  C  C346  1  0.313870  0.391900  0.581410  1.0  -0.1599
  C  C347  1  0.322370  0.542900  0.318380  1.0  -0.1314
  C  C348  1  0.222790  0.481800  0.316080  1.0  -0.1662
  C  C349  1  0.192450  0.321700  0.520490  1.0  0.175
  C  C350  1  0.280580  0.349600  0.607330  1.0  0.1649
  C  C351  1  0.289490  0.551600  0.259350  1.0  0.1787
  C  C352  1  0.194170  0.493200  0.257120  1.0  0.1677
  C  C353  1  0.533410  0.876300  0.530170  1.0  0.1728
  C  C354  1  0.526640  0.854500  0.615490  1.0  0.1751
  C  C355  1  0.473740  0.836000  0.499830  1.0  -0.148
  C  C356  1  0.466910  0.811600  0.588570  1.0  -0.1544
  C  C357  1  0.440050  0.802200  0.529420  1.0  -0.1002
  C  C358  1  0.375850  0.757000  0.497340  1.0  0.3824
  C  C359  1  0.293860  0.672600  0.494390  1.0  0.3672
  C  C360  1  0.290200  0.726500  0.412260  1.0  0.377
  C  C361  1  0.263710  0.622200  0.524970  1.0  -0.0623
  C  C362  1  0.257080  0.736700  0.348160  1.0  -0.0713
  C  C363  1  0.201460  0.584100  0.494630  1.0  -0.1618
  C  C364  1  0.295320  0.611200  0.584480  1.0  -0.1472
  C  C365  1  0.284730  0.788200  0.321400  1.0  -0.1551
  C  C366  1  0.198550  0.694500  0.314540  1.0  -0.1552
  C  C367  1  0.173990  0.540800  0.525630  1.0  0.1802
  C  C368  1  0.264240  0.566800  0.611500  1.0  0.1665
  C  C369  1  0.255060  0.793200  0.262130  1.0  0.174
  C  C370  1  0.173200  0.702900  0.255250  1.0  0.1843
  C  C371  1  0.057070  0.842300  0.034200  1.0  0.1678
  C  C372  1  0.057010  0.881000  0.120280  1.0  0.1737
  C  C373  1  0.997710  0.882800  0.003230  1.0  -0.1311
  C  C374  1  0.998110  0.924900  0.092400  1.0  -0.1459
  C  C375  1  0.967500  0.924800  0.032750  1.0  -0.1089
  C  C376  1  0.902810  0.969200  0.998590  1.0  0.3676
  C  C377  1  0.818030  0.050700  0.992760  1.0  0.3683
  C  C378  1  0.820540  0.002100  0.911350  1.0  0.3802
  C  C379  1  0.784940  0.100000  0.021960  1.0  -0.0028
  C  C380  1  0.789020  0.992700  0.847760  1.0  -0.0902
  C  C381  1  0.722340  0.137400  0.990500  1.0  -0.1607
  C  C382  1  0.813870  0.108100  0.081410  1.0  -0.1601
  C  C383  1  0.822370  0.957100  0.818380  1.0  -0.1312
  C  C384  1  0.722790  0.018200  0.816080  1.0  -0.1676
  C  C385  1  0.692450  0.178300  0.020490  1.0  0.1741
  C  C386  1  0.780580  0.150400  0.107330  1.0  0.165
  C  C387  1  0.789490  0.948400  0.759350  1.0  0.1786
  C  C388  1  0.694170  0.006800  0.757120  1.0  0.1672
  C  C389  1  0.033410  0.376300  0.530170  1.0  0.1728
  C  C390  1  0.026640  0.354500  0.615490  1.0  0.1751
  C  C391  1  0.973740  0.336000  0.499830  1.0  -0.148
  C  C392  1  0.966910  0.311600  0.588570  1.0  -0.1544
  C  C393  1  0.940050  0.302200  0.529420  1.0  -0.1002
  C  C394  1  0.875850  0.257000  0.497340  1.0  0.3824
  C  C395  1  0.793860  0.172600  0.494390  1.0  0.3672
  C  C396  1  0.790200  0.226500  0.412260  1.0  0.377
  C  C397  1  0.763710  0.122200  0.524970  1.0  -0.0623
  C  C398  1  0.757080  0.236700  0.348160  1.0  -0.0713
  C  C399  1  0.701460  0.084100  0.494630  1.0  -0.1618
  C  C400  1  0.795320  0.111200  0.584480  1.0  -0.1472
  C  C401  1  0.784730  0.288200  0.321400  1.0  -0.1551
  C  C402  1  0.698550  0.194500  0.314540  1.0  -0.1552
  C  C403  1  0.673990  0.040800  0.525630  1.0  0.1802
  C  C404  1  0.764240  0.066800  0.611500  1.0  0.1665
  C  C405  1  0.755060  0.293200  0.262130  1.0  0.174
  C  C406  1  0.673200  0.202900  0.255250  1.0  0.1843
  C  C407  1  0.557070  0.342300  0.034200  1.0  0.1678
  C  C408  1  0.557010  0.381000  0.120280  1.0  0.1737
  C  C409  1  0.497710  0.382800  0.003230  1.0  -0.1311
  C  C410  1  0.498110  0.424900  0.092400  1.0  -0.1459
  C  C411  1  0.467500  0.424800  0.032750  1.0  -0.1089
  C  C412  1  0.402810  0.469200  0.998590  1.0  0.3676
  C  C413  1  0.318030  0.550700  0.992760  1.0  0.3683
  C  C414  1  0.320540  0.502100  0.911350  1.0  0.3802
  C  C415  1  0.284940  0.600000  0.021960  1.0  -0.0028
  C  C416  1  0.289020  0.492700  0.847760  1.0  -0.0902
  C  C417  1  0.222340  0.637400  0.990500  1.0  -0.1607
  C  C418  1  0.313870  0.608100  0.081410  1.0  -0.1601
  C  C419  1  0.322370  0.457100  0.818380  1.0  -0.1312
  C  C420  1  0.222790  0.518200  0.816080  1.0  -0.1676
  C  C421  1  0.192450  0.678300  0.020490  1.0  0.1741
  C  C422  1  0.280580  0.650400  0.107330  1.0  0.165
  C  C423  1  0.289490  0.448400  0.759350  1.0  0.1786
  C  C424  1  0.194170  0.506800  0.757120  1.0  0.1672
  C  C425  1  0.466590  0.876300  0.969830  1.0  0.1717
  C  C426  1  0.473360  0.854500  0.884510  1.0  0.1758
  C  C427  1  0.526260  0.836000  0.000170  1.0  -0.1489
  C  C428  1  0.533090  0.811600  0.911430  1.0  -0.1513
  C  C429  1  0.559950  0.802200  0.970580  1.0  -0.1001
  C  C430  1  0.624150  0.757000  0.002660  1.0  0.3818
  C  C431  1  0.706140  0.672600  0.005610  1.0  0.3674
  C  C432  1  0.709800  0.726500  0.087740  1.0  0.3778
  C  C433  1  0.736290  0.622200  0.975030  1.0  -0.0634
  C  C434  1  0.742920  0.736700  0.151840  1.0  -0.0723
  C  C435  1  0.798540  0.584100  0.005370  1.0  -0.164
  C  C436  1  0.704680  0.611200  0.915520  1.0  -0.1467
  C  C437  1  0.715270  0.788200  0.178600  1.0  -0.154
  C  C438  1  0.801450  0.694500  0.185460  1.0  -0.155
  C  C439  1  0.826010  0.540800  0.974370  1.0  0.1797
  C  C440  1  0.735760  0.566800  0.888500  1.0  0.1682
  C  C441  1  0.744940  0.793200  0.237870  1.0  0.1747
  C  C442  1  0.826800  0.702900  0.244750  1.0  0.1843
  C  C443  1  0.942930  0.842300  0.465800  1.0  0.167
  C  C444  1  0.942990  0.881000  0.379720  1.0  0.1736
  C  C445  1  0.002290  0.882800  0.496770  1.0  -0.1316
  C  C446  1  0.001890  0.924900  0.407600  1.0  -0.1419
  C  C447  1  0.032500  0.924800  0.467250  1.0  -0.1073
  C  C448  1  0.097190  0.969200  0.501410  1.0  0.3682
  C  C449  1  0.181970  0.050700  0.507240  1.0  0.3679
  C  C450  1  0.179460  0.002100  0.588650  1.0  0.3812
  C  C451  1  0.215060  0.100000  0.478040  1.0  -0.0035
  C  C452  1  0.210980  0.992700  0.652240  1.0  -0.09
  C  C453  1  0.277660  0.137400  0.509500  1.0  -0.1594
  C  C454  1  0.186130  0.108100  0.418590  1.0  -0.1591
  C  C455  1  0.177630  0.957100  0.681620  1.0  -0.13
  C  C456  1  0.277210  0.018200  0.683920  1.0  -0.1666
  C  C457  1  0.307550  0.178300  0.479510  1.0  0.1741
  C  C458  1  0.219420  0.150400  0.392670  1.0  0.1654
  C  C459  1  0.210510  0.948400  0.740650  1.0  0.1774
  C  C460  1  0.305830  0.006800  0.742880  1.0  0.1668
  C  C461  1  0.966590  0.376300  0.969830  1.0  0.1717
  C  C462  1  0.973360  0.354500  0.884510  1.0  0.1758
  C  C463  1  0.026260  0.336000  0.000170  1.0  -0.1489
  C  C464  1  0.033090  0.311600  0.911430  1.0  -0.1513
  C  C465  1  0.059950  0.302200  0.970580  1.0  -0.1001
  C  C466  1  0.124150  0.257000  0.002660  1.0  0.3818
  C  C467  1  0.206140  0.172600  0.005610  1.0  0.3674
  C  C468  1  0.209800  0.226500  0.087740  1.0  0.3778
  C  C469  1  0.236290  0.122200  0.975030  1.0  -0.0634
  C  C470  1  0.242920  0.236700  0.151840  1.0  -0.0723
  C  C471  1  0.298540  0.084100  0.005370  1.0  -0.164
  C  C472  1  0.204680  0.111200  0.915520  1.0  -0.1467
  C  C473  1  0.215270  0.288200  0.178600  1.0  -0.154
  C  C474  1  0.301450  0.194500  0.185460  1.0  -0.155
  C  C475  1  0.326010  0.040800  0.974370  1.0  0.1797
  C  C476  1  0.235760  0.066800  0.888500  1.0  0.1682
  C  C477  1  0.244940  0.293200  0.237870  1.0  0.1747
  C  C478  1  0.326800  0.202900  0.244750  1.0  0.1843
  C  C479  1  0.442930  0.342300  0.465800  1.0  0.167
  C  C480  1  0.442990  0.381000  0.379720  1.0  0.1736
  C  C481  1  0.502290  0.382800  0.496770  1.0  -0.1316
  C  C482  1  0.501890  0.424900  0.407600  1.0  -0.1419
  C  C483  1  0.532500  0.424800  0.467250  1.0  -0.1073
  C  C484  1  0.597190  0.469200  0.501410  1.0  0.3682
  C  C485  1  0.681970  0.550700  0.507240  1.0  0.3679
  C  C486  1  0.679460  0.502100  0.588650  1.0  0.3812
  C  C487  1  0.715060  0.600000  0.478040  1.0  -0.0035
  C  C488  1  0.710980  0.492700  0.652240  1.0  -0.09
  C  C489  1  0.777660  0.637400  0.509500  1.0  -0.1594
  C  C490  1  0.686130  0.608100  0.418590  1.0  -0.1591
  C  C491  1  0.677630  0.457100  0.681620  1.0  -0.13
  C  C492  1  0.777210  0.518200  0.683920  1.0  -0.1666
  C  C493  1  0.807550  0.678300  0.479510  1.0  0.1741
  C  C494  1  0.719420  0.650400  0.392670  1.0  0.1654
  C  C495  1  0.710510  0.448400  0.740650  1.0  0.1774
  C  C496  1  0.805830  0.506800  0.742880  1.0  0.1668
  N  N497  1  0.439140  0.115000  0.411980  1.0  -0.3308
  N  N498  1  0.796280  0.469080  0.417150  1.0  -0.3683
  N  N499  1  0.274580  0.027000  0.271970  1.0  -0.3677
  N  N500  1  0.647950  0.289100  0.472970  1.0  -0.5127
  N  N501  1  0.653260  0.231400  0.559860  1.0  -0.483
  N  N502  1  0.738500  0.322770  0.563300  1.0  -0.53
  N  N503  1  0.799220  0.250300  0.771620  1.0  -0.3437
  N  N504  1  0.912780  0.159700  0.907820  1.0  -0.3499
  N  N505  1  0.279810  0.814580  0.921770  1.0  -0.3505
  N  N506  1  0.126020  0.990400  0.973250  1.0  -0.5204
  N  N507  1  0.121660  0.037760  0.059300  1.0  -0.5159
  N  N508  1  0.210710  0.950900  0.064790  1.0  -0.4944
  N  N509  1  0.939140  0.615000  0.411980  1.0  -0.3308
  N  N510  1  0.296280  0.969080  0.417150  1.0  -0.3683
  N  N511  1  0.774580  0.527000  0.271970  1.0  -0.3677
  N  N512  1  0.147950  0.789100  0.472970  1.0  -0.5127
  N  N513  1  0.153260  0.731400  0.559860  1.0  -0.483
  N  N514  1  0.238500  0.822770  0.563300  1.0  -0.53
  N  N515  1  0.299220  0.750300  0.771620  1.0  -0.3437
  N  N516  1  0.412780  0.659700  0.907820  1.0  -0.3499
  N  N517  1  0.779810  0.314580  0.921770  1.0  -0.3505
  N  N518  1  0.626020  0.490400  0.973250  1.0  -0.5204
  N  N519  1  0.621660  0.537760  0.059300  1.0  -0.5159
  N  N520  1  0.710710  0.450900  0.064790  1.0  -0.4944
  N  N521  1  0.560860  0.115000  0.088020  1.0  -0.3278
  N  N522  1  0.203720  0.469080  0.082850  1.0  -0.3707
  N  N523  1  0.725420  0.027000  0.228030  1.0  -0.3682
  N  N524  1  0.352050  0.289100  0.027030  1.0  -0.5132
  N  N525  1  0.346740  0.231400  0.940140  1.0  -0.4823
  N  N526  1  0.261500  0.322770  0.936700  1.0  -0.5302
  N  N527  1  0.200780  0.250300  0.728380  1.0  -0.3465
  N  N528  1  0.087220  0.159700  0.592180  1.0  -0.3494
  N  N529  1  0.720190  0.814580  0.578230  1.0  -0.3475
  N  N530  1  0.873980  0.990400  0.526750  1.0  -0.5175
  N  N531  1  0.878340  0.037760  0.440700  1.0  -0.5147
  N  N532  1  0.789290  0.950900  0.435210  1.0  -0.4957
  N  N533  1  0.060860  0.615000  0.088020  1.0  -0.3278
  N  N534  1  0.703720  0.969080  0.082850  1.0  -0.3707
  N  N535  1  0.225420  0.527000  0.228030  1.0  -0.3682
  N  N536  1  0.852050  0.789100  0.027030  1.0  -0.5132
  N  N537  1  0.846740  0.731400  0.940140  1.0  -0.4823
  N  N538  1  0.761500  0.822770  0.936700  1.0  -0.5302
  N  N539  1  0.700780  0.750300  0.728380  1.0  -0.3465
  N  N540  1  0.587220  0.659700  0.592180  1.0  -0.3494
  N  N541  1  0.220190  0.314580  0.578230  1.0  -0.3475
  N  N542  1  0.373980  0.490400  0.526750  1.0  -0.5175
  N  N543  1  0.378340  0.537760  0.440700  1.0  -0.5147
  N  N544  1  0.289290  0.450900  0.435210  1.0  -0.4957
  N  N545  1  0.560860  0.885000  0.588020  1.0  -0.3271
  N  N546  1  0.203720  0.530920  0.582850  1.0  -0.3691
  N  N547  1  0.725420  0.973000  0.728030  1.0  -0.3689
  N  N548  1  0.352050  0.710900  0.527030  1.0  -0.5134
  N  N549  1  0.346740  0.768600  0.440140  1.0  -0.4816
  N  N550  1  0.261500  0.677230  0.436700  1.0  -0.531
  N  N551  1  0.200780  0.749700  0.228380  1.0  -0.3461
  N  N552  1  0.087220  0.840300  0.092180  1.0  -0.3483
  N  N553  1  0.720190  0.185420  0.078230  1.0  -0.3475
  N  N554  1  0.873980  0.009600  0.026750  1.0  -0.5189
  N  N555  1  0.878340  0.962240  0.940700  1.0  -0.5147
  N  N556  1  0.789290  0.049100  0.935210  1.0  -0.4946
  N  N557  1  0.060860  0.385000  0.588020  1.0  -0.3271
  N  N558  1  0.703720  0.030920  0.582850  1.0  -0.3691
  N  N559  1  0.225420  0.473000  0.728030  1.0  -0.3689
  N  N560  1  0.852050  0.210900  0.527030  1.0  -0.5134
  N  N561  1  0.846740  0.268600  0.440140  1.0  -0.4816
  N  N562  1  0.761500  0.177230  0.436700  1.0  -0.531
  N  N563  1  0.700780  0.249700  0.228380  1.0  -0.3461
  N  N564  1  0.587220  0.340300  0.092180  1.0  -0.3483
  N  N565  1  0.220190  0.685420  0.078230  1.0  -0.3475
  N  N566  1  0.373980  0.509600  0.026750  1.0  -0.5189
  N  N567  1  0.378340  0.462240  0.940700  1.0  -0.5147
  N  N568  1  0.289290  0.549100  0.935210  1.0  -0.4946
  N  N569  1  0.439140  0.885000  0.911980  1.0  -0.326
  N  N570  1  0.796280  0.530920  0.917150  1.0  -0.3693
  N  N571  1  0.274580  0.973000  0.771970  1.0  -0.3677
  N  N572  1  0.647950  0.710900  0.972970  1.0  -0.513
  N  N573  1  0.653260  0.768600  0.059860  1.0  -0.4835
  N  N574  1  0.738500  0.677230  0.063300  1.0  -0.5294
  N  N575  1  0.799220  0.749700  0.271620  1.0  -0.3439
  N  N576  1  0.912780  0.840300  0.407820  1.0  -0.3511
  N  N577  1  0.279810  0.185420  0.421770  1.0  -0.3475
  N  N578  1  0.126020  0.009600  0.473250  1.0  -0.5207
  N  N579  1  0.121660  0.962240  0.559300  1.0  -0.5155
  N  N580  1  0.210710  0.049100  0.564790  1.0  -0.4945
  N  N581  1  0.939140  0.385000  0.911980  1.0  -0.326
  N  N582  1  0.296280  0.030920  0.917150  1.0  -0.3693
  N  N583  1  0.774580  0.473000  0.771970  1.0  -0.3677
  N  N584  1  0.147950  0.210900  0.972970  1.0  -0.513
  N  N585  1  0.153260  0.268600  0.059860  1.0  -0.4835
  N  N586  1  0.238500  0.177230  0.063300  1.0  -0.5294
  N  N587  1  0.299220  0.249700  0.271620  1.0  -0.3439
  N  N588  1  0.412780  0.340300  0.407820  1.0  -0.3511
  N  N589  1  0.779810  0.685420  0.421770  1.0  -0.3475
  N  N590  1  0.626020  0.509600  0.473250  1.0  -0.5207
  N  N591  1  0.621660  0.462240  0.559300  1.0  -0.5155
  N  N592  1  0.710710  0.549100  0.564790  1.0  -0.4945
