# generated using pymatgen
data_AgH12(C3N)6
_symmetry_space_group_name_H-M   'P 1'
_cell_length_a   22.03660000
_cell_length_b   16.45320000
_cell_length_c   25.68050000
_cell_angle_alpha   90.00000000
_cell_angle_beta   115.39700000
_cell_angle_gamma   90.00000000
_symmetry_Int_Tables_number   1
_chemical_formula_structural   AgH12(C3N)6
_chemical_formula_sum   'Ag16 H192 C288 N96'
_cell_volume   8411.20495935
_cell_formula_units_Z   16
loop_
 _symmetry_equiv_pos_site_id
 _symmetry_equiv_pos_as_xyz
  1  'x, y, z'
loop_
 _atom_site_type_symbol
 _atom_site_label
 _atom_site_symmetry_multiplicity
 _atom_site_fract_x
 _atom_site_fract_y
 _atom_site_fract_z
 _atom_site_occupancy
 _atom_site_charge
  Ag  Ag1  1  0.274040  0.708560  0.868200  1.0  0.3362
  Ag  Ag2  1  0.794650  0.000210  0.367680  1.0  0.2893
  Ag  Ag3  1  0.774040  0.208560  0.868200  1.0  0.3362
  Ag  Ag4  1  0.294650  0.500210  0.367680  1.0  0.2893
  Ag  Ag5  1  0.725960  0.708560  0.631800  1.0  0.3362
  Ag  Ag6  1  0.205350  0.000210  0.132320  1.0  0.2897
  Ag  Ag7  1  0.225960  0.208560  0.631800  1.0  0.3362
  Ag  Ag8  1  0.705350  0.500210  0.132320  1.0  0.2897
  Ag  Ag9  1  0.725960  0.291440  0.131800  1.0  0.3362
  Ag  Ag10  1  0.205350  0.999790  0.632320  1.0  0.2895
  Ag  Ag11  1  0.225960  0.791440  0.131800  1.0  0.3362
  Ag  Ag12  1  0.705350  0.499790  0.632320  1.0  0.2895
  Ag  Ag13  1  0.274040  0.291440  0.368200  1.0  0.3361
  Ag  Ag14  1  0.794650  0.999790  0.867680  1.0  0.2891
  Ag  Ag15  1  0.774040  0.791440  0.368200  1.0  0.3361
  Ag  Ag16  1  0.294650  0.499790  0.867680  1.0  0.2891
  H  H17  1  0.585800  0.040400  0.890600  1.0  0.1308
  H  H18  1  0.403300  0.404300  0.352900  1.0  0.0927
  H  H19  1  0.500600  0.383600  0.549500  1.0  0.124
  H  H20  1  0.385000  0.810800  0.849000  1.0  0.0859
  H  H21  1  0.764700  0.132800  0.536800  1.0  0.1294
  H  H22  1  0.745500  0.082100  0.040000  1.0  0.1254
  H  H23  1  0.812500  0.065200  0.485800  1.0  0.0758
  H  H24  1  0.481800  0.883500  0.894400  1.0  0.1154
  H  H25  1  0.822100  0.174600  0.759900  1.0  0.0804
  H  H26  1  0.795100  0.149400  0.989900  1.0  0.0796
  H  H27  1  0.638700  0.112700  0.845000  1.0  0.0841
  H  H28  1  0.728000  0.069800  0.156900  1.0  0.1236
  H  H29  1  0.502100  0.335100  0.397000  1.0  0.1182
  H  H30  1  0.474400  0.837900  0.045400  1.0  0.1225
  H  H31  1  0.777500  0.189600  0.661700  1.0  0.1135
  H  H32  1  0.663900  0.274200  0.764300  1.0  0.0781
  H  H33  1  0.614100  0.292300  0.665700  1.0  0.1203
  H  H34  1  0.778300  0.078900  0.255300  1.0  0.0827
  H  H35  1  0.377600  0.766900  0.995200  1.0  0.0718
  H  H36  1  0.616300  0.203600  0.387300  1.0  0.1283
  H  H37  1  0.595700  0.912300  0.168900  1.0  0.1266
  H  H38  1  0.651400  0.923900  0.267300  1.0  0.0814
  H  H39  1  0.401700  0.453200  0.500900  1.0  0.0771
  H  H40  1  0.666500  0.130300  0.339900  1.0  0.0779
  H  H41  1  0.085800  0.540400  0.890600  1.0  0.1308
  H  H42  1  0.903300  0.904300  0.352900  1.0  0.0927
  H  H43  1  0.000600  0.883600  0.549500  1.0  0.124
  H  H44  1  0.885000  0.310800  0.849000  1.0  0.0859
  H  H45  1  0.264700  0.632800  0.536800  1.0  0.1294
  H  H46  1  0.245500  0.582100  0.040000  1.0  0.1254
  H  H47  1  0.312500  0.565200  0.485800  1.0  0.0758
  H  H48  1  0.981800  0.383500  0.894400  1.0  0.1154
  H  H49  1  0.322100  0.674600  0.759900  1.0  0.0803
  H  H50  1  0.295100  0.649400  0.989900  1.0  0.0796
  H  H51  1  0.138700  0.612700  0.845000  1.0  0.0841
  H  H52  1  0.228000  0.569800  0.156900  1.0  0.1236
  H  H53  1  0.002100  0.835100  0.397000  1.0  0.1182
  H  H54  1  0.974400  0.337900  0.045400  1.0  0.1225
  H  H55  1  0.277500  0.689600  0.661700  1.0  0.1135
  H  H56  1  0.163900  0.774200  0.764300  1.0  0.0781
  H  H57  1  0.114100  0.792300  0.665700  1.0  0.1203
  H  H58  1  0.278300  0.578900  0.255300  1.0  0.0827
  H  H59  1  0.877600  0.266900  0.995200  1.0  0.0718
  H  H60  1  0.116300  0.703600  0.387300  1.0  0.1283
  H  H61  1  0.095700  0.412300  0.168900  1.0  0.1266
  H  H62  1  0.151400  0.423900  0.267300  1.0  0.0814
  H  H63  1  0.901700  0.953200  0.500900  1.0  0.0771
  H  H64  1  0.166500  0.630300  0.339900  1.0  0.0779
  H  H65  1  0.414200  0.040400  0.609400  1.0  0.1306
  H  H66  1  0.596700  0.404300  0.147100  1.0  0.0926
  H  H67  1  0.499400  0.383600  0.950500  1.0  0.1242
  H  H68  1  0.615000  0.810800  0.651000  1.0  0.0848
  H  H69  1  0.235300  0.132800  0.963200  1.0  0.1297
  H  H70  1  0.254500  0.082100  0.460000  1.0  0.1252
  H  H71  1  0.187500  0.065200  0.014200  1.0  0.0761
  H  H72  1  0.518200  0.883500  0.605600  1.0  0.1145
  H  H73  1  0.177900  0.174600  0.740100  1.0  0.0801
  H  H74  1  0.204900  0.149400  0.510100  1.0  0.0795
  H  H75  1  0.361300  0.112700  0.655000  1.0  0.0847
  H  H76  1  0.272000  0.069800  0.343100  1.0  0.1231
  H  H77  1  0.497900  0.335100  0.103000  1.0  0.1178
  H  H78  1  0.525600  0.837900  0.454600  1.0  0.1223
  H  H79  1  0.222500  0.189600  0.838300  1.0  0.1146
  H  H80  1  0.336100  0.274200  0.735700  1.0  0.0783
  H  H81  1  0.385900  0.292300  0.834300  1.0  0.1195
  H  H82  1  0.221700  0.078900  0.244700  1.0  0.0826
  H  H83  1  0.622400  0.766900  0.504800  1.0  0.0718
  H  H84  1  0.383700  0.203600  0.112700  1.0  0.1284
  H  H85  1  0.404300  0.912300  0.331100  1.0  0.1267
  H  H86  1  0.348600  0.923900  0.232700  1.0  0.0809
  H  H87  1  0.598300  0.453200  0.999100  1.0  0.0775
  H  H88  1  0.333500  0.130300  0.160100  1.0  0.0781
  H  H89  1  0.914200  0.540400  0.609400  1.0  0.1306
  H  H90  1  0.096700  0.904300  0.147100  1.0  0.0926
  H  H91  1  0.999400  0.883600  0.950500  1.0  0.1242
  H  H92  1  0.115000  0.310800  0.651000  1.0  0.0848
  H  H93  1  0.735300  0.632800  0.963200  1.0  0.1297
  H  H94  1  0.754500  0.582100  0.460000  1.0  0.1252
  H  H95  1  0.687500  0.565200  0.014200  1.0  0.0761
  H  H96  1  0.018200  0.383500  0.605600  1.0  0.1145
  H  H97  1  0.677900  0.674600  0.740100  1.0  0.0801
  H  H98  1  0.704900  0.649400  0.510100  1.0  0.0795
  H  H99  1  0.861300  0.612700  0.655000  1.0  0.0847
  H  H100  1  0.772000  0.569800  0.343100  1.0  0.1231
  H  H101  1  0.997900  0.835100  0.103000  1.0  0.1178
  H  H102  1  0.025600  0.337900  0.454600  1.0  0.1223
  H  H103  1  0.722500  0.689600  0.838300  1.0  0.1146
  H  H104  1  0.836100  0.774200  0.735700  1.0  0.0783
  H  H105  1  0.885900  0.792300  0.834300  1.0  0.1195
  H  H106  1  0.721700  0.578900  0.244700  1.0  0.0826
  H  H107  1  0.122400  0.266900  0.504800  1.0  0.0718
  H  H108  1  0.883700  0.703600  0.112700  1.0  0.1284
  H  H109  1  0.904300  0.412300  0.331100  1.0  0.1267
  H  H110  1  0.848600  0.423900  0.232700  1.0  0.0809
  H  H111  1  0.098300  0.953200  0.999100  1.0  0.0775
  H  H112  1  0.833500  0.630300  0.160100  1.0  0.0781
  H  H113  1  0.414200  0.959600  0.109400  1.0  0.1305
  H  H114  1  0.596700  0.595700  0.647100  1.0  0.0928
  H  H115  1  0.499400  0.616400  0.450500  1.0  0.1242
  H  H116  1  0.615000  0.189200  0.151000  1.0  0.0846
  H  H117  1  0.235300  0.867200  0.463200  1.0  0.1299
  H  H118  1  0.254500  0.917900  0.960000  1.0  0.1251
  H  H119  1  0.187500  0.934800  0.514200  1.0  0.0763
  H  H120  1  0.518200  0.116500  0.105600  1.0  0.1145
  H  H121  1  0.177900  0.825400  0.240100  1.0  0.0799
  H  H122  1  0.204900  0.850600  0.010100  1.0  0.0796
  H  H123  1  0.361300  0.887300  0.155000  1.0  0.0845
  H  H124  1  0.272000  0.930200  0.843100  1.0  0.1233
  H  H125  1  0.497900  0.664900  0.603000  1.0  0.118
  H  H126  1  0.525600  0.162100  0.954600  1.0  0.1227
  H  H127  1  0.222500  0.810400  0.338300  1.0  0.1148
  H  H128  1  0.336100  0.725800  0.235700  1.0  0.0782
  H  H129  1  0.385900  0.707700  0.334300  1.0  0.119
  H  H130  1  0.221700  0.921100  0.744700  1.0  0.0827
  H  H131  1  0.622400  0.233100  0.004800  1.0  0.0714
  H  H132  1  0.383700  0.796400  0.612700  1.0  0.128
  H  H133  1  0.404300  0.087700  0.831100  1.0  0.1272
  H  H134  1  0.348600  0.076100  0.732700  1.0  0.0807
  H  H135  1  0.598300  0.546800  0.499100  1.0  0.0796
  H  H136  1  0.333500  0.869700  0.660100  1.0  0.0781
  H  H137  1  0.914200  0.459600  0.109400  1.0  0.1305
  H  H138  1  0.096700  0.095700  0.647100  1.0  0.0928
  H  H139  1  0.999400  0.116400  0.450500  1.0  0.1242
  H  H140  1  0.115000  0.689200  0.151000  1.0  0.0846
  H  H141  1  0.735300  0.367200  0.463200  1.0  0.1299
  H  H142  1  0.754500  0.417900  0.960000  1.0  0.1251
  H  H143  1  0.687500  0.434800  0.514200  1.0  0.0763
  H  H144  1  0.018200  0.616500  0.105600  1.0  0.1145
  H  H145  1  0.677900  0.325400  0.240100  1.0  0.0799
  H  H146  1  0.704900  0.350600  0.010100  1.0  0.0796
  H  H147  1  0.861300  0.387300  0.155000  1.0  0.0845
  H  H148  1  0.772000  0.430200  0.843100  1.0  0.1233
  H  H149  1  0.997900  0.164900  0.603000  1.0  0.118
  H  H150  1  0.025600  0.662100  0.954600  1.0  0.1227
  H  H151  1  0.722500  0.310400  0.338300  1.0  0.1148
  H  H152  1  0.836100  0.225800  0.235700  1.0  0.0782
  H  H153  1  0.885900  0.207700  0.334300  1.0  0.119
  H  H154  1  0.721700  0.421100  0.744700  1.0  0.0827
  H  H155  1  0.122400  0.733100  0.004800  1.0  0.0714
  H  H156  1  0.883700  0.296400  0.612700  1.0  0.128
  H  H157  1  0.904300  0.587700  0.831100  1.0  0.1272
  H  H158  1  0.848600  0.576100  0.732700  1.0  0.0807
  H  H159  1  0.098300  0.046800  0.499100  1.0  0.0796
  H  H160  1  0.833500  0.369700  0.660100  1.0  0.0781
  H  H161  1  0.585800  0.959600  0.390600  1.0  0.1305
  H  H162  1  0.403300  0.595700  0.852900  1.0  0.0926
  H  H163  1  0.500600  0.616400  0.049500  1.0  0.1242
  H  H164  1  0.385000  0.189200  0.349000  1.0  0.0859
  H  H165  1  0.764700  0.867200  0.036800  1.0  0.1294
  H  H166  1  0.745500  0.917900  0.540000  1.0  0.1254
  H  H167  1  0.812500  0.934800  0.985800  1.0  0.0759
  H  H168  1  0.481800  0.116500  0.394400  1.0  0.1155
  H  H169  1  0.822100  0.825400  0.259900  1.0  0.0803
  H  H170  1  0.795100  0.850600  0.489900  1.0  0.08
  H  H171  1  0.638700  0.887300  0.345000  1.0  0.0839
  H  H172  1  0.728000  0.930200  0.656900  1.0  0.1235
  H  H173  1  0.502100  0.664900  0.897000  1.0  0.1182
  H  H174  1  0.474400  0.162100  0.545400  1.0  0.1223
  H  H175  1  0.777500  0.810400  0.161700  1.0  0.1143
  H  H176  1  0.663900  0.725800  0.264300  1.0  0.0783
  H  H177  1  0.614100  0.707700  0.165700  1.0  0.1206
  H  H178  1  0.778300  0.921100  0.755300  1.0  0.0829
  H  H179  1  0.377600  0.233100  0.495200  1.0  0.0717
  H  H180  1  0.616300  0.796400  0.887300  1.0  0.1284
  H  H181  1  0.595700  0.087700  0.668900  1.0  0.1268
  H  H182  1  0.651400  0.076100  0.767300  1.0  0.0815
  H  H183  1  0.401700  0.546800  0.000900  1.0  0.0794
  H  H184  1  0.666500  0.869700  0.839900  1.0  0.0778
  H  H185  1  0.085800  0.459600  0.390600  1.0  0.1305
  H  H186  1  0.903300  0.095700  0.852900  1.0  0.0926
  H  H187  1  0.000600  0.116400  0.049500  1.0  0.1242
  H  H188  1  0.885000  0.689200  0.349000  1.0  0.0859
  H  H189  1  0.264700  0.367200  0.036800  1.0  0.1294
  H  H190  1  0.245500  0.417900  0.540000  1.0  0.1254
  H  H191  1  0.312500  0.434800  0.985800  1.0  0.0759
  H  H192  1  0.981800  0.616500  0.394400  1.0  0.1155
  H  H193  1  0.322100  0.325400  0.259900  1.0  0.0804
  H  H194  1  0.295100  0.350600  0.489900  1.0  0.08
  H  H195  1  0.138700  0.387300  0.345000  1.0  0.0839
  H  H196  1  0.228000  0.430200  0.656900  1.0  0.1235
  H  H197  1  0.002100  0.164900  0.897000  1.0  0.1182
  H  H198  1  0.974400  0.662100  0.545400  1.0  0.1223
  H  H199  1  0.277500  0.310400  0.161700  1.0  0.1143
  H  H200  1  0.163900  0.225800  0.264300  1.0  0.0783
  H  H201  1  0.114100  0.207700  0.165700  1.0  0.1206
  H  H202  1  0.278300  0.421100  0.755300  1.0  0.0829
  H  H203  1  0.877600  0.733100  0.495200  1.0  0.0717
  H  H204  1  0.116300  0.296400  0.887300  1.0  0.1284
  H  H205  1  0.095700  0.587700  0.668900  1.0  0.1268
  H  H206  1  0.151400  0.576100  0.767300  1.0  0.0815
  H  H207  1  0.901700  0.046800  0.000900  1.0  0.0794
  H  H208  1  0.166500  0.369700  0.839900  1.0  0.0778
  C  C209  1  0.628360  0.062100  0.911790  1.0  -0.1655
  C  C210  1  0.422950  0.400000  0.392850  1.0  0.1546
  C  C211  1  0.628420  0.007500  0.002820  1.0  0.3694
  C  C212  1  0.654120  0.219000  0.501740  1.0  0.3942
  C  C213  1  0.481630  0.386900  0.509500  1.0  -0.1535
  C  C214  1  0.403110  0.816600  0.888880  1.0  0.1738
  C  C215  1  0.743880  0.133100  0.496730  1.0  -0.1472
  C  C216  1  0.723180  0.086400  0.000140  1.0  -0.1538
  C  C217  1  0.575230  0.300900  0.507310  1.0  0.3675
  C  C218  1  0.660410  0.052500  0.970720  1.0  -0.0958
  C  C219  1  0.628100  0.976400  0.088250  1.0  0.3881
  C  C220  1  0.772120  0.092500  0.465660  1.0  0.166
  C  C221  1  0.461130  0.860900  0.915850  1.0  -0.1539
  C  C222  1  0.780000  0.198300  0.740820  1.0  0.1757
  C  C223  1  0.658530  0.986900  0.151850  1.0  -0.0518
  C  C224  1  0.690900  0.242700  0.652440  1.0  -0.1104
  C  C225  1  0.752540  0.127100  0.969650  1.0  0.1701
  C  C226  1  0.550140  0.922600  0.006050  1.0  0.3822
  C  C227  1  0.661060  0.105100  0.884670  1.0  0.1825
  C  C228  1  0.712180  0.038600  0.178650  1.0  -0.1617
  C  C229  1  0.482360  0.358000  0.419100  1.0  -0.1509
  C  C230  1  0.684250  0.174400  0.467490  1.0  -0.1052
  C  C231  1  0.456880  0.834100  0.005480  1.0  -0.1739
  C  C232  1  0.753430  0.207300  0.681730  1.0  -0.0945
  C  C233  1  0.686900  0.256900  0.743280  1.0  0.1707
  C  C234  1  0.656300  0.268300  0.683860  1.0  -0.183
  C  C235  1  0.512780  0.350000  0.478330  1.0  0.0036
  C  C236  1  0.658930  0.252500  0.588550  1.0  0.3743
  C  C237  1  0.742100  0.043800  0.237810  1.0  0.1655
  C  C238  1  0.398940  0.790900  0.974800  1.0  0.1764
  C  C239  1  0.655630  0.174700  0.408090  1.0  -0.146
  C  C240  1  0.633760  0.944900  0.185610  1.0  -0.1545
  C  C241  1  0.667400  0.953100  0.244750  1.0  0.1741
  C  C242  1  0.421930  0.428600  0.479800  1.0  0.18
  C  C243  1  0.489050  0.872200  0.975330  1.0  -0.0457
  C  C244  1  0.686720  0.131200  0.380010  1.0  0.1761
  C  C245  1  0.128360  0.562100  0.911790  1.0  -0.1655
  C  C246  1  0.922950  0.900000  0.392850  1.0  0.1546
  C  C247  1  0.128420  0.507500  0.002820  1.0  0.3694
  C  C248  1  0.154120  0.719000  0.501740  1.0  0.3942
  C  C249  1  0.981630  0.886900  0.509500  1.0  -0.1535
  C  C250  1  0.903110  0.316600  0.888880  1.0  0.1738
  C  C251  1  0.243880  0.633100  0.496730  1.0  -0.1472
  C  C252  1  0.223180  0.586400  0.000140  1.0  -0.1538
  C  C253  1  0.075230  0.800900  0.507310  1.0  0.3675
  C  C254  1  0.160410  0.552500  0.970720  1.0  -0.0958
  C  C255  1  0.128100  0.476400  0.088250  1.0  0.3881
  C  C256  1  0.272120  0.592500  0.465660  1.0  0.166
  C  C257  1  0.961130  0.360900  0.915850  1.0  -0.1539
  C  C258  1  0.280000  0.698300  0.740820  1.0  0.1757
  C  C259  1  0.158530  0.486900  0.151850  1.0  -0.0518
  C  C260  1  0.190900  0.742700  0.652440  1.0  -0.1104
  C  C261  1  0.252540  0.627100  0.969650  1.0  0.1701
  C  C262  1  0.050140  0.422600  0.006050  1.0  0.3822
  C  C263  1  0.161060  0.605100  0.884670  1.0  0.1825
  C  C264  1  0.212180  0.538600  0.178650  1.0  -0.1617
  C  C265  1  0.982360  0.858000  0.419100  1.0  -0.1509
  C  C266  1  0.184250  0.674400  0.467490  1.0  -0.1052
  C  C267  1  0.956880  0.334100  0.005480  1.0  -0.1739
  C  C268  1  0.253430  0.707300  0.681730  1.0  -0.0945
  C  C269  1  0.186900  0.756900  0.743280  1.0  0.1707
  C  C270  1  0.156300  0.768300  0.683860  1.0  -0.183
  C  C271  1  0.012780  0.850000  0.478330  1.0  0.0036
  C  C272  1  0.158930  0.752500  0.588550  1.0  0.3743
  C  C273  1  0.242100  0.543800  0.237810  1.0  0.1655
  C  C274  1  0.898940  0.290900  0.974800  1.0  0.1764
  C  C275  1  0.155630  0.674700  0.408090  1.0  -0.146
  C  C276  1  0.133760  0.444900  0.185610  1.0  -0.1545
  C  C277  1  0.167400  0.453100  0.244750  1.0  0.1741
  C  C278  1  0.921930  0.928600  0.479800  1.0  0.18
  C  C279  1  0.989050  0.372200  0.975330  1.0  -0.0457
  C  C280  1  0.186720  0.631200  0.380010  1.0  0.1761
  C  C281  1  0.371640  0.062100  0.588210  1.0  -0.1679
  C  C282  1  0.577050  0.400000  0.107150  1.0  0.153
  C  C283  1  0.371580  0.007500  0.497180  1.0  0.37
  C  C284  1  0.345880  0.219000  0.998260  1.0  0.3942
  C  C285  1  0.518370  0.386900  0.990500  1.0  -0.1546
  C  C286  1  0.596890  0.816600  0.611120  1.0  0.1726
  C  C287  1  0.256120  0.133100  0.003270  1.0  -0.1456
  C  C288  1  0.276820  0.086400  0.499860  1.0  -0.1508
  C  C289  1  0.424770  0.300900  0.992690  1.0  0.3668
  C  C290  1  0.339590  0.052500  0.529280  1.0  -0.0945
  C  C291  1  0.371900  0.976400  0.411750  1.0  0.388
  C  C292  1  0.227880  0.092500  0.034340  1.0  0.1661
  C  C293  1  0.538870  0.860900  0.584150  1.0  -0.1541
  C  C294  1  0.220000  0.198300  0.759180  1.0  0.1763
  C  C295  1  0.341470  0.986900  0.348150  1.0  -0.0506
  C  C296  1  0.309100  0.242700  0.847560  1.0  -0.1102
  C  C297  1  0.247460  0.127100  0.530350  1.0  0.1707
  C  C298  1  0.449860  0.922600  0.493950  1.0  0.3808
  C  C299  1  0.338940  0.105100  0.615330  1.0  0.1813
  C  C300  1  0.287820  0.038600  0.321350  1.0  -0.161
  C  C301  1  0.517640  0.358000  0.080900  1.0  -0.1537
  C  C302  1  0.315750  0.174400  0.032510  1.0  -0.1049
  C  C303  1  0.543120  0.834100  0.494520  1.0  -0.176
  C  C304  1  0.246570  0.207300  0.818270  1.0  -0.0921
  C  C305  1  0.313100  0.256900  0.756720  1.0  0.1712
  C  C306  1  0.343700  0.268300  0.816140  1.0  -0.1842
  C  C307  1  0.487220  0.350000  0.021670  1.0  0.0041
  C  C308  1  0.341070  0.252500  0.911450  1.0  0.3744
  C  C309  1  0.257900  0.043800  0.262190  1.0  0.1648
  C  C310  1  0.601060  0.790900  0.525200  1.0  0.1768
  C  C311  1  0.344370  0.174700  0.091910  1.0  -0.1463
  C  C312  1  0.366240  0.944900  0.314390  1.0  -0.155
  C  C313  1  0.332600  0.953100  0.255250  1.0  0.1733
  C  C314  1  0.578070  0.428600  0.020200  1.0  0.1809
  C  C315  1  0.510950  0.872200  0.524670  1.0  -0.0464
  C  C316  1  0.313280  0.131200  0.119990  1.0  0.1766
  C  C317  1  0.871640  0.562100  0.588210  1.0  -0.1679
  C  C318  1  0.077050  0.900000  0.107150  1.0  0.153
  C  C319  1  0.871580  0.507500  0.497180  1.0  0.37
  C  C320  1  0.845880  0.719000  0.998260  1.0  0.3942
  C  C321  1  0.018370  0.886900  0.990500  1.0  -0.1546
  C  C322  1  0.096890  0.316600  0.611120  1.0  0.1726
  C  C323  1  0.756120  0.633100  0.003270  1.0  -0.1456
  C  C324  1  0.776820  0.586400  0.499860  1.0  -0.1508
  C  C325  1  0.924770  0.800900  0.992690  1.0  0.3668
  C  C326  1  0.839590  0.552500  0.529280  1.0  -0.0945
  C  C327  1  0.871900  0.476400  0.411750  1.0  0.388
  C  C328  1  0.727880  0.592500  0.034340  1.0  0.1661
  C  C329  1  0.038870  0.360900  0.584150  1.0  -0.1541
  C  C330  1  0.720000  0.698300  0.759180  1.0  0.1763
  C  C331  1  0.841470  0.486900  0.348150  1.0  -0.0506
  C  C332  1  0.809100  0.742700  0.847560  1.0  -0.1102
  C  C333  1  0.747460  0.627100  0.530350  1.0  0.1707
  C  C334  1  0.949860  0.422600  0.493950  1.0  0.3808
  C  C335  1  0.838940  0.605100  0.615330  1.0  0.1813
  C  C336  1  0.787820  0.538600  0.321350  1.0  -0.161
  C  C337  1  0.017640  0.858000  0.080900  1.0  -0.1537
  C  C338  1  0.815750  0.674400  0.032510  1.0  -0.1049
  C  C339  1  0.043120  0.334100  0.494520  1.0  -0.176
  C  C340  1  0.746570  0.707300  0.818270  1.0  -0.0921
  C  C341  1  0.813100  0.756900  0.756720  1.0  0.1712
  C  C342  1  0.843700  0.768300  0.816140  1.0  -0.1842
  C  C343  1  0.987220  0.850000  0.021670  1.0  0.0041
  C  C344  1  0.841070  0.752500  0.911450  1.0  0.3744
  C  C345  1  0.757900  0.543800  0.262190  1.0  0.1648
  C  C346  1  0.101060  0.290900  0.525200  1.0  0.1768
  C  C347  1  0.844370  0.674700  0.091910  1.0  -0.1463
  C  C348  1  0.866240  0.444900  0.314390  1.0  -0.155
  C  C349  1  0.832600  0.453100  0.255250  1.0  0.1733
  C  C350  1  0.078070  0.928600  0.020200  1.0  0.1809
  C  C351  1  0.010950  0.372200  0.524670  1.0  -0.0464
  C  C352  1  0.813280  0.631200  0.119990  1.0  0.1766
  C  C353  1  0.371640  0.937900  0.088210  1.0  -0.1668
  C  C354  1  0.577050  0.600000  0.607150  1.0  0.153
  C  C355  1  0.371580  0.992500  0.997180  1.0  0.37
  C  C356  1  0.345880  0.781000  0.498260  1.0  0.3944
  C  C357  1  0.518370  0.613100  0.490500  1.0  -0.154
  C  C358  1  0.596890  0.183400  0.111120  1.0  0.1722
  C  C359  1  0.256120  0.866900  0.503270  1.0  -0.1455
  C  C360  1  0.276820  0.913600  0.999860  1.0  -0.1511
  C  C361  1  0.424770  0.699100  0.492690  1.0  0.367
  C  C362  1  0.339590  0.947500  0.029280  1.0  -0.0946
  C  C363  1  0.371900  0.023600  0.911750  1.0  0.388
  C  C364  1  0.227880  0.907500  0.534340  1.0  0.1656
  C  C365  1  0.538870  0.139100  0.084150  1.0  -0.1543
  C  C366  1  0.220000  0.801700  0.259180  1.0  0.1763
  C  C367  1  0.341470  0.013100  0.848150  1.0  -0.0503
  C  C368  1  0.309100  0.757300  0.347560  1.0  -0.1094
  C  C369  1  0.247460  0.872900  0.030350  1.0  0.1712
  C  C370  1  0.449860  0.077400  0.993950  1.0  0.3807
  C  C371  1  0.338940  0.894900  0.115330  1.0  0.1824
  C  C372  1  0.287820  0.961400  0.821350  1.0  -0.1612
  C  C373  1  0.517640  0.642000  0.580900  1.0  -0.1536
  C  C374  1  0.315750  0.825600  0.532510  1.0  -0.1049
  C  C375  1  0.543120  0.165900  0.994520  1.0  -0.1765
  C  C376  1  0.246570  0.792700  0.318270  1.0  -0.0922
  C  C377  1  0.313100  0.743100  0.256720  1.0  0.1715
  C  C378  1  0.343700  0.731700  0.316140  1.0  -0.1836
  C  C379  1  0.487220  0.650000  0.521670  1.0  0.0036
  C  C380  1  0.341070  0.747500  0.411450  1.0  0.3743
  C  C381  1  0.257900  0.956200  0.762190  1.0  0.1647
  C  C382  1  0.601060  0.209100  0.025200  1.0  0.1761
  C  C383  1  0.344370  0.825300  0.591910  1.0  -0.1474
  C  C384  1  0.366240  0.055100  0.814390  1.0  -0.155
  C  C385  1  0.332600  0.046900  0.755250  1.0  0.1738
  C  C386  1  0.578070  0.571400  0.520200  1.0  0.1814
  C  C387  1  0.510950  0.127800  0.024670  1.0  -0.0465
  C  C388  1  0.313280  0.868800  0.619990  1.0  0.1763
  C  C389  1  0.871640  0.437900  0.088210  1.0  -0.1668
  C  C390  1  0.077050  0.100000  0.607150  1.0  0.153
  C  C391  1  0.871580  0.492500  0.997180  1.0  0.37
  C  C392  1  0.845880  0.281000  0.498260  1.0  0.3944
  C  C393  1  0.018370  0.113100  0.490500  1.0  -0.154
  C  C394  1  0.096890  0.683400  0.111120  1.0  0.1722
  C  C395  1  0.756120  0.366900  0.503270  1.0  -0.1455
  C  C396  1  0.776820  0.413600  0.999860  1.0  -0.1511
  C  C397  1  0.924770  0.199100  0.492690  1.0  0.367
  C  C398  1  0.839590  0.447500  0.029280  1.0  -0.0946
  C  C399  1  0.871900  0.523600  0.911750  1.0  0.388
  C  C400  1  0.727880  0.407500  0.534340  1.0  0.1656
  C  C401  1  0.038870  0.639100  0.084150  1.0  -0.1543
  C  C402  1  0.720000  0.301700  0.259180  1.0  0.1763
  C  C403  1  0.841470  0.513100  0.848150  1.0  -0.0503
  C  C404  1  0.809100  0.257300  0.347560  1.0  -0.1094
  C  C405  1  0.747460  0.372900  0.030350  1.0  0.1712
  C  C406  1  0.949860  0.577400  0.993950  1.0  0.3807
  C  C407  1  0.838940  0.394900  0.115330  1.0  0.1824
  C  C408  1  0.787820  0.461400  0.821350  1.0  -0.1612
  C  C409  1  0.017640  0.142000  0.580900  1.0  -0.1536
  C  C410  1  0.815750  0.325600  0.532510  1.0  -0.1049
  C  C411  1  0.043120  0.665900  0.994520  1.0  -0.1765
  C  C412  1  0.746570  0.292700  0.318270  1.0  -0.0922
  C  C413  1  0.813100  0.243100  0.256720  1.0  0.1715
  C  C414  1  0.843700  0.231700  0.316140  1.0  -0.1836
  C  C415  1  0.987220  0.150000  0.521670  1.0  0.0036
  C  C416  1  0.841070  0.247500  0.411450  1.0  0.3743
  C  C417  1  0.757900  0.456200  0.762190  1.0  0.1647
  C  C418  1  0.101060  0.709100  0.025200  1.0  0.1761
  C  C419  1  0.844370  0.325300  0.591910  1.0  -0.1474
  C  C420  1  0.866240  0.555100  0.814390  1.0  -0.155
  C  C421  1  0.832600  0.546900  0.755250  1.0  0.1738
  C  C422  1  0.078070  0.071400  0.520200  1.0  0.1814
  C  C423  1  0.010950  0.627800  0.024670  1.0  -0.0465
  C  C424  1  0.813280  0.368800  0.619990  1.0  0.1763
  C  C425  1  0.628360  0.937900  0.411790  1.0  -0.1653
  C  C426  1  0.422950  0.600000  0.892850  1.0  0.1537
  C  C427  1  0.628420  0.992500  0.502820  1.0  0.3695
  C  C428  1  0.654120  0.781000  0.001740  1.0  0.3942
  C  C429  1  0.481630  0.613100  0.009500  1.0  -0.1532
  C  C430  1  0.403110  0.183400  0.388880  1.0  0.1735
  C  C431  1  0.743880  0.866900  0.996730  1.0  -0.1473
  C  C432  1  0.723180  0.913600  0.500140  1.0  -0.1541
  C  C433  1  0.575230  0.699100  0.007310  1.0  0.3677
  C  C434  1  0.660410  0.947500  0.470720  1.0  -0.0968
  C  C435  1  0.628100  0.023600  0.588250  1.0  0.388
  C  C436  1  0.772120  0.907500  0.965660  1.0  0.1653
  C  C437  1  0.461130  0.139100  0.415850  1.0  -0.1536
  C  C438  1  0.780000  0.801700  0.240820  1.0  0.1759
  C  C439  1  0.658530  0.013100  0.651850  1.0  -0.0512
  C  C440  1  0.690900  0.757300  0.152440  1.0  -0.1097
  C  C441  1  0.752540  0.872900  0.469650  1.0  0.1699
  C  C442  1  0.550140  0.077400  0.506050  1.0  0.3821
  C  C443  1  0.661060  0.894900  0.384670  1.0  0.1817
  C  C444  1  0.712180  0.961400  0.678650  1.0  -0.1609
  C  C445  1  0.482360  0.642000  0.919100  1.0  -0.1515
  C  C446  1  0.684250  0.825600  0.967490  1.0  -0.1057
  C  C447  1  0.456880  0.165900  0.505480  1.0  -0.174
  C  C448  1  0.753430  0.792700  0.181730  1.0  -0.0945
  C  C449  1  0.686900  0.743100  0.243280  1.0  0.171
  C  C450  1  0.656300  0.731700  0.183860  1.0  -0.1822
  C  C451  1  0.512780  0.650000  0.978330  1.0  0.004
  C  C452  1  0.658930  0.747500  0.088550  1.0  0.3743
  C  C453  1  0.742100  0.956200  0.737810  1.0  0.1657
  C  C454  1  0.398940  0.209100  0.474800  1.0  0.1759
  C  C455  1  0.655630  0.825300  0.908090  1.0  -0.1461
  C  C456  1  0.633760  0.055100  0.685610  1.0  -0.154
  C  C457  1  0.667400  0.046900  0.744750  1.0  0.1746
  C  C458  1  0.421930  0.571400  0.979800  1.0  0.181
  C  C459  1  0.489050  0.127800  0.475330  1.0  -0.0463
  C  C460  1  0.686720  0.868800  0.880010  1.0  0.1766
  C  C461  1  0.128360  0.437900  0.411790  1.0  -0.1653
  C  C462  1  0.922950  0.100000  0.892850  1.0  0.1537
  C  C463  1  0.128420  0.492500  0.502820  1.0  0.3695
  C  C464  1  0.154120  0.281000  0.001740  1.0  0.3942
  C  C465  1  0.981630  0.113100  0.009500  1.0  -0.1532
  C  C466  1  0.903110  0.683400  0.388880  1.0  0.1735
  C  C467  1  0.243880  0.366900  0.996730  1.0  -0.1473
  C  C468  1  0.223180  0.413600  0.500140  1.0  -0.1541
  C  C469  1  0.075230  0.199100  0.007310  1.0  0.3677
  C  C470  1  0.160410  0.447500  0.470720  1.0  -0.0968
  C  C471  1  0.128100  0.523600  0.588250  1.0  0.388
  C  C472  1  0.272120  0.407500  0.965660  1.0  0.1653
  C  C473  1  0.961130  0.639100  0.415850  1.0  -0.1536
  C  C474  1  0.280000  0.301700  0.240820  1.0  0.1759
  C  C475  1  0.158530  0.513100  0.651850  1.0  -0.0512
  C  C476  1  0.190900  0.257300  0.152440  1.0  -0.1097
  C  C477  1  0.252540  0.372900  0.469650  1.0  0.1699
  C  C478  1  0.050140  0.577400  0.506050  1.0  0.3821
  C  C479  1  0.161060  0.394900  0.384670  1.0  0.1817
  C  C480  1  0.212180  0.461400  0.678650  1.0  -0.1609
  C  C481  1  0.982360  0.142000  0.919100  1.0  -0.1515
  C  C482  1  0.184250  0.325600  0.967490  1.0  -0.1057
  C  C483  1  0.956880  0.665900  0.505480  1.0  -0.174
  C  C484  1  0.253430  0.292700  0.181730  1.0  -0.0945
  C  C485  1  0.186900  0.243100  0.243280  1.0  0.171
  C  C486  1  0.156300  0.231700  0.183860  1.0  -0.1822
  C  C487  1  0.012780  0.150000  0.978330  1.0  0.004
  C  C488  1  0.158930  0.247500  0.088550  1.0  0.3743
  C  C489  1  0.242100  0.456200  0.737810  1.0  0.1657
  C  C490  1  0.898940  0.709100  0.474800  1.0  0.1759
  C  C491  1  0.155630  0.325300  0.908090  1.0  -0.1461
  C  C492  1  0.133760  0.555100  0.685610  1.0  -0.154
  C  C493  1  0.167400  0.546900  0.744750  1.0  0.1746
  C  C494  1  0.921930  0.071400  0.979800  1.0  0.181
  C  C495  1  0.989050  0.627800  0.475330  1.0  -0.0463
  C  C496  1  0.186720  0.368800  0.880010  1.0  0.1766
  N  N497  1  0.371170  0.781010  0.917460  1.0  -0.3529
  N  N498  1  0.722460  0.135900  0.912190  1.0  -0.3294
  N  N499  1  0.721270  0.000100  0.271680  1.0  -0.336
  N  N500  1  0.574800  0.961110  0.973070  1.0  -0.5406
  N  N501  1  0.656270  0.018560  0.059750  1.0  -0.5418
  N  N502  1  0.574850  0.927180  0.063360  1.0  -0.5266
  N  N503  1  0.744590  0.090100  0.407790  1.0  -0.3377
  N  N504  1  0.391800  0.435280  0.422080  1.0  -0.3389
  N  N505  1  0.746910  0.222800  0.772010  1.0  -0.3594
  N  N506  1  0.597470  0.260020  0.473530  1.0  -0.5045
  N  N507  1  0.604220  0.299000  0.564920  1.0  -0.4944
  N  N508  1  0.687240  0.212540  0.559330  1.0  -0.5083
  N  N509  1  0.871170  0.281010  0.917460  1.0  -0.3529
  N  N510  1  0.222460  0.635900  0.912190  1.0  -0.3294
  N  N511  1  0.221270  0.500100  0.271680  1.0  -0.336
  N  N512  1  0.074800  0.461110  0.973070  1.0  -0.5406
  N  N513  1  0.156270  0.518560  0.059750  1.0  -0.5418
  N  N514  1  0.074850  0.427180  0.063360  1.0  -0.5266
  N  N515  1  0.244590  0.590100  0.407790  1.0  -0.3377
  N  N516  1  0.891800  0.935280  0.422080  1.0  -0.3389
  N  N517  1  0.246910  0.722800  0.772010  1.0  -0.3594
  N  N518  1  0.097470  0.760020  0.473530  1.0  -0.5045
  N  N519  1  0.104220  0.799000  0.564920  1.0  -0.4944
  N  N520  1  0.187240  0.712540  0.559330  1.0  -0.5083
  N  N521  1  0.628830  0.781010  0.582540  1.0  -0.3501
  N  N522  1  0.277540  0.135900  0.587810  1.0  -0.3282
  N  N523  1  0.278730  0.000100  0.228320  1.0  -0.3388
  N  N524  1  0.425200  0.961110  0.526930  1.0  -0.5424
  N  N525  1  0.343730  0.018560  0.440250  1.0  -0.5418
  N  N526  1  0.425150  0.927180  0.436640  1.0  -0.5246
  N  N527  1  0.255410  0.090100  0.092210  1.0  -0.3363
  N  N528  1  0.608200  0.435280  0.077920  1.0  -0.3387
  N  N529  1  0.253090  0.222800  0.727990  1.0  -0.361
  N  N530  1  0.402530  0.260020  0.026470  1.0  -0.5023
  N  N531  1  0.395780  0.299000  0.935080  1.0  -0.489
  N  N532  1  0.312760  0.212540  0.940670  1.0  -0.5088
  N  N533  1  0.128830  0.281010  0.582540  1.0  -0.3501
  N  N534  1  0.777540  0.635900  0.587810  1.0  -0.3282
  N  N535  1  0.778730  0.500100  0.228320  1.0  -0.3388
  N  N536  1  0.925200  0.461110  0.526930  1.0  -0.5424
  N  N537  1  0.843730  0.518560  0.440250  1.0  -0.5418
  N  N538  1  0.925150  0.427180  0.436640  1.0  -0.5246
  N  N539  1  0.755410  0.590100  0.092210  1.0  -0.3363
  N  N540  1  0.108200  0.935280  0.077920  1.0  -0.3387
  N  N541  1  0.753090  0.722800  0.727990  1.0  -0.361
  N  N542  1  0.902530  0.760020  0.026470  1.0  -0.5023
  N  N543  1  0.895780  0.799000  0.935080  1.0  -0.489
  N  N544  1  0.812760  0.712540  0.940670  1.0  -0.5088
  N  N545  1  0.628830  0.218990  0.082540  1.0  -0.3509
  N  N546  1  0.277540  0.864100  0.087810  1.0  -0.3301
  N  N547  1  0.278730  0.999900  0.728320  1.0  -0.339
  N  N548  1  0.425200  0.038890  0.026930  1.0  -0.5423
  N  N549  1  0.343730  0.981440  0.940250  1.0  -0.542
  N  N550  1  0.425150  0.072820  0.936640  1.0  -0.5236
  N  N551  1  0.255410  0.909900  0.592210  1.0  -0.3386
  N  N552  1  0.608200  0.564720  0.577920  1.0  -0.3382
  N  N553  1  0.253090  0.777200  0.227990  1.0  -0.3606
  N  N554  1  0.402530  0.739980  0.526470  1.0  -0.5009
  N  N555  1  0.395780  0.701000  0.435080  1.0  -0.4895
  N  N556  1  0.312760  0.787460  0.440670  1.0  -0.5081
  N  N557  1  0.128830  0.718990  0.082540  1.0  -0.3509
  N  N558  1  0.777540  0.364100  0.087810  1.0  -0.3301
  N  N559  1  0.778730  0.499900  0.728320  1.0  -0.339
  N  N560  1  0.925200  0.538890  0.026930  1.0  -0.5423
  N  N561  1  0.843730  0.481440  0.940250  1.0  -0.542
  N  N562  1  0.925150  0.572820  0.936640  1.0  -0.5236
  N  N563  1  0.755410  0.409900  0.592210  1.0  -0.3386
  N  N564  1  0.108200  0.064720  0.577920  1.0  -0.3382
  N  N565  1  0.753090  0.277200  0.227990  1.0  -0.3606
  N  N566  1  0.902530  0.239980  0.526470  1.0  -0.5009
  N  N567  1  0.895780  0.201000  0.435080  1.0  -0.4895
  N  N568  1  0.812760  0.287460  0.440670  1.0  -0.5081
  N  N569  1  0.371170  0.218990  0.417460  1.0  -0.3521
  N  N570  1  0.722460  0.864100  0.412190  1.0  -0.3314
  N  N571  1  0.721270  0.999900  0.771680  1.0  -0.3352
  N  N572  1  0.574800  0.038890  0.473070  1.0  -0.5404
  N  N573  1  0.656270  0.981440  0.559750  1.0  -0.542
  N  N574  1  0.574850  0.072820  0.563360  1.0  -0.5269
  N  N575  1  0.744590  0.909900  0.907790  1.0  -0.3372
  N  N576  1  0.391800  0.564720  0.922080  1.0  -0.3427
  N  N577  1  0.746910  0.777200  0.272010  1.0  -0.3602
  N  N578  1  0.597470  0.739980  0.973530  1.0  -0.5041
  N  N579  1  0.604220  0.701000  0.064920  1.0  -0.4934
  N  N580  1  0.687240  0.787460  0.059330  1.0  -0.5091
  N  N581  1  0.871170  0.718990  0.417460  1.0  -0.3521
  N  N582  1  0.222460  0.364100  0.412190  1.0  -0.3314
  N  N583  1  0.221270  0.499900  0.771680  1.0  -0.3352
  N  N584  1  0.074800  0.538890  0.473070  1.0  -0.5404
  N  N585  1  0.156270  0.481440  0.559750  1.0  -0.542
  N  N586  1  0.074850  0.572820  0.563360  1.0  -0.5269
  N  N587  1  0.244590  0.409900  0.907790  1.0  -0.3372
  N  N588  1  0.891800  0.064720  0.922080  1.0  -0.3427
  N  N589  1  0.246910  0.277200  0.272010  1.0  -0.3602
  N  N590  1  0.097470  0.239980  0.973530  1.0  -0.5041
  N  N591  1  0.104220  0.201000  0.064920  1.0  -0.4934
  N  N592  1  0.187240  0.287460  0.059330  1.0  -0.5091
