# generated using pymatgen
data_AgH12(C3N)6
_symmetry_space_group_name_H-M   'P 1'
_cell_length_a   22.03830000
_cell_length_b   16.41510000
_cell_length_c   25.67900000
_cell_angle_alpha   90.00000000
_cell_angle_beta   115.40400000
_cell_angle_gamma   90.00000000
_symmetry_Int_Tables_number   1
_chemical_formula_structural   AgH12(C3N)6
_chemical_formula_sum   'Ag16 H192 C288 N96'
_cell_volume   8391.39782554
_cell_formula_units_Z   16
loop_
 _symmetry_equiv_pos_site_id
 _symmetry_equiv_pos_as_xyz
  1  'x, y, z'
loop_
 _atom_site_type_symbol
 _atom_site_label
 _atom_site_symmetry_multiplicity
 _atom_site_fract_x
 _atom_site_fract_y
 _atom_site_fract_z
 _atom_site_occupancy
 _atom_site_charge
  Ag  Ag1  1  0.344040  0.041640  0.368110  1.0  0.3373
  Ag  Ag2  1  0.823050  0.249990  0.867650  1.0  0.2883
  Ag  Ag3  1  0.844040  0.541640  0.368110  1.0  0.3373
  Ag  Ag4  1  0.323050  0.749990  0.867650  1.0  0.2883
  Ag  Ag5  1  0.655960  0.041640  0.131890  1.0  0.3377
  Ag  Ag6  1  0.176950  0.249990  0.632350  1.0  0.2877
  Ag  Ag7  1  0.155960  0.541640  0.131890  1.0  0.3377
  Ag  Ag8  1  0.676950  0.749990  0.632350  1.0  0.2877
  Ag  Ag9  1  0.655960  0.958360  0.631890  1.0  0.3377
  Ag  Ag10  1  0.176950  0.750010  0.132350  1.0  0.2879
  Ag  Ag11  1  0.155960  0.458360  0.631890  1.0  0.3377
  Ag  Ag12  1  0.676950  0.250010  0.132350  1.0  0.2879
  Ag  Ag13  1  0.344040  0.958360  0.868110  1.0  0.3372
  Ag  Ag14  1  0.823050  0.750010  0.367650  1.0  0.2884
  Ag  Ag15  1  0.844040  0.458360  0.868110  1.0  0.3372
  Ag  Ag16  1  0.323050  0.250010  0.367650  1.0  0.2884
  H  H17  1  0.713900  0.439100  0.349200  1.0  0.0827
  H  H18  1  0.022200  0.117300  0.036900  1.0  0.1278
  H  H19  1  0.554400  0.210100  0.390100  1.0  0.13
  H  H20  1  0.199500  0.845600  0.853000  1.0  0.0874
  H  H21  1  0.298600  0.866000  0.049800  1.0  0.1271
  H  H22  1  0.544200  0.167700  0.540200  1.0  0.1301
  H  H23  1  0.923400  0.185800  0.986000  1.0  0.0829
  H  H24  1  0.134200  0.061500  0.161700  1.0  0.1199
  H  H25  1  0.821100  0.411900  0.545400  1.0  0.1267
  H  H26  1  0.350500  0.976000  0.264500  1.0  0.0774
  H  H27  1  0.444600  0.100600  0.489700  1.0  0.0775
  H  H28  1  0.349500  0.797700  0.000900  1.0  0.0809
  H  H29  1  0.867400  0.483300  0.494600  1.0  0.0727
  H  H30  1  0.727100  0.171400  0.755400  1.0  0.0759
  H  H31  1  0.456300  0.136600  0.344900  1.0  0.0844
  H  H32  1  0.187400  0.074800  0.259800  1.0  0.078
  H  H33  1  0.020900  0.046900  0.887000  1.0  0.1263
  H  H34  1  0.865900  0.325900  0.767200  1.0  0.0808
  H  H35  1  0.301600  0.957600  0.166000  1.0  0.1183
  H  H36  1  0.144400  0.914400  0.896900  1.0  0.1187
  H  H37  1  0.662600  0.366100  0.394100  1.0  0.1197
  H  H38  1  0.823500  0.337800  0.669000  1.0  0.1274
  H  H39  1  0.678400  0.180400  0.656700  1.0  0.1265
  H  H40  1  0.923400  0.120200  0.840000  1.0  0.078
  H  H41  1  0.213900  0.939100  0.349200  1.0  0.0827
  H  H42  1  0.522200  0.617300  0.036900  1.0  0.1278
  H  H43  1  0.054400  0.710100  0.390100  1.0  0.13
  H  H44  1  0.699500  0.345600  0.853000  1.0  0.0874
  H  H45  1  0.798600  0.366000  0.049800  1.0  0.1271
  H  H46  1  0.044200  0.667700  0.540200  1.0  0.1301
  H  H47  1  0.423400  0.685800  0.986000  1.0  0.0829
  H  H48  1  0.634200  0.561500  0.161700  1.0  0.1199
  H  H49  1  0.321100  0.911900  0.545400  1.0  0.1267
  H  H50  1  0.850500  0.476000  0.264500  1.0  0.0774
  H  H51  1  0.944600  0.600600  0.489700  1.0  0.0775
  H  H52  1  0.849500  0.297700  0.000900  1.0  0.0809
  H  H53  1  0.367400  0.983300  0.494600  1.0  0.0727
  H  H54  1  0.227100  0.671400  0.755400  1.0  0.0759
  H  H55  1  0.956300  0.636600  0.344900  1.0  0.0844
  H  H56  1  0.687400  0.574800  0.259800  1.0  0.078
  H  H57  1  0.520900  0.546900  0.887000  1.0  0.1263
  H  H58  1  0.365900  0.825900  0.767200  1.0  0.0808
  H  H59  1  0.801600  0.457600  0.166000  1.0  0.1183
  H  H60  1  0.644400  0.414400  0.896900  1.0  0.1187
  H  H61  1  0.162600  0.866100  0.394100  1.0  0.1197
  H  H62  1  0.323500  0.837800  0.669000  1.0  0.1274
  H  H63  1  0.178400  0.680400  0.656700  1.0  0.1265
  H  H64  1  0.423400  0.620200  0.840000  1.0  0.078
  H  H65  1  0.286100  0.439100  0.150800  1.0  0.0809
  H  H66  1  0.977800  0.117300  0.463100  1.0  0.1285
  H  H67  1  0.445600  0.210100  0.109900  1.0  0.1299
  H  H68  1  0.800500  0.845600  0.647000  1.0  0.0865
  H  H69  1  0.701400  0.866000  0.450200  1.0  0.127
  H  H70  1  0.455800  0.167700  0.959800  1.0  0.1297
  H  H71  1  0.076600  0.185800  0.514000  1.0  0.0828
  H  H72  1  0.865800  0.061500  0.338300  1.0  0.1196
  H  H73  1  0.178900  0.411900  0.954600  1.0  0.1269
  H  H74  1  0.649500  0.976000  0.235500  1.0  0.0762
  H  H75  1  0.555400  0.100600  0.010300  1.0  0.0771
  H  H76  1  0.650500  0.797700  0.499100  1.0  0.0799
  H  H77  1  0.132600  0.483300  0.005400  1.0  0.0713
  H  H78  1  0.272900  0.171400  0.744600  1.0  0.075
  H  H79  1  0.543700  0.136600  0.155100  1.0  0.0846
  H  H80  1  0.812600  0.074800  0.240200  1.0  0.0778
  H  H81  1  0.979100  0.046900  0.613000  1.0  0.1261
  H  H82  1  0.134100  0.325900  0.732800  1.0  0.0818
  H  H83  1  0.698400  0.957600  0.334000  1.0  0.1186
  H  H84  1  0.855600  0.914400  0.603100  1.0  0.1191
  H  H85  1  0.337400  0.366100  0.105900  1.0  0.1199
  H  H86  1  0.176500  0.337800  0.831000  1.0  0.1276
  H  H87  1  0.321600  0.180400  0.843300  1.0  0.1267
  H  H88  1  0.076600  0.120200  0.660000  1.0  0.0767
  H  H89  1  0.786100  0.939100  0.150800  1.0  0.0809
  H  H90  1  0.477800  0.617300  0.463100  1.0  0.1285
  H  H91  1  0.945600  0.710100  0.109900  1.0  0.1299
  H  H92  1  0.300500  0.345600  0.647000  1.0  0.0865
  H  H93  1  0.201400  0.366000  0.450200  1.0  0.127
  H  H94  1  0.955800  0.667700  0.959800  1.0  0.1297
  H  H95  1  0.576600  0.685800  0.514000  1.0  0.0827
  H  H96  1  0.365800  0.561500  0.338300  1.0  0.1196
  H  H97  1  0.678900  0.911900  0.954600  1.0  0.1269
  H  H98  1  0.149500  0.476000  0.235500  1.0  0.0762
  H  H99  1  0.055400  0.600600  0.010300  1.0  0.0771
  H  H100  1  0.150500  0.297700  0.499100  1.0  0.0799
  H  H101  1  0.632600  0.983300  0.005400  1.0  0.0713
  H  H102  1  0.772900  0.671400  0.744600  1.0  0.075
  H  H103  1  0.043700  0.636600  0.155100  1.0  0.0846
  H  H104  1  0.312600  0.574800  0.240200  1.0  0.0778
  H  H105  1  0.479100  0.546900  0.613000  1.0  0.1261
  H  H106  1  0.634100  0.825900  0.732800  1.0  0.0818
  H  H107  1  0.198400  0.457600  0.334000  1.0  0.1186
  H  H108  1  0.355600  0.414400  0.603100  1.0  0.1191
  H  H109  1  0.837400  0.866100  0.105900  1.0  0.1199
  H  H110  1  0.676500  0.837800  0.831000  1.0  0.1276
  H  H111  1  0.821600  0.680400  0.843300  1.0  0.1267
  H  H112  1  0.576600  0.620200  0.660000  1.0  0.0767
  H  H113  1  0.286100  0.560900  0.650800  1.0  0.081
  H  H114  1  0.977800  0.882700  0.963100  1.0  0.1281
  H  H115  1  0.445600  0.789900  0.609900  1.0  0.13
  H  H116  1  0.800500  0.154400  0.147000  1.0  0.0869
  H  H117  1  0.701400  0.134000  0.950200  1.0  0.1271
  H  H118  1  0.455800  0.832300  0.459800  1.0  0.1298
  H  H119  1  0.076600  0.814200  0.014000  1.0  0.0825
  H  H120  1  0.865800  0.938500  0.838300  1.0  0.1189
  H  H121  1  0.178900  0.588100  0.454600  1.0  0.1267
  H  H122  1  0.649500  0.024000  0.735500  1.0  0.076
  H  H123  1  0.555400  0.899400  0.510300  1.0  0.0769
  H  H124  1  0.650500  0.202300  0.999100  1.0  0.0796
  H  H125  1  0.132600  0.516700  0.505400  1.0  0.0719
  H  H126  1  0.272900  0.828600  0.244600  1.0  0.0747
  H  H127  1  0.543700  0.863400  0.655100  1.0  0.0847
  H  H128  1  0.812600  0.925200  0.740200  1.0  0.0779
  H  H129  1  0.979100  0.953100  0.113000  1.0  0.1259
  H  H130  1  0.134100  0.674100  0.232800  1.0  0.0817
  H  H131  1  0.698400  0.042400  0.834000  1.0  0.1185
  H  H132  1  0.855600  0.085600  0.103100  1.0  0.1189
  H  H133  1  0.337400  0.633900  0.605900  1.0  0.1198
  H  H134  1  0.176500  0.662200  0.331000  1.0  0.1274
  H  H135  1  0.321600  0.819600  0.343300  1.0  0.1268
  H  H136  1  0.076600  0.879800  0.160000  1.0  0.077
  H  H137  1  0.786100  0.060900  0.650800  1.0  0.081
  H  H138  1  0.477800  0.382700  0.963100  1.0  0.1281
  H  H139  1  0.945600  0.289900  0.609900  1.0  0.13
  H  H140  1  0.300500  0.654400  0.147000  1.0  0.0869
  H  H141  1  0.201400  0.634000  0.950200  1.0  0.1271
  H  H142  1  0.955800  0.332300  0.459800  1.0  0.1298
  H  H143  1  0.576600  0.314200  0.014000  1.0  0.0825
  H  H144  1  0.365800  0.438500  0.838300  1.0  0.1189
  H  H145  1  0.678900  0.088100  0.454600  1.0  0.1267
  H  H146  1  0.149500  0.524000  0.735500  1.0  0.076
  H  H147  1  0.055400  0.399400  0.510300  1.0  0.0769
  H  H148  1  0.150500  0.702300  0.999100  1.0  0.0796
  H  H149  1  0.632600  0.016700  0.505400  1.0  0.0719
  H  H150  1  0.772900  0.328600  0.244600  1.0  0.0747
  H  H151  1  0.043700  0.363400  0.655100  1.0  0.0847
  H  H152  1  0.312600  0.425200  0.740200  1.0  0.078
  H  H153  1  0.479100  0.453100  0.113000  1.0  0.1259
  H  H154  1  0.634100  0.174100  0.232800  1.0  0.0817
  H  H155  1  0.198400  0.542400  0.834000  1.0  0.1185
  H  H156  1  0.355600  0.585600  0.103100  1.0  0.1189
  H  H157  1  0.837400  0.133900  0.605900  1.0  0.1198
  H  H158  1  0.676500  0.162200  0.331000  1.0  0.1274
  H  H159  1  0.821600  0.319600  0.343300  1.0  0.1268
  H  H160  1  0.576600  0.379800  0.160000  1.0  0.077
  H  H161  1  0.713900  0.560900  0.849200  1.0  0.0827
  H  H162  1  0.022200  0.882700  0.536900  1.0  0.1282
  H  H163  1  0.554400  0.789900  0.890100  1.0  0.1304
  H  H164  1  0.199500  0.154400  0.353000  1.0  0.0875
  H  H165  1  0.298600  0.134000  0.549800  1.0  0.1269
  H  H166  1  0.544200  0.832300  0.040200  1.0  0.1299
  H  H167  1  0.923400  0.814200  0.486000  1.0  0.0826
  H  H168  1  0.134200  0.938500  0.661700  1.0  0.1202
  H  H169  1  0.821100  0.588100  0.045400  1.0  0.1268
  H  H170  1  0.350500  0.024000  0.764500  1.0  0.0777
  H  H171  1  0.444600  0.899400  0.989700  1.0  0.0769
  H  H172  1  0.349500  0.202300  0.500900  1.0  0.0809
  H  H173  1  0.867400  0.516700  0.994600  1.0  0.0738
  H  H174  1  0.727100  0.828600  0.255400  1.0  0.076
  H  H175  1  0.456300  0.863400  0.844900  1.0  0.0845
  H  H176  1  0.187400  0.925200  0.759800  1.0  0.0783
  H  H177  1  0.020900  0.953100  0.387000  1.0  0.1266
  H  H178  1  0.865900  0.674100  0.267200  1.0  0.0804
  H  H179  1  0.301600  0.042400  0.666000  1.0  0.1183
  H  H180  1  0.144400  0.085600  0.396900  1.0  0.1185
  H  H181  1  0.662600  0.633900  0.894100  1.0  0.1199
  H  H182  1  0.823500  0.662200  0.169000  1.0  0.127
  H  H183  1  0.678400  0.819600  0.156700  1.0  0.1264
  H  H184  1  0.923400  0.879800  0.340000  1.0  0.0795
  H  H185  1  0.213900  0.060900  0.849200  1.0  0.0827
  H  H186  1  0.522200  0.382700  0.536900  1.0  0.1282
  H  H187  1  0.054400  0.289900  0.890100  1.0  0.1304
  H  H188  1  0.699500  0.654400  0.353000  1.0  0.0875
  H  H189  1  0.798600  0.634000  0.549800  1.0  0.1269
  H  H190  1  0.044200  0.332300  0.040200  1.0  0.1299
  H  H191  1  0.423400  0.314200  0.486000  1.0  0.0826
  H  H192  1  0.634200  0.438500  0.661700  1.0  0.1202
  H  H193  1  0.321100  0.088100  0.045400  1.0  0.1268
  H  H194  1  0.850500  0.524000  0.764500  1.0  0.0777
  H  H195  1  0.944600  0.399400  0.989700  1.0  0.0769
  H  H196  1  0.849500  0.702300  0.500900  1.0  0.0809
  H  H197  1  0.367400  0.016700  0.994600  1.0  0.0738
  H  H198  1  0.227100  0.328600  0.255400  1.0  0.076
  H  H199  1  0.956300  0.363400  0.844900  1.0  0.0845
  H  H200  1  0.687400  0.425200  0.759800  1.0  0.0784
  H  H201  1  0.520900  0.453100  0.387000  1.0  0.1266
  H  H202  1  0.365900  0.174100  0.267200  1.0  0.0804
  H  H203  1  0.801600  0.542400  0.666000  1.0  0.1183
  H  H204  1  0.644400  0.585600  0.396900  1.0  0.1185
  H  H205  1  0.162600  0.133900  0.894100  1.0  0.1199
  H  H206  1  0.323500  0.162200  0.169000  1.0  0.127
  H  H207  1  0.178400  0.319600  0.156700  1.0  0.1264
  H  H208  1  0.423400  0.379800  0.340000  1.0  0.0794
  C  C209  1  0.624280  0.242500  0.502950  1.0  0.3705
  C  C210  1  0.735700  0.433300  0.389040  1.0  0.1748
  C  C211  1  0.002810  0.117000  0.996800  1.0  -0.1363
  C  C212  1  0.097310  0.030900  0.001580  1.0  0.3776
  C  C213  1  0.560130  0.197500  0.470650  1.0  -0.0836
  C  C214  1  0.533200  0.188100  0.411300  1.0  -0.1454
  C  C215  1  0.219760  0.849900  0.892950  1.0  0.1657
  C  C216  1  0.277800  0.863000  0.009760  1.0  -0.153
  C  C217  1  0.526720  0.163400  0.500300  1.0  -0.1614
  C  C218  1  0.943470  0.158100  0.965890  1.0  0.1535
  C  C219  1  0.743070  0.263500  0.651870  1.0  -0.0581
  C  C220  1  0.178130  0.043100  0.181780  1.0  -0.1324
  C  C221  1  0.710350  0.273400  0.588240  1.0  0.3892
  C  C222  1  0.182110  0.949500  0.007360  1.0  0.3643
  C  C223  1  0.798560  0.415800  0.505490  1.0  -0.1711
  C  C224  1  0.179750  0.997400  0.088960  1.0  0.3844
  C  C225  1  0.306410  0.993000  0.243410  1.0  0.1729
  C  C226  1  0.705780  0.327200  0.505730  1.0  0.39
  C  C227  1  0.215380  0.900000  0.978170  1.0  -0.0327
  C  C228  1  0.466930  0.123000  0.469550  1.0  0.1733
  C  C229  1  0.032980  0.075400  0.967590  1.0  -0.1059
  C  C230  1  0.307870  0.821800  0.979870  1.0  0.1787
  C  C231  1  0.825620  0.459200  0.474310  1.0  0.1785
  C  C232  1  0.745700  0.206700  0.737840  1.0  0.174
  C  C233  1  0.473490  0.144800  0.384550  1.0  0.1702
  C  C234  1  0.210540  0.051400  0.240620  1.0  0.1721
  C  C235  1  0.002300  0.075500  0.907950  1.0  -0.1684
  C  C236  1  0.211310  0.007400  0.152500  1.0  -0.0873
  C  C237  1  0.736230  0.378000  0.475190  1.0  -0.061
  C  C238  1  0.827240  0.296900  0.744600  1.0  0.1823
  C  C239  1  0.277570  0.981700  0.184150  1.0  -0.156
  C  C240  1  0.186350  0.891700  0.918990  1.0  -0.1638
  C  C241  1  0.704610  0.388900  0.415660  1.0  -0.1655
  C  C242  1  0.801990  0.305300  0.685650  1.0  -0.1528
  C  C243  1  0.716020  0.211600  0.678450  1.0  -0.1702
  C  C244  1  0.943220  0.119100  0.880080  1.0  0.1794
  C  C245  1  0.124280  0.742500  0.502950  1.0  0.3705
  C  C246  1  0.235700  0.933300  0.389040  1.0  0.1748
  C  C247  1  0.502810  0.617000  0.996800  1.0  -0.1363
  C  C248  1  0.597310  0.530900  0.001580  1.0  0.3776
  C  C249  1  0.060130  0.697500  0.470650  1.0  -0.0836
  C  C250  1  0.033200  0.688100  0.411300  1.0  -0.1457
  C  C251  1  0.719760  0.349900  0.892950  1.0  0.1657
  C  C252  1  0.777800  0.363000  0.009760  1.0  -0.153
  C  C253  1  0.026720  0.663400  0.500300  1.0  -0.1614
  C  C254  1  0.443470  0.658100  0.965890  1.0  0.1535
  C  C255  1  0.243070  0.763500  0.651870  1.0  -0.0581
  C  C256  1  0.678130  0.543100  0.181780  1.0  -0.1324
  C  C257  1  0.210350  0.773400  0.588240  1.0  0.3892
  C  C258  1  0.682110  0.449500  0.007360  1.0  0.3643
  C  C259  1  0.298560  0.915800  0.505490  1.0  -0.1711
  C  C260  1  0.679750  0.497400  0.088960  1.0  0.3844
  C  C261  1  0.806410  0.493000  0.243410  1.0  0.1729
  C  C262  1  0.205780  0.827200  0.505730  1.0  0.39
  C  C263  1  0.715380  0.400000  0.978170  1.0  -0.0327
  C  C264  1  0.966930  0.623000  0.469550  1.0  0.1733
  C  C265  1  0.532980  0.575400  0.967590  1.0  -0.1059
  C  C266  1  0.807870  0.321800  0.979870  1.0  0.1787
  C  C267  1  0.325620  0.959200  0.474310  1.0  0.1785
  C  C268  1  0.245700  0.706700  0.737840  1.0  0.174
  C  C269  1  0.973490  0.644800  0.384550  1.0  0.1702
  C  C270  1  0.710540  0.551400  0.240620  1.0  0.1721
  C  C271  1  0.502300  0.575500  0.907950  1.0  -0.1684
  C  C272  1  0.711310  0.507400  0.152500  1.0  -0.0873
  C  C273  1  0.236230  0.878000  0.475190  1.0  -0.061
  C  C274  1  0.327240  0.796900  0.744600  1.0  0.1823
  C  C275  1  0.777570  0.481700  0.184150  1.0  -0.156
  C  C276  1  0.686350  0.391700  0.918990  1.0  -0.1638
  C  C277  1  0.204610  0.888900  0.415660  1.0  -0.1655
  C  C278  1  0.301990  0.805300  0.685650  1.0  -0.1528
  C  C279  1  0.216020  0.711600  0.678450  1.0  -0.1702
  C  C280  1  0.443220  0.619100  0.880080  1.0  0.1794
  C  C281  1  0.375720  0.242500  0.997050  1.0  0.3708
  C  C282  1  0.264300  0.433300  0.110960  1.0  0.1737
  C  C283  1  0.997190  0.117000  0.503200  1.0  -0.1396
  C  C284  1  0.902690  0.030900  0.498420  1.0  0.3766
  C  C285  1  0.439870  0.197500  0.029350  1.0  -0.0836
  C  C286  1  0.466800  0.188100  0.088700  1.0  -0.1475
  C  C287  1  0.780240  0.849900  0.607050  1.0  0.1591
  C  C288  1  0.722200  0.863000  0.490240  1.0  -0.1517
  C  C289  1  0.473280  0.163400  0.999700  1.0  -0.1605
  C  C290  1  0.056530  0.158100  0.534110  1.0  0.1543
  C  C291  1  0.256930  0.263500  0.848130  1.0  -0.0586
  C  C292  1  0.821870  0.043100  0.318220  1.0  -0.1281
  C  C293  1  0.289650  0.273400  0.911760  1.0  0.3888
  C  C294  1  0.817890  0.949500  0.492640  1.0  0.3643
  C  C295  1  0.201440  0.415800  0.994510  1.0  -0.1707
  C  C296  1  0.820250  0.997400  0.411040  1.0  0.3837
  C  C297  1  0.693590  0.993000  0.256590  1.0  0.1713
  C  C298  1  0.294220  0.327200  0.994270  1.0  0.3897
  C  C299  1  0.784620  0.900000  0.521830  1.0  -0.0319
  C  C300  1  0.533070  0.123000  0.030450  1.0  0.1718
  C  C301  1  0.967020  0.075400  0.532410  1.0  -0.1073
  C  C302  1  0.692130  0.821800  0.520130  1.0  0.1789
  C  C303  1  0.174380  0.459200  0.025690  1.0  0.1785
  C  C304  1  0.254300  0.206700  0.762160  1.0  0.1738
  C  C305  1  0.526510  0.144800  0.115450  1.0  0.1741
  C  C306  1  0.789460  0.051400  0.259380  1.0  0.1727
  C  C307  1  0.997700  0.075500  0.592050  1.0  -0.1725
  C  C308  1  0.788690  0.007400  0.347500  1.0  -0.0874
  C  C309  1  0.263770  0.378000  0.024810  1.0  -0.061
  C  C310  1  0.172760  0.296900  0.755400  1.0  0.1821
  C  C311  1  0.722430  0.981700  0.315850  1.0  -0.1556
  C  C312  1  0.813650  0.891700  0.581010  1.0  -0.1545
  C  C313  1  0.295390  0.388900  0.084340  1.0  -0.1588
  C  C314  1  0.198010  0.305300  0.814350  1.0  -0.1515
  C  C315  1  0.283980  0.211600  0.821550  1.0  -0.1628
  C  C316  1  0.056780  0.119100  0.619920  1.0  0.1784
  C  C317  1  0.875720  0.742500  0.997050  1.0  0.3708
  C  C318  1  0.764300  0.933300  0.110960  1.0  0.1737
  C  C319  1  0.497190  0.617000  0.503200  1.0  -0.1396
  C  C320  1  0.402690  0.530900  0.498420  1.0  0.3766
  C  C321  1  0.939870  0.697500  0.029350  1.0  -0.0836
  C  C322  1  0.966800  0.688100  0.088700  1.0  -0.1475
  C  C323  1  0.280240  0.349900  0.607050  1.0  0.1591
  C  C324  1  0.222200  0.363000  0.490240  1.0  -0.1517
  C  C325  1  0.973280  0.663400  0.999700  1.0  -0.1605
  C  C326  1  0.556530  0.658100  0.534110  1.0  0.1543
  C  C327  1  0.756930  0.763500  0.848130  1.0  -0.0586
  C  C328  1  0.321870  0.543100  0.318220  1.0  -0.1281
  C  C329  1  0.789650  0.773400  0.911760  1.0  0.3888
  C  C330  1  0.317890  0.449500  0.492640  1.0  0.3643
  C  C331  1  0.701440  0.915800  0.994510  1.0  -0.1707
  C  C332  1  0.320250  0.497400  0.411040  1.0  0.3837
  C  C333  1  0.193590  0.493000  0.256590  1.0  0.1713
  C  C334  1  0.794220  0.827200  0.994270  1.0  0.3897
  C  C335  1  0.284620  0.400000  0.521830  1.0  -0.0319
  C  C336  1  0.033070  0.623000  0.030450  1.0  0.1718
  C  C337  1  0.467020  0.575400  0.532410  1.0  -0.1073
  C  C338  1  0.192130  0.321800  0.520130  1.0  0.1789
  C  C339  1  0.674380  0.959200  0.025690  1.0  0.1785
  C  C340  1  0.754300  0.706700  0.762160  1.0  0.1738
  C  C341  1  0.026510  0.644800  0.115450  1.0  0.1741
  C  C342  1  0.289460  0.551400  0.259380  1.0  0.1727
  C  C343  1  0.497700  0.575500  0.592050  1.0  -0.1725
  C  C344  1  0.288690  0.507400  0.347500  1.0  -0.0874
  C  C345  1  0.763770  0.878000  0.024810  1.0  -0.061
  C  C346  1  0.672760  0.796900  0.755400  1.0  0.1821
  C  C347  1  0.222430  0.481700  0.315850  1.0  -0.1556
  C  C348  1  0.313650  0.391700  0.581010  1.0  -0.1545
  C  C349  1  0.795390  0.888900  0.084340  1.0  -0.1588
  C  C350  1  0.698010  0.805300  0.814350  1.0  -0.1515
  C  C351  1  0.783980  0.711600  0.821550  1.0  -0.1628
  C  C352  1  0.556780  0.619100  0.619920  1.0  0.1784
  C  C353  1  0.375720  0.757500  0.497050  1.0  0.3708
  C  C354  1  0.264300  0.566700  0.610960  1.0  0.1743
  C  C355  1  0.997190  0.883000  0.003200  1.0  -0.139
  C  C356  1  0.902690  0.969100  0.998420  1.0  0.3763
  C  C357  1  0.439870  0.802500  0.529350  1.0  -0.0824
  C  C358  1  0.466800  0.811900  0.588700  1.0  -0.1469
  C  C359  1  0.780240  0.150100  0.107050  1.0  0.1593
  C  C360  1  0.722200  0.137000  0.990240  1.0  -0.152
  C  C361  1  0.473280  0.836600  0.499700  1.0  -0.1609
  C  C362  1  0.056530  0.841900  0.034110  1.0  0.1548
  C  C363  1  0.256930  0.736500  0.348130  1.0  -0.0588
  C  C364  1  0.821870  0.956900  0.818220  1.0  -0.1285
  C  C365  1  0.289650  0.726600  0.411760  1.0  0.3887
  C  C366  1  0.817890  0.050500  0.992640  1.0  0.3643
  C  C367  1  0.201440  0.584200  0.494510  1.0  -0.1683
  C  C368  1  0.820250  0.002600  0.911040  1.0  0.3838
  C  C369  1  0.693590  0.007000  0.756590  1.0  0.1726
  C  C370  1  0.294220  0.672800  0.494270  1.0  0.3899
  C  C371  1  0.784620  0.100000  0.021830  1.0  -0.0317
  C  C372  1  0.533070  0.877000  0.530450  1.0  0.1728
  C  C373  1  0.967020  0.924600  0.032410  1.0  -0.1066
  C  C374  1  0.692130  0.178200  0.020130  1.0  0.1784
  C  C375  1  0.174380  0.540800  0.525690  1.0  0.1793
  C  C376  1  0.254300  0.793300  0.262160  1.0  0.1737
  C  C377  1  0.526510  0.855200  0.615450  1.0  0.1732
  C  C378  1  0.789460  0.948600  0.759380  1.0  0.1727
  C  C379  1  0.997700  0.924500  0.092050  1.0  -0.1722
  C  C380  1  0.788690  0.992600  0.847500  1.0  -0.0877
  C  C381  1  0.263770  0.622000  0.524810  1.0  -0.0604
  C  C382  1  0.172760  0.703100  0.255400  1.0  0.1817
  C  C383  1  0.722430  0.018300  0.815850  1.0  -0.1563
  C  C384  1  0.813650  0.108300  0.081010  1.0  -0.1547
  C  C385  1  0.295390  0.611100  0.584340  1.0  -0.158
  C  C386  1  0.198010  0.694700  0.314350  1.0  -0.1527
  C  C387  1  0.283980  0.788400  0.321550  1.0  -0.1628
  C  C388  1  0.056780  0.880900  0.119920  1.0  0.1784
  C  C389  1  0.875720  0.257500  0.497050  1.0  0.3708
  C  C390  1  0.764300  0.066700  0.610960  1.0  0.1743
  C  C391  1  0.497190  0.383000  0.003200  1.0  -0.139
  C  C392  1  0.402690  0.469100  0.998420  1.0  0.3763
  C  C393  1  0.939870  0.302500  0.529350  1.0  -0.0824
  C  C394  1  0.966800  0.311900  0.588700  1.0  -0.1469
  C  C395  1  0.280240  0.650100  0.107050  1.0  0.1593
  C  C396  1  0.222200  0.637000  0.990240  1.0  -0.152
  C  C397  1  0.973280  0.336600  0.499700  1.0  -0.1609
  C  C398  1  0.556530  0.341900  0.034110  1.0  0.1548
  C  C399  1  0.756930  0.236500  0.348130  1.0  -0.0588
  C  C400  1  0.321870  0.456900  0.818220  1.0  -0.1285
  C  C401  1  0.789650  0.226600  0.411760  1.0  0.3887
  C  C402  1  0.317890  0.550500  0.992640  1.0  0.3643
  C  C403  1  0.701440  0.084200  0.494510  1.0  -0.1683
  C  C404  1  0.320250  0.502600  0.911040  1.0  0.3838
  C  C405  1  0.193590  0.507000  0.756590  1.0  0.1726
  C  C406  1  0.794220  0.172800  0.494270  1.0  0.3899
  C  C407  1  0.284620  0.600000  0.021830  1.0  -0.0317
  C  C408  1  0.033070  0.377000  0.530450  1.0  0.1728
  C  C409  1  0.467020  0.424600  0.032410  1.0  -0.1066
  C  C410  1  0.192130  0.678200  0.020130  1.0  0.1784
  C  C411  1  0.674380  0.040800  0.525690  1.0  0.1793
  C  C412  1  0.754300  0.293300  0.262160  1.0  0.1737
  C  C413  1  0.026510  0.355200  0.615450  1.0  0.1732
  C  C414  1  0.289460  0.448600  0.759380  1.0  0.1727
  C  C415  1  0.497700  0.424500  0.092050  1.0  -0.1722
  C  C416  1  0.288690  0.492600  0.847500  1.0  -0.0877
  C  C417  1  0.763770  0.122000  0.524810  1.0  -0.0604
  C  C418  1  0.672760  0.203100  0.255400  1.0  0.1817
  C  C419  1  0.222430  0.518300  0.815850  1.0  -0.1568
  C  C420  1  0.313650  0.608300  0.081010  1.0  -0.1547
  C  C421  1  0.795390  0.111100  0.584340  1.0  -0.158
  C  C422  1  0.698010  0.194700  0.314350  1.0  -0.1527
  C  C423  1  0.783980  0.288400  0.321550  1.0  -0.1628
  C  C424  1  0.556780  0.380900  0.119920  1.0  0.1784
  C  C425  1  0.624280  0.757500  0.002950  1.0  0.3702
  C  C426  1  0.735700  0.566700  0.889040  1.0  0.1751
  C  C427  1  0.002810  0.883000  0.496800  1.0  -0.1358
  C  C428  1  0.097310  0.969100  0.501580  1.0  0.3771
  C  C429  1  0.560130  0.802500  0.970650  1.0  -0.0834
  C  C430  1  0.533200  0.811900  0.911300  1.0  -0.1448
  C  C431  1  0.219760  0.150100  0.392950  1.0  0.1659
  C  C432  1  0.277800  0.137000  0.509760  1.0  -0.1527
  C  C433  1  0.526720  0.836600  0.000300  1.0  -0.1614
  C  C434  1  0.943470  0.841900  0.465890  1.0  0.1541
  C  C435  1  0.743070  0.736500  0.151870  1.0  -0.0584
  C  C436  1  0.178130  0.956900  0.681780  1.0  -0.1246
  C  C437  1  0.710350  0.726600  0.088240  1.0  0.3891
  C  C438  1  0.182110  0.050500  0.507360  1.0  0.3642
  C  C439  1  0.798560  0.584200  0.005490  1.0  -0.1715
  C  C440  1  0.179750  0.002600  0.588960  1.0  0.3844
  C  C441  1  0.306410  0.007000  0.743410  1.0  0.1738
  C  C442  1  0.705780  0.672800  0.005730  1.0  0.3902
  C  C443  1  0.215380  0.100000  0.478170  1.0  -0.0323
  C  C444  1  0.466930  0.877000  0.969550  1.0  0.1725
  C  C445  1  0.032980  0.924600  0.467590  1.0  -0.1047
  C  C446  1  0.307870  0.178200  0.479870  1.0  0.1783
  C  C447  1  0.825620  0.540800  0.974310  1.0  0.1789
  C  C448  1  0.745700  0.793300  0.237840  1.0  0.1741
  C  C449  1  0.473490  0.855200  0.884550  1.0  0.1745
  C  C450  1  0.210540  0.948600  0.740620  1.0  0.1717
  C  C451  1  0.002300  0.924500  0.407950  1.0  -0.1683
  C  C452  1  0.211310  0.992600  0.652500  1.0  -0.0872
  C  C453  1  0.736230  0.622000  0.975190  1.0  -0.0609
  C  C454  1  0.827240  0.703100  0.244600  1.0  0.1818
  C  C455  1  0.277570  0.018300  0.684150  1.0  -0.1574
  C  C456  1  0.186350  0.108300  0.418990  1.0  -0.1638
  C  C457  1  0.704610  0.611100  0.915660  1.0  -0.1581
  C  C458  1  0.801990  0.694700  0.185650  1.0  -0.1535
  C  C459  1  0.716020  0.788400  0.178450  1.0  -0.1709
  C  C460  1  0.943220  0.880900  0.380080  1.0  0.179
  C  C461  1  0.124280  0.257500  0.002950  1.0  0.3702
  C  C462  1  0.235700  0.066700  0.889040  1.0  0.1751
  C  C463  1  0.502810  0.383000  0.496800  1.0  -0.1358
  C  C464  1  0.597310  0.469100  0.501580  1.0  0.3771
  C  C465  1  0.060130  0.302500  0.970650  1.0  -0.0852
  C  C466  1  0.033200  0.311900  0.911300  1.0  -0.1448
  C  C467  1  0.719760  0.650100  0.392950  1.0  0.1659
  C  C468  1  0.777800  0.637000  0.509760  1.0  -0.1527
  C  C469  1  0.026720  0.336600  0.000300  1.0  -0.1614
  C  C470  1  0.443470  0.341900  0.465890  1.0  0.1541
  C  C471  1  0.243070  0.236500  0.151870  1.0  -0.0584
  C  C472  1  0.678130  0.456900  0.681780  1.0  -0.1258
  C  C473  1  0.210350  0.226600  0.088240  1.0  0.3891
  C  C474  1  0.682110  0.550500  0.507360  1.0  0.3642
  C  C475  1  0.298560  0.084200  0.005490  1.0  -0.1715
  C  C476  1  0.679750  0.502600  0.588960  1.0  0.3844
  C  C477  1  0.806410  0.507000  0.743410  1.0  0.1738
  C  C478  1  0.205780  0.172800  0.005730  1.0  0.3902
  C  C479  1  0.715380  0.600000  0.478170  1.0  -0.0323
  C  C480  1  0.966930  0.377000  0.969550  1.0  0.1725
  C  C481  1  0.532980  0.424600  0.467590  1.0  -0.1047
  C  C482  1  0.807870  0.678200  0.479870  1.0  0.1783
  C  C483  1  0.325620  0.040800  0.974310  1.0  0.1789
  C  C484  1  0.245700  0.293300  0.237840  1.0  0.1741
  C  C485  1  0.973490  0.355200  0.884550  1.0  0.1745
  C  C486  1  0.710540  0.448600  0.740620  1.0  0.1718
  C  C487  1  0.502300  0.424500  0.407950  1.0  -0.1683
  C  C488  1  0.711310  0.492600  0.652500  1.0  -0.0872
  C  C489  1  0.236230  0.122000  0.975190  1.0  -0.0609
  C  C490  1  0.327240  0.203100  0.244600  1.0  0.1818
  C  C491  1  0.777570  0.518300  0.684150  1.0  -0.1578
  C  C492  1  0.686350  0.608300  0.418990  1.0  -0.1638
  C  C493  1  0.204610  0.111100  0.915660  1.0  -0.1581
  C  C494  1  0.301990  0.194700  0.185650  1.0  -0.1535
  C  C495  1  0.216020  0.288400  0.178450  1.0  -0.1709
  C  C496  1  0.443220  0.380900  0.380080  1.0  0.179
  N  N497  1  0.439510  0.114280  0.412190  1.0  -0.3249
  N  N498  1  0.796170  0.468930  0.417340  1.0  -0.3585
  N  N499  1  0.800190  0.250200  0.771750  1.0  -0.3439
  N  N500  1  0.648110  0.289040  0.473050  1.0  -0.5447
  N  N501  1  0.738460  0.322700  0.563270  1.0  -0.5217
  N  N502  1  0.653520  0.231590  0.559840  1.0  -0.4774
  N  N503  1  0.913220  0.159800  0.907740  1.0  -0.3488
  N  N504  1  0.280140  0.814680  0.922060  1.0  -0.334
  N  N505  1  0.274770  0.026800  0.271870  1.0  -0.3575
  N  N506  1  0.125900  0.990180  0.973400  1.0  -0.5037
  N  N507  1  0.210910  0.950880  0.064830  1.0  -0.4918
  N  N508  1  0.122010  0.037610  0.059360  1.0  -0.526
  N  N509  1  0.939510  0.614280  0.412190  1.0  -0.3251
  N  N510  1  0.296170  0.968930  0.417340  1.0  -0.3585
  N  N511  1  0.300190  0.750200  0.771750  1.0  -0.3439
  N  N512  1  0.148110  0.789040  0.473050  1.0  -0.5447
  N  N513  1  0.238460  0.822700  0.563270  1.0  -0.5217
  N  N514  1  0.153520  0.731590  0.559840  1.0  -0.4774
  N  N515  1  0.413220  0.659800  0.907740  1.0  -0.3488
  N  N516  1  0.780140  0.314680  0.922060  1.0  -0.334
  N  N517  1  0.774770  0.526800  0.271870  1.0  -0.3575
  N  N518  1  0.625900  0.490180  0.973400  1.0  -0.5037
  N  N519  1  0.710910  0.450880  0.064830  1.0  -0.4918
  N  N520  1  0.622010  0.537610  0.059360  1.0  -0.526
  N  N521  1  0.560490  0.114280  0.087810  1.0  -0.3205
  N  N522  1  0.203830  0.468930  0.082660  1.0  -0.3619
  N  N523  1  0.199810  0.250200  0.728250  1.0  -0.3463
  N  N524  1  0.351890  0.289040  0.026950  1.0  -0.543
  N  N525  1  0.261540  0.322700  0.936730  1.0  -0.5295
  N  N526  1  0.346480  0.231590  0.940160  1.0  -0.478
  N  N527  1  0.086780  0.159800  0.592260  1.0  -0.3481
  N  N528  1  0.719860  0.814680  0.577940  1.0  -0.3322
  N  N529  1  0.725230  0.026800  0.228130  1.0  -0.3572
  N  N530  1  0.874100  0.990180  0.526600  1.0  -0.5014
  N  N531  1  0.789090  0.950880  0.435170  1.0  -0.5041
  N  N532  1  0.877990  0.037610  0.440640  1.0  -0.5248
  N  N533  1  0.060490  0.614280  0.087810  1.0  -0.3205
  N  N534  1  0.703830  0.968930  0.082660  1.0  -0.3619
  N  N535  1  0.699810  0.750200  0.728250  1.0  -0.3463
  N  N536  1  0.851890  0.789040  0.026950  1.0  -0.543
  N  N537  1  0.761540  0.822700  0.936730  1.0  -0.5295
  N  N538  1  0.846480  0.731590  0.940160  1.0  -0.478
  N  N539  1  0.586780  0.659800  0.592260  1.0  -0.3481
  N  N540  1  0.219860  0.314680  0.577940  1.0  -0.3322
  N  N541  1  0.225230  0.526800  0.228130  1.0  -0.3572
  N  N542  1  0.374100  0.490180  0.526600  1.0  -0.5014
  N  N543  1  0.289090  0.450880  0.435170  1.0  -0.5041
  N  N544  1  0.377990  0.537610  0.440640  1.0  -0.5248
  N  N545  1  0.560490  0.885720  0.587810  1.0  -0.3212
  N  N546  1  0.203830  0.531070  0.582660  1.0  -0.3603
  N  N547  1  0.199810  0.749800  0.228250  1.0  -0.346
  N  N548  1  0.351890  0.710960  0.526950  1.0  -0.5438
  N  N549  1  0.261540  0.677300  0.436730  1.0  -0.5292
  N  N550  1  0.346480  0.768410  0.440160  1.0  -0.4764
  N  N551  1  0.086780  0.840200  0.092260  1.0  -0.3463
  N  N552  1  0.719860  0.185320  0.077940  1.0  -0.3323
  N  N553  1  0.725230  0.973200  0.728130  1.0  -0.3575
  N  N554  1  0.874100  0.009820  0.026600  1.0  -0.5028
  N  N555  1  0.789090  0.049120  0.935170  1.0  -0.5026
  N  N556  1  0.877990  0.962390  0.940640  1.0  -0.525
  N  N557  1  0.060490  0.385720  0.587810  1.0  -0.3212
  N  N558  1  0.703830  0.031070  0.582660  1.0  -0.3603
  N  N559  1  0.699810  0.249800  0.228250  1.0  -0.346
  N  N560  1  0.851890  0.210960  0.526950  1.0  -0.5438
  N  N561  1  0.761540  0.177300  0.436730  1.0  -0.5292
  N  N562  1  0.846480  0.268410  0.440160  1.0  -0.4764
  N  N563  1  0.586780  0.340200  0.092260  1.0  -0.3463
  N  N564  1  0.219860  0.685320  0.077940  1.0  -0.3323
  N  N565  1  0.225230  0.473200  0.728130  1.0  -0.3575
  N  N566  1  0.374100  0.509820  0.026600  1.0  -0.5028
  N  N567  1  0.289090  0.549120  0.935170  1.0  -0.5016
  N  N568  1  0.377990  0.462390  0.940640  1.0  -0.5243
  N  N569  1  0.439510  0.885720  0.912190  1.0  -0.3217
  N  N570  1  0.796170  0.531070  0.917340  1.0  -0.3597
  N  N571  1  0.800190  0.749800  0.271750  1.0  -0.3443
  N  N572  1  0.648110  0.710960  0.973050  1.0  -0.5451
  N  N573  1  0.738460  0.677300  0.063270  1.0  -0.526
  N  N574  1  0.653520  0.768410  0.059840  1.0  -0.4779
  N  N575  1  0.913220  0.840200  0.407740  1.0  -0.3491
  N  N576  1  0.280140  0.185320  0.422060  1.0  -0.3309
  N  N577  1  0.274770  0.973200  0.771870  1.0  -0.357
  N  N578  1  0.125900  0.009820  0.473400  1.0  -0.504
  N  N579  1  0.210910  0.049120  0.564830  1.0  -0.489
  N  N580  1  0.122010  0.962390  0.559360  1.0  -0.5248
  N  N581  1  0.939510  0.385720  0.912190  1.0  -0.3227
  N  N582  1  0.296170  0.031070  0.917340  1.0  -0.3597
  N  N583  1  0.300190  0.249800  0.271750  1.0  -0.3443
  N  N584  1  0.148110  0.210960  0.973050  1.0  -0.5451
  N  N585  1  0.238460  0.177300  0.063270  1.0  -0.526
  N  N586  1  0.153520  0.268410  0.059840  1.0  -0.4779
  N  N587  1  0.413220  0.340200  0.407740  1.0  -0.3491
  N  N588  1  0.780140  0.685320  0.422060  1.0  -0.3309
  N  N589  1  0.774770  0.473200  0.771870  1.0  -0.357
  N  N590  1  0.625900  0.509820  0.473400  1.0  -0.504
  N  N591  1  0.710910  0.549120  0.564830  1.0  -0.489
  N  N592  1  0.622010  0.462390  0.559360  1.0  -0.5242
