# generated using pymatgen
data_AgH12(C3N)6
_symmetry_space_group_name_H-M   'P 1'
_cell_length_a   22.02480000
_cell_length_b   16.49330000
_cell_length_c   25.67660000
_cell_angle_alpha   90.00000000
_cell_angle_beta   115.38500000
_cell_angle_gamma   90.00000000
_symmetry_Int_Tables_number   1
_chemical_formula_structural   AgH12(C3N)6
_chemical_formula_sum   'Ag16 H192 C288 N96'
_cell_volume   8426.74777941
_cell_formula_units_Z   16
loop_
 _symmetry_equiv_pos_site_id
 _symmetry_equiv_pos_as_xyz
  1  'x, y, z'
loop_
 _atom_site_type_symbol
 _atom_site_label
 _atom_site_symmetry_multiplicity
 _atom_site_fract_x
 _atom_site_fract_y
 _atom_site_fract_z
 _atom_site_occupancy
 _atom_site_charge
  Ag  Ag1  1  0.273960  0.708710  0.868250  1.0  0.3314
  Ag  Ag2  1  0.794720  0.000570  0.367700  1.0  0.256
  Ag  Ag3  1  0.773960  0.208710  0.868250  1.0  0.3314
  Ag  Ag4  1  0.294720  0.500570  0.367700  1.0  0.256
  Ag  Ag5  1  0.726040  0.708710  0.631750  1.0  0.3313
  Ag  Ag6  1  0.205280  0.000570  0.132300  1.0  0.2565
  Ag  Ag7  1  0.226040  0.208710  0.631750  1.0  0.3313
  Ag  Ag8  1  0.705280  0.500570  0.132300  1.0  0.2565
  Ag  Ag9  1  0.726040  0.291290  0.131750  1.0  0.3314
  Ag  Ag10  1  0.205280  0.999430  0.632300  1.0  0.2564
  Ag  Ag11  1  0.226040  0.791290  0.131750  1.0  0.3314
  Ag  Ag12  1  0.705280  0.499430  0.632300  1.0  0.2564
  Ag  Ag13  1  0.273960  0.291290  0.368250  1.0  0.3314
  Ag  Ag14  1  0.794720  0.999430  0.867700  1.0  0.2557
  Ag  Ag15  1  0.773960  0.791290  0.368250  1.0  0.3314
  Ag  Ag16  1  0.294720  0.499430  0.867700  1.0  0.2557
  H  H17  1  0.585300  0.040800  0.890000  1.0  0.1262
  H  H18  1  0.403000  0.404300  0.352700  1.0  0.09
  H  H19  1  0.501100  0.383900  0.549700  1.0  0.125
  H  H20  1  0.385100  0.810500  0.849400  1.0  0.0783
  H  H21  1  0.764100  0.132700  0.536700  1.0  0.126
  H  H22  1  0.745900  0.082500  0.040000  1.0  0.1282
  H  H23  1  0.812300  0.064800  0.485700  1.0  0.0753
  H  H24  1  0.481300  0.884200  0.894300  1.0  0.117
  H  H25  1  0.794400  0.149400  0.989700  1.0  0.075
  H  H26  1  0.474600  0.838100  0.045400  1.0  0.1179
  H  H27  1  0.821900  0.174600  0.759800  1.0  0.0779
  H  H28  1  0.728500  0.068900  0.156700  1.0  0.1246
  H  H29  1  0.502000  0.334800  0.397000  1.0  0.117
  H  H30  1  0.638900  0.112100  0.845100  1.0  0.0846
  H  H31  1  0.777500  0.189800  0.661700  1.0  0.1144
  H  H32  1  0.614400  0.292100  0.666100  1.0  0.1165
  H  H33  1  0.663700  0.274200  0.764100  1.0  0.0744
  H  H34  1  0.777500  0.079500  0.255100  1.0  0.0772
  H  H35  1  0.377600  0.766600  0.995400  1.0  0.0712
  H  H36  1  0.616200  0.203100  0.386800  1.0  0.1262
  H  H37  1  0.595700  0.911700  0.168800  1.0  0.124
  H  H38  1  0.401900  0.452800  0.501100  1.0  0.0736
  H  H39  1  0.651100  0.924200  0.266900  1.0  0.0817
  H  H40  1  0.666500  0.129900  0.340000  1.0  0.0756
  H  H41  1  0.085300  0.540800  0.890000  1.0  0.1262
  H  H42  1  0.903000  0.904300  0.352700  1.0  0.09
  H  H43  1  0.001100  0.883900  0.549700  1.0  0.125
  H  H44  1  0.885100  0.310500  0.849400  1.0  0.0783
  H  H45  1  0.264100  0.632700  0.536700  1.0  0.126
  H  H46  1  0.245900  0.582500  0.040000  1.0  0.1282
  H  H47  1  0.312300  0.564800  0.485700  1.0  0.0753
  H  H48  1  0.981300  0.384200  0.894300  1.0  0.117
  H  H49  1  0.294400  0.649400  0.989700  1.0  0.075
  H  H50  1  0.974600  0.338100  0.045400  1.0  0.1179
  H  H51  1  0.321900  0.674600  0.759800  1.0  0.0778
  H  H52  1  0.228500  0.568900  0.156700  1.0  0.1246
  H  H53  1  0.002000  0.834800  0.397000  1.0  0.117
  H  H54  1  0.138900  0.612100  0.845100  1.0  0.0846
  H  H55  1  0.277500  0.689800  0.661700  1.0  0.1144
  H  H56  1  0.114400  0.792100  0.666100  1.0  0.1165
  H  H57  1  0.163700  0.774200  0.764100  1.0  0.0744
  H  H58  1  0.277500  0.579500  0.255100  1.0  0.0772
  H  H59  1  0.877600  0.266600  0.995400  1.0  0.0712
  H  H60  1  0.116200  0.703100  0.386800  1.0  0.1262
  H  H61  1  0.095700  0.411700  0.168800  1.0  0.124
  H  H62  1  0.901900  0.952800  0.501100  1.0  0.0736
  H  H63  1  0.151100  0.424200  0.266900  1.0  0.0817
  H  H64  1  0.166500  0.629900  0.340000  1.0  0.0756
  H  H65  1  0.414700  0.040800  0.610000  1.0  0.1262
  H  H66  1  0.597000  0.404300  0.147300  1.0  0.0899
  H  H67  1  0.498900  0.383900  0.950300  1.0  0.1252
  H  H68  1  0.614900  0.810500  0.650600  1.0  0.0772
  H  H69  1  0.235900  0.132700  0.963300  1.0  0.1264
  H  H70  1  0.254100  0.082500  0.460000  1.0  0.1282
  H  H71  1  0.187700  0.064800  0.014300  1.0  0.0754
  H  H72  1  0.518700  0.884200  0.605700  1.0  0.1161
  H  H73  1  0.205600  0.149400  0.510300  1.0  0.0749
  H  H74  1  0.525400  0.838100  0.454600  1.0  0.1176
  H  H75  1  0.178100  0.174600  0.740200  1.0  0.0778
  H  H76  1  0.271500  0.068900  0.343300  1.0  0.1242
  H  H77  1  0.498000  0.334800  0.103000  1.0  0.1166
  H  H78  1  0.361100  0.112100  0.654900  1.0  0.0853
  H  H79  1  0.222500  0.189800  0.838300  1.0  0.1154
  H  H80  1  0.385600  0.292100  0.833900  1.0  0.1161
  H  H81  1  0.336300  0.274200  0.735900  1.0  0.0746
  H  H82  1  0.222500  0.079500  0.244900  1.0  0.0772
  H  H83  1  0.622400  0.766600  0.504600  1.0  0.071
  H  H84  1  0.383800  0.203100  0.113200  1.0  0.1261
  H  H85  1  0.404300  0.911700  0.331200  1.0  0.1246
  H  H86  1  0.598100  0.452800  0.998900  1.0  0.0739
  H  H87  1  0.348900  0.924200  0.233100  1.0  0.0805
  H  H88  1  0.333500  0.129900  0.160000  1.0  0.0751
  H  H89  1  0.914700  0.540800  0.610000  1.0  0.1262
  H  H90  1  0.097000  0.904300  0.147300  1.0  0.0899
  H  H91  1  0.998900  0.883900  0.950300  1.0  0.1252
  H  H92  1  0.114900  0.310500  0.650600  1.0  0.0772
  H  H93  1  0.735900  0.632700  0.963300  1.0  0.1264
  H  H94  1  0.754100  0.582500  0.460000  1.0  0.1282
  H  H95  1  0.687700  0.564800  0.014300  1.0  0.0754
  H  H96  1  0.018700  0.384200  0.605700  1.0  0.1161
  H  H97  1  0.705600  0.649400  0.510300  1.0  0.0749
  H  H98  1  0.025400  0.338100  0.454600  1.0  0.1176
  H  H99  1  0.678100  0.674600  0.740200  1.0  0.0778
  H  H100  1  0.771500  0.568900  0.343300  1.0  0.1242
  H  H101  1  0.998000  0.834800  0.103000  1.0  0.1166
  H  H102  1  0.861100  0.612100  0.654900  1.0  0.0853
  H  H103  1  0.722500  0.689800  0.838300  1.0  0.1154
  H  H104  1  0.885600  0.792100  0.833900  1.0  0.1161
  H  H105  1  0.836300  0.774200  0.735900  1.0  0.0746
  H  H106  1  0.722500  0.579500  0.244900  1.0  0.0772
  H  H107  1  0.122400  0.266600  0.504600  1.0  0.071
  H  H108  1  0.883800  0.703100  0.113200  1.0  0.1261
  H  H109  1  0.904300  0.411700  0.331200  1.0  0.1246
  H  H110  1  0.098100  0.952800  0.998900  1.0  0.0739
  H  H111  1  0.848900  0.424200  0.233100  1.0  0.0805
  H  H112  1  0.833500  0.629900  0.160000  1.0  0.0751
  H  H113  1  0.414700  0.959200  0.110000  1.0  0.126
  H  H114  1  0.597000  0.595700  0.647300  1.0  0.0901
  H  H115  1  0.498900  0.616100  0.450300  1.0  0.1253
  H  H116  1  0.614900  0.189500  0.150600  1.0  0.077
  H  H117  1  0.235900  0.867300  0.463300  1.0  0.1265
  H  H118  1  0.254100  0.917500  0.960000  1.0  0.1282
  H  H119  1  0.187700  0.935200  0.514300  1.0  0.0757
  H  H120  1  0.518700  0.115800  0.105700  1.0  0.1159
  H  H121  1  0.205600  0.850600  0.010300  1.0  0.075
  H  H122  1  0.525400  0.161900  0.954600  1.0  0.1179
  H  H123  1  0.178100  0.825400  0.240200  1.0  0.0776
  H  H124  1  0.271500  0.931100  0.843300  1.0  0.1244
  H  H125  1  0.498000  0.665200  0.603000  1.0  0.1166
  H  H126  1  0.361100  0.887900  0.154900  1.0  0.0853
  H  H127  1  0.222500  0.810200  0.338300  1.0  0.1155
  H  H128  1  0.385600  0.707900  0.333900  1.0  0.1157
  H  H129  1  0.336300  0.725800  0.235900  1.0  0.0744
  H  H130  1  0.222500  0.920500  0.744900  1.0  0.0773
  H  H131  1  0.622400  0.233400  0.004600  1.0  0.0706
  H  H132  1  0.383800  0.796900  0.613200  1.0  0.1258
  H  H133  1  0.404300  0.088300  0.831200  1.0  0.125
  H  H134  1  0.598100  0.547200  0.498900  1.0  0.0764
  H  H135  1  0.348900  0.075800  0.733100  1.0  0.081
  H  H136  1  0.333500  0.870100  0.660000  1.0  0.075
  H  H137  1  0.914700  0.459200  0.110000  1.0  0.126
  H  H138  1  0.097000  0.095700  0.647300  1.0  0.0901
  H  H139  1  0.998900  0.116100  0.450300  1.0  0.1253
  H  H140  1  0.114900  0.689500  0.150600  1.0  0.077
  H  H141  1  0.735900  0.367300  0.463300  1.0  0.1265
  H  H142  1  0.754100  0.417500  0.960000  1.0  0.1282
  H  H143  1  0.687700  0.435200  0.514300  1.0  0.0757
  H  H144  1  0.018700  0.615800  0.105700  1.0  0.1159
  H  H145  1  0.705600  0.350600  0.010300  1.0  0.075
  H  H146  1  0.025400  0.661900  0.954600  1.0  0.1179
  H  H147  1  0.678100  0.325400  0.240200  1.0  0.0776
  H  H148  1  0.771500  0.431100  0.843300  1.0  0.1244
  H  H149  1  0.998000  0.165200  0.603000  1.0  0.1166
  H  H150  1  0.861100  0.387900  0.154900  1.0  0.0853
  H  H151  1  0.722500  0.310200  0.338300  1.0  0.1155
  H  H152  1  0.885600  0.207900  0.333900  1.0  0.1157
  H  H153  1  0.836300  0.225800  0.235900  1.0  0.0744
  H  H154  1  0.722500  0.420500  0.744900  1.0  0.0773
  H  H155  1  0.122400  0.733400  0.004600  1.0  0.0706
  H  H156  1  0.883800  0.296900  0.613200  1.0  0.1258
  H  H157  1  0.904300  0.588300  0.831200  1.0  0.125
  H  H158  1  0.098100  0.047200  0.498900  1.0  0.0764
  H  H159  1  0.848900  0.575800  0.733100  1.0  0.081
  H  H160  1  0.833500  0.370100  0.660000  1.0  0.075
  H  H161  1  0.585300  0.959200  0.390000  1.0  0.1258
  H  H162  1  0.403000  0.595700  0.852700  1.0  0.0899
  H  H163  1  0.501100  0.616100  0.049700  1.0  0.1252
  H  H164  1  0.385100  0.189500  0.349400  1.0  0.0781
  H  H165  1  0.764100  0.867300  0.036700  1.0  0.1259
  H  H166  1  0.745900  0.917500  0.540000  1.0  0.1282
  H  H167  1  0.812300  0.935200  0.985700  1.0  0.0755
  H  H168  1  0.481300  0.115800  0.394300  1.0  0.117
  H  H169  1  0.794400  0.850600  0.489700  1.0  0.0755
  H  H170  1  0.474600  0.161900  0.545400  1.0  0.1178
  H  H171  1  0.821900  0.825400  0.259800  1.0  0.0779
  H  H172  1  0.728500  0.931100  0.656700  1.0  0.1245
  H  H173  1  0.502000  0.665200  0.897000  1.0  0.1169
  H  H174  1  0.638900  0.887900  0.345100  1.0  0.0847
  H  H175  1  0.777500  0.810200  0.161700  1.0  0.1151
  H  H176  1  0.614400  0.707900  0.166100  1.0  0.1169
  H  H177  1  0.663700  0.725800  0.264100  1.0  0.0745
  H  H178  1  0.777500  0.920500  0.755100  1.0  0.0776
  H  H179  1  0.377600  0.233400  0.495400  1.0  0.071
  H  H180  1  0.616200  0.796900  0.886800  1.0  0.1263
  H  H181  1  0.595700  0.088300  0.668800  1.0  0.124
  H  H182  1  0.401900  0.547200  0.001100  1.0  0.076
  H  H183  1  0.651100  0.075800  0.766900  1.0  0.082
  H  H184  1  0.666500  0.870100  0.840000  1.0  0.0754
  H  H185  1  0.085300  0.459200  0.390000  1.0  0.1258
  H  H186  1  0.903000  0.095700  0.852700  1.0  0.0899
  H  H187  1  0.001100  0.116100  0.049700  1.0  0.1252
  H  H188  1  0.885100  0.689500  0.349400  1.0  0.0781
  H  H189  1  0.264100  0.367300  0.036700  1.0  0.1259
  H  H190  1  0.245900  0.417500  0.540000  1.0  0.1282
  H  H191  1  0.312300  0.435200  0.985700  1.0  0.0755
  H  H192  1  0.981300  0.615800  0.394300  1.0  0.117
  H  H193  1  0.294400  0.350600  0.489700  1.0  0.0755
  H  H194  1  0.974600  0.661900  0.545400  1.0  0.1178
  H  H195  1  0.321900  0.325400  0.259800  1.0  0.0779
  H  H196  1  0.228500  0.431100  0.656700  1.0  0.1245
  H  H197  1  0.002000  0.165200  0.897000  1.0  0.1169
  H  H198  1  0.138900  0.387900  0.345100  1.0  0.0847
  H  H199  1  0.277500  0.310200  0.161700  1.0  0.1151
  H  H200  1  0.114400  0.207900  0.166100  1.0  0.1169
  H  H201  1  0.163700  0.225800  0.264100  1.0  0.0745
  H  H202  1  0.277500  0.420500  0.755100  1.0  0.0776
  H  H203  1  0.877600  0.733400  0.495400  1.0  0.071
  H  H204  1  0.116200  0.296900  0.886800  1.0  0.1263
  H  H205  1  0.095700  0.588300  0.668800  1.0  0.124
  H  H206  1  0.901900  0.047200  0.001100  1.0  0.076
  H  H207  1  0.151100  0.575800  0.766900  1.0  0.082
  H  H208  1  0.166500  0.370100  0.840000  1.0  0.0754
  C  C209  1  0.627990  0.062200  0.911310  1.0  -0.1675
  C  C210  1  0.422690  0.400000  0.392690  1.0  0.1492
  C  C211  1  0.654170  0.219100  0.501590  1.0  0.3924
  C  C212  1  0.628280  0.007200  0.002730  1.0  0.3667
  C  C213  1  0.481850  0.386900  0.509670  1.0  -0.1566
  C  C214  1  0.403180  0.816400  0.889270  1.0  0.1642
  C  C215  1  0.743520  0.133200  0.496570  1.0  -0.1425
  C  C216  1  0.575220  0.301000  0.507410  1.0  0.3782
  C  C217  1  0.723380  0.086700  0.000100  1.0  -0.1746
  C  C218  1  0.772080  0.092300  0.465520  1.0  0.1651
  C  C219  1  0.627970  0.976700  0.088170  1.0  0.3775
  C  C220  1  0.660350  0.052400  0.970600  1.0  -0.0768
  C  C221  1  0.461020  0.861200  0.915940  1.0  -0.1553
  C  C222  1  0.752000  0.126900  0.969490  1.0  0.1687
  C  C223  1  0.683960  0.175000  0.467140  1.0  -0.021
  C  C224  1  0.658260  0.986600  0.151770  1.0  -0.0983
  C  C225  1  0.457070  0.834100  0.005510  1.0  -0.1646
  C  C226  1  0.779800  0.198600  0.740710  1.0  0.1665
  C  C227  1  0.712300  0.038400  0.178440  1.0  -0.1464
  C  C228  1  0.482270  0.357800  0.419110  1.0  -0.1527
  C  C229  1  0.690740  0.242700  0.652240  1.0  -0.083
  C  C230  1  0.661050  0.104700  0.884750  1.0  0.1811
  C  C231  1  0.549880  0.922700  0.005790  1.0  0.3871
  C  C232  1  0.753400  0.207400  0.681720  1.0  -0.1299
  C  C233  1  0.656600  0.268100  0.684120  1.0  -0.191
  C  C234  1  0.686800  0.257100  0.743190  1.0  0.1698
  C  C235  1  0.741700  0.043900  0.237650  1.0  0.1644
  C  C236  1  0.398900  0.790600  0.974920  1.0  0.1712
  C  C237  1  0.512520  0.349900  0.478170  1.0  0.0213
  C  C238  1  0.658740  0.252400  0.588610  1.0  0.3836
  C  C239  1  0.655600  0.174600  0.407850  1.0  -0.1556
  C  C240  1  0.633500  0.944500  0.185420  1.0  -0.1657
  C  C241  1  0.422100  0.428300  0.479930  1.0  0.172
  C  C242  1  0.489230  0.872000  0.975310  1.0  -0.0364
  C  C243  1  0.667200  0.953300  0.244400  1.0  0.1813
  C  C244  1  0.686700  0.131100  0.380100  1.0  0.1742
  C  C245  1  0.127990  0.562200  0.911310  1.0  -0.1675
  C  C246  1  0.922690  0.900000  0.392690  1.0  0.1492
  C  C247  1  0.154170  0.719100  0.501590  1.0  0.3924
  C  C248  1  0.128280  0.507200  0.002730  1.0  0.3667
  C  C249  1  0.981850  0.886900  0.509670  1.0  -0.1566
  C  C250  1  0.903180  0.316400  0.889270  1.0  0.1642
  C  C251  1  0.243520  0.633200  0.496570  1.0  -0.1425
  C  C252  1  0.075220  0.801000  0.507410  1.0  0.3782
  C  C253  1  0.223380  0.586700  0.000100  1.0  -0.1746
  C  C254  1  0.272080  0.592300  0.465520  1.0  0.1651
  C  C255  1  0.127970  0.476700  0.088170  1.0  0.3775
  C  C256  1  0.160350  0.552400  0.970600  1.0  -0.0768
  C  C257  1  0.961020  0.361200  0.915940  1.0  -0.1553
  C  C258  1  0.252000  0.626900  0.969490  1.0  0.1687
  C  C259  1  0.183960  0.675000  0.467140  1.0  -0.021
  C  C260  1  0.158260  0.486600  0.151770  1.0  -0.0983
  C  C261  1  0.957070  0.334100  0.005510  1.0  -0.1646
  C  C262  1  0.279800  0.698600  0.740710  1.0  0.1665
  C  C263  1  0.212300  0.538400  0.178440  1.0  -0.1464
  C  C264  1  0.982270  0.857800  0.419110  1.0  -0.1527
  C  C265  1  0.190740  0.742700  0.652240  1.0  -0.083
  C  C266  1  0.161050  0.604700  0.884750  1.0  0.1811
  C  C267  1  0.049880  0.422700  0.005790  1.0  0.3871
  C  C268  1  0.253400  0.707400  0.681720  1.0  -0.1299
  C  C269  1  0.156600  0.768100  0.684120  1.0  -0.191
  C  C270  1  0.186800  0.757100  0.743190  1.0  0.1698
  C  C271  1  0.241700  0.543900  0.237650  1.0  0.1644
  C  C272  1  0.898900  0.290600  0.974920  1.0  0.1712
  C  C273  1  0.012520  0.849900  0.478170  1.0  0.0213
  C  C274  1  0.158740  0.752400  0.588610  1.0  0.3836
  C  C275  1  0.155600  0.674600  0.407850  1.0  -0.1556
  C  C276  1  0.133500  0.444500  0.185420  1.0  -0.1657
  C  C277  1  0.922100  0.928300  0.479930  1.0  0.172
  C  C278  1  0.989230  0.372000  0.975310  1.0  -0.0364
  C  C279  1  0.167200  0.453300  0.244400  1.0  0.1813
  C  C280  1  0.186700  0.631100  0.380100  1.0  0.1742
  C  C281  1  0.372010  0.062200  0.588690  1.0  -0.1689
  C  C282  1  0.577310  0.400000  0.107310  1.0  0.1481
  C  C283  1  0.345830  0.219100  0.998410  1.0  0.3925
  C  C284  1  0.371720  0.007200  0.497270  1.0  0.3673
  C  C285  1  0.518150  0.386900  0.990330  1.0  -0.1581
  C  C286  1  0.596820  0.816400  0.610730  1.0  0.1636
  C  C287  1  0.256480  0.133200  0.003430  1.0  -0.1414
  C  C288  1  0.424780  0.301000  0.992590  1.0  0.3774
  C  C289  1  0.276620  0.086700  0.499900  1.0  -0.174
  C  C290  1  0.227920  0.092300  0.034480  1.0  0.1648
  C  C291  1  0.372030  0.976700  0.411830  1.0  0.3773
  C  C292  1  0.339650  0.052400  0.529400  1.0  -0.0756
  C  C293  1  0.538980  0.861200  0.584060  1.0  -0.1547
  C  C294  1  0.248000  0.126900  0.530510  1.0  0.1687
  C  C295  1  0.316040  0.175000  0.032860  1.0  -0.0217
  C  C296  1  0.341740  0.986600  0.348230  1.0  -0.0961
  C  C297  1  0.542930  0.834100  0.494490  1.0  -0.1672
  C  C298  1  0.220200  0.198600  0.759290  1.0  0.1665
  C  C299  1  0.287700  0.038400  0.321560  1.0  -0.1449
  C  C300  1  0.517730  0.357800  0.080890  1.0  -0.1545
  C  C301  1  0.309260  0.242700  0.847760  1.0  -0.0831
  C  C302  1  0.338950  0.104700  0.615250  1.0  0.1797
  C  C303  1  0.450120  0.922700  0.494210  1.0  0.3865
  C  C304  1  0.246600  0.207400  0.818280  1.0  -0.128
  C  C305  1  0.343400  0.268100  0.815880  1.0  -0.1904
  C  C306  1  0.313200  0.257100  0.756810  1.0  0.1695
  C  C307  1  0.258300  0.043900  0.262350  1.0  0.1641
  C  C308  1  0.601100  0.790600  0.525080  1.0  0.1719
  C  C309  1  0.487480  0.349900  0.021830  1.0  0.0223
  C  C310  1  0.341260  0.252400  0.911390  1.0  0.3835
  C  C311  1  0.344400  0.174600  0.092150  1.0  -0.1572
  C  C312  1  0.366500  0.944500  0.314580  1.0  -0.1669
  C  C313  1  0.577900  0.428300  0.020070  1.0  0.1729
  C  C314  1  0.510770  0.872000  0.524690  1.0  -0.0373
  C  C315  1  0.332800  0.953300  0.255600  1.0  0.1813
  C  C316  1  0.313300  0.131100  0.119900  1.0  0.1748
  C  C317  1  0.872010  0.562200  0.588690  1.0  -0.1689
  C  C318  1  0.077310  0.900000  0.107310  1.0  0.1481
  C  C319  1  0.845830  0.719100  0.998410  1.0  0.3925
  C  C320  1  0.871720  0.507200  0.497270  1.0  0.3673
  C  C321  1  0.018150  0.886900  0.990330  1.0  -0.1581
  C  C322  1  0.096820  0.316400  0.610730  1.0  0.1636
  C  C323  1  0.756480  0.633200  0.003430  1.0  -0.1414
  C  C324  1  0.924780  0.801000  0.992590  1.0  0.3774
  C  C325  1  0.776620  0.586700  0.499900  1.0  -0.174
  C  C326  1  0.727920  0.592300  0.034480  1.0  0.1648
  C  C327  1  0.872030  0.476700  0.411830  1.0  0.3773
  C  C328  1  0.839650  0.552400  0.529400  1.0  -0.0756
  C  C329  1  0.038980  0.361200  0.584060  1.0  -0.1547
  C  C330  1  0.748000  0.626900  0.530510  1.0  0.1687
  C  C331  1  0.816040  0.675000  0.032860  1.0  -0.0217
  C  C332  1  0.841740  0.486600  0.348230  1.0  -0.0961
  C  C333  1  0.042930  0.334100  0.494490  1.0  -0.1672
  C  C334  1  0.720200  0.698600  0.759290  1.0  0.1665
  C  C335  1  0.787700  0.538400  0.321560  1.0  -0.1449
  C  C336  1  0.017730  0.857800  0.080890  1.0  -0.1545
  C  C337  1  0.809260  0.742700  0.847760  1.0  -0.0831
  C  C338  1  0.838950  0.604700  0.615250  1.0  0.1797
  C  C339  1  0.950120  0.422700  0.494210  1.0  0.3865
  C  C340  1  0.746600  0.707400  0.818280  1.0  -0.128
  C  C341  1  0.843400  0.768100  0.815880  1.0  -0.1904
  C  C342  1  0.813200  0.757100  0.756810  1.0  0.1695
  C  C343  1  0.758300  0.543900  0.262350  1.0  0.1641
  C  C344  1  0.101100  0.290600  0.525080  1.0  0.1719
  C  C345  1  0.987480  0.849900  0.021830  1.0  0.0223
  C  C346  1  0.841260  0.752400  0.911390  1.0  0.3835
  C  C347  1  0.844400  0.674600  0.092150  1.0  -0.1572
  C  C348  1  0.866500  0.444500  0.314580  1.0  -0.1669
  C  C349  1  0.077900  0.928300  0.020070  1.0  0.1729
  C  C350  1  0.010770  0.372000  0.524690  1.0  -0.0373
  C  C351  1  0.832800  0.453300  0.255600  1.0  0.1813
  C  C352  1  0.813300  0.631100  0.119900  1.0  0.1748
  C  C353  1  0.372010  0.937800  0.088690  1.0  -0.1689
  C  C354  1  0.577310  0.600000  0.607310  1.0  0.1483
  C  C355  1  0.345830  0.780900  0.498410  1.0  0.3922
  C  C356  1  0.371720  0.992800  0.997270  1.0  0.3674
  C  C357  1  0.518150  0.613100  0.490330  1.0  -0.1577
  C  C358  1  0.596820  0.183600  0.110730  1.0  0.1632
  C  C359  1  0.256480  0.866800  0.503430  1.0  -0.1415
  C  C360  1  0.424780  0.699000  0.492590  1.0  0.3775
  C  C361  1  0.276620  0.913300  0.999900  1.0  -0.1743
  C  C362  1  0.227920  0.907700  0.534480  1.0  0.1645
  C  C363  1  0.372030  0.023300  0.911830  1.0  0.3773
  C  C364  1  0.339650  0.947600  0.029400  1.0  -0.0752
  C  C365  1  0.538980  0.138800  0.084060  1.0  -0.1552
  C  C366  1  0.248000  0.873100  0.030510  1.0  0.1695
  C  C367  1  0.316040  0.825000  0.532860  1.0  -0.0222
  C  C368  1  0.341740  0.013400  0.848230  1.0  -0.0959
  C  C369  1  0.542930  0.165900  0.994490  1.0  -0.1676
  C  C370  1  0.220200  0.801400  0.259290  1.0  0.1667
  C  C371  1  0.287700  0.961600  0.821560  1.0  -0.145
  C  C372  1  0.517730  0.642200  0.580890  1.0  -0.1544
  C  C373  1  0.309260  0.757300  0.347760  1.0  -0.0826
  C  C374  1  0.338950  0.895300  0.115250  1.0  0.1813
  C  C375  1  0.450120  0.077300  0.994210  1.0  0.3866
  C  C376  1  0.246600  0.792600  0.318280  1.0  -0.1279
  C  C377  1  0.343400  0.731900  0.315880  1.0  -0.1903
  C  C378  1  0.313200  0.742900  0.256810  1.0  0.17
  C  C379  1  0.258300  0.956100  0.762350  1.0  0.1638
  C  C380  1  0.601100  0.209400  0.025080  1.0  0.1709
  C  C381  1  0.487480  0.650100  0.521830  1.0  0.0226
  C  C382  1  0.341260  0.747600  0.411390  1.0  0.3833
  C  C383  1  0.344400  0.825400  0.592150  1.0  -0.1576
  C  C384  1  0.366500  0.055500  0.814580  1.0  -0.1668
  C  C385  1  0.577900  0.571700  0.520070  1.0  0.1731
  C  C386  1  0.510770  0.128000  0.024690  1.0  -0.0375
  C  C387  1  0.332800  0.046700  0.755600  1.0  0.1815
  C  C388  1  0.313300  0.868900  0.619900  1.0  0.1747
  C  C389  1  0.872010  0.437800  0.088690  1.0  -0.1689
  C  C390  1  0.077310  0.100000  0.607310  1.0  0.1483
  C  C391  1  0.845830  0.280900  0.498410  1.0  0.3922
  C  C392  1  0.871720  0.492800  0.997270  1.0  0.3674
  C  C393  1  0.018150  0.113100  0.490330  1.0  -0.1577
  C  C394  1  0.096820  0.683600  0.110730  1.0  0.1632
  C  C395  1  0.756480  0.366800  0.503430  1.0  -0.1415
  C  C396  1  0.924780  0.199000  0.492590  1.0  0.3775
  C  C397  1  0.776620  0.413300  0.999900  1.0  -0.1743
  C  C398  1  0.727920  0.407700  0.534480  1.0  0.1645
  C  C399  1  0.872030  0.523300  0.911830  1.0  0.3773
  C  C400  1  0.839650  0.447600  0.029400  1.0  -0.0752
  C  C401  1  0.038980  0.638800  0.084060  1.0  -0.1552
  C  C402  1  0.748000  0.373100  0.030510  1.0  0.1695
  C  C403  1  0.816040  0.325000  0.532860  1.0  -0.0222
  C  C404  1  0.841740  0.513400  0.848230  1.0  -0.0959
  C  C405  1  0.042930  0.665900  0.994490  1.0  -0.1676
  C  C406  1  0.720200  0.301400  0.259290  1.0  0.1667
  C  C407  1  0.787700  0.461600  0.821560  1.0  -0.145
  C  C408  1  0.017730  0.142200  0.580890  1.0  -0.1544
  C  C409  1  0.809260  0.257300  0.347760  1.0  -0.0826
  C  C410  1  0.838950  0.395300  0.115250  1.0  0.1813
  C  C411  1  0.950120  0.577300  0.994210  1.0  0.3866
  C  C412  1  0.746600  0.292600  0.318280  1.0  -0.1279
  C  C413  1  0.843400  0.231900  0.315880  1.0  -0.1903
  C  C414  1  0.813200  0.242900  0.256810  1.0  0.17
  C  C415  1  0.758300  0.456100  0.762350  1.0  0.1638
  C  C416  1  0.101100  0.709400  0.025080  1.0  0.1709
  C  C417  1  0.987480  0.150100  0.521830  1.0  0.0226
  C  C418  1  0.841260  0.247600  0.411390  1.0  0.3833
  C  C419  1  0.844400  0.325400  0.592150  1.0  -0.1576
  C  C420  1  0.866500  0.555500  0.814580  1.0  -0.1668
  C  C421  1  0.077900  0.071700  0.520070  1.0  0.1731
  C  C422  1  0.010770  0.628000  0.024690  1.0  -0.0375
  C  C423  1  0.832800  0.546700  0.755600  1.0  0.1815
  C  C424  1  0.813300  0.368900  0.619900  1.0  0.1747
  C  C425  1  0.627990  0.937800  0.411310  1.0  -0.168
  C  C426  1  0.422690  0.600000  0.892690  1.0  0.1487
  C  C427  1  0.654170  0.780900  0.001590  1.0  0.3922
  C  C428  1  0.628280  0.992800  0.502730  1.0  0.3668
  C  C429  1  0.481850  0.613100  0.009670  1.0  -0.1566
  C  C430  1  0.403180  0.183600  0.389270  1.0  0.1638
  C  C431  1  0.743520  0.866800  0.996570  1.0  -0.1427
  C  C432  1  0.575220  0.699000  0.007410  1.0  0.3785
  C  C433  1  0.723380  0.913300  0.500100  1.0  -0.175
  C  C434  1  0.772080  0.907700  0.965520  1.0  0.1648
  C  C435  1  0.627970  0.023300  0.588170  1.0  0.3774
  C  C436  1  0.660350  0.947600  0.470600  1.0  -0.0773
  C  C437  1  0.461020  0.138800  0.415940  1.0  -0.1552
  C  C438  1  0.752000  0.873100  0.469490  1.0  0.1687
  C  C439  1  0.683960  0.825000  0.967140  1.0  -0.0219
  C  C440  1  0.658260  0.013400  0.651770  1.0  -0.0977
  C  C441  1  0.457070  0.165900  0.505510  1.0  -0.1647
  C  C442  1  0.779800  0.801400  0.240710  1.0  0.1668
  C  C443  1  0.712300  0.961600  0.678440  1.0  -0.1457
  C  C444  1  0.482270  0.642200  0.919110  1.0  -0.1531
  C  C445  1  0.690740  0.757300  0.152240  1.0  -0.0828
  C  C446  1  0.661050  0.895300  0.384750  1.0  0.1811
  C  C447  1  0.549880  0.077300  0.505790  1.0  0.3872
  C  C448  1  0.753400  0.792600  0.181720  1.0  -0.1299
  C  C449  1  0.656600  0.731900  0.184120  1.0  -0.19
  C  C450  1  0.686800  0.742900  0.243190  1.0  0.1705
  C  C451  1  0.741700  0.956100  0.737650  1.0  0.1644
  C  C452  1  0.398900  0.209400  0.474920  1.0  0.1705
  C  C453  1  0.512520  0.650100  0.978170  1.0  0.0219
  C  C454  1  0.658740  0.747600  0.088610  1.0  0.3834
  C  C455  1  0.655600  0.825400  0.907850  1.0  -0.1556
  C  C456  1  0.633500  0.055500  0.685420  1.0  -0.1653
  C  C457  1  0.422100  0.571700  0.979930  1.0  0.1731
  C  C458  1  0.489230  0.128000  0.475310  1.0  -0.0369
  C  C459  1  0.667200  0.046700  0.744400  1.0  0.1819
  C  C460  1  0.686700  0.868900  0.880100  1.0  0.1748
  C  C461  1  0.127990  0.437800  0.411310  1.0  -0.168
  C  C462  1  0.922690  0.100000  0.892690  1.0  0.1487
  C  C463  1  0.154170  0.280900  0.001590  1.0  0.3922
  C  C464  1  0.128280  0.492800  0.502730  1.0  0.3668
  C  C465  1  0.981850  0.113100  0.009670  1.0  -0.1566
  C  C466  1  0.903180  0.683600  0.389270  1.0  0.1638
  C  C467  1  0.243520  0.366800  0.996570  1.0  -0.1427
  C  C468  1  0.075220  0.199000  0.007410  1.0  0.3785
  C  C469  1  0.223380  0.413300  0.500100  1.0  -0.175
  C  C470  1  0.272080  0.407700  0.965520  1.0  0.1648
  C  C471  1  0.127970  0.523300  0.588170  1.0  0.3774
  C  C472  1  0.160350  0.447600  0.470600  1.0  -0.0773
  C  C473  1  0.961020  0.638800  0.415940  1.0  -0.1552
  C  C474  1  0.252000  0.373100  0.469490  1.0  0.1687
  C  C475  1  0.183960  0.325000  0.967140  1.0  -0.0219
  C  C476  1  0.158260  0.513400  0.651770  1.0  -0.0977
  C  C477  1  0.957070  0.665900  0.505510  1.0  -0.1647
  C  C478  1  0.279800  0.301400  0.240710  1.0  0.1668
  C  C479  1  0.212300  0.461600  0.678440  1.0  -0.1457
  C  C480  1  0.982270  0.142200  0.919110  1.0  -0.1531
  C  C481  1  0.190740  0.257300  0.152240  1.0  -0.0828
  C  C482  1  0.161050  0.395300  0.384750  1.0  0.1811
  C  C483  1  0.049880  0.577300  0.505790  1.0  0.3872
  C  C484  1  0.253400  0.292600  0.181720  1.0  -0.1299
  C  C485  1  0.156600  0.231900  0.184120  1.0  -0.19
  C  C486  1  0.186800  0.242900  0.243190  1.0  0.1705
  C  C487  1  0.241700  0.456100  0.737650  1.0  0.1644
  C  C488  1  0.898900  0.709400  0.474920  1.0  0.1705
  C  C489  1  0.012520  0.150100  0.978170  1.0  0.0219
  C  C490  1  0.158740  0.247600  0.088610  1.0  0.3834
  C  C491  1  0.155600  0.325400  0.907850  1.0  -0.1556
  C  C492  1  0.133500  0.555500  0.685420  1.0  -0.1653
  C  C493  1  0.922100  0.071700  0.979930  1.0  0.1731
  C  C494  1  0.989230  0.628000  0.475310  1.0  -0.0369
  C  C495  1  0.167200  0.546700  0.744400  1.0  0.1819
  C  C496  1  0.186700  0.368900  0.880100  1.0  0.1748
  N  N497  1  0.371250  0.780790  0.917620  1.0  -0.3601
  N  N498  1  0.722370  0.135600  0.912180  1.0  -0.3319
  N  N499  1  0.721200  0.000200  0.271800  1.0  -0.3316
  N  N500  1  0.574680  0.961000  0.973000  1.0  -0.5184
  N  N501  1  0.656270  0.018500  0.059840  1.0  -0.483
  N  N502  1  0.574880  0.927500  0.063150  1.0  -0.5268
  N  N503  1  0.744710  0.090200  0.408040  1.0  -0.3525
  N  N504  1  0.747010  0.223300  0.771970  1.0  -0.3576
  N  N505  1  0.391730  0.435200  0.422120  1.0  -0.3312
  N  N506  1  0.597510  0.260200  0.473490  1.0  -0.5049
  N  N507  1  0.686990  0.212600  0.559330  1.0  -0.5077
  N  N508  1  0.604050  0.299300  0.564810  1.0  -0.4974
  N  N509  1  0.871250  0.280790  0.917620  1.0  -0.3601
  N  N510  1  0.222370  0.635600  0.912180  1.0  -0.3319
  N  N511  1  0.221200  0.500200  0.271800  1.0  -0.3316
  N  N512  1  0.074680  0.461000  0.973000  1.0  -0.5184
  N  N513  1  0.156270  0.518500  0.059840  1.0  -0.483
  N  N514  1  0.074880  0.427500  0.063150  1.0  -0.5268
  N  N515  1  0.244710  0.590200  0.408040  1.0  -0.3525
  N  N516  1  0.247010  0.723300  0.771970  1.0  -0.3576
  N  N517  1  0.891730  0.935200  0.422120  1.0  -0.3312
  N  N518  1  0.097510  0.760200  0.473490  1.0  -0.5049
  N  N519  1  0.186990  0.712600  0.559330  1.0  -0.5077
  N  N520  1  0.104050  0.799300  0.564810  1.0  -0.4974
  N  N521  1  0.628750  0.780790  0.582380  1.0  -0.3589
  N  N522  1  0.277630  0.135600  0.587820  1.0  -0.3312
  N  N523  1  0.278800  0.000200  0.228200  1.0  -0.3333
  N  N524  1  0.425320  0.961000  0.527000  1.0  -0.5208
  N  N525  1  0.343730  0.018500  0.440160  1.0  -0.4824
  N  N526  1  0.425120  0.927500  0.436850  1.0  -0.5252
  N  N527  1  0.255290  0.090200  0.091960  1.0  -0.3476
  N  N528  1  0.252990  0.223300  0.728030  1.0  -0.3578
  N  N529  1  0.608270  0.435200  0.077880  1.0  -0.332
  N  N530  1  0.402490  0.260200  0.026510  1.0  -0.5036
  N  N531  1  0.313010  0.212600  0.940670  1.0  -0.5077
  N  N532  1  0.395950  0.299300  0.935190  1.0  -0.4922
  N  N533  1  0.128750  0.280790  0.582380  1.0  -0.3589
  N  N534  1  0.777630  0.635600  0.587820  1.0  -0.3312
  N  N535  1  0.778800  0.500200  0.228200  1.0  -0.3333
  N  N536  1  0.925320  0.461000  0.527000  1.0  -0.5208
  N  N537  1  0.843730  0.518500  0.440160  1.0  -0.4824
  N  N538  1  0.925120  0.427500  0.436850  1.0  -0.5252
  N  N539  1  0.755290  0.590200  0.091960  1.0  -0.3476
  N  N540  1  0.752990  0.723300  0.728030  1.0  -0.3578
  N  N541  1  0.108270  0.935200  0.077880  1.0  -0.332
  N  N542  1  0.902490  0.760200  0.026510  1.0  -0.5036
  N  N543  1  0.813010  0.712600  0.940670  1.0  -0.5077
  N  N544  1  0.895950  0.799300  0.935190  1.0  -0.4922
  N  N545  1  0.628750  0.219210  0.082380  1.0  -0.3604
  N  N546  1  0.277630  0.864400  0.087820  1.0  -0.3331
  N  N547  1  0.278800  0.999800  0.728200  1.0  -0.3337
  N  N548  1  0.425320  0.039000  0.027000  1.0  -0.5207
  N  N549  1  0.343730  0.981500  0.940160  1.0  -0.4825
  N  N550  1  0.425120  0.072500  0.936850  1.0  -0.5244
  N  N551  1  0.255290  0.909800  0.591960  1.0  -0.35
  N  N552  1  0.252990  0.776700  0.228030  1.0  -0.3574
  N  N553  1  0.608270  0.564800  0.577880  1.0  -0.3327
  N  N554  1  0.402490  0.739800  0.526510  1.0  -0.5025
  N  N555  1  0.313010  0.787400  0.440670  1.0  -0.5082
  N  N556  1  0.395950  0.700700  0.435190  1.0  -0.4929
  N  N557  1  0.128750  0.719210  0.082380  1.0  -0.3604
  N  N558  1  0.777630  0.364400  0.087820  1.0  -0.3331
  N  N559  1  0.778800  0.499800  0.728200  1.0  -0.3337
  N  N560  1  0.925320  0.539000  0.027000  1.0  -0.5207
  N  N561  1  0.843730  0.481500  0.940160  1.0  -0.4825
  N  N562  1  0.925120  0.572500  0.936850  1.0  -0.5244
  N  N563  1  0.755290  0.409800  0.591960  1.0  -0.35
  N  N564  1  0.752990  0.276700  0.228030  1.0  -0.3574
  N  N565  1  0.108270  0.064800  0.577880  1.0  -0.3327
  N  N566  1  0.902490  0.239800  0.526510  1.0  -0.5025
  N  N567  1  0.813010  0.287400  0.440670  1.0  -0.5082
  N  N568  1  0.895950  0.200700  0.435190  1.0  -0.4929
  N  N569  1  0.371250  0.219210  0.417620  1.0  -0.3599
  N  N570  1  0.722370  0.864400  0.412180  1.0  -0.3344
  N  N571  1  0.721200  0.999800  0.771800  1.0  -0.3312
  N  N572  1  0.574680  0.039000  0.473000  1.0  -0.5183
  N  N573  1  0.656270  0.981500  0.559840  1.0  -0.4824
  N  N574  1  0.574880  0.072500  0.563150  1.0  -0.5272
  N  N575  1  0.744710  0.909800  0.908040  1.0  -0.3521
  N  N576  1  0.747010  0.776700  0.271970  1.0  -0.3582
  N  N577  1  0.391730  0.564800  0.922120  1.0  -0.3359
  N  N578  1  0.597510  0.739800  0.973490  1.0  -0.5048
  N  N579  1  0.686990  0.787400  0.059330  1.0  -0.5094
  N  N580  1  0.604050  0.700700  0.064810  1.0  -0.4968
  N  N581  1  0.871250  0.719210  0.417620  1.0  -0.3599
  N  N582  1  0.222370  0.364400  0.412180  1.0  -0.3344
  N  N583  1  0.221200  0.499800  0.771800  1.0  -0.3312
  N  N584  1  0.074680  0.539000  0.473000  1.0  -0.5183
  N  N585  1  0.156270  0.481500  0.559840  1.0  -0.4824
  N  N586  1  0.074880  0.572500  0.563150  1.0  -0.5272
  N  N587  1  0.244710  0.409800  0.908040  1.0  -0.3521
  N  N588  1  0.247010  0.276700  0.271970  1.0  -0.3582
  N  N589  1  0.891730  0.064800  0.922120  1.0  -0.3359
  N  N590  1  0.097510  0.239800  0.973490  1.0  -0.5048
  N  N591  1  0.186990  0.287400  0.059330  1.0  -0.5094
  N  N592  1  0.104050  0.200700  0.064810  1.0  -0.4968
