# generated using pymatgen
data_AgH12(C3N)6
_symmetry_space_group_name_H-M   'P 1'
_cell_length_a   22.01210000
_cell_length_b   16.53010000
_cell_length_c   25.66410000
_cell_angle_alpha   90.00000000
_cell_angle_beta   115.38600000
_cell_angle_gamma   90.00000000
_symmetry_Int_Tables_number   1
_chemical_formula_structural   AgH12(C3N)6
_chemical_formula_sum   'Ag16 H192 C288 N96'
_cell_volume   8436.50071753
_cell_formula_units_Z   16
loop_
 _symmetry_equiv_pos_site_id
 _symmetry_equiv_pos_as_xyz
  1  'x, y, z'
loop_
 _atom_site_type_symbol
 _atom_site_label
 _atom_site_symmetry_multiplicity
 _atom_site_fract_x
 _atom_site_fract_y
 _atom_site_fract_z
 _atom_site_occupancy
 _atom_site_charge
  Ag  Ag1  1  0.773920  0.708830  0.368250  1.0  0.3309
  Ag  Ag2  1  0.294820  0.000960  0.867690  1.0  0.2587
  Ag  Ag3  1  0.273920  0.208830  0.368250  1.0  0.3309
  Ag  Ag4  1  0.794820  0.500960  0.867690  1.0  0.2587
  Ag  Ag5  1  0.226080  0.708830  0.131750  1.0  0.3309
  Ag  Ag6  1  0.705180  0.000960  0.632310  1.0  0.2591
  Ag  Ag7  1  0.726080  0.208830  0.131750  1.0  0.3309
  Ag  Ag8  1  0.205180  0.500960  0.632310  1.0  0.2591
  Ag  Ag9  1  0.226080  0.291170  0.631750  1.0  0.331
  Ag  Ag10  1  0.705180  0.999040  0.132310  1.0  0.2589
  Ag  Ag11  1  0.726080  0.791170  0.631750  1.0  0.331
  Ag  Ag12  1  0.205180  0.499040  0.132310  1.0  0.2589
  Ag  Ag13  1  0.773920  0.291170  0.868250  1.0  0.3308
  Ag  Ag14  1  0.294820  0.999040  0.367690  1.0  0.2584
  Ag  Ag15  1  0.273920  0.791170  0.868250  1.0  0.3308
  Ag  Ag16  1  0.794820  0.499040  0.367690  1.0  0.2584
  H  H17  1  0.903800  0.405600  0.852700  1.0  0.0933
  H  H18  1  0.085600  0.039800  0.390000  1.0  0.1271
  H  H19  1  0.885100  0.810600  0.349200  1.0  0.0817
  H  H20  1  0.000700  0.384200  0.049500  1.0  0.1271
  H  H21  1  0.264200  0.133200  0.036900  1.0  0.1296
  H  H22  1  0.246100  0.081700  0.539700  1.0  0.1275
  H  H23  1  0.981000  0.885100  0.394200  1.0  0.1183
  H  H24  1  0.312100  0.065100  0.985900  1.0  0.0755
  H  H25  1  0.294500  0.148700  0.489800  1.0  0.0775
  H  H26  1  0.321600  0.174300  0.259700  1.0  0.0793
  H  H27  1  0.001500  0.334900  0.896700  1.0  0.1165
  H  H28  1  0.138300  0.112700  0.344700  1.0  0.0823
  H  H29  1  0.163700  0.274800  0.263800  1.0  0.0789
  H  H30  1  0.974700  0.837800  0.545300  1.0  0.1209
  H  H31  1  0.276900  0.189400  0.161200  1.0  0.1154
  H  H32  1  0.228400  0.068300  0.656600  1.0  0.1217
  H  H33  1  0.277500  0.079300  0.754900  1.0  0.0813
  H  H34  1  0.114300  0.292300  0.166200  1.0  0.1188
  H  H35  1  0.877600  0.766900  0.495200  1.0  0.0716
  H  H36  1  0.901900  0.452900  0.000900  1.0  0.0777
  H  H37  1  0.095900  0.912100  0.668900  1.0  0.1262
  H  H38  1  0.115900  0.203100  0.886800  1.0  0.128
  H  H39  1  0.150400  0.924800  0.766600  1.0  0.0808
  H  H40  1  0.165900  0.129600  0.839900  1.0  0.0761
  H  H41  1  0.403800  0.905600  0.852700  1.0  0.0933
  H  H42  1  0.585600  0.539800  0.390000  1.0  0.1271
  H  H43  1  0.385100  0.310600  0.349200  1.0  0.0817
  H  H44  1  0.500700  0.884200  0.049500  1.0  0.1271
  H  H45  1  0.764200  0.633200  0.036900  1.0  0.1296
  H  H46  1  0.746100  0.581700  0.539700  1.0  0.1275
  H  H47  1  0.481000  0.385100  0.394200  1.0  0.1183
  H  H48  1  0.812100  0.565100  0.985900  1.0  0.0755
  H  H49  1  0.794500  0.648700  0.489800  1.0  0.0775
  H  H50  1  0.821600  0.674300  0.259700  1.0  0.0792
  H  H51  1  0.501500  0.834900  0.896700  1.0  0.1165
  H  H52  1  0.638300  0.612700  0.344700  1.0  0.0823
  H  H53  1  0.663700  0.774800  0.263800  1.0  0.0789
  H  H54  1  0.474700  0.337800  0.545300  1.0  0.1209
  H  H55  1  0.776900  0.689400  0.161200  1.0  0.1154
  H  H56  1  0.728400  0.568300  0.656600  1.0  0.1217
  H  H57  1  0.777500  0.579300  0.754900  1.0  0.0813
  H  H58  1  0.614300  0.792300  0.166200  1.0  0.1188
  H  H59  1  0.377600  0.266900  0.495200  1.0  0.0716
  H  H60  1  0.401900  0.952900  0.000900  1.0  0.0777
  H  H61  1  0.595900  0.412100  0.668900  1.0  0.1262
  H  H62  1  0.615900  0.703100  0.886800  1.0  0.128
  H  H63  1  0.650400  0.424800  0.766600  1.0  0.0808
  H  H64  1  0.665900  0.629600  0.839900  1.0  0.0761
  H  H65  1  0.096200  0.405600  0.647300  1.0  0.0933
  H  H66  1  0.914400  0.039800  0.110000  1.0  0.1278
  H  H67  1  0.114900  0.810600  0.150800  1.0  0.0807
  H  H68  1  0.999300  0.384200  0.450500  1.0  0.1273
  H  H69  1  0.735800  0.133200  0.463100  1.0  0.1302
  H  H70  1  0.753900  0.081700  0.960300  1.0  0.1273
  H  H71  1  0.019000  0.885100  0.105800  1.0  0.1177
  H  H72  1  0.687900  0.065100  0.514100  1.0  0.0756
  H  H73  1  0.705500  0.148700  0.010200  1.0  0.0774
  H  H74  1  0.678400  0.174300  0.240300  1.0  0.0791
  H  H75  1  0.998500  0.334900  0.603300  1.0  0.1156
  H  H76  1  0.861700  0.112700  0.155300  1.0  0.0826
  H  H77  1  0.836300  0.274800  0.236200  1.0  0.0787
  H  H78  1  0.025300  0.837800  0.954700  1.0  0.1205
  H  H79  1  0.723100  0.189400  0.338800  1.0  0.116
  H  H80  1  0.771600  0.068300  0.843400  1.0  0.1211
  H  H81  1  0.722500  0.079300  0.745100  1.0  0.0813
  H  H82  1  0.885700  0.292300  0.333800  1.0  0.1182
  H  H83  1  0.122400  0.766900  0.004800  1.0  0.0714
  H  H84  1  0.098100  0.452900  0.499100  1.0  0.0779
  H  H85  1  0.904100  0.912100  0.831100  1.0  0.1264
  H  H86  1  0.884100  0.203100  0.613200  1.0  0.1279
  H  H87  1  0.849600  0.924800  0.733400  1.0  0.0797
  H  H88  1  0.834100  0.129600  0.660100  1.0  0.076
  H  H89  1  0.596200  0.905600  0.647300  1.0  0.0933
  H  H90  1  0.414400  0.539800  0.110000  1.0  0.1278
  H  H91  1  0.614900  0.310600  0.150800  1.0  0.0807
  H  H92  1  0.499300  0.884200  0.450500  1.0  0.1273
  H  H93  1  0.235800  0.633200  0.463100  1.0  0.1302
  H  H94  1  0.253900  0.581700  0.960300  1.0  0.1273
  H  H95  1  0.519000  0.385100  0.105800  1.0  0.1177
  H  H96  1  0.187900  0.565100  0.514100  1.0  0.0756
  H  H97  1  0.205500  0.648700  0.010200  1.0  0.0774
  H  H98  1  0.178400  0.674300  0.240300  1.0  0.0791
  H  H99  1  0.498500  0.834900  0.603300  1.0  0.1156
  H  H100  1  0.361700  0.612700  0.155300  1.0  0.0826
  H  H101  1  0.336300  0.774800  0.236200  1.0  0.0787
  H  H102  1  0.525300  0.337800  0.954700  1.0  0.1205
  H  H103  1  0.223100  0.689400  0.338800  1.0  0.116
  H  H104  1  0.271600  0.568300  0.843400  1.0  0.1211
  H  H105  1  0.222500  0.579300  0.745100  1.0  0.0813
  H  H106  1  0.385700  0.792300  0.333800  1.0  0.1182
  H  H107  1  0.622400  0.266900  0.004800  1.0  0.0714
  H  H108  1  0.598100  0.952900  0.499100  1.0  0.0779
  H  H109  1  0.404100  0.412100  0.831100  1.0  0.1264
  H  H110  1  0.384100  0.703100  0.613200  1.0  0.1279
  H  H111  1  0.349600  0.424800  0.733400  1.0  0.0797
  H  H112  1  0.334100  0.629600  0.660100  1.0  0.076
  H  H113  1  0.096200  0.594400  0.147300  1.0  0.0937
  H  H114  1  0.914400  0.960200  0.610000  1.0  0.1275
  H  H115  1  0.114900  0.189400  0.650800  1.0  0.0805
  H  H116  1  0.999300  0.615800  0.950500  1.0  0.1273
  H  H117  1  0.735800  0.866800  0.963100  1.0  0.1304
  H  H118  1  0.753900  0.918300  0.460300  1.0  0.127
  H  H119  1  0.019000  0.114900  0.605800  1.0  0.1177
  H  H120  1  0.687900  0.934900  0.014100  1.0  0.076
  H  H121  1  0.705500  0.851300  0.510200  1.0  0.0773
  H  H122  1  0.678400  0.825700  0.740300  1.0  0.0788
  H  H123  1  0.998500  0.665100  0.103300  1.0  0.1157
  H  H124  1  0.861700  0.887300  0.655300  1.0  0.0825
  H  H125  1  0.836300  0.725200  0.736200  1.0  0.0786
  H  H126  1  0.025300  0.162200  0.454700  1.0  0.1209
  H  H127  1  0.723100  0.810600  0.838800  1.0  0.1162
  H  H128  1  0.771600  0.931700  0.343400  1.0  0.1212
  H  H129  1  0.722500  0.920700  0.245100  1.0  0.0815
  H  H130  1  0.885700  0.707700  0.833800  1.0  0.1176
  H  H131  1  0.122400  0.233100  0.504800  1.0  0.0709
  H  H132  1  0.098100  0.547100  0.999100  1.0  0.0809
  H  H133  1  0.904100  0.087900  0.331100  1.0  0.1266
  H  H134  1  0.884100  0.796900  0.113200  1.0  0.1274
  H  H135  1  0.849600  0.075200  0.233400  1.0  0.08
  H  H136  1  0.834100  0.870400  0.160100  1.0  0.076
  H  H137  1  0.596200  0.094400  0.147300  1.0  0.0937
  H  H138  1  0.414400  0.460200  0.610000  1.0  0.1275
  H  H139  1  0.614900  0.689400  0.650800  1.0  0.0805
  H  H140  1  0.499300  0.115800  0.950500  1.0  0.1273
  H  H141  1  0.235800  0.366800  0.963100  1.0  0.1304
  H  H142  1  0.253900  0.418300  0.460300  1.0  0.127
  H  H143  1  0.519000  0.614900  0.605800  1.0  0.1177
  H  H144  1  0.187900  0.434900  0.014100  1.0  0.076
  H  H145  1  0.205500  0.351300  0.510200  1.0  0.0773
  H  H146  1  0.178400  0.325700  0.740300  1.0  0.0789
  H  H147  1  0.498500  0.165100  0.103300  1.0  0.1157
  H  H148  1  0.361700  0.387300  0.655300  1.0  0.0825
  H  H149  1  0.336300  0.225200  0.736200  1.0  0.0786
  H  H150  1  0.525300  0.662200  0.454700  1.0  0.1209
  H  H151  1  0.223100  0.310600  0.838800  1.0  0.1162
  H  H152  1  0.271600  0.431700  0.343400  1.0  0.1212
  H  H153  1  0.222500  0.420700  0.245100  1.0  0.0815
  H  H154  1  0.385700  0.207700  0.833800  1.0  0.1176
  H  H155  1  0.622400  0.733100  0.504800  1.0  0.0709
  H  H156  1  0.598100  0.047100  0.999100  1.0  0.0809
  H  H157  1  0.404100  0.587900  0.331100  1.0  0.1266
  H  H158  1  0.384100  0.296900  0.113200  1.0  0.1274
  H  H159  1  0.349600  0.575200  0.233400  1.0  0.08
  H  H160  1  0.334100  0.370400  0.160100  1.0  0.076
  H  H161  1  0.903800  0.594400  0.352700  1.0  0.0933
  H  H162  1  0.085600  0.960200  0.890000  1.0  0.1268
  H  H163  1  0.885100  0.189400  0.849200  1.0  0.0816
  H  H164  1  0.000700  0.615800  0.549500  1.0  0.1273
  H  H165  1  0.264200  0.866800  0.536900  1.0  0.1296
  H  H166  1  0.246100  0.918300  0.039700  1.0  0.1275
  H  H167  1  0.981000  0.114900  0.894200  1.0  0.1184
  H  H168  1  0.312100  0.934900  0.485900  1.0  0.0756
  H  H169  1  0.294500  0.851300  0.989800  1.0  0.0779
  H  H170  1  0.321600  0.825700  0.759700  1.0  0.0792
  H  H171  1  0.001500  0.665100  0.396700  1.0  0.1164
  H  H172  1  0.138300  0.887300  0.844700  1.0  0.0823
  H  H173  1  0.163700  0.725200  0.763800  1.0  0.0789
  H  H174  1  0.974700  0.162200  0.045300  1.0  0.1208
  H  H175  1  0.276900  0.810600  0.661200  1.0  0.1162
  H  H176  1  0.228400  0.931700  0.156600  1.0  0.1216
  H  H177  1  0.277500  0.920700  0.254900  1.0  0.0818
  H  H178  1  0.114300  0.707700  0.666200  1.0  0.1191
  H  H179  1  0.877600  0.233100  0.995200  1.0  0.0712
  H  H180  1  0.901900  0.547100  0.500900  1.0  0.0805
  H  H181  1  0.095900  0.087900  0.168900  1.0  0.1263
  H  H182  1  0.115900  0.796900  0.386800  1.0  0.1281
  H  H183  1  0.150400  0.075200  0.266600  1.0  0.0808
  H  H184  1  0.165900  0.870400  0.339900  1.0  0.0761
  H  H185  1  0.403800  0.094400  0.352700  1.0  0.0933
  H  H186  1  0.585600  0.460200  0.890000  1.0  0.1268
  H  H187  1  0.385100  0.689400  0.849200  1.0  0.0816
  H  H188  1  0.500700  0.115800  0.549500  1.0  0.1273
  H  H189  1  0.764200  0.366800  0.536900  1.0  0.1296
  H  H190  1  0.746100  0.418300  0.039700  1.0  0.1275
  H  H191  1  0.481000  0.614900  0.894200  1.0  0.1184
  H  H192  1  0.812100  0.434900  0.485900  1.0  0.0756
  H  H193  1  0.794500  0.351300  0.989800  1.0  0.0779
  H  H194  1  0.821600  0.325700  0.759700  1.0  0.0792
  H  H195  1  0.501500  0.165100  0.396700  1.0  0.1164
  H  H196  1  0.638300  0.387300  0.844700  1.0  0.0823
  H  H197  1  0.663700  0.225200  0.763800  1.0  0.0789
  H  H198  1  0.474700  0.662200  0.045300  1.0  0.1208
  H  H199  1  0.776900  0.310600  0.661200  1.0  0.1162
  H  H200  1  0.728400  0.431700  0.156600  1.0  0.1216
  H  H201  1  0.777500  0.420700  0.254900  1.0  0.0818
  H  H202  1  0.614300  0.207700  0.666200  1.0  0.1191
  H  H203  1  0.377600  0.733100  0.995200  1.0  0.0712
  H  H204  1  0.401900  0.047100  0.500900  1.0  0.0805
  H  H205  1  0.595900  0.587900  0.168900  1.0  0.1263
  H  H206  1  0.615900  0.296900  0.386800  1.0  0.1281
  H  H207  1  0.650400  0.575200  0.266600  1.0  0.0808
  H  H208  1  0.665900  0.370400  0.339900  1.0  0.0761
  C  C209  1  0.923140  0.400500  0.892640  1.0  0.149
  C  C210  1  0.128000  0.061800  0.411270  1.0  -0.1572
  C  C211  1  0.153990  0.219300  0.001360  1.0  0.3766
  C  C212  1  0.128250  0.007200  0.502560  1.0  0.3686
  C  C213  1  0.903200  0.816700  0.389080  1.0  0.1662
  C  C214  1  0.981600  0.387200  0.009480  1.0  -0.156
  C  C215  1  0.075210  0.300800  0.007260  1.0  0.3677
  C  C216  1  0.159950  0.052600  0.470420  1.0  -0.0683
  C  C217  1  0.243550  0.133500  0.996780  1.0  -0.136
  C  C218  1  0.223300  0.086300  0.499840  1.0  -0.1723
  C  C219  1  0.158210  0.986700  0.651630  1.0  -0.0699
  C  C220  1  0.960900  0.861600  0.415880  1.0  -0.1514
  C  C221  1  0.128060  0.976300  0.588260  1.0  0.3622
  C  C222  1  0.271900  0.092600  0.965670  1.0  0.1668
  C  C223  1  0.252000  0.126400  0.469500  1.0  0.1714
  C  C224  1  0.050100  0.922700  0.505870  1.0  0.3814
  C  C225  1  0.279600  0.198300  0.240600  1.0  0.1768
  C  C226  1  0.184030  0.174900  0.967270  1.0  -0.1023
  C  C227  1  0.190400  0.242600  0.151930  1.0  -0.0632
  C  C228  1  0.982060  0.358200  0.918840  1.0  -0.163
  C  C229  1  0.158970  0.252500  0.088510  1.0  0.3822
  C  C230  1  0.160700  0.104800  0.384330  1.0  0.1783
  C  C231  1  0.186700  0.257300  0.242800  1.0  0.1678
  C  C232  1  0.957100  0.833900  0.505360  1.0  -0.1644
  C  C233  1  0.252900  0.207200  0.181240  1.0  -0.1037
  C  C234  1  0.212100  0.037900  0.678400  1.0  -0.1538
  C  C235  1  0.012590  0.350100  0.978030  1.0  0.0331
  C  C236  1  0.241700  0.043700  0.737600  1.0  0.1605
  C  C237  1  0.156500  0.268300  0.184100  1.0  -0.1762
  C  C238  1  0.899000  0.790700  0.474710  1.0  0.172
  C  C239  1  0.922100  0.428400  0.979700  1.0  0.1724
  C  C240  1  0.133700  0.945000  0.685500  1.0  -0.1774
  C  C241  1  0.989140  0.872000  0.474830  1.0  -0.054
  C  C242  1  0.155300  0.174600  0.907760  1.0  -0.1619
  C  C243  1  0.166800  0.953500  0.744200  1.0  0.1727
  C  C244  1  0.186400  0.131000  0.879990  1.0  0.177
  C  C245  1  0.423140  0.900500  0.892640  1.0  0.149
  C  C246  1  0.628000  0.561800  0.411270  1.0  -0.1572
  C  C247  1  0.653990  0.719300  0.001360  1.0  0.3766
  C  C248  1  0.628250  0.507200  0.502560  1.0  0.3686
  C  C249  1  0.403200  0.316700  0.389080  1.0  0.1662
  C  C250  1  0.481600  0.887200  0.009480  1.0  -0.156
  C  C251  1  0.575210  0.800800  0.007260  1.0  0.3677
  C  C252  1  0.659950  0.552600  0.470420  1.0  -0.0683
  C  C253  1  0.743550  0.633500  0.996780  1.0  -0.136
  C  C254  1  0.723300  0.586300  0.499840  1.0  -0.1723
  C  C255  1  0.658210  0.486700  0.651630  1.0  -0.0699
  C  C256  1  0.460900  0.361600  0.415880  1.0  -0.1514
  C  C257  1  0.628060  0.476300  0.588260  1.0  0.3622
  C  C258  1  0.771900  0.592600  0.965670  1.0  0.1668
  C  C259  1  0.752000  0.626400  0.469500  1.0  0.1714
  C  C260  1  0.550100  0.422700  0.505870  1.0  0.3814
  C  C261  1  0.779600  0.698300  0.240600  1.0  0.1768
  C  C262  1  0.684030  0.674900  0.967270  1.0  -0.1023
  C  C263  1  0.690400  0.742600  0.151930  1.0  -0.0632
  C  C264  1  0.482060  0.858200  0.918840  1.0  -0.163
  C  C265  1  0.658970  0.752500  0.088510  1.0  0.3822
  C  C266  1  0.660700  0.604800  0.384330  1.0  0.1783
  C  C267  1  0.686700  0.757300  0.242800  1.0  0.1678
  C  C268  1  0.457100  0.333900  0.505360  1.0  -0.1644
  C  C269  1  0.752900  0.707200  0.181240  1.0  -0.1037
  C  C270  1  0.712100  0.537900  0.678400  1.0  -0.1538
  C  C271  1  0.512590  0.850100  0.978030  1.0  0.0331
  C  C272  1  0.741700  0.543700  0.737600  1.0  0.1605
  C  C273  1  0.656500  0.768300  0.184100  1.0  -0.1762
  C  C274  1  0.399000  0.290700  0.474710  1.0  0.172
  C  C275  1  0.422100  0.928400  0.979700  1.0  0.1724
  C  C276  1  0.633700  0.445000  0.685500  1.0  -0.1774
  C  C277  1  0.489140  0.372000  0.474830  1.0  -0.054
  C  C278  1  0.655300  0.674600  0.907760  1.0  -0.1619
  C  C279  1  0.666800  0.453500  0.744200  1.0  0.1727
  C  C280  1  0.686400  0.631000  0.879990  1.0  0.177
  C  C281  1  0.076860  0.400500  0.607360  1.0  0.148
  C  C282  1  0.872000  0.061800  0.088730  1.0  -0.1596
  C  C283  1  0.846010  0.219300  0.498640  1.0  0.3769
  C  C284  1  0.871750  0.007200  0.997440  1.0  0.3689
  C  C285  1  0.096800  0.816700  0.110920  1.0  0.166
  C  C286  1  0.018400  0.387200  0.490520  1.0  -0.1578
  C  C287  1  0.924790  0.300800  0.492740  1.0  0.3665
  C  C288  1  0.840050  0.052600  0.029580  1.0  -0.0672
  C  C289  1  0.756450  0.133500  0.503220  1.0  -0.1333
  C  C290  1  0.776700  0.086300  0.000160  1.0  -0.1718
  C  C291  1  0.841790  0.986700  0.848370  1.0  -0.0671
  C  C292  1  0.039100  0.861600  0.084120  1.0  -0.1516
  C  C293  1  0.871940  0.976300  0.911740  1.0  0.3627
  C  C294  1  0.728100  0.092600  0.534330  1.0  0.1666
  C  C295  1  0.748000  0.126400  0.030500  1.0  0.1713
  C  C296  1  0.949900  0.922700  0.994130  1.0  0.3809
  C  C297  1  0.720400  0.198300  0.259400  1.0  0.1773
  C  C298  1  0.815970  0.174900  0.532730  1.0  -0.102
  C  C299  1  0.809600  0.242600  0.348070  1.0  -0.0641
  C  C300  1  0.017940  0.358200  0.581160  1.0  -0.1653
  C  C301  1  0.841030  0.252500  0.411490  1.0  0.3821
  C  C302  1  0.839300  0.104800  0.115670  1.0  0.1779
  C  C303  1  0.813300  0.257300  0.257200  1.0  0.1667
  C  C304  1  0.042900  0.833900  0.994640  1.0  -0.1666
  C  C305  1  0.747100  0.207200  0.318760  1.0  -0.1027
  C  C306  1  0.787900  0.037900  0.821600  1.0  -0.1534
  C  C307  1  0.987410  0.350100  0.521970  1.0  0.0335
  C  C308  1  0.758300  0.043700  0.762400  1.0  0.1602
  C  C309  1  0.843500  0.268300  0.315900  1.0  -0.1759
  C  C310  1  0.101000  0.790700  0.025290  1.0  0.1731
  C  C311  1  0.077900  0.428400  0.520300  1.0  0.1729
  C  C312  1  0.866300  0.945000  0.814500  1.0  -0.1792
  C  C313  1  0.010860  0.872000  0.025170  1.0  -0.0548
  C  C314  1  0.844700  0.174600  0.592240  1.0  -0.1624
  C  C315  1  0.833200  0.953500  0.755800  1.0  0.1724
  C  C316  1  0.813600  0.131000  0.620010  1.0  0.1774
  C  C317  1  0.576860  0.900500  0.607360  1.0  0.148
  C  C318  1  0.372000  0.561800  0.088730  1.0  -0.1596
  C  C319  1  0.346010  0.719300  0.498640  1.0  0.3769
  C  C320  1  0.371750  0.507200  0.997440  1.0  0.3689
  C  C321  1  0.596800  0.316700  0.110920  1.0  0.166
  C  C322  1  0.518400  0.887200  0.490520  1.0  -0.1578
  C  C323  1  0.424790  0.800800  0.492740  1.0  0.3665
  C  C324  1  0.340050  0.552600  0.029580  1.0  -0.0672
  C  C325  1  0.256450  0.633500  0.503220  1.0  -0.1333
  C  C326  1  0.276700  0.586300  0.000160  1.0  -0.1718
  C  C327  1  0.341790  0.486700  0.848370  1.0  -0.0671
  C  C328  1  0.539100  0.361600  0.084120  1.0  -0.1516
  C  C329  1  0.371940  0.476300  0.911740  1.0  0.3627
  C  C330  1  0.228100  0.592600  0.534330  1.0  0.1666
  C  C331  1  0.248000  0.626400  0.030500  1.0  0.1713
  C  C332  1  0.449900  0.422700  0.994130  1.0  0.3809
  C  C333  1  0.220400  0.698300  0.259400  1.0  0.1773
  C  C334  1  0.315970  0.674900  0.532730  1.0  -0.102
  C  C335  1  0.309600  0.742600  0.348070  1.0  -0.0641
  C  C336  1  0.517940  0.858200  0.581160  1.0  -0.1653
  C  C337  1  0.341030  0.752500  0.411490  1.0  0.3821
  C  C338  1  0.339300  0.604800  0.115670  1.0  0.1779
  C  C339  1  0.313300  0.757300  0.257200  1.0  0.1667
  C  C340  1  0.542900  0.333900  0.994640  1.0  -0.1666
  C  C341  1  0.247100  0.707200  0.318760  1.0  -0.1027
  C  C342  1  0.287900  0.537900  0.821600  1.0  -0.1534
  C  C343  1  0.487410  0.850100  0.521970  1.0  0.0335
  C  C344  1  0.258300  0.543700  0.762400  1.0  0.1602
  C  C345  1  0.343500  0.768300  0.315900  1.0  -0.1759
  C  C346  1  0.601000  0.290700  0.025290  1.0  0.1731
  C  C347  1  0.577900  0.928400  0.520300  1.0  0.1729
  C  C348  1  0.366300  0.445000  0.814500  1.0  -0.1792
  C  C349  1  0.510860  0.372000  0.025170  1.0  -0.0548
  C  C350  1  0.344700  0.674600  0.592240  1.0  -0.1624
  C  C351  1  0.333200  0.453500  0.755800  1.0  0.1724
  C  C352  1  0.313600  0.631000  0.620010  1.0  0.1774
  C  C353  1  0.076860  0.599500  0.107360  1.0  0.1482
  C  C354  1  0.872000  0.938200  0.588730  1.0  -0.1598
  C  C355  1  0.846010  0.780700  0.998640  1.0  0.3768
  C  C356  1  0.871750  0.992800  0.497440  1.0  0.3695
  C  C357  1  0.096800  0.183300  0.610920  1.0  0.1654
  C  C358  1  0.018400  0.612800  0.990520  1.0  -0.1574
  C  C359  1  0.924790  0.699200  0.992740  1.0  0.3667
  C  C360  1  0.840050  0.947400  0.529580  1.0  -0.0668
  C  C361  1  0.756450  0.866500  0.003220  1.0  -0.1335
  C  C362  1  0.776700  0.913700  0.500160  1.0  -0.1719
  C  C363  1  0.841790  0.013300  0.348370  1.0  -0.0669
  C  C364  1  0.039100  0.138400  0.584120  1.0  -0.1515
  C  C365  1  0.871940  0.023700  0.411740  1.0  0.3626
  C  C366  1  0.728100  0.907400  0.034330  1.0  0.1663
  C  C367  1  0.748000  0.873600  0.530500  1.0  0.172
  C  C368  1  0.949900  0.077300  0.494130  1.0  0.3808
  C  C369  1  0.720400  0.801700  0.759400  1.0  0.1772
  C  C370  1  0.815970  0.825100  0.032730  1.0  -0.102
  C  C371  1  0.809600  0.757400  0.848070  1.0  -0.0636
  C  C372  1  0.017940  0.641800  0.081160  1.0  -0.165
  C  C373  1  0.841030  0.747500  0.911490  1.0  0.3816
  C  C374  1  0.839300  0.895200  0.615670  1.0  0.178
  C  C375  1  0.813300  0.742700  0.757200  1.0  0.1672
  C  C376  1  0.042900  0.166100  0.494640  1.0  -0.1672
  C  C377  1  0.747100  0.792800  0.818760  1.0  -0.1025
  C  C378  1  0.787900  0.962100  0.321600  1.0  -0.1534
  C  C379  1  0.987410  0.649900  0.021970  1.0  0.0328
  C  C380  1  0.758300  0.956300  0.262400  1.0  0.16
  C  C381  1  0.843500  0.731700  0.815900  1.0  -0.1758
  C  C382  1  0.101000  0.209300  0.525290  1.0  0.172
  C  C383  1  0.077900  0.571600  0.020300  1.0  0.1731
  C  C384  1  0.866300  0.055000  0.314500  1.0  -0.179
  C  C385  1  0.010860  0.128000  0.525170  1.0  -0.0549
  C  C386  1  0.844700  0.825400  0.092240  1.0  -0.163
  C  C387  1  0.833200  0.046500  0.255800  1.0  0.1723
  C  C388  1  0.813600  0.869000  0.120010  1.0  0.1773
  C  C389  1  0.576860  0.099500  0.107360  1.0  0.1482
  C  C390  1  0.372000  0.438200  0.588730  1.0  -0.1598
  C  C391  1  0.346010  0.280700  0.998640  1.0  0.3768
  C  C392  1  0.371750  0.492800  0.497440  1.0  0.3695
  C  C393  1  0.596800  0.683300  0.610920  1.0  0.1654
  C  C394  1  0.518400  0.112800  0.990520  1.0  -0.1574
  C  C395  1  0.424790  0.199200  0.992740  1.0  0.3667
  C  C396  1  0.340050  0.447400  0.529580  1.0  -0.0668
  C  C397  1  0.256450  0.366500  0.003220  1.0  -0.1335
  C  C398  1  0.276700  0.413700  0.500160  1.0  -0.1719
  C  C399  1  0.341790  0.513300  0.348370  1.0  -0.0669
  C  C400  1  0.539100  0.638400  0.584120  1.0  -0.1515
  C  C401  1  0.371940  0.523700  0.411740  1.0  0.3626
  C  C402  1  0.228100  0.407400  0.034330  1.0  0.1663
  C  C403  1  0.248000  0.373600  0.530500  1.0  0.172
  C  C404  1  0.449900  0.577300  0.494130  1.0  0.3808
  C  C405  1  0.220400  0.301700  0.759400  1.0  0.1772
  C  C406  1  0.315970  0.325100  0.032730  1.0  -0.102
  C  C407  1  0.309600  0.257400  0.848070  1.0  -0.0636
  C  C408  1  0.517940  0.141800  0.081160  1.0  -0.165
  C  C409  1  0.341030  0.247500  0.911490  1.0  0.3816
  C  C410  1  0.339300  0.395200  0.615670  1.0  0.178
  C  C411  1  0.313300  0.242700  0.757200  1.0  0.1672
  C  C412  1  0.542900  0.666100  0.494640  1.0  -0.1672
  C  C413  1  0.247100  0.292800  0.818760  1.0  -0.1025
  C  C414  1  0.287900  0.462100  0.321600  1.0  -0.1534
  C  C415  1  0.487410  0.149900  0.021970  1.0  0.0328
  C  C416  1  0.258300  0.456300  0.262400  1.0  0.16
  C  C417  1  0.343500  0.231700  0.815900  1.0  -0.1758
  C  C418  1  0.601000  0.709300  0.525290  1.0  0.172
  C  C419  1  0.577900  0.071600  0.020300  1.0  0.1731
  C  C420  1  0.366300  0.555000  0.314500  1.0  -0.179
  C  C421  1  0.510860  0.628000  0.525170  1.0  -0.0549
  C  C422  1  0.344700  0.325400  0.092240  1.0  -0.163
  C  C423  1  0.333200  0.546500  0.255800  1.0  0.1723
  C  C424  1  0.313600  0.369000  0.120010  1.0  0.1773
  C  C425  1  0.923140  0.599500  0.392640  1.0  0.1491
  C  C426  1  0.128000  0.938200  0.911270  1.0  -0.1576
  C  C427  1  0.153990  0.780700  0.501360  1.0  0.3765
  C  C428  1  0.128250  0.992800  0.002560  1.0  0.3692
  C  C429  1  0.903200  0.183300  0.889080  1.0  0.1657
  C  C430  1  0.981600  0.612800  0.509480  1.0  -0.1561
  C  C431  1  0.075210  0.699200  0.507260  1.0  0.368
  C  C432  1  0.159950  0.947400  0.970420  1.0  -0.0691
  C  C433  1  0.243550  0.866500  0.496780  1.0  -0.1364
  C  C434  1  0.223300  0.913700  0.999840  1.0  -0.1726
  C  C435  1  0.158210  0.013300  0.151630  1.0  -0.0695
  C  C436  1  0.960900  0.138400  0.915880  1.0  -0.1515
  C  C437  1  0.128060  0.023700  0.088260  1.0  0.3621
  C  C438  1  0.271900  0.907400  0.465670  1.0  0.1664
  C  C439  1  0.252000  0.873600  0.969500  1.0  0.1712
  C  C440  1  0.050100  0.077300  0.005870  1.0  0.3813
  C  C441  1  0.279600  0.801700  0.740600  1.0  0.1772
  C  C442  1  0.184030  0.825100  0.467270  1.0  -0.103
  C  C443  1  0.190400  0.757400  0.651930  1.0  -0.063
  C  C444  1  0.982060  0.641800  0.418840  1.0  -0.1642
  C  C445  1  0.158970  0.747500  0.588510  1.0  0.382
  C  C446  1  0.160700  0.895200  0.884330  1.0  0.1772
  C  C447  1  0.186700  0.742700  0.742800  1.0  0.1685
  C  C448  1  0.957100  0.166100  0.005360  1.0  -0.1645
  C  C449  1  0.252900  0.792800  0.681240  1.0  -0.1039
  C  C450  1  0.212100  0.962100  0.178400  1.0  -0.1532
  C  C451  1  0.012590  0.649900  0.478030  1.0  0.0328
  C  C452  1  0.241700  0.956300  0.237600  1.0  0.1606
  C  C453  1  0.156500  0.731700  0.684100  1.0  -0.1748
  C  C454  1  0.899000  0.209300  0.974710  1.0  0.1714
  C  C455  1  0.922100  0.571600  0.479700  1.0  0.1736
  C  C456  1  0.133700  0.055000  0.185500  1.0  -0.1772
  C  C457  1  0.989140  0.128000  0.974830  1.0  -0.0542
  C  C458  1  0.155300  0.825400  0.407760  1.0  -0.1621
  C  C459  1  0.166800  0.046500  0.244200  1.0  0.1733
  C  C460  1  0.186400  0.869000  0.379990  1.0  0.1773
  C  C461  1  0.423140  0.099500  0.392640  1.0  0.1491
  C  C462  1  0.628000  0.438200  0.911270  1.0  -0.1576
  C  C463  1  0.653990  0.280700  0.501360  1.0  0.3765
  C  C464  1  0.628250  0.492800  0.002560  1.0  0.3692
  C  C465  1  0.403200  0.683300  0.889080  1.0  0.1657
  C  C466  1  0.481600  0.112800  0.509480  1.0  -0.1561
  C  C467  1  0.575210  0.199200  0.507260  1.0  0.368
  C  C468  1  0.659950  0.447400  0.970420  1.0  -0.0691
  C  C469  1  0.743550  0.366500  0.496780  1.0  -0.1364
  C  C470  1  0.723300  0.413700  0.999840  1.0  -0.1726
  C  C471  1  0.658210  0.513300  0.151630  1.0  -0.0695
  C  C472  1  0.460900  0.638400  0.915880  1.0  -0.1515
  C  C473  1  0.628060  0.523700  0.088260  1.0  0.3621
  C  C474  1  0.771900  0.407400  0.465670  1.0  0.1664
  C  C475  1  0.752000  0.373600  0.969500  1.0  0.1712
  C  C476  1  0.550100  0.577300  0.005870  1.0  0.3813
  C  C477  1  0.779600  0.301700  0.740600  1.0  0.1772
  C  C478  1  0.684030  0.325100  0.467270  1.0  -0.103
  C  C479  1  0.690400  0.257400  0.651930  1.0  -0.063
  C  C480  1  0.482060  0.141800  0.418840  1.0  -0.1642
  C  C481  1  0.658970  0.247500  0.588510  1.0  0.382
  C  C482  1  0.660700  0.395200  0.884330  1.0  0.1772
  C  C483  1  0.686700  0.242700  0.742800  1.0  0.1685
  C  C484  1  0.457100  0.666100  0.005360  1.0  -0.1645
  C  C485  1  0.752900  0.292800  0.681240  1.0  -0.1039
  C  C486  1  0.712100  0.462100  0.178400  1.0  -0.1532
  C  C487  1  0.512590  0.149900  0.478030  1.0  0.0328
  C  C488  1  0.741700  0.456300  0.237600  1.0  0.1606
  C  C489  1  0.656500  0.231700  0.684100  1.0  -0.1748
  C  C490  1  0.399000  0.709300  0.974710  1.0  0.1714
  C  C491  1  0.422100  0.071600  0.479700  1.0  0.1736
  C  C492  1  0.633700  0.555000  0.185500  1.0  -0.1772
  C  C493  1  0.489140  0.628000  0.974830  1.0  -0.0542
  C  C494  1  0.655300  0.325400  0.407760  1.0  -0.1621
  C  C495  1  0.666800  0.546500  0.244200  1.0  0.1733
  C  C496  1  0.686400  0.369000  0.379990  1.0  0.1773
  N  N497  1  0.871410  0.780900  0.417690  1.0  -0.3588
  N  N498  1  0.222230  0.135400  0.411980  1.0  -0.3282
  N  N499  1  0.221100  0.000200  0.771750  1.0  -0.3277
  N  N500  1  0.074570  0.960800  0.472770  1.0  -0.5045
  N  N501  1  0.155900  0.018400  0.559420  1.0  -0.5291
  N  N502  1  0.074920  0.927600  0.563120  1.0  -0.5132
  N  N503  1  0.244520  0.090500  0.907710  1.0  -0.3457
  N  N504  1  0.246950  0.223200  0.271810  1.0  -0.3607
  N  N505  1  0.891690  0.435400  0.922070  1.0  -0.3338
  N  N506  1  0.097570  0.260500  0.973380  1.0  -0.4984
  N  N507  1  0.186860  0.212700  0.058970  1.0  -0.4982
  N  N508  1  0.103920  0.299000  0.064580  1.0  -0.4946
  N  N509  1  0.371410  0.280900  0.417690  1.0  -0.3588
  N  N510  1  0.722230  0.635400  0.411980  1.0  -0.3282
  N  N511  1  0.721100  0.500200  0.771750  1.0  -0.3277
  N  N512  1  0.574570  0.460800  0.472770  1.0  -0.5045
  N  N513  1  0.655900  0.518400  0.559420  1.0  -0.5291
  N  N514  1  0.574920  0.427600  0.563120  1.0  -0.5132
  N  N515  1  0.744520  0.590500  0.907710  1.0  -0.3457
  N  N516  1  0.746950  0.723200  0.271810  1.0  -0.3607
  N  N517  1  0.391690  0.935400  0.922070  1.0  -0.3338
  N  N518  1  0.597570  0.760500  0.973380  1.0  -0.4984
  N  N519  1  0.686860  0.712700  0.058970  1.0  -0.4982
  N  N520  1  0.603920  0.799000  0.064580  1.0  -0.4946
  N  N521  1  0.128590  0.780900  0.082310  1.0  -0.3576
  N  N522  1  0.777770  0.135400  0.088020  1.0  -0.3275
  N  N523  1  0.778900  0.000200  0.728250  1.0  -0.3289
  N  N524  1  0.925430  0.960800  0.027230  1.0  -0.5037
  N  N525  1  0.844100  0.018400  0.940580  1.0  -0.5286
  N  N526  1  0.925080  0.927600  0.936880  1.0  -0.5109
  N  N527  1  0.755480  0.090500  0.592290  1.0  -0.3449
  N  N528  1  0.753050  0.223200  0.228190  1.0  -0.3615
  N  N529  1  0.108310  0.435400  0.577930  1.0  -0.3353
  N  N530  1  0.902430  0.260500  0.526620  1.0  -0.4969
  N  N531  1  0.813140  0.212700  0.441030  1.0  -0.499
  N  N532  1  0.896080  0.299000  0.435420  1.0  -0.4895
  N  N533  1  0.628590  0.280900  0.082310  1.0  -0.3576
  N  N534  1  0.277770  0.635400  0.088020  1.0  -0.3275
  N  N535  1  0.278900  0.500200  0.728250  1.0  -0.3289
  N  N536  1  0.425430  0.460800  0.027230  1.0  -0.5037
  N  N537  1  0.344100  0.518400  0.940580  1.0  -0.5286
  N  N538  1  0.425080  0.427600  0.936880  1.0  -0.5109
  N  N539  1  0.255480  0.590500  0.592290  1.0  -0.3449
  N  N540  1  0.253050  0.723200  0.228190  1.0  -0.3615
  N  N541  1  0.608310  0.935400  0.577930  1.0  -0.3353
  N  N542  1  0.402430  0.760500  0.526620  1.0  -0.4969
  N  N543  1  0.313140  0.712700  0.441030  1.0  -0.499
  N  N544  1  0.396080  0.799000  0.435420  1.0  -0.4895
  N  N545  1  0.128590  0.219100  0.582310  1.0  -0.3588
  N  N546  1  0.777770  0.864600  0.588020  1.0  -0.3297
  N  N547  1  0.778900  0.999800  0.228250  1.0  -0.3293
  N  N548  1  0.925430  0.039200  0.527230  1.0  -0.5037
  N  N549  1  0.844100  0.981600  0.440580  1.0  -0.5291
  N  N550  1  0.925080  0.072400  0.436880  1.0  -0.5102
  N  N551  1  0.755480  0.909500  0.092290  1.0  -0.3472
  N  N552  1  0.753050  0.776800  0.728190  1.0  -0.3609
  N  N553  1  0.108310  0.564600  0.077930  1.0  -0.3361
  N  N554  1  0.902430  0.739500  0.026620  1.0  -0.4955
  N  N555  1  0.813140  0.787300  0.941030  1.0  -0.4983
  N  N556  1  0.896080  0.701000  0.935420  1.0  -0.4904
  N  N557  1  0.628590  0.719100  0.582310  1.0  -0.3588
  N  N558  1  0.277770  0.364600  0.588020  1.0  -0.3297
  N  N559  1  0.278900  0.499800  0.228250  1.0  -0.3293
  N  N560  1  0.425430  0.539200  0.527230  1.0  -0.5037
  N  N561  1  0.344100  0.481600  0.440580  1.0  -0.5291
  N  N562  1  0.425080  0.572400  0.436880  1.0  -0.5102
  N  N563  1  0.255480  0.409500  0.092290  1.0  -0.3472
  N  N564  1  0.253050  0.276800  0.728190  1.0  -0.3609
  N  N565  1  0.608310  0.064600  0.077930  1.0  -0.3361
  N  N566  1  0.402430  0.239500  0.026620  1.0  -0.4955
  N  N567  1  0.313140  0.287300  0.941030  1.0  -0.4983
  N  N568  1  0.396080  0.201000  0.935420  1.0  -0.4904
  N  N569  1  0.871410  0.219100  0.917690  1.0  -0.358
  N  N570  1  0.222230  0.864600  0.911980  1.0  -0.331
  N  N571  1  0.221100  0.999800  0.271750  1.0  -0.3272
  N  N572  1  0.074570  0.039200  0.972770  1.0  -0.5041
  N  N573  1  0.155900  0.981600  0.059420  1.0  -0.5293
  N  N574  1  0.074920  0.072400  0.063120  1.0  -0.5136
  N  N575  1  0.244520  0.909500  0.407710  1.0  -0.3453
  N  N576  1  0.246950  0.776800  0.771810  1.0  -0.3612
  N  N577  1  0.891690  0.564600  0.422070  1.0  -0.3392
  N  N578  1  0.097570  0.739500  0.473380  1.0  -0.498
  N  N579  1  0.186860  0.787300  0.558970  1.0  -0.4991
  N  N580  1  0.103920  0.701000  0.564580  1.0  -0.4936
  N  N581  1  0.371410  0.719100  0.917690  1.0  -0.358
  N  N582  1  0.722230  0.364600  0.911980  1.0  -0.331
  N  N583  1  0.721100  0.499800  0.271750  1.0  -0.3272
  N  N584  1  0.574570  0.539200  0.972770  1.0  -0.5041
  N  N585  1  0.655900  0.481600  0.059420  1.0  -0.5293
  N  N586  1  0.574920  0.572400  0.063120  1.0  -0.5136
  N  N587  1  0.744520  0.409500  0.407710  1.0  -0.3453
  N  N588  1  0.746950  0.276800  0.771810  1.0  -0.3612
  N  N589  1  0.391690  0.064600  0.422070  1.0  -0.3392
  N  N590  1  0.597570  0.239500  0.473380  1.0  -0.498
  N  N591  1  0.686860  0.287300  0.558970  1.0  -0.4991
  N  N592  1  0.603920  0.201000  0.564580  1.0  -0.4936
