# generated using pymatgen
data_AgH12(C3N)6
_symmetry_space_group_name_H-M   'P 1'
_cell_length_a   21.97770000
_cell_length_b   16.61110000
_cell_length_c   25.63440000
_cell_angle_alpha   90.00000000
_cell_angle_beta   115.35100000
_cell_angle_gamma   90.00000000
_symmetry_Int_Tables_number   1
_chemical_formula_structural   AgH12(C3N)6
_chemical_formula_sum   'Ag16 H192 C288 N96'
_cell_volume   8457.24543256
_cell_formula_units_Z   16
loop_
 _symmetry_equiv_pos_site_id
 _symmetry_equiv_pos_as_xyz
  1  'x, y, z'
loop_
 _atom_site_type_symbol
 _atom_site_label
 _atom_site_symmetry_multiplicity
 _atom_site_fract_x
 _atom_site_fract_y
 _atom_site_fract_z
 _atom_site_occupancy
 _atom_site_charge
  Ag  Ag1  1  0.773860  0.209040  0.368210  1.0  0.3264
  Ag  Ag2  1  0.295170  0.501700  0.867650  1.0  0.3012
  Ag  Ag3  1  0.273860  0.709040  0.368210  1.0  0.3264
  Ag  Ag4  1  0.795170  0.001700  0.867650  1.0  0.3012
  Ag  Ag5  1  0.226140  0.209040  0.131790  1.0  0.3271
  Ag  Ag6  1  0.704830  0.501700  0.632350  1.0  0.3017
  Ag  Ag7  1  0.726140  0.709040  0.131790  1.0  0.3271
  Ag  Ag8  1  0.204830  0.001700  0.632350  1.0  0.3017
  Ag  Ag9  1  0.226140  0.790960  0.631790  1.0  0.3271
  Ag  Ag10  1  0.704830  0.498300  0.132350  1.0  0.3016
  Ag  Ag11  1  0.726140  0.290960  0.631790  1.0  0.3271
  Ag  Ag12  1  0.204830  0.998300  0.132350  1.0  0.3016
  Ag  Ag13  1  0.773860  0.790960  0.868210  1.0  0.3261
  Ag  Ag14  1  0.295170  0.498300  0.367650  1.0  0.301
  Ag  Ag15  1  0.273860  0.290960  0.868210  1.0  0.3261
  Ag  Ag16  1  0.795170  0.998300  0.367650  1.0  0.301
  H  H17  1  0.903300  0.905000  0.852500  1.0  0.0854
  H  H18  1  0.085400  0.539700  0.389900  1.0  0.1228
  H  H19  1  0.884700  0.311100  0.349100  1.0  0.0737
  H  H20  1  0.001600  0.884800  0.049500  1.0  0.1257
  H  H21  1  0.263700  0.633200  0.036500  1.0  0.127
  H  H22  1  0.245700  0.581300  0.539200  1.0  0.1287
  H  H23  1  0.311800  0.565400  0.985600  1.0  0.0798
  H  H24  1  0.981200  0.383900  0.393800  1.0  0.119
  H  H25  1  0.975000  0.337500  0.545400  1.0  0.1199
  H  H26  1  0.276700  0.689700  0.160800  1.0  0.109
  H  H27  1  0.293700  0.649300  0.489100  1.0  0.0757
  H  H28  1  0.001900  0.834400  0.896400  1.0  0.1206
  H  H29  1  0.321500  0.674400  0.259500  1.0  0.0786
  H  H30  1  0.163800  0.775400  0.263800  1.0  0.0791
  H  H31  1  0.113800  0.790700  0.165500  1.0  0.1212
  H  H32  1  0.138300  0.611700  0.344300  1.0  0.081
  H  H33  1  0.227800  0.567700  0.656100  1.0  0.1214
  H  H34  1  0.877600  0.267300  0.495100  1.0  0.0712
  H  H35  1  0.277200  0.578800  0.754500  1.0  0.0777
  H  H36  1  0.116100  0.703500  0.886200  1.0  0.1253
  H  H37  1  0.902100  0.954100  0.000500  1.0  0.0778
  H  H38  1  0.095600  0.413000  0.668700  1.0  0.1251
  H  H39  1  0.151100  0.424600  0.766800  1.0  0.0818
  H  H40  1  0.165700  0.629300  0.839700  1.0  0.0755
  H  H41  1  0.403300  0.405000  0.852500  1.0  0.0854
  H  H42  1  0.585400  0.039700  0.389900  1.0  0.1228
  H  H43  1  0.384700  0.811100  0.349100  1.0  0.0737
  H  H44  1  0.501600  0.384800  0.049500  1.0  0.1257
  H  H45  1  0.763700  0.133200  0.036500  1.0  0.127
  H  H46  1  0.745700  0.081300  0.539200  1.0  0.1287
  H  H47  1  0.811800  0.065400  0.985600  1.0  0.0799
  H  H48  1  0.481200  0.883900  0.393800  1.0  0.119
  H  H49  1  0.475000  0.837500  0.545400  1.0  0.1199
  H  H50  1  0.776700  0.189700  0.160800  1.0  0.109
  H  H51  1  0.793700  0.149300  0.489100  1.0  0.0757
  H  H52  1  0.501900  0.334400  0.896400  1.0  0.1206
  H  H53  1  0.821500  0.174400  0.259500  1.0  0.0786
  H  H54  1  0.663800  0.275400  0.263800  1.0  0.0791
  H  H55  1  0.613800  0.290700  0.165500  1.0  0.1212
  H  H56  1  0.638300  0.111700  0.344300  1.0  0.081
  H  H57  1  0.727800  0.067700  0.656100  1.0  0.1214
  H  H58  1  0.377600  0.767300  0.495100  1.0  0.0712
  H  H59  1  0.777200  0.078800  0.754500  1.0  0.0777
  H  H60  1  0.616100  0.203500  0.886200  1.0  0.1253
  H  H61  1  0.402100  0.454100  0.000500  1.0  0.0778
  H  H62  1  0.595600  0.913000  0.668700  1.0  0.1251
  H  H63  1  0.651100  0.924600  0.766800  1.0  0.0818
  H  H64  1  0.665700  0.129300  0.839700  1.0  0.0755
  H  H65  1  0.096700  0.905000  0.647500  1.0  0.0852
  H  H66  1  0.914600  0.539700  0.110100  1.0  0.1237
  H  H67  1  0.115300  0.311100  0.150900  1.0  0.0728
  H  H68  1  0.998400  0.884800  0.450500  1.0  0.1255
  H  H69  1  0.736300  0.633200  0.463500  1.0  0.1276
  H  H70  1  0.754300  0.581300  0.960800  1.0  0.1285
  H  H71  1  0.688200  0.565400  0.514400  1.0  0.079
  H  H72  1  0.018800  0.383900  0.106200  1.0  0.1186
  H  H73  1  0.025000  0.337500  0.954600  1.0  0.1198
  H  H74  1  0.723300  0.689700  0.339200  1.0  0.1099
  H  H75  1  0.706300  0.649300  0.010900  1.0  0.0753
  H  H76  1  0.998100  0.834400  0.603600  1.0  0.1207
  H  H77  1  0.678500  0.674400  0.240500  1.0  0.0786
  H  H78  1  0.836200  0.775400  0.236200  1.0  0.0792
  H  H79  1  0.886200  0.790700  0.334500  1.0  0.1207
  H  H80  1  0.861700  0.611700  0.155700  1.0  0.0814
  H  H81  1  0.772200  0.567700  0.843900  1.0  0.1207
  H  H82  1  0.122400  0.267300  0.004900  1.0  0.0711
  H  H83  1  0.722800  0.578800  0.745500  1.0  0.0774
  H  H84  1  0.883900  0.703500  0.613800  1.0  0.1253
  H  H85  1  0.097900  0.954100  0.499500  1.0  0.0779
  H  H86  1  0.904400  0.413000  0.831300  1.0  0.1253
  H  H87  1  0.848900  0.424600  0.733200  1.0  0.0813
  H  H88  1  0.834300  0.629300  0.660300  1.0  0.075
  H  H89  1  0.596700  0.405000  0.647500  1.0  0.0852
  H  H90  1  0.414600  0.039700  0.110100  1.0  0.1237
  H  H91  1  0.615300  0.811100  0.150900  1.0  0.0728
  H  H92  1  0.498400  0.384800  0.450500  1.0  0.1255
  H  H93  1  0.236300  0.133200  0.463500  1.0  0.1276
  H  H94  1  0.254300  0.081300  0.960800  1.0  0.1285
  H  H95  1  0.188200  0.065400  0.514400  1.0  0.0791
  H  H96  1  0.518800  0.883900  0.106200  1.0  0.1186
  H  H97  1  0.525000  0.837500  0.954600  1.0  0.1198
  H  H98  1  0.223300  0.189700  0.339200  1.0  0.1099
  H  H99  1  0.206300  0.149300  0.010900  1.0  0.0753
  H  H100  1  0.498100  0.334400  0.603600  1.0  0.1207
  H  H101  1  0.178500  0.174400  0.240500  1.0  0.0786
  H  H102  1  0.336200  0.275400  0.236200  1.0  0.0792
  H  H103  1  0.386200  0.290700  0.334500  1.0  0.1207
  H  H104  1  0.361700  0.111700  0.155700  1.0  0.0814
  H  H105  1  0.272200  0.067700  0.843900  1.0  0.1207
  H  H106  1  0.622400  0.767300  0.004900  1.0  0.0711
  H  H107  1  0.222800  0.078800  0.745500  1.0  0.0774
  H  H108  1  0.383900  0.203500  0.613800  1.0  0.1253
  H  H109  1  0.597900  0.454100  0.499500  1.0  0.0779
  H  H110  1  0.404400  0.913000  0.831300  1.0  0.1253
  H  H111  1  0.348900  0.924600  0.733200  1.0  0.0813
  H  H112  1  0.334300  0.129300  0.660300  1.0  0.075
  H  H113  1  0.096700  0.095000  0.147500  1.0  0.0854
  H  H114  1  0.914600  0.460300  0.610100  1.0  0.1234
  H  H115  1  0.115300  0.688900  0.650900  1.0  0.0727
  H  H116  1  0.998400  0.115200  0.950500  1.0  0.1254
  H  H117  1  0.736300  0.366800  0.963500  1.0  0.1276
  H  H118  1  0.754300  0.418700  0.460800  1.0  0.1284
  H  H119  1  0.688200  0.434600  0.014400  1.0  0.0795
  H  H120  1  0.018800  0.616100  0.606200  1.0  0.1185
  H  H121  1  0.025000  0.662500  0.454600  1.0  0.1199
  H  H122  1  0.723300  0.310300  0.839200  1.0  0.1099
  H  H123  1  0.706300  0.350700  0.510900  1.0  0.0753
  H  H124  1  0.998100  0.165600  0.103600  1.0  0.1206
  H  H125  1  0.678500  0.325600  0.740500  1.0  0.0784
  H  H126  1  0.836200  0.224600  0.736200  1.0  0.0792
  H  H127  1  0.886200  0.209300  0.834500  1.0  0.1202
  H  H128  1  0.861700  0.388300  0.655700  1.0  0.0813
  H  H129  1  0.772200  0.432300  0.343900  1.0  0.1208
  H  H130  1  0.122400  0.732700  0.504900  1.0  0.0706
  H  H131  1  0.722800  0.421200  0.245500  1.0  0.0778
  H  H132  1  0.883900  0.296500  0.113800  1.0  0.1253
  H  H133  1  0.097900  0.045900  0.999500  1.0  0.0781
  H  H134  1  0.904400  0.587000  0.331300  1.0  0.1256
  H  H135  1  0.848900  0.575400  0.233200  1.0  0.0811
  H  H136  1  0.834300  0.370700  0.160300  1.0  0.075
  H  H137  1  0.596700  0.595000  0.147500  1.0  0.0854
  H  H138  1  0.414600  0.960300  0.610100  1.0  0.1234
  H  H139  1  0.615300  0.188900  0.650900  1.0  0.0727
  H  H140  1  0.498400  0.615200  0.950500  1.0  0.1254
  H  H141  1  0.236300  0.866800  0.963500  1.0  0.1276
  H  H142  1  0.254300  0.918700  0.460800  1.0  0.1284
  H  H143  1  0.188200  0.934600  0.014400  1.0  0.0795
  H  H144  1  0.518800  0.116100  0.606200  1.0  0.1185
  H  H145  1  0.525000  0.162500  0.454600  1.0  0.1199
  H  H146  1  0.223300  0.810300  0.839200  1.0  0.1099
  H  H147  1  0.206300  0.850700  0.510900  1.0  0.0753
  H  H148  1  0.498100  0.665600  0.103600  1.0  0.1206
  H  H149  1  0.178500  0.825600  0.740500  1.0  0.0784
  H  H150  1  0.336200  0.724600  0.736200  1.0  0.0792
  H  H151  1  0.386200  0.709300  0.834500  1.0  0.1202
  H  H152  1  0.361700  0.888300  0.655700  1.0  0.0813
  H  H153  1  0.272200  0.932300  0.343900  1.0  0.1208
  H  H154  1  0.622400  0.232700  0.504900  1.0  0.0706
  H  H155  1  0.222800  0.921200  0.245500  1.0  0.0778
  H  H156  1  0.383900  0.796500  0.113800  1.0  0.1253
  H  H157  1  0.597900  0.545900  0.999500  1.0  0.0781
  H  H158  1  0.404400  0.087000  0.331300  1.0  0.1256
  H  H159  1  0.348900  0.075400  0.233200  1.0  0.0811
  H  H160  1  0.334300  0.870700  0.160300  1.0  0.075
  H  H161  1  0.903300  0.095000  0.352500  1.0  0.0853
  H  H162  1  0.085400  0.460300  0.889900  1.0  0.1225
  H  H163  1  0.884700  0.688900  0.849100  1.0  0.0737
  H  H164  1  0.001600  0.115200  0.549500  1.0  0.1258
  H  H165  1  0.263700  0.366800  0.536500  1.0  0.1267
  H  H166  1  0.245700  0.418700  0.039200  1.0  0.1286
  H  H167  1  0.311800  0.434600  0.485600  1.0  0.0797
  H  H168  1  0.981200  0.616100  0.893800  1.0  0.119
  H  H169  1  0.975000  0.662500  0.045400  1.0  0.1196
  H  H170  1  0.276700  0.310300  0.660800  1.0  0.1095
  H  H171  1  0.293700  0.350700  0.989100  1.0  0.076
  H  H172  1  0.001900  0.165600  0.396400  1.0  0.1205
  H  H173  1  0.321500  0.325600  0.759500  1.0  0.0787
  H  H174  1  0.163800  0.224600  0.763800  1.0  0.0791
  H  H175  1  0.113800  0.209300  0.665500  1.0  0.1213
  H  H176  1  0.138300  0.388300  0.844300  1.0  0.0811
  H  H177  1  0.227800  0.432300  0.156100  1.0  0.1213
  H  H178  1  0.877600  0.732700  0.995100  1.0  0.071
  H  H179  1  0.277200  0.421200  0.254500  1.0  0.0781
  H  H180  1  0.116100  0.296500  0.386200  1.0  0.1255
  H  H181  1  0.902100  0.045900  0.500500  1.0  0.0778
  H  H182  1  0.095600  0.587000  0.168700  1.0  0.1251
  H  H183  1  0.151100  0.575400  0.266800  1.0  0.0818
  H  H184  1  0.165700  0.370700  0.339700  1.0  0.0755
  H  H185  1  0.403300  0.595000  0.352500  1.0  0.0853
  H  H186  1  0.585400  0.960300  0.889900  1.0  0.1225
  H  H187  1  0.384700  0.188900  0.849100  1.0  0.0737
  H  H188  1  0.501600  0.615200  0.549500  1.0  0.1258
  H  H189  1  0.763700  0.866800  0.536500  1.0  0.1267
  H  H190  1  0.745700  0.918700  0.039200  1.0  0.1286
  H  H191  1  0.811800  0.934600  0.485600  1.0  0.0798
  H  H192  1  0.481200  0.116100  0.893800  1.0  0.119
  H  H193  1  0.475000  0.162500  0.045400  1.0  0.1196
  H  H194  1  0.776700  0.810300  0.660800  1.0  0.1095
  H  H195  1  0.793700  0.850700  0.989100  1.0  0.076
  H  H196  1  0.501900  0.665600  0.396400  1.0  0.1205
  H  H197  1  0.821500  0.825600  0.759500  1.0  0.0787
  H  H198  1  0.663800  0.724600  0.763800  1.0  0.0791
  H  H199  1  0.613800  0.709300  0.665500  1.0  0.1213
  H  H200  1  0.638300  0.888300  0.844300  1.0  0.0811
  H  H201  1  0.727800  0.932300  0.156100  1.0  0.1213
  H  H202  1  0.377600  0.232700  0.995100  1.0  0.071
  H  H203  1  0.777200  0.921200  0.254500  1.0  0.0781
  H  H204  1  0.616100  0.796500  0.386200  1.0  0.1255
  H  H205  1  0.402100  0.545900  0.500500  1.0  0.0778
  H  H206  1  0.595600  0.087000  0.168700  1.0  0.1251
  H  H207  1  0.651100  0.075400  0.266800  1.0  0.0818
  H  H208  1  0.665700  0.870700  0.339700  1.0  0.0755
  C  C209  1  0.153400  0.719900  0.001100  1.0  0.3668
  C  C210  1  0.923000  0.900200  0.892500  1.0  0.1486
  C  C211  1  0.128100  0.507100  0.502400  1.0  0.363
  C  C212  1  0.127900  0.561700  0.411100  1.0  -0.1535
  C  C213  1  0.903100  0.316900  0.389100  1.0  0.1667
  C  C214  1  0.075300  0.801400  0.007000  1.0  0.3618
  C  C215  1  0.982300  0.887500  0.009500  1.0  -0.1619
  C  C216  1  0.159800  0.552700  0.470200  1.0  -0.0834
  C  C217  1  0.243100  0.633700  0.996300  1.0  -0.1412
  C  C218  1  0.222900  0.586100  0.499300  1.0  -0.1924
  C  C219  1  0.158100  0.485700  0.651400  1.0  -0.0676
  C  C220  1  0.127600  0.476000  0.587800  1.0  0.3655
  C  C221  1  0.271600  0.592800  0.965300  1.0  0.1699
  C  C222  1  0.960900  0.361300  0.415500  1.0  -0.1408
  C  C223  1  0.183800  0.675500  0.966810  1.0  -0.0786
  C  C224  1  0.190400  0.742600  0.152000  1.0  -0.0884
  C  C225  1  0.957200  0.334100  0.505400  1.0  -0.1655
  C  C226  1  0.252700  0.707400  0.181000  1.0  -0.1004
  C  C227  1  0.251400  0.626600  0.468800  1.0  0.1726
  C  C228  1  0.050100  0.422900  0.505400  1.0  0.3786
  C  C229  1  0.982400  0.857700  0.918600  1.0  -0.1498
  C  C230  1  0.158400  0.752200  0.088000  1.0  0.3649
  C  C231  1  0.279500  0.698500  0.240400  1.0  0.1745
  C  C232  1  0.186700  0.757500  0.242800  1.0  0.1708
  C  C233  1  0.156300  0.767500  0.183700  1.0  -0.1815
  C  C234  1  0.160500  0.604300  0.384000  1.0  0.1708
  C  C235  1  0.211800  0.537300  0.678000  1.0  -0.1704
  C  C236  1  0.899000  0.291000  0.474600  1.0  0.1739
  C  C237  1  0.241300  0.543400  0.737200  1.0  0.1687
  C  C238  1  0.012700  0.850000  0.977900  1.0  -0.0421
  C  C239  1  0.989000  0.372400  0.475100  1.0  -0.0482
  C  C240  1  0.155400  0.674900  0.907400  1.0  -0.1591
  C  C241  1  0.922200  0.929100  0.979400  1.0  0.179
  C  C242  1  0.133700  0.445200  0.685300  1.0  -0.1864
  C  C243  1  0.167200  0.453600  0.744300  1.0  0.1852
  C  C244  1  0.186300  0.631000  0.879800  1.0  0.1727
  C  C245  1  0.653400  0.219900  0.001100  1.0  0.3668
  C  C246  1  0.423000  0.400200  0.892500  1.0  0.1486
  C  C247  1  0.628100  0.007100  0.502400  1.0  0.363
  C  C248  1  0.627900  0.061700  0.411100  1.0  -0.1535
  C  C249  1  0.403100  0.816900  0.389100  1.0  0.1667
  C  C250  1  0.575300  0.301400  0.007000  1.0  0.3618
  C  C251  1  0.482300  0.387500  0.009500  1.0  -0.1619
  C  C252  1  0.659800  0.052700  0.470200  1.0  -0.0834
  C  C253  1  0.743100  0.133700  0.996300  1.0  -0.1412
  C  C254  1  0.722900  0.086100  0.499300  1.0  -0.1924
  C  C255  1  0.658100  0.985700  0.651400  1.0  -0.0676
  C  C256  1  0.627600  0.976000  0.587800  1.0  0.3655
  C  C257  1  0.771600  0.092800  0.965300  1.0  0.1699
  C  C258  1  0.460900  0.861300  0.415500  1.0  -0.1408
  C  C259  1  0.683800  0.175500  0.966810  1.0  -0.0786
  C  C260  1  0.690400  0.242600  0.152000  1.0  -0.0884
  C  C261  1  0.457200  0.834100  0.505400  1.0  -0.1655
  C  C262  1  0.752700  0.207400  0.181000  1.0  -0.1004
  C  C263  1  0.751400  0.126600  0.468800  1.0  0.1726
  C  C264  1  0.550100  0.922900  0.505400  1.0  0.3786
  C  C265  1  0.482400  0.357700  0.918600  1.0  -0.1498
  C  C266  1  0.658400  0.252200  0.088000  1.0  0.3649
  C  C267  1  0.779500  0.198500  0.240400  1.0  0.1745
  C  C268  1  0.686700  0.257500  0.242800  1.0  0.1708
  C  C269  1  0.656300  0.267500  0.183700  1.0  -0.1815
  C  C270  1  0.660500  0.104300  0.384000  1.0  0.1708
  C  C271  1  0.711800  0.037300  0.678000  1.0  -0.1704
  C  C272  1  0.399000  0.791000  0.474600  1.0  0.1739
  C  C273  1  0.741300  0.043400  0.737200  1.0  0.1687
  C  C274  1  0.512700  0.350000  0.977900  1.0  -0.0421
  C  C275  1  0.489000  0.872400  0.475100  1.0  -0.0482
  C  C276  1  0.655400  0.174900  0.907400  1.0  -0.1591
  C  C277  1  0.422200  0.429100  0.979400  1.0  0.179
  C  C278  1  0.633700  0.945200  0.685300  1.0  -0.1864
  C  C279  1  0.667200  0.953600  0.744300  1.0  0.1852
  C  C280  1  0.686300  0.131000  0.879800  1.0  0.1727
  C  C281  1  0.846600  0.719900  0.498900  1.0  0.3672
  C  C282  1  0.077000  0.900200  0.607500  1.0  0.1471
  C  C283  1  0.871900  0.507100  0.997600  1.0  0.3634
  C  C284  1  0.872100  0.561700  0.088900  1.0  -0.1557
  C  C285  1  0.096900  0.316900  0.110900  1.0  0.1669
  C  C286  1  0.924700  0.801400  0.493000  1.0  0.361
  C  C287  1  0.017700  0.887500  0.490500  1.0  -0.1639
  C  C288  1  0.840200  0.552700  0.029800  1.0  -0.0818
  C  C289  1  0.756900  0.633700  0.503700  1.0  -0.1394
  C  C290  1  0.777100  0.586100  0.000700  1.0  -0.1923
  C  C291  1  0.841900  0.485700  0.848600  1.0  -0.065
  C  C292  1  0.872400  0.476000  0.912200  1.0  0.3657
  C  C293  1  0.728400  0.592800  0.534700  1.0  0.1699
  C  C294  1  0.039100  0.361300  0.084500  1.0  -0.1409
  C  C295  1  0.816200  0.675500  0.533190  1.0  -0.0789
  C  C296  1  0.809600  0.742600  0.348000  1.0  -0.0883
  C  C297  1  0.042800  0.334100  0.994600  1.0  -0.1684
  C  C298  1  0.747300  0.707400  0.319000  1.0  -0.0984
  C  C299  1  0.748600  0.626600  0.031200  1.0  0.1736
  C  C300  1  0.949900  0.422900  0.994600  1.0  0.3783
  C  C301  1  0.017600  0.857700  0.581400  1.0  -0.1521
  C  C302  1  0.841600  0.752200  0.412000  1.0  0.3644
  C  C303  1  0.720500  0.698500  0.259600  1.0  0.1752
  C  C304  1  0.813300  0.757500  0.257200  1.0  0.1692
  C  C305  1  0.843700  0.767500  0.316300  1.0  -0.182
  C  C306  1  0.839500  0.604300  0.116000  1.0  0.1694
  C  C307  1  0.788200  0.537300  0.822000  1.0  -0.1693
  C  C308  1  0.101000  0.291000  0.025400  1.0  0.1743
  C  C309  1  0.758700  0.543400  0.762800  1.0  0.1683
  C  C310  1  0.987300  0.850000  0.522100  1.0  -0.0421
  C  C311  1  0.011000  0.372400  0.024900  1.0  -0.0489
  C  C312  1  0.844600  0.674900  0.592600  1.0  -0.1598
  C  C313  1  0.077800  0.929100  0.520600  1.0  0.1801
  C  C314  1  0.866300  0.445200  0.814700  1.0  -0.1873
  C  C315  1  0.832800  0.453600  0.755700  1.0  0.185
  C  C316  1  0.813700  0.631000  0.620200  1.0  0.1733
  C  C317  1  0.346600  0.219900  0.498900  1.0  0.3672
  C  C318  1  0.577000  0.400200  0.607500  1.0  0.1471
  C  C319  1  0.371900  0.007100  0.997600  1.0  0.3634
  C  C320  1  0.372100  0.061700  0.088900  1.0  -0.1557
  C  C321  1  0.596900  0.816900  0.110900  1.0  0.1669
  C  C322  1  0.424700  0.301400  0.493000  1.0  0.361
  C  C323  1  0.517700  0.387500  0.490500  1.0  -0.1639
  C  C324  1  0.340200  0.052700  0.029800  1.0  -0.0818
  C  C325  1  0.256900  0.133700  0.503700  1.0  -0.1394
  C  C326  1  0.277100  0.086100  0.000700  1.0  -0.1923
  C  C327  1  0.341900  0.985700  0.848600  1.0  -0.065
  C  C328  1  0.372400  0.976000  0.912200  1.0  0.3657
  C  C329  1  0.228400  0.092800  0.534700  1.0  0.1699
  C  C330  1  0.539100  0.861300  0.084500  1.0  -0.1409
  C  C331  1  0.316200  0.175500  0.533190  1.0  -0.0789
  C  C332  1  0.309600  0.242600  0.348000  1.0  -0.0883
  C  C333  1  0.542800  0.834100  0.994600  1.0  -0.1684
  C  C334  1  0.247300  0.207400  0.319000  1.0  -0.0984
  C  C335  1  0.248600  0.126600  0.031200  1.0  0.1736
  C  C336  1  0.449900  0.922900  0.994600  1.0  0.3783
  C  C337  1  0.517600  0.357700  0.581400  1.0  -0.1521
  C  C338  1  0.341600  0.252200  0.412000  1.0  0.3644
  C  C339  1  0.220500  0.198500  0.259600  1.0  0.1752
  C  C340  1  0.313300  0.257500  0.257200  1.0  0.1692
  C  C341  1  0.343700  0.267500  0.316300  1.0  -0.182
  C  C342  1  0.339500  0.104300  0.116000  1.0  0.1694
  C  C343  1  0.288200  0.037300  0.822000  1.0  -0.1693
  C  C344  1  0.601000  0.791000  0.025400  1.0  0.1743
  C  C345  1  0.258700  0.043400  0.762800  1.0  0.1683
  C  C346  1  0.487300  0.350000  0.522100  1.0  -0.0421
  C  C347  1  0.511000  0.872400  0.024900  1.0  -0.0489
  C  C348  1  0.344600  0.174900  0.592600  1.0  -0.1598
  C  C349  1  0.577800  0.429100  0.520600  1.0  0.1801
  C  C350  1  0.366300  0.945200  0.814700  1.0  -0.1873
  C  C351  1  0.332800  0.953600  0.755700  1.0  0.185
  C  C352  1  0.313700  0.131000  0.620200  1.0  0.1733
  C  C353  1  0.846600  0.280100  0.998900  1.0  0.3673
  C  C354  1  0.077000  0.099800  0.107500  1.0  0.147
  C  C355  1  0.871900  0.492900  0.497600  1.0  0.3636
  C  C356  1  0.872100  0.438300  0.588900  1.0  -0.1554
  C  C357  1  0.096900  0.683100  0.610900  1.0  0.1662
  C  C358  1  0.924700  0.198600  0.993000  1.0  0.361
  C  C359  1  0.017700  0.112500  0.990500  1.0  -0.1635
  C  C360  1  0.840200  0.447300  0.529800  1.0  -0.0813
  C  C361  1  0.756900  0.366300  0.003700  1.0  -0.1395
  C  C362  1  0.777100  0.413900  0.500700  1.0  -0.1924
  C  C363  1  0.841900  0.514300  0.348600  1.0  -0.0648
  C  C364  1  0.872400  0.524000  0.412200  1.0  0.3659
  C  C365  1  0.728400  0.407200  0.034700  1.0  0.1696
  C  C366  1  0.039100  0.638700  0.584500  1.0  -0.1411
  C  C367  1  0.816200  0.324500  0.033190  1.0  -0.0787
  C  C368  1  0.809600  0.257400  0.848000  1.0  -0.088
  C  C369  1  0.042800  0.665900  0.494600  1.0  -0.169
  C  C370  1  0.747300  0.292600  0.819000  1.0  -0.0982
  C  C371  1  0.748600  0.373400  0.531200  1.0  0.1744
  C  C372  1  0.949900  0.577100  0.494600  1.0  0.3779
  C  C373  1  0.017600  0.142300  0.081400  1.0  -0.1522
  C  C374  1  0.841600  0.247800  0.912000  1.0  0.3642
  C  C375  1  0.720500  0.301500  0.759600  1.0  0.1754
  C  C376  1  0.813300  0.242500  0.757200  1.0  0.1692
  C  C377  1  0.843700  0.232500  0.816300  1.0  -0.1814
  C  C378  1  0.839500  0.395700  0.616000  1.0  0.1701
  C  C379  1  0.788200  0.462700  0.322000  1.0  -0.1691
  C  C380  1  0.101000  0.709000  0.525400  1.0  0.1737
  C  C381  1  0.758700  0.456600  0.262800  1.0  0.168
  C  C382  1  0.987300  0.150000  0.022100  1.0  -0.0433
  C  C383  1  0.011000  0.627600  0.524900  1.0  -0.0492
  C  C384  1  0.844600  0.325100  0.092600  1.0  -0.16
  C  C385  1  0.077800  0.070900  0.020600  1.0  0.1805
  C  C386  1  0.866300  0.554800  0.314700  1.0  -0.1871
  C  C387  1  0.832800  0.546400  0.255700  1.0  0.1854
  C  C388  1  0.813700  0.369000  0.120200  1.0  0.1733
  C  C389  1  0.346600  0.780100  0.998900  1.0  0.3673
  C  C390  1  0.577000  0.599800  0.107500  1.0  0.147
  C  C391  1  0.371900  0.992900  0.497600  1.0  0.3636
  C  C392  1  0.372100  0.938300  0.588900  1.0  -0.1554
  C  C393  1  0.596900  0.183100  0.610900  1.0  0.1662
  C  C394  1  0.424700  0.698600  0.993000  1.0  0.361
  C  C395  1  0.517700  0.612500  0.990500  1.0  -0.1635
  C  C396  1  0.340200  0.947300  0.529800  1.0  -0.0813
  C  C397  1  0.256900  0.866300  0.003700  1.0  -0.1395
  C  C398  1  0.277100  0.913900  0.500700  1.0  -0.1924
  C  C399  1  0.341900  0.014300  0.348600  1.0  -0.0648
  C  C400  1  0.372400  0.024000  0.412200  1.0  0.3659
  C  C401  1  0.228400  0.907200  0.034700  1.0  0.1696
  C  C402  1  0.539100  0.138700  0.584500  1.0  -0.1411
  C  C403  1  0.316200  0.824500  0.033190  1.0  -0.0787
  C  C404  1  0.309600  0.757400  0.848000  1.0  -0.088
  C  C405  1  0.542800  0.165900  0.494600  1.0  -0.169
  C  C406  1  0.247300  0.792600  0.819000  1.0  -0.0982
  C  C407  1  0.248600  0.873400  0.531200  1.0  0.1744
  C  C408  1  0.449900  0.077100  0.494600  1.0  0.3779
  C  C409  1  0.517600  0.642300  0.081400  1.0  -0.1522
  C  C410  1  0.341600  0.747800  0.912000  1.0  0.3642
  C  C411  1  0.220500  0.801500  0.759600  1.0  0.1754
  C  C412  1  0.313300  0.742500  0.757200  1.0  0.1692
  C  C413  1  0.343700  0.732500  0.816300  1.0  -0.1814
  C  C414  1  0.339500  0.895700  0.616000  1.0  0.1701
  C  C415  1  0.288200  0.962700  0.322000  1.0  -0.1691
  C  C416  1  0.601000  0.209000  0.525400  1.0  0.1737
  C  C417  1  0.258700  0.956600  0.262800  1.0  0.168
  C  C418  1  0.487300  0.650000  0.022100  1.0  -0.0433
  C  C419  1  0.511000  0.127600  0.524900  1.0  -0.0492
  C  C420  1  0.344600  0.825100  0.092600  1.0  -0.16
  C  C421  1  0.577800  0.570900  0.020600  1.0  0.1805
  C  C422  1  0.366300  0.054800  0.314700  1.0  -0.1871
  C  C423  1  0.332800  0.046400  0.255700  1.0  0.1854
  C  C424  1  0.313700  0.869000  0.120200  1.0  0.1733
  C  C425  1  0.153400  0.280100  0.501100  1.0  0.3669
  C  C426  1  0.923000  0.099800  0.392500  1.0  0.1475
  C  C427  1  0.128100  0.492900  0.002400  1.0  0.3632
  C  C428  1  0.127900  0.438300  0.911100  1.0  -0.1536
  C  C429  1  0.903100  0.683100  0.889100  1.0  0.1662
  C  C430  1  0.075300  0.198600  0.507000  1.0  0.3618
  C  C431  1  0.982300  0.112500  0.509500  1.0  -0.162
  C  C432  1  0.159800  0.447300  0.970200  1.0  -0.0835
  C  C433  1  0.243100  0.366300  0.496300  1.0  -0.1413
  C  C434  1  0.222900  0.413900  0.999300  1.0  -0.1923
  C  C435  1  0.158100  0.514300  0.151400  1.0  -0.0671
  C  C436  1  0.127600  0.524000  0.087800  1.0  0.3656
  C  C437  1  0.271600  0.407200  0.465300  1.0  0.1696
  C  C438  1  0.960900  0.638700  0.915500  1.0  -0.1404
  C  C439  1  0.183800  0.324500  0.466810  1.0  -0.0788
  C  C440  1  0.190400  0.257400  0.652000  1.0  -0.0884
  C  C441  1  0.957200  0.665900  0.005400  1.0  -0.1655
  C  C442  1  0.252700  0.292600  0.681000  1.0  -0.1002
  C  C443  1  0.251400  0.373400  0.968800  1.0  0.1727
  C  C444  1  0.050100  0.577100  0.005400  1.0  0.3783
  C  C445  1  0.982400  0.142300  0.418600  1.0  -0.1511
  C  C446  1  0.158400  0.247800  0.588000  1.0  0.3649
  C  C447  1  0.279500  0.301500  0.740400  1.0  0.1751
  C  C448  1  0.186700  0.242500  0.742800  1.0  0.1712
  C  C449  1  0.156300  0.232500  0.683700  1.0  -0.1807
  C  C450  1  0.160500  0.395700  0.884000  1.0  0.1699
  C  C451  1  0.211800  0.462700  0.178000  1.0  -0.1697
  C  C452  1  0.899000  0.709000  0.974600  1.0  0.1737
  C  C453  1  0.241300  0.456600  0.237200  1.0  0.1688
  C  C454  1  0.012700  0.150000  0.477900  1.0  -0.0424
  C  C455  1  0.989000  0.627600  0.975100  1.0  -0.0489
  C  C456  1  0.155400  0.325100  0.407400  1.0  -0.159
  C  C457  1  0.922200  0.070900  0.479400  1.0  0.1801
  C  C458  1  0.133700  0.554800  0.185300  1.0  -0.1859
  C  C459  1  0.167200  0.546400  0.244300  1.0  0.1859
  C  C460  1  0.186300  0.369000  0.379800  1.0  0.1731
  C  C461  1  0.653400  0.780100  0.501100  1.0  0.3669
  C  C462  1  0.423000  0.599800  0.392500  1.0  0.1475
  C  C463  1  0.628100  0.992900  0.002400  1.0  0.3632
  C  C464  1  0.627900  0.938300  0.911100  1.0  -0.1536
  C  C465  1  0.403100  0.183100  0.889100  1.0  0.1662
  C  C466  1  0.575300  0.698600  0.507000  1.0  0.3618
  C  C467  1  0.482300  0.612500  0.509500  1.0  -0.162
  C  C468  1  0.659800  0.947300  0.970200  1.0  -0.0835
  C  C469  1  0.743100  0.866300  0.496300  1.0  -0.1413
  C  C470  1  0.722900  0.913900  0.999300  1.0  -0.1923
  C  C471  1  0.658100  0.014300  0.151400  1.0  -0.0671
  C  C472  1  0.627600  0.024000  0.087800  1.0  0.3656
  C  C473  1  0.771600  0.907200  0.465300  1.0  0.1696
  C  C474  1  0.460900  0.138700  0.915500  1.0  -0.1404
  C  C475  1  0.683800  0.824500  0.466810  1.0  -0.0788
  C  C476  1  0.690400  0.757400  0.652000  1.0  -0.0884
  C  C477  1  0.457200  0.165900  0.005400  1.0  -0.1655
  C  C478  1  0.752700  0.792600  0.681000  1.0  -0.1002
  C  C479  1  0.751400  0.873400  0.968800  1.0  0.1727
  C  C480  1  0.550100  0.077100  0.005400  1.0  0.3783
  C  C481  1  0.482400  0.642300  0.418600  1.0  -0.1511
  C  C482  1  0.658400  0.747800  0.588000  1.0  0.3649
  C  C483  1  0.779500  0.801500  0.740400  1.0  0.1751
  C  C484  1  0.686700  0.742500  0.742800  1.0  0.1712
  C  C485  1  0.656300  0.732500  0.683700  1.0  -0.1807
  C  C486  1  0.660500  0.895700  0.884000  1.0  0.1699
  C  C487  1  0.711800  0.962700  0.178000  1.0  -0.1697
  C  C488  1  0.399000  0.209000  0.974600  1.0  0.1737
  C  C489  1  0.741300  0.956600  0.237200  1.0  0.1688
  C  C490  1  0.512700  0.650000  0.477900  1.0  -0.0424
  C  C491  1  0.489000  0.127600  0.975100  1.0  -0.0489
  C  C492  1  0.655400  0.825100  0.407400  1.0  -0.159
  C  C493  1  0.422200  0.570900  0.479400  1.0  0.1801
  C  C494  1  0.633700  0.054800  0.185300  1.0  -0.1859
  C  C495  1  0.667200  0.046400  0.244300  1.0  0.1859
  C  C496  1  0.686300  0.869000  0.379800  1.0  0.1731
  N  N497  1  0.871620  0.281300  0.417680  1.0  -0.3578
  N  N498  1  0.222000  0.635100  0.411830  1.0  -0.3157
  N  N499  1  0.220800  0.500300  0.771320  1.0  -0.3173
  N  N500  1  0.074500  0.460700  0.472870  1.0  -0.494
  N  N501  1  0.156230  0.517500  0.559290  1.0  -0.4742
  N  N502  1  0.074860  0.427100  0.562870  1.0  -0.5259
  N  N503  1  0.244200  0.590500  0.907450  1.0  -0.3594
  N  N504  1  0.246800  0.723400  0.271390  1.0  -0.3576
  N  N505  1  0.892200  0.935000  0.922090  1.0  -0.3254
  N  N506  1  0.097690  0.760700  0.973110  1.0  -0.4576
  N  N507  1  0.186290  0.712600  0.058760  1.0  -0.4909
  N  N508  1  0.103900  0.798900  0.064570  1.0  -0.4948
  N  N509  1  0.371620  0.781300  0.417680  1.0  -0.3578
  N  N510  1  0.722000  0.135100  0.411830  1.0  -0.3157
  N  N511  1  0.720800  0.000300  0.771320  1.0  -0.3173
  N  N512  1  0.574500  0.960700  0.472870  1.0  -0.494
  N  N513  1  0.656230  0.017500  0.559290  1.0  -0.4742
  N  N514  1  0.574860  0.927100  0.562870  1.0  -0.5259
  N  N515  1  0.744200  0.090500  0.907450  1.0  -0.3594
  N  N516  1  0.746800  0.223400  0.271390  1.0  -0.3576
  N  N517  1  0.392200  0.435000  0.922090  1.0  -0.3254
  N  N518  1  0.597690  0.260700  0.973110  1.0  -0.4576
  N  N519  1  0.686290  0.212600  0.058760  1.0  -0.4909
  N  N520  1  0.603900  0.298900  0.064570  1.0  -0.4948
  N  N521  1  0.128380  0.281300  0.082320  1.0  -0.3558
  N  N522  1  0.778000  0.635100  0.088170  1.0  -0.3148
  N  N523  1  0.779200  0.500300  0.728680  1.0  -0.3184
  N  N524  1  0.925500  0.460700  0.027130  1.0  -0.497
  N  N525  1  0.843770  0.517500  0.940710  1.0  -0.4739
  N  N526  1  0.925140  0.427100  0.937130  1.0  -0.5226
  N  N527  1  0.755800  0.590500  0.592550  1.0  -0.3581
  N  N528  1  0.753200  0.723400  0.228610  1.0  -0.3583
  N  N529  1  0.107800  0.935000  0.577910  1.0  -0.3277
  N  N530  1  0.902310  0.760700  0.526890  1.0  -0.4574
  N  N531  1  0.813710  0.712600  0.441240  1.0  -0.4917
  N  N532  1  0.896100  0.798900  0.435430  1.0  -0.4888
  N  N533  1  0.628380  0.781300  0.082320  1.0  -0.3558
  N  N534  1  0.278000  0.135100  0.088170  1.0  -0.3148
  N  N535  1  0.279200  0.000300  0.728680  1.0  -0.3184
  N  N536  1  0.425500  0.960700  0.027130  1.0  -0.497
  N  N537  1  0.343770  0.017500  0.940710  1.0  -0.4739
  N  N538  1  0.425140  0.927100  0.937130  1.0  -0.5226
  N  N539  1  0.255800  0.090500  0.592550  1.0  -0.3581
  N  N540  1  0.253200  0.223400  0.228610  1.0  -0.3583
  N  N541  1  0.607800  0.435000  0.577910  1.0  -0.3277
  N  N542  1  0.402310  0.260700  0.526890  1.0  -0.4574
  N  N543  1  0.313710  0.212600  0.441240  1.0  -0.4917
  N  N544  1  0.396100  0.298900  0.435430  1.0  -0.4888
  N  N545  1  0.128380  0.718700  0.582320  1.0  -0.358
  N  N546  1  0.778000  0.364900  0.588170  1.0  -0.3171
  N  N547  1  0.779200  0.499700  0.228680  1.0  -0.319
  N  N548  1  0.925500  0.539300  0.527130  1.0  -0.4966
  N  N549  1  0.843770  0.482500  0.440710  1.0  -0.4741
  N  N550  1  0.925140  0.572900  0.437130  1.0  -0.5214
  N  N551  1  0.755800  0.409500  0.092550  1.0  -0.3602
  N  N552  1  0.753200  0.276600  0.728610  1.0  -0.3574
  N  N553  1  0.107800  0.065000  0.077910  1.0  -0.3274
  N  N554  1  0.902310  0.239300  0.026890  1.0  -0.4567
  N  N555  1  0.813710  0.287400  0.941240  1.0  -0.4915
  N  N556  1  0.896100  0.201100  0.935430  1.0  -0.4904
  N  N557  1  0.628380  0.218700  0.582320  1.0  -0.358
  N  N558  1  0.278000  0.864900  0.588170  1.0  -0.3171
  N  N559  1  0.279200  0.999700  0.228680  1.0  -0.319
  N  N560  1  0.425500  0.039300  0.527130  1.0  -0.4966
  N  N561  1  0.343770  0.982500  0.440710  1.0  -0.4741
  N  N562  1  0.425140  0.072900  0.437130  1.0  -0.5214
  N  N563  1  0.255800  0.909500  0.092550  1.0  -0.3602
  N  N564  1  0.253200  0.776600  0.728610  1.0  -0.3574
  N  N565  1  0.607800  0.565000  0.077910  1.0  -0.3274
  N  N566  1  0.402310  0.739300  0.026890  1.0  -0.4567
  N  N567  1  0.313710  0.787400  0.941240  1.0  -0.4915
  N  N568  1  0.396100  0.701100  0.935430  1.0  -0.4904
  N  N569  1  0.871620  0.718700  0.917680  1.0  -0.3574
  N  N570  1  0.222000  0.364900  0.911830  1.0  -0.3171
  N  N571  1  0.220800  0.499700  0.271320  1.0  -0.3168
  N  N572  1  0.074500  0.539300  0.972870  1.0  -0.4936
  N  N573  1  0.156230  0.482500  0.059290  1.0  -0.4739
  N  N574  1  0.074860  0.572900  0.062870  1.0  -0.5261
  N  N575  1  0.244200  0.409500  0.407450  1.0  -0.3584
  N  N576  1  0.246800  0.276600  0.771390  1.0  -0.3581
  N  N577  1  0.892200  0.065000  0.422090  1.0  -0.3301
  N  N578  1  0.097690  0.239300  0.473110  1.0  -0.458
  N  N579  1  0.186290  0.287400  0.558760  1.0  -0.492
  N  N580  1  0.103900  0.201100  0.564570  1.0  -0.495
  N  N581  1  0.371620  0.218700  0.917680  1.0  -0.3574
  N  N582  1  0.722000  0.864900  0.911830  1.0  -0.3171
  N  N583  1  0.720800  0.999700  0.271320  1.0  -0.3168
  N  N584  1  0.574500  0.039300  0.972870  1.0  -0.4936
  N  N585  1  0.656230  0.982500  0.059290  1.0  -0.4739
  N  N586  1  0.574860  0.072900  0.062870  1.0  -0.5261
  N  N587  1  0.744200  0.909500  0.407450  1.0  -0.3584
  N  N588  1  0.746800  0.776600  0.771390  1.0  -0.3581
  N  N589  1  0.392200  0.565000  0.422090  1.0  -0.3301
  N  N590  1  0.597690  0.739300  0.473110  1.0  -0.458
  N  N591  1  0.686290  0.787400  0.558760  1.0  -0.492
  N  N592  1  0.603900  0.701100  0.564570  1.0  -0.495
