# generated using pymatgen
data_AgH12(C3N)6
_symmetry_space_group_name_H-M   'P 1'
_cell_length_a   22.05720000
_cell_length_b   16.38930000
_cell_length_c   25.60300000
_cell_angle_alpha   90.00000000
_cell_angle_beta   115.30500000
_cell_angle_gamma   90.00000000
_symmetry_Int_Tables_number   1
_chemical_formula_structural   AgH12(C3N)6
_chemical_formula_sum   'Ag16 H192 C288 N96'
_cell_volume   8367.42468468
_cell_formula_units_Z   16
loop_
 _symmetry_equiv_pos_site_id
 _symmetry_equiv_pos_as_xyz
  1  'x, y, z'
loop_
 _atom_site_type_symbol
 _atom_site_label
 _atom_site_symmetry_multiplicity
 _atom_site_fract_x
 _atom_site_fract_y
 _atom_site_fract_z
 _atom_site_occupancy
 _atom_site_charge
  Ag  Ag1  1  0.844140  0.457730  0.367910  1.0  0.3469
  Ag  Ag2  1  0.322940  0.252230  0.867280  1.0  0.2848
  Ag  Ag3  1  0.344140  0.957730  0.367910  1.0  0.3469
  Ag  Ag4  1  0.822940  0.752230  0.867280  1.0  0.2848
  Ag  Ag5  1  0.155860  0.457730  0.132090  1.0  0.3474
  Ag  Ag6  1  0.677060  0.252230  0.632720  1.0  0.2848
  Ag  Ag7  1  0.655860  0.957730  0.132090  1.0  0.3474
  Ag  Ag8  1  0.177060  0.752230  0.632720  1.0  0.2848
  Ag  Ag9  1  0.155860  0.542270  0.632090  1.0  0.3476
  Ag  Ag10  1  0.677060  0.747770  0.132720  1.0  0.2846
  Ag  Ag11  1  0.655860  0.042270  0.632090  1.0  0.3476
  Ag  Ag12  1  0.177060  0.247770  0.132720  1.0  0.2846
  Ag  Ag13  1  0.844140  0.542270  0.867910  1.0  0.3471
  Ag  Ag14  1  0.322940  0.747770  0.367280  1.0  0.2848
  Ag  Ag15  1  0.344140  0.042270  0.867910  1.0  0.3471
  Ag  Ag16  1  0.822940  0.247770  0.367280  1.0  0.2848
  H  H17  1  0.798900  0.633800  0.049300  1.0  0.1291
  H  H18  1  0.212800  0.057400  0.348500  1.0  0.0816
  H  H19  1  0.320300  0.089000  0.544900  1.0  0.126
  H  H20  1  0.054800  0.290800  0.389900  1.0  0.1303
  H  H21  1  0.423400  0.315300  0.984800  1.0  0.0761
  H  H22  1  0.523100  0.381900  0.036600  1.0  0.1306
  H  H23  1  0.699500  0.656700  0.852100  1.0  0.0966
  H  H24  1  0.635200  0.438300  0.161600  1.0  0.1237
  H  H25  1  0.043500  0.330700  0.539700  1.0  0.1313
  H  H26  1  0.644200  0.586600  0.896600  1.0  0.1258
  H  H27  1  0.956300  0.362600  0.344400  1.0  0.0852
  H  H28  1  0.367800  0.017600  0.494300  1.0  0.0771
  H  H29  1  0.944600  0.397200  0.489900  1.0  0.0801
  H  H30  1  0.849900  0.703700  0.000700  1.0  0.0851
  H  H31  1  0.851600  0.521400  0.263500  1.0  0.0818
  H  H32  1  0.161900  0.133500  0.393600  1.0  0.1266
  H  H33  1  0.520500  0.455700  0.886000  1.0  0.1307
  H  H34  1  0.177700  0.319600  0.656300  1.0  0.1266
  H  H35  1  0.802200  0.540600  0.165200  1.0  0.1205
  H  H36  1  0.424000  0.381900  0.839500  1.0  0.0791
  H  H37  1  0.323600  0.164700  0.668200  1.0  0.1265
  H  H38  1  0.368200  0.179800  0.767000  1.0  0.0787
  H  H39  1  0.226800  0.330000  0.755000  1.0  0.0781
  H  H40  1  0.689100  0.423200  0.259500  1.0  0.0761
  H  H41  1  0.298900  0.133800  0.049300  1.0  0.1291
  H  H42  1  0.712800  0.557400  0.348500  1.0  0.0816
  H  H43  1  0.820300  0.589000  0.544900  1.0  0.126
  H  H44  1  0.554800  0.790800  0.389900  1.0  0.1303
  H  H45  1  0.923400  0.815300  0.984800  1.0  0.0761
  H  H46  1  0.023100  0.881900  0.036600  1.0  0.1306
  H  H47  1  0.199500  0.156700  0.852100  1.0  0.0966
  H  H48  1  0.135200  0.938300  0.161600  1.0  0.1237
  H  H49  1  0.543500  0.830700  0.539700  1.0  0.1313
  H  H50  1  0.144200  0.086600  0.896600  1.0  0.1258
  H  H51  1  0.456300  0.862600  0.344400  1.0  0.0852
  H  H52  1  0.867800  0.517600  0.494300  1.0  0.0771
  H  H53  1  0.444600  0.897200  0.489900  1.0  0.0801
  H  H54  1  0.349900  0.203700  0.000700  1.0  0.0851
  H  H55  1  0.351600  0.021400  0.263500  1.0  0.0818
  H  H56  1  0.661900  0.633500  0.393600  1.0  0.1266
  H  H57  1  0.020500  0.955700  0.886000  1.0  0.1307
  H  H58  1  0.677700  0.819600  0.656300  1.0  0.1266
  H  H59  1  0.302200  0.040600  0.165200  1.0  0.1205
  H  H60  1  0.924000  0.881900  0.839500  1.0  0.0791
  H  H61  1  0.823600  0.664700  0.668200  1.0  0.1265
  H  H62  1  0.868200  0.679800  0.767000  1.0  0.0787
  H  H63  1  0.726800  0.830000  0.755000  1.0  0.0781
  H  H64  1  0.189100  0.923200  0.259500  1.0  0.0761
  H  H65  1  0.201100  0.633800  0.450700  1.0  0.1287
  H  H66  1  0.787200  0.057400  0.151500  1.0  0.0799
  H  H67  1  0.679700  0.089000  0.955100  1.0  0.1265
  H  H68  1  0.945200  0.290800  0.110100  1.0  0.1296
  H  H69  1  0.576600  0.315300  0.515200  1.0  0.0767
  H  H70  1  0.476900  0.381900  0.463400  1.0  0.1309
  H  H71  1  0.300500  0.656700  0.647900  1.0  0.0958
  H  H72  1  0.364800  0.438300  0.338400  1.0  0.1223
  H  H73  1  0.956500  0.330700  0.960300  1.0  0.1311
  H  H74  1  0.355800  0.586600  0.603400  1.0  0.1262
  H  H75  1  0.043700  0.362600  0.155600  1.0  0.0855
  H  H76  1  0.632200  0.017600  0.005700  1.0  0.0757
  H  H77  1  0.055400  0.397200  0.010100  1.0  0.0802
  H  H78  1  0.150100  0.703700  0.499300  1.0  0.0836
  H  H79  1  0.148400  0.521400  0.236500  1.0  0.0802
  H  H80  1  0.838100  0.133500  0.106400  1.0  0.1266
  H  H81  1  0.479500  0.455700  0.614000  1.0  0.1301
  H  H82  1  0.822300  0.319600  0.843700  1.0  0.1269
  H  H83  1  0.197800  0.540600  0.334800  1.0  0.1206
  H  H84  1  0.576000  0.381900  0.660500  1.0  0.0795
  H  H85  1  0.676400  0.164700  0.831800  1.0  0.1262
  H  H86  1  0.631800  0.179800  0.733000  1.0  0.0794
  H  H87  1  0.773200  0.330000  0.745000  1.0  0.077
  H  H88  1  0.310900  0.423200  0.240500  1.0  0.0758
  H  H89  1  0.701100  0.133800  0.450700  1.0  0.1287
  H  H90  1  0.287200  0.557400  0.151500  1.0  0.0799
  H  H91  1  0.179700  0.589000  0.955100  1.0  0.1265
  H  H92  1  0.445200  0.790800  0.110100  1.0  0.1296
  H  H93  1  0.076600  0.815300  0.515200  1.0  0.0767
  H  H94  1  0.976900  0.881900  0.463400  1.0  0.1309
  H  H95  1  0.800500  0.156700  0.647900  1.0  0.0958
  H  H96  1  0.864800  0.938300  0.338400  1.0  0.1223
  H  H97  1  0.456500  0.830700  0.960300  1.0  0.1311
  H  H98  1  0.855800  0.086600  0.603400  1.0  0.1262
  H  H99  1  0.543700  0.862600  0.155600  1.0  0.0855
  H  H100  1  0.132200  0.517600  0.005700  1.0  0.0757
  H  H101  1  0.555400  0.897200  0.010100  1.0  0.0802
  H  H102  1  0.650100  0.203700  0.499300  1.0  0.0836
  H  H103  1  0.648400  0.021400  0.236500  1.0  0.0802
  H  H104  1  0.338100  0.633500  0.106400  1.0  0.1266
  H  H105  1  0.979500  0.955700  0.614000  1.0  0.1301
  H  H106  1  0.322300  0.819600  0.843700  1.0  0.1269
  H  H107  1  0.697800  0.040600  0.334800  1.0  0.1206
  H  H108  1  0.076000  0.881900  0.660500  1.0  0.0795
  H  H109  1  0.176400  0.664700  0.831800  1.0  0.1262
  H  H110  1  0.131800  0.679800  0.733000  1.0  0.0794
  H  H111  1  0.273200  0.830000  0.745000  1.0  0.077
  H  H112  1  0.810900  0.923200  0.240500  1.0  0.0758
  H  H113  1  0.201100  0.366200  0.950700  1.0  0.1286
  H  H114  1  0.787200  0.942600  0.651500  1.0  0.0798
  H  H115  1  0.679700  0.911000  0.455100  1.0  0.1268
  H  H116  1  0.945200  0.709200  0.610100  1.0  0.1294
  H  H117  1  0.576600  0.684700  0.015200  1.0  0.077
  H  H118  1  0.476900  0.618100  0.963400  1.0  0.1313
  H  H119  1  0.300500  0.343300  0.147900  1.0  0.0954
  H  H120  1  0.364800  0.561700  0.838400  1.0  0.1231
  H  H121  1  0.956500  0.669300  0.460300  1.0  0.131
  H  H122  1  0.355800  0.413400  0.103400  1.0  0.1262
  H  H123  1  0.043700  0.637400  0.655600  1.0  0.0856
  H  H124  1  0.632200  0.982400  0.505700  1.0  0.0758
  H  H125  1  0.055400  0.602800  0.510100  1.0  0.0805
  H  H126  1  0.150100  0.296300  0.999300  1.0  0.084
  H  H127  1  0.148400  0.478600  0.736500  1.0  0.0805
  H  H128  1  0.838100  0.866500  0.606400  1.0  0.1267
  H  H129  1  0.479500  0.544300  0.114000  1.0  0.1302
  H  H130  1  0.822300  0.680400  0.343700  1.0  0.1267
  H  H131  1  0.197800  0.459400  0.834800  1.0  0.1207
  H  H132  1  0.576000  0.618100  0.160500  1.0  0.0794
  H  H133  1  0.676400  0.835300  0.331800  1.0  0.1264
  H  H134  1  0.631800  0.820200  0.233000  1.0  0.0795
  H  H135  1  0.773200  0.670000  0.245000  1.0  0.0769
  H  H136  1  0.310900  0.576800  0.740500  1.0  0.0755
  H  H137  1  0.701100  0.866200  0.950700  1.0  0.1286
  H  H138  1  0.287200  0.442600  0.651500  1.0  0.0798
  H  H139  1  0.179700  0.411000  0.455100  1.0  0.1268
  H  H140  1  0.445200  0.209200  0.610100  1.0  0.1294
  H  H141  1  0.076600  0.184700  0.015200  1.0  0.077
  H  H142  1  0.976900  0.118100  0.963400  1.0  0.1313
  H  H143  1  0.800500  0.843300  0.147900  1.0  0.0954
  H  H144  1  0.864800  0.061700  0.838400  1.0  0.1231
  H  H145  1  0.456500  0.169300  0.460300  1.0  0.131
  H  H146  1  0.855800  0.913400  0.103400  1.0  0.1262
  H  H147  1  0.543700  0.137400  0.655600  1.0  0.0856
  H  H148  1  0.132200  0.482400  0.505700  1.0  0.0758
  H  H149  1  0.555400  0.102800  0.510100  1.0  0.0805
  H  H150  1  0.650100  0.796300  0.999300  1.0  0.084
  H  H151  1  0.648400  0.978600  0.736500  1.0  0.0805
  H  H152  1  0.338100  0.366500  0.606400  1.0  0.1267
  H  H153  1  0.979500  0.044300  0.114000  1.0  0.1302
  H  H154  1  0.322300  0.180400  0.343700  1.0  0.1267
  H  H155  1  0.697800  0.959400  0.834800  1.0  0.1207
  H  H156  1  0.076000  0.118100  0.160500  1.0  0.0794
  H  H157  1  0.176400  0.335300  0.331800  1.0  0.1264
  H  H158  1  0.131800  0.320200  0.233000  1.0  0.0795
  H  H159  1  0.273200  0.170000  0.245000  1.0  0.0769
  H  H160  1  0.810900  0.076800  0.740500  1.0  0.0757
  H  H161  1  0.798900  0.366200  0.549300  1.0  0.1293
  H  H162  1  0.212800  0.942600  0.848500  1.0  0.0815
  H  H163  1  0.320300  0.911000  0.044900  1.0  0.126
  H  H164  1  0.054800  0.709200  0.889900  1.0  0.13
  H  H165  1  0.423400  0.684700  0.484800  1.0  0.0761
  H  H166  1  0.523100  0.618100  0.536600  1.0  0.1305
  H  H167  1  0.699500  0.343300  0.352100  1.0  0.0965
  H  H168  1  0.635200  0.561700  0.661600  1.0  0.1237
  H  H169  1  0.043500  0.669300  0.039700  1.0  0.1312
  H  H170  1  0.644200  0.413400  0.396600  1.0  0.1256
  H  H171  1  0.956300  0.637400  0.844400  1.0  0.0849
  H  H172  1  0.367800  0.982400  0.994300  1.0  0.0769
  H  H173  1  0.944600  0.602800  0.989900  1.0  0.0805
  H  H174  1  0.849900  0.296300  0.500700  1.0  0.0851
  H  H175  1  0.851600  0.478600  0.763500  1.0  0.0816
  H  H176  1  0.161900  0.866500  0.893600  1.0  0.1266
  H  H177  1  0.520500  0.544300  0.386000  1.0  0.1304
  H  H178  1  0.177700  0.680400  0.156300  1.0  0.1267
  H  H179  1  0.802200  0.459400  0.665200  1.0  0.1204
  H  H180  1  0.424000  0.618100  0.339500  1.0  0.0792
  H  H181  1  0.323600  0.835300  0.168200  1.0  0.1268
  H  H182  1  0.368200  0.820200  0.267000  1.0  0.0788
  H  H183  1  0.226800  0.670000  0.255000  1.0  0.0781
  H  H184  1  0.689100  0.576800  0.759500  1.0  0.0758
  H  H185  1  0.298900  0.866200  0.549300  1.0  0.1293
  H  H186  1  0.712800  0.442600  0.848500  1.0  0.0815
  H  H187  1  0.820300  0.411000  0.044900  1.0  0.126
  H  H188  1  0.554800  0.209200  0.889900  1.0  0.13
  H  H189  1  0.923400  0.184700  0.484800  1.0  0.0762
  H  H190  1  0.023100  0.118100  0.536600  1.0  0.1305
  H  H191  1  0.199500  0.843300  0.352100  1.0  0.0965
  H  H192  1  0.135200  0.061700  0.661600  1.0  0.1237
  H  H193  1  0.543500  0.169300  0.039700  1.0  0.1312
  H  H194  1  0.144200  0.913400  0.396600  1.0  0.1256
  H  H195  1  0.456300  0.137400  0.844400  1.0  0.0849
  H  H196  1  0.867800  0.482400  0.994300  1.0  0.0769
  H  H197  1  0.444600  0.102800  0.989900  1.0  0.0805
  H  H198  1  0.349900  0.796300  0.500700  1.0  0.0851
  H  H199  1  0.351600  0.978600  0.763500  1.0  0.0816
  H  H200  1  0.661900  0.366500  0.893600  1.0  0.1266
  H  H201  1  0.020500  0.044300  0.386000  1.0  0.1304
  H  H202  1  0.677700  0.180400  0.156300  1.0  0.1267
  H  H203  1  0.302200  0.959400  0.665200  1.0  0.1204
  H  H204  1  0.924000  0.118100  0.339500  1.0  0.0792
  H  H205  1  0.823600  0.335300  0.168200  1.0  0.1268
  H  H206  1  0.868200  0.320200  0.267000  1.0  0.0788
  H  H207  1  0.726800  0.170000  0.255000  1.0  0.0781
  H  H208  1  0.189100  0.076800  0.759500  1.0  0.0756
  C  C209  1  0.124000  0.257300  0.502500  1.0  0.3775
  C  C210  1  0.778000  0.637700  0.009300  1.0  -0.1372
  C  C211  1  0.597600  0.469700  0.000900  1.0  0.3861
  C  C212  1  0.234900  0.064700  0.388300  1.0  0.1725
  C  C213  1  0.297900  0.084400  0.504900  1.0  -0.1593
  C  C214  1  0.033300  0.312200  0.411100  1.0  -0.159
  C  C215  1  0.060000  0.302400  0.470100  1.0  -0.0807
  C  C216  1  0.443600  0.343100  0.964800  1.0  0.1715
  C  C217  1  0.503400  0.383500  0.996400  1.0  -0.1444
  C  C218  1  0.719700  0.652000  0.892200  1.0  0.1538
  C  C219  1  0.209900  0.227100  0.587600  1.0  0.3859
  C  C220  1  0.533200  0.426400  0.966900  1.0  -0.0749
  C  C221  1  0.679200  0.456200  0.181500  1.0  -0.131
  C  C222  1  0.243300  0.237700  0.651400  1.0  -0.0785
  C  C223  1  0.026200  0.335500  0.499800  1.0  -0.1741
  C  C224  1  0.682300  0.551900  0.006700  1.0  0.3498
  C  C225  1  0.680200  0.502000  0.088100  1.0  0.3739
  C  C226  1  0.715400  0.601400  0.977500  1.0  -0.0644
  C  C227  1  0.686100  0.609400  0.918600  1.0  -0.1367
  C  C228  1  0.973600  0.354700  0.384200  1.0  0.1773
  C  C229  1  0.325700  0.040800  0.474000  1.0  0.1773
  C  C230  1  0.967000  0.375500  0.469500  1.0  0.1722
  C  C231  1  0.808300  0.679600  0.979600  1.0  0.166
  C  C232  1  0.205600  0.172400  0.505200  1.0  0.3965
  C  C233  1  0.235800  0.120900  0.474600  1.0  -0.1167
  C  C234  1  0.807300  0.504900  0.242700  1.0  0.1736
  C  C235  1  0.203700  0.110300  0.415000  1.0  -0.1477
  C  C236  1  0.502300  0.426700  0.907100  1.0  -0.1488
  C  C237  1  0.712300  0.492400  0.151900  1.0  -0.0672
  C  C238  1  0.215800  0.289300  0.678100  1.0  -0.1666
  C  C239  1  0.778100  0.516800  0.183400  1.0  -0.1716
  C  C240  1  0.443800  0.383000  0.879700  1.0  0.1824
  C  C241  1  0.302300  0.197400  0.685000  1.0  -0.1589
  C  C242  1  0.328700  0.207200  0.744300  1.0  0.1838
  C  C243  1  0.245800  0.295300  0.737400  1.0  0.1796
  C  C244  1  0.712100  0.447100  0.240300  1.0  0.1758
  C  C245  1  0.624000  0.757300  0.502500  1.0  0.3775
  C  C246  1  0.278000  0.137700  0.009300  1.0  -0.1372
  C  C247  1  0.097600  0.969700  0.000900  1.0  0.3861
  C  C248  1  0.734900  0.564700  0.388300  1.0  0.1725
  C  C249  1  0.797900  0.584400  0.504900  1.0  -0.1593
  C  C250  1  0.533300  0.812200  0.411100  1.0  -0.159
  C  C251  1  0.560000  0.802400  0.470100  1.0  -0.0807
  C  C252  1  0.943600  0.843100  0.964800  1.0  0.1715
  C  C253  1  0.003400  0.883500  0.996400  1.0  -0.1444
  C  C254  1  0.219700  0.152000  0.892200  1.0  0.1538
  C  C255  1  0.709900  0.727100  0.587600  1.0  0.3859
  C  C256  1  0.033200  0.926400  0.966900  1.0  -0.0749
  C  C257  1  0.179200  0.956200  0.181500  1.0  -0.131
  C  C258  1  0.743300  0.737700  0.651400  1.0  -0.0785
  C  C259  1  0.526200  0.835500  0.499800  1.0  -0.1741
  C  C260  1  0.182300  0.051900  0.006700  1.0  0.3498
  C  C261  1  0.180200  0.002000  0.088100  1.0  0.3739
  C  C262  1  0.215400  0.101400  0.977500  1.0  -0.0644
  C  C263  1  0.186100  0.109400  0.918600  1.0  -0.1367
  C  C264  1  0.473600  0.854700  0.384200  1.0  0.1773
  C  C265  1  0.825700  0.540800  0.474000  1.0  0.1773
  C  C266  1  0.467000  0.875500  0.469500  1.0  0.1722
  C  C267  1  0.308300  0.179600  0.979600  1.0  0.166
  C  C268  1  0.705600  0.672400  0.505200  1.0  0.3965
  C  C269  1  0.735800  0.620900  0.474600  1.0  -0.1167
  C  C270  1  0.307300  0.004900  0.242700  1.0  0.1736
  C  C271  1  0.703700  0.610300  0.415000  1.0  -0.1477
  C  C272  1  0.002300  0.926700  0.907100  1.0  -0.1488
  C  C273  1  0.212300  0.992400  0.151900  1.0  -0.0672
  C  C274  1  0.715800  0.789300  0.678100  1.0  -0.1666
  C  C275  1  0.278100  0.016800  0.183400  1.0  -0.1716
  C  C276  1  0.943800  0.883000  0.879700  1.0  0.1824
  C  C277  1  0.802300  0.697400  0.685000  1.0  -0.1589
  C  C278  1  0.828700  0.707200  0.744300  1.0  0.1838
  C  C279  1  0.745800  0.795300  0.737400  1.0  0.1796
  C  C280  1  0.212100  0.947100  0.240300  1.0  0.1758
  C  C281  1  0.876000  0.257300  0.997500  1.0  0.3772
  C  C282  1  0.222000  0.637700  0.490700  1.0  -0.1376
  C  C283  1  0.402400  0.469700  0.499100  1.0  0.3849
  C  C284  1  0.765100  0.064700  0.111700  1.0  0.1714
  C  C285  1  0.702100  0.084400  0.995100  1.0  -0.157
  C  C286  1  0.966700  0.312200  0.088900  1.0  -0.1606
  C  C287  1  0.940000  0.302400  0.029900  1.0  -0.0799
  C  C288  1  0.556400  0.343100  0.535200  1.0  0.1719
  C  C289  1  0.496600  0.383500  0.503600  1.0  -0.1456
  C  C290  1  0.280300  0.652000  0.607800  1.0  0.1536
  C  C291  1  0.790100  0.227100  0.912400  1.0  0.3853
  C  C292  1  0.466800  0.426400  0.533100  1.0  -0.0762
  C  C293  1  0.320800  0.456200  0.318500  1.0  -0.1337
  C  C294  1  0.756700  0.237700  0.848600  1.0  -0.0786
  C  C295  1  0.973800  0.335500  0.000200  1.0  -0.174
  C  C296  1  0.317700  0.551900  0.493300  1.0  0.3506
  C  C297  1  0.319800  0.502000  0.411900  1.0  0.3743
  C  C298  1  0.284600  0.601400  0.522500  1.0  -0.0626
  C  C299  1  0.313900  0.609400  0.581400  1.0  -0.1354
  C  C300  1  0.026400  0.354700  0.115800  1.0  0.1766
  C  C301  1  0.674300  0.040800  0.026000  1.0  0.1779
  C  C302  1  0.033000  0.375500  0.030500  1.0  0.1729
  C  C303  1  0.191700  0.679600  0.520400  1.0  0.165
  C  C304  1  0.794400  0.172400  0.994800  1.0  0.3964
  C  C305  1  0.764200  0.120900  0.025400  1.0  -0.1163
  C  C306  1  0.192700  0.504900  0.257300  1.0  0.1729
  C  C307  1  0.796300  0.110300  0.085000  1.0  -0.1488
  C  C308  1  0.497700  0.426700  0.592900  1.0  -0.1503
  C  C309  1  0.287700  0.492400  0.348100  1.0  -0.0672
  C  C310  1  0.784200  0.289300  0.821900  1.0  -0.1663
  C  C311  1  0.221900  0.516800  0.316600  1.0  -0.1709
  C  C312  1  0.556200  0.383000  0.620300  1.0  0.1826
  C  C313  1  0.697700  0.197400  0.815000  1.0  -0.1573
  C  C314  1  0.671300  0.207200  0.755700  1.0  0.1834
  C  C315  1  0.754200  0.295300  0.762600  1.0  0.1786
  C  C316  1  0.287900  0.447100  0.259700  1.0  0.1765
  C  C317  1  0.376000  0.757300  0.997500  1.0  0.3772
  C  C318  1  0.722000  0.137700  0.490700  1.0  -0.1376
  C  C319  1  0.902400  0.969700  0.499100  1.0  0.3849
  C  C320  1  0.265100  0.564700  0.111700  1.0  0.1714
  C  C321  1  0.202100  0.584400  0.995100  1.0  -0.157
  C  C322  1  0.466700  0.812200  0.088900  1.0  -0.1606
  C  C323  1  0.440000  0.802400  0.029900  1.0  -0.0799
  C  C324  1  0.056400  0.843100  0.535200  1.0  0.1719
  C  C325  1  0.996600  0.883500  0.503600  1.0  -0.1456
  C  C326  1  0.780300  0.152000  0.607800  1.0  0.1536
  C  C327  1  0.290100  0.727100  0.912400  1.0  0.3853
  C  C328  1  0.966800  0.926400  0.533100  1.0  -0.0762
  C  C329  1  0.820800  0.956200  0.318500  1.0  -0.1337
  C  C330  1  0.256700  0.737700  0.848600  1.0  -0.0786
  C  C331  1  0.473800  0.835500  0.000200  1.0  -0.174
  C  C332  1  0.817700  0.051900  0.493300  1.0  0.3506
  C  C333  1  0.819800  0.002000  0.411900  1.0  0.3743
  C  C334  1  0.784600  0.101400  0.522500  1.0  -0.0626
  C  C335  1  0.813900  0.109400  0.581400  1.0  -0.1354
  C  C336  1  0.526400  0.854700  0.115800  1.0  0.1766
  C  C337  1  0.174300  0.540800  0.026000  1.0  0.1779
  C  C338  1  0.533000  0.875500  0.030500  1.0  0.1729
  C  C339  1  0.691700  0.179600  0.520400  1.0  0.165
  C  C340  1  0.294400  0.672400  0.994800  1.0  0.3964
  C  C341  1  0.264200  0.620900  0.025400  1.0  -0.1163
  C  C342  1  0.692700  0.004900  0.257300  1.0  0.1729
  C  C343  1  0.296300  0.610300  0.085000  1.0  -0.1488
  C  C344  1  0.997700  0.926700  0.592900  1.0  -0.1503
  C  C345  1  0.787700  0.992400  0.348100  1.0  -0.0672
  C  C346  1  0.284200  0.789300  0.821900  1.0  -0.1663
  C  C347  1  0.721900  0.016800  0.316600  1.0  -0.1709
  C  C348  1  0.056200  0.883000  0.620300  1.0  0.1826
  C  C349  1  0.197700  0.697400  0.815000  1.0  -0.1573
  C  C350  1  0.171300  0.707200  0.755700  1.0  0.1834
  C  C351  1  0.254200  0.795300  0.762600  1.0  0.1786
  C  C352  1  0.787900  0.947100  0.259700  1.0  0.1765
  C  C353  1  0.876000  0.742700  0.497500  1.0  0.3773
  C  C354  1  0.222000  0.362300  0.990700  1.0  -0.137
  C  C355  1  0.402400  0.530300  0.999100  1.0  0.3848
  C  C356  1  0.765100  0.935300  0.611700  1.0  0.1709
  C  C357  1  0.702100  0.915600  0.495100  1.0  -0.1574
  C  C358  1  0.966700  0.687800  0.588900  1.0  -0.1601
  C  C359  1  0.940000  0.697600  0.529900  1.0  -0.0808
  C  C360  1  0.556400  0.656900  0.035200  1.0  0.1719
  C  C361  1  0.496600  0.616500  0.003600  1.0  -0.1459
  C  C362  1  0.280300  0.348000  0.107800  1.0  0.1538
  C  C363  1  0.790100  0.772900  0.412400  1.0  0.3855
  C  C364  1  0.466800  0.573600  0.033100  1.0  -0.0764
  C  C365  1  0.320800  0.543800  0.818500  1.0  -0.1339
  C  C366  1  0.756700  0.762300  0.348600  1.0  -0.0782
  C  C367  1  0.973800  0.664500  0.500200  1.0  -0.1735
  C  C368  1  0.317700  0.448100  0.993300  1.0  0.3508
  C  C369  1  0.319800  0.498000  0.911900  1.0  0.3742
  C  C370  1  0.284600  0.398600  0.022500  1.0  -0.0629
  C  C371  1  0.313900  0.390600  0.081400  1.0  -0.1361
  C  C372  1  0.026400  0.645300  0.615800  1.0  0.1774
  C  C373  1  0.674300  0.959200  0.526000  1.0  0.1768
  C  C374  1  0.033000  0.624500  0.530500  1.0  0.1717
  C  C375  1  0.191700  0.320400  0.020400  1.0  0.1661
  C  C376  1  0.794400  0.827600  0.494800  1.0  0.3963
  C  C377  1  0.764200  0.879100  0.525400  1.0  -0.1167
  C  C378  1  0.192700  0.495100  0.757300  1.0  0.173
  C  C379  1  0.796300  0.889700  0.585000  1.0  -0.1493
  C  C380  1  0.497700  0.573300  0.092900  1.0  -0.1504
  C  C381  1  0.287700  0.507600  0.848100  1.0  -0.0667
  C  C382  1  0.784200  0.710700  0.321900  1.0  -0.1662
  C  C383  1  0.221900  0.483200  0.816600  1.0  -0.1699
  C  C384  1  0.556200  0.617000  0.120300  1.0  0.1825
  C  C385  1  0.697700  0.802600  0.315000  1.0  -0.1573
  C  C386  1  0.671300  0.792800  0.255700  1.0  0.184
  C  C387  1  0.754200  0.704700  0.262600  1.0  0.1789
  C  C388  1  0.287900  0.552900  0.759700  1.0  0.1766
  C  C389  1  0.376000  0.242700  0.497500  1.0  0.3773
  C  C390  1  0.722000  0.862300  0.990700  1.0  -0.137
  C  C391  1  0.902400  0.030300  0.999100  1.0  0.3848
  C  C392  1  0.265100  0.435300  0.611700  1.0  0.1709
  C  C393  1  0.202100  0.415600  0.495100  1.0  -0.1574
  C  C394  1  0.466700  0.187800  0.588900  1.0  -0.1601
  C  C395  1  0.440000  0.197600  0.529900  1.0  -0.0808
  C  C396  1  0.056400  0.156900  0.035200  1.0  0.1719
  C  C397  1  0.996600  0.116500  0.003600  1.0  -0.1459
  C  C398  1  0.780300  0.848000  0.107800  1.0  0.1538
  C  C399  1  0.290100  0.272900  0.412400  1.0  0.3855
  C  C400  1  0.966800  0.073600  0.033100  1.0  -0.0764
  C  C401  1  0.820800  0.043800  0.818500  1.0  -0.1339
  C  C402  1  0.256700  0.262300  0.348600  1.0  -0.0782
  C  C403  1  0.473800  0.164500  0.500200  1.0  -0.1735
  C  C404  1  0.817700  0.948100  0.993300  1.0  0.3508
  C  C405  1  0.819800  0.998000  0.911900  1.0  0.3742
  C  C406  1  0.784600  0.898600  0.022500  1.0  -0.0629
  C  C407  1  0.813900  0.890600  0.081400  1.0  -0.1361
  C  C408  1  0.526400  0.145300  0.615800  1.0  0.1774
  C  C409  1  0.174300  0.459200  0.526000  1.0  0.1768
  C  C410  1  0.533000  0.124500  0.530500  1.0  0.1717
  C  C411  1  0.691700  0.820400  0.020400  1.0  0.1661
  C  C412  1  0.294400  0.327600  0.494800  1.0  0.3963
  C  C413  1  0.264200  0.379100  0.525400  1.0  -0.1167
  C  C414  1  0.692700  0.995100  0.757300  1.0  0.173
  C  C415  1  0.296300  0.389700  0.585000  1.0  -0.1493
  C  C416  1  0.997700  0.073300  0.092900  1.0  -0.1504
  C  C417  1  0.787700  0.007600  0.848100  1.0  -0.0667
  C  C418  1  0.284200  0.210700  0.321900  1.0  -0.1662
  C  C419  1  0.721900  0.983200  0.816600  1.0  -0.1699
  C  C420  1  0.056200  0.117000  0.120300  1.0  0.1825
  C  C421  1  0.197700  0.302600  0.315000  1.0  -0.1573
  C  C422  1  0.171300  0.292800  0.255700  1.0  0.184
  C  C423  1  0.254200  0.204700  0.262600  1.0  0.1789
  C  C424  1  0.787900  0.052900  0.759700  1.0  0.1766
  C  C425  1  0.124000  0.742700  0.002500  1.0  0.3779
  C  C426  1  0.778000  0.362300  0.509300  1.0  -0.1375
  C  C427  1  0.597600  0.530300  0.500900  1.0  0.3861
  C  C428  1  0.234900  0.935300  0.888300  1.0  0.1721
  C  C429  1  0.297900  0.915600  0.004900  1.0  -0.159
  C  C430  1  0.033300  0.687800  0.911100  1.0  -0.1588
  C  C431  1  0.060000  0.697600  0.970100  1.0  -0.0808
  C  C432  1  0.443600  0.656900  0.464800  1.0  0.1712
  C  C433  1  0.503400  0.616500  0.496400  1.0  -0.1448
  C  C434  1  0.719700  0.348000  0.392200  1.0  0.1535
  C  C435  1  0.209900  0.772900  0.087600  1.0  0.3861
  C  C436  1  0.533200  0.573600  0.466900  1.0  -0.0757
  C  C437  1  0.679200  0.543800  0.681500  1.0  -0.131
  C  C438  1  0.243300  0.762300  0.151400  1.0  -0.0782
  C  C439  1  0.026200  0.664500  0.999800  1.0  -0.1733
  C  C440  1  0.682300  0.448100  0.506700  1.0  0.3501
  C  C441  1  0.680200  0.498000  0.588100  1.0  0.374
  C  C442  1  0.715400  0.398600  0.477500  1.0  -0.0648
  C  C443  1  0.686100  0.390600  0.418600  1.0  -0.1377
  C  C444  1  0.973600  0.645300  0.884200  1.0  0.1769
  C  C445  1  0.325700  0.959200  0.974000  1.0  0.1766
  C  C446  1  0.967000  0.624500  0.969500  1.0  0.1727
  C  C447  1  0.808300  0.320400  0.479600  1.0  0.1668
  C  C448  1  0.205600  0.827600  0.005200  1.0  0.3964
  C  C449  1  0.235800  0.879100  0.974600  1.0  -0.117
  C  C450  1  0.807300  0.495100  0.742700  1.0  0.1734
  C  C451  1  0.203700  0.889700  0.915000  1.0  -0.1473
  C  C452  1  0.502300  0.573300  0.407100  1.0  -0.1491
  C  C453  1  0.712300  0.507600  0.651900  1.0  -0.0671
  C  C454  1  0.215800  0.710700  0.178100  1.0  -0.1665
  C  C455  1  0.778100  0.483200  0.683400  1.0  -0.1711
  C  C456  1  0.443800  0.617000  0.379700  1.0  0.1826
  C  C457  1  0.302300  0.802600  0.185000  1.0  -0.1587
  C  C458  1  0.328700  0.792800  0.244300  1.0  0.1844
  C  C459  1  0.245800  0.704700  0.237400  1.0  0.1795
  C  C460  1  0.712100  0.552900  0.740300  1.0  0.1761
  C  C461  1  0.624000  0.242700  0.002500  1.0  0.3779
  C  C462  1  0.278000  0.862300  0.509300  1.0  -0.1375
  C  C463  1  0.097600  0.030300  0.500900  1.0  0.3861
  C  C464  1  0.734900  0.435300  0.888300  1.0  0.1721
  C  C465  1  0.797900  0.415600  0.004900  1.0  -0.159
  C  C466  1  0.533300  0.187800  0.911100  1.0  -0.1588
  C  C467  1  0.560000  0.197600  0.970100  1.0  -0.0808
  C  C468  1  0.943600  0.156900  0.464800  1.0  0.1712
  C  C469  1  0.003400  0.116500  0.496400  1.0  -0.1448
  C  C470  1  0.219700  0.848000  0.392200  1.0  0.1535
  C  C471  1  0.709900  0.272900  0.087600  1.0  0.3861
  C  C472  1  0.033200  0.073600  0.466900  1.0  -0.0757
  C  C473  1  0.179200  0.043800  0.681500  1.0  -0.131
  C  C474  1  0.743300  0.262300  0.151400  1.0  -0.0782
  C  C475  1  0.526200  0.164500  0.999800  1.0  -0.1733
  C  C476  1  0.182300  0.948100  0.506700  1.0  0.3501
  C  C477  1  0.180200  0.998000  0.588100  1.0  0.374
  C  C478  1  0.215400  0.898600  0.477500  1.0  -0.0648
  C  C479  1  0.186100  0.890600  0.418600  1.0  -0.1377
  C  C480  1  0.473600  0.145300  0.884200  1.0  0.1769
  C  C481  1  0.825700  0.459200  0.974000  1.0  0.1766
  C  C482  1  0.467000  0.124500  0.969500  1.0  0.1727
  C  C483  1  0.308300  0.820400  0.479600  1.0  0.1668
  C  C484  1  0.705600  0.327600  0.005200  1.0  0.3964
  C  C485  1  0.735800  0.379100  0.974600  1.0  -0.117
  C  C486  1  0.307300  0.995100  0.742700  1.0  0.1734
  C  C487  1  0.703700  0.389700  0.915000  1.0  -0.1473
  C  C488  1  0.002300  0.073300  0.407100  1.0  -0.1491
  C  C489  1  0.212300  0.007600  0.651900  1.0  -0.0671
  C  C490  1  0.715800  0.210700  0.178100  1.0  -0.1665
  C  C491  1  0.278100  0.983200  0.683400  1.0  -0.1711
  C  C492  1  0.943800  0.117000  0.379700  1.0  0.1826
  C  C493  1  0.802300  0.302600  0.185000  1.0  -0.1587
  C  C494  1  0.828700  0.292800  0.244300  1.0  0.1844
  C  C495  1  0.745800  0.204700  0.237400  1.0  0.1795
  C  C496  1  0.212100  0.052900  0.740300  1.0  0.1761
  N  N497  1  0.939510  0.385100  0.412090  1.0  -0.3209
  N  N498  1  0.295480  0.030300  0.416700  1.0  -0.3642
  N  N499  1  0.300700  0.253700  0.771000  1.0  -0.3397
  N  N500  1  0.153240  0.267800  0.559390  1.0  -0.519
  N  N501  1  0.147860  0.210200  0.472420  1.0  -0.5354
  N  N502  1  0.238240  0.178000  0.562820  1.0  -0.5334
  N  N503  1  0.413560  0.342100  0.907280  1.0  -0.356
  N  N504  1  0.780300  0.687000  0.921640  1.0  -0.3311
  N  N505  1  0.775900  0.471200  0.271690  1.0  -0.3653
  N  N506  1  0.622760  0.462600  0.058610  1.0  -0.5048
  N  N507  1  0.626210  0.511400  0.973000  1.0  -0.4963
  N  N508  1  0.711590  0.549600  0.064750  1.0  -0.5003
  N  N509  1  0.439510  0.885100  0.412090  1.0  -0.3209
  N  N510  1  0.795480  0.530300  0.416700  1.0  -0.3642
  N  N511  1  0.800700  0.753700  0.771000  1.0  -0.3397
  N  N512  1  0.653240  0.767800  0.559390  1.0  -0.519
  N  N513  1  0.647860  0.710200  0.472420  1.0  -0.5354
  N  N514  1  0.738240  0.678000  0.562820  1.0  -0.5334
  N  N515  1  0.913560  0.842100  0.907280  1.0  -0.356
  N  N516  1  0.280300  0.187000  0.921640  1.0  -0.3311
  N  N517  1  0.275900  0.971200  0.271690  1.0  -0.3653
  N  N518  1  0.122760  0.962600  0.058610  1.0  -0.5048
  N  N519  1  0.126210  0.011400  0.973000  1.0  -0.4963
  N  N520  1  0.211590  0.049600  0.064750  1.0  -0.5003
  N  N521  1  0.060490  0.385100  0.087910  1.0  -0.3216
  N  N522  1  0.704520  0.030300  0.083300  1.0  -0.3641
  N  N523  1  0.699300  0.253700  0.729000  1.0  -0.3427
  N  N524  1  0.846760  0.267800  0.940610  1.0  -0.5141
  N  N525  1  0.852140  0.210200  0.027580  1.0  -0.5373
  N  N526  1  0.761760  0.178000  0.937180  1.0  -0.5348
  N  N527  1  0.586440  0.342100  0.592720  1.0  -0.352
  N  N528  1  0.219700  0.687000  0.578360  1.0  -0.3321
  N  N529  1  0.224100  0.471200  0.228310  1.0  -0.3648
  N  N530  1  0.377240  0.462600  0.441390  1.0  -0.5045
  N  N531  1  0.373790  0.511400  0.527000  1.0  -0.4952
  N  N532  1  0.288410  0.549600  0.435250  1.0  -0.5004
  N  N533  1  0.560490  0.885100  0.087910  1.0  -0.3216
  N  N534  1  0.204520  0.530300  0.083300  1.0  -0.3641
  N  N535  1  0.199300  0.753700  0.729000  1.0  -0.3427
  N  N536  1  0.346760  0.767800  0.940610  1.0  -0.5141
  N  N537  1  0.352140  0.710200  0.027580  1.0  -0.5373
  N  N538  1  0.261760  0.678000  0.937180  1.0  -0.5348
  N  N539  1  0.086440  0.842100  0.592720  1.0  -0.352
  N  N540  1  0.719700  0.187000  0.578360  1.0  -0.3321
  N  N541  1  0.724100  0.971200  0.228310  1.0  -0.3648
  N  N542  1  0.877240  0.962600  0.441390  1.0  -0.5045
  N  N543  1  0.873790  0.011400  0.527000  1.0  -0.4952
  N  N544  1  0.788410  0.049600  0.435250  1.0  -0.5004
  N  N545  1  0.060490  0.614900  0.587910  1.0  -0.321
  N  N546  1  0.704520  0.969700  0.583300  1.0  -0.3655
  N  N547  1  0.699300  0.746300  0.229000  1.0  -0.3431
  N  N548  1  0.846760  0.732200  0.440610  1.0  -0.5158
  N  N549  1  0.852140  0.789800  0.527580  1.0  -0.5372
  N  N550  1  0.761760  0.822000  0.437180  1.0  -0.5337
  N  N551  1  0.586440  0.657900  0.092720  1.0  -0.3541
  N  N552  1  0.219700  0.313000  0.078360  1.0  -0.3327
  N  N553  1  0.224100  0.528800  0.728310  1.0  -0.3646
  N  N554  1  0.377240  0.537400  0.941390  1.0  -0.5048
  N  N555  1  0.373790  0.488600  0.027000  1.0  -0.4932
  N  N556  1  0.288410  0.450400  0.935250  1.0  -0.502
  N  N557  1  0.560490  0.114900  0.587910  1.0  -0.321
  N  N558  1  0.204520  0.469700  0.583300  1.0  -0.3655
  N  N559  1  0.199300  0.246300  0.229000  1.0  -0.3431
  N  N560  1  0.346760  0.232200  0.440610  1.0  -0.5158
  N  N561  1  0.352140  0.289800  0.527580  1.0  -0.5372
  N  N562  1  0.261760  0.322000  0.437180  1.0  -0.5337
  N  N563  1  0.086440  0.157900  0.092720  1.0  -0.3541
  N  N564  1  0.719700  0.813000  0.078360  1.0  -0.3327
  N  N565  1  0.724100  0.028800  0.728310  1.0  -0.3646
  N  N566  1  0.877240  0.037400  0.941390  1.0  -0.5048
  N  N567  1  0.873790  0.988600  0.027000  1.0  -0.4932
  N  N568  1  0.788410  0.950400  0.935250  1.0  -0.502
  N  N569  1  0.939510  0.614900  0.912090  1.0  -0.3243
  N  N570  1  0.295480  0.969700  0.916700  1.0  -0.3632
  N  N571  1  0.300700  0.746300  0.271000  1.0  -0.3394
  N  N572  1  0.153240  0.732200  0.059390  1.0  -0.5192
  N  N573  1  0.147860  0.789800  0.972420  1.0  -0.535
  N  N574  1  0.238240  0.822000  0.062820  1.0  -0.5334
  N  N575  1  0.413560  0.657900  0.407280  1.0  -0.3553
  N  N576  1  0.780300  0.313000  0.421640  1.0  -0.3336
  N  N577  1  0.775900  0.528800  0.771690  1.0  -0.3656
  N  N578  1  0.622760  0.537400  0.558610  1.0  -0.5058
  N  N579  1  0.626210  0.488600  0.473000  1.0  -0.4959
  N  N580  1  0.711590  0.450400  0.564750  1.0  -0.5
  N  N581  1  0.439510  0.114900  0.912090  1.0  -0.3243
  N  N582  1  0.795480  0.469700  0.916700  1.0  -0.3632
  N  N583  1  0.800700  0.246300  0.271000  1.0  -0.3394
  N  N584  1  0.653240  0.232200  0.059390  1.0  -0.5192
  N  N585  1  0.647860  0.289800  0.972420  1.0  -0.535
  N  N586  1  0.738240  0.322000  0.062820  1.0  -0.5334
  N  N587  1  0.913560  0.157900  0.407280  1.0  -0.3553
  N  N588  1  0.280300  0.813000  0.421640  1.0  -0.3336
  N  N589  1  0.275900  0.028800  0.771690  1.0  -0.3656
  N  N590  1  0.122760  0.037400  0.558610  1.0  -0.5058
  N  N591  1  0.126210  0.988600  0.473000  1.0  -0.4959
  N  N592  1  0.211590  0.950400  0.564750  1.0  -0.5
