# generated using pymatgen
data_AgH12(C3N)6
_symmetry_space_group_name_H-M   'P 1'
_cell_length_a   21.98670000
_cell_length_b   16.59160000
_cell_length_c   25.55200000
_cell_angle_alpha   90.00000000
_cell_angle_beta   115.20300000
_cell_angle_gamma   90.00000000
_symmetry_Int_Tables_number   1
_chemical_formula_structural   AgH12(C3N)6
_chemical_formula_sum   'Ag16 H192 C288 N96'
_cell_volume   8433.89313597
_cell_formula_units_Z   16
loop_
 _symmetry_equiv_pos_site_id
 _symmetry_equiv_pos_as_xyz
  1  'x, y, z'
loop_
 _atom_site_type_symbol
 _atom_site_label
 _atom_site_symmetry_multiplicity
 _atom_site_fract_x
 _atom_site_fract_y
 _atom_site_fract_z
 _atom_site_occupancy
 _atom_site_charge
  Ag  Ag1  1  0.844270  0.457090  0.367250  1.0  0.3334
  Ag  Ag2  1  0.822210  0.755080  0.866740  1.0  0.2979
  Ag  Ag3  1  0.344270  0.957090  0.367250  1.0  0.3334
  Ag  Ag4  1  0.322210  0.255080  0.866740  1.0  0.2979
  Ag  Ag5  1  0.155730  0.457090  0.132750  1.0  0.3332
  Ag  Ag6  1  0.177790  0.755080  0.633260  1.0  0.2976
  Ag  Ag7  1  0.655730  0.957090  0.132750  1.0  0.3332
  Ag  Ag8  1  0.677790  0.255080  0.633260  1.0  0.2976
  Ag  Ag9  1  0.155730  0.542910  0.632750  1.0  0.3329
  Ag  Ag10  1  0.177790  0.244920  0.133260  1.0  0.2975
  Ag  Ag11  1  0.655730  0.042910  0.632750  1.0  0.3329
  Ag  Ag12  1  0.677790  0.744920  0.133260  1.0  0.2975
  Ag  Ag13  1  0.844270  0.542910  0.867250  1.0  0.3331
  Ag  Ag14  1  0.822210  0.244920  0.366740  1.0  0.2978
  Ag  Ag15  1  0.344270  0.042910  0.867250  1.0  0.3331
  Ag  Ag16  1  0.322210  0.744920  0.366740  1.0  0.2978
  H  H17  1  0.297900  0.135000  0.048500  1.0  0.1208
  H  H18  1  0.023700  0.883100  0.035300  1.0  0.1281
  H  H19  1  0.819400  0.587500  0.544000  1.0  0.1217
  H  H20  1  0.554500  0.789800  0.388800  1.0  0.1111
  H  H21  1  0.924100  0.816200  0.983700  1.0  0.0783
  H  H22  1  0.200400  0.158100  0.851100  1.0  0.0847
  H  H23  1  0.134900  0.938100  0.159600  1.0  0.1205
  H  H24  1  0.714300  0.558500  0.347800  1.0  0.0727
  H  H25  1  0.542900  0.830800  0.538100  1.0  0.1278
  H  H26  1  0.661800  0.631800  0.392300  1.0  0.1247
  H  H27  1  0.144200  0.087800  0.894700  1.0  0.1155
  H  H28  1  0.455900  0.860300  0.343000  1.0  0.0793
  H  H29  1  0.444800  0.896800  0.488400  1.0  0.0738
  H  H30  1  0.867600  0.518400  0.493900  1.0  0.0725
  H  H31  1  0.348700  0.205400  0.999300  1.0  0.0773
  H  H32  1  0.019700  0.957700  0.884600  1.0  0.1235
  H  H33  1  0.351100  0.021600  0.262600  1.0  0.081
  H  H34  1  0.675800  0.817200  0.655000  1.0  0.1248
  H  H35  1  0.924800  0.881700  0.837900  1.0  0.0735
  H  H36  1  0.188500  0.922200  0.258100  1.0  0.0782
  H  H37  1  0.301800  0.040900  0.164300  1.0  0.1216
  H  H38  1  0.726500  0.828700  0.753600  1.0  0.0694
  H  H39  1  0.867300  0.680800  0.765900  1.0  0.0786
  H  H40  1  0.824400  0.667800  0.667500  1.0  0.1188
  H  H41  1  0.797900  0.635000  0.048500  1.0  0.1208
  H  H42  1  0.523700  0.383100  0.035300  1.0  0.1281
  H  H43  1  0.319400  0.087500  0.544000  1.0  0.1217
  H  H44  1  0.054500  0.289800  0.388800  1.0  0.1111
  H  H45  1  0.424100  0.316200  0.983700  1.0  0.0783
  H  H46  1  0.700400  0.658100  0.851100  1.0  0.0847
  H  H47  1  0.634900  0.438100  0.159600  1.0  0.1205
  H  H48  1  0.214300  0.058500  0.347800  1.0  0.0727
  H  H49  1  0.042900  0.330800  0.538100  1.0  0.1278
  H  H50  1  0.161800  0.131800  0.392300  1.0  0.1247
  H  H51  1  0.644200  0.587800  0.894700  1.0  0.1155
  H  H52  1  0.955900  0.360300  0.343000  1.0  0.0793
  H  H53  1  0.944800  0.396800  0.488400  1.0  0.0738
  H  H54  1  0.367600  0.018400  0.493900  1.0  0.0725
  H  H55  1  0.848700  0.705400  0.999300  1.0  0.0773
  H  H56  1  0.519700  0.457700  0.884600  1.0  0.1235
  H  H57  1  0.851100  0.521600  0.262600  1.0  0.081
  H  H58  1  0.175800  0.317200  0.655000  1.0  0.1248
  H  H59  1  0.424800  0.381700  0.837900  1.0  0.0735
  H  H60  1  0.688500  0.422200  0.258100  1.0  0.0781
  H  H61  1  0.801800  0.540900  0.164300  1.0  0.1216
  H  H62  1  0.226500  0.328700  0.753600  1.0  0.0694
  H  H63  1  0.367300  0.180800  0.765900  1.0  0.0786
  H  H64  1  0.324400  0.167800  0.667500  1.0  0.1188
  H  H65  1  0.702100  0.135000  0.451500  1.0  0.1206
  H  H66  1  0.976300  0.883100  0.464700  1.0  0.1294
  H  H67  1  0.180600  0.587500  0.956000  1.0  0.1219
  H  H68  1  0.445500  0.789800  0.111200  1.0  0.1107
  H  H69  1  0.075900  0.816200  0.516300  1.0  0.0786
  H  H70  1  0.799600  0.158100  0.648900  1.0  0.0843
  H  H71  1  0.865100  0.938100  0.340400  1.0  0.1201
  H  H72  1  0.285700  0.558500  0.152200  1.0  0.0716
  H  H73  1  0.457100  0.830800  0.961900  1.0  0.128
  H  H74  1  0.338200  0.631800  0.107700  1.0  0.1251
  H  H75  1  0.855800  0.087800  0.605300  1.0  0.1159
  H  H76  1  0.544100  0.860300  0.157000  1.0  0.0793
  H  H77  1  0.555200  0.896800  0.011600  1.0  0.0734
  H  H78  1  0.132400  0.518400  0.006100  1.0  0.0721
  H  H79  1  0.651300  0.205400  0.500700  1.0  0.0766
  H  H80  1  0.980300  0.957700  0.615400  1.0  0.1229
  H  H81  1  0.648900  0.021600  0.237400  1.0  0.0826
  H  H82  1  0.324200  0.817200  0.845000  1.0  0.125
  H  H83  1  0.075200  0.881700  0.662100  1.0  0.0735
  H  H84  1  0.811500  0.922200  0.241900  1.0  0.0777
  H  H85  1  0.698200  0.040900  0.335700  1.0  0.1214
  H  H86  1  0.273500  0.828700  0.746400  1.0  0.0691
  H  H87  1  0.132700  0.680800  0.734100  1.0  0.0791
  H  H88  1  0.175600  0.667800  0.832500  1.0  0.1184
  H  H89  1  0.202100  0.635000  0.451500  1.0  0.1206
  H  H90  1  0.476300  0.383100  0.464700  1.0  0.1294
  H  H91  1  0.680600  0.087500  0.956000  1.0  0.1219
  H  H92  1  0.945500  0.289800  0.111200  1.0  0.1107
  H  H93  1  0.575900  0.316200  0.516300  1.0  0.0786
  H  H94  1  0.299600  0.658100  0.648900  1.0  0.0843
  H  H95  1  0.365100  0.438100  0.340400  1.0  0.1201
  H  H96  1  0.785700  0.058500  0.152200  1.0  0.0716
  H  H97  1  0.957100  0.330800  0.961900  1.0  0.128
  H  H98  1  0.838200  0.131800  0.107700  1.0  0.1251
  H  H99  1  0.355800  0.587800  0.605300  1.0  0.1159
  H  H100  1  0.044100  0.360300  0.157000  1.0  0.0793
  H  H101  1  0.055200  0.396800  0.011600  1.0  0.0734
  H  H102  1  0.632400  0.018400  0.006100  1.0  0.0721
  H  H103  1  0.151300  0.705400  0.500700  1.0  0.0766
  H  H104  1  0.480300  0.457700  0.615400  1.0  0.1229
  H  H105  1  0.148900  0.521600  0.237400  1.0  0.0826
  H  H106  1  0.824200  0.317200  0.845000  1.0  0.125
  H  H107  1  0.575200  0.381700  0.662100  1.0  0.0735
  H  H108  1  0.311500  0.422200  0.241900  1.0  0.0775
  H  H109  1  0.198200  0.540900  0.335700  1.0  0.1214
  H  H110  1  0.773500  0.328700  0.746400  1.0  0.0691
  H  H111  1  0.632700  0.180800  0.734100  1.0  0.0791
  H  H112  1  0.675600  0.167800  0.832500  1.0  0.1184
  H  H113  1  0.702100  0.865000  0.951500  1.0  0.1206
  H  H114  1  0.976300  0.116900  0.964700  1.0  0.1296
  H  H115  1  0.180600  0.412500  0.456000  1.0  0.1222
  H  H116  1  0.445500  0.210200  0.611200  1.0  0.1105
  H  H117  1  0.075900  0.183800  0.016300  1.0  0.0789
  H  H118  1  0.799600  0.841900  0.148900  1.0  0.0841
  H  H119  1  0.865100  0.061900  0.840400  1.0  0.1207
  H  H120  1  0.285700  0.441500  0.652200  1.0  0.0714
  H  H121  1  0.457100  0.169200  0.461900  1.0  0.1277
  H  H122  1  0.338200  0.368200  0.607700  1.0  0.1251
  H  H123  1  0.855800  0.912200  0.105300  1.0  0.116
  H  H124  1  0.544100  0.139700  0.657000  1.0  0.0793
  H  H125  1  0.555200  0.103200  0.511600  1.0  0.0738
  H  H126  1  0.132400  0.481600  0.506100  1.0  0.0721
  H  H127  1  0.651300  0.794600  0.000700  1.0  0.0767
  H  H128  1  0.980300  0.042300  0.115400  1.0  0.1231
  H  H129  1  0.648900  0.978400  0.737400  1.0  0.0823
  H  H130  1  0.324200  0.182800  0.345000  1.0  0.1249
  H  H131  1  0.075200  0.118300  0.162100  1.0  0.0733
  H  H132  1  0.811500  0.077800  0.741900  1.0  0.0773
  H  H133  1  0.698200  0.959100  0.835700  1.0  0.1217
  H  H134  1  0.273500  0.171300  0.246400  1.0  0.0692
  H  H135  1  0.132700  0.319200  0.234100  1.0  0.0782
  H  H136  1  0.175600  0.332200  0.332500  1.0  0.1183
  H  H137  1  0.202100  0.365000  0.951500  1.0  0.1206
  H  H138  1  0.476300  0.616900  0.964700  1.0  0.1296
  H  H139  1  0.680600  0.912500  0.456000  1.0  0.1222
  H  H140  1  0.945500  0.710200  0.611200  1.0  0.1105
  H  H141  1  0.575900  0.683800  0.016300  1.0  0.0789
  H  H142  1  0.299600  0.341900  0.148900  1.0  0.0841
  H  H143  1  0.365100  0.561900  0.840400  1.0  0.1207
  H  H144  1  0.785700  0.941500  0.652200  1.0  0.0714
  H  H145  1  0.957100  0.669200  0.461900  1.0  0.1277
  H  H146  1  0.838200  0.868200  0.607700  1.0  0.1251
  H  H147  1  0.355800  0.412200  0.105300  1.0  0.116
  H  H148  1  0.044100  0.639700  0.657000  1.0  0.0793
  H  H149  1  0.055200  0.603200  0.511600  1.0  0.0738
  H  H150  1  0.632400  0.981600  0.506100  1.0  0.0721
  H  H151  1  0.151300  0.294600  0.000700  1.0  0.0767
  H  H152  1  0.480300  0.542300  0.115400  1.0  0.1231
  H  H153  1  0.148900  0.478400  0.737400  1.0  0.0823
  H  H154  1  0.824200  0.682800  0.345000  1.0  0.1249
  H  H155  1  0.575200  0.618300  0.162100  1.0  0.0733
  H  H156  1  0.311500  0.577800  0.741900  1.0  0.0772
  H  H157  1  0.198200  0.459100  0.835700  1.0  0.1217
  H  H158  1  0.773500  0.671300  0.246400  1.0  0.0692
  H  H159  1  0.632700  0.819200  0.234100  1.0  0.0782
  H  H160  1  0.675600  0.832200  0.332500  1.0  0.1183
  H  H161  1  0.297900  0.865000  0.548500  1.0  0.1209
  H  H162  1  0.023700  0.116900  0.535300  1.0  0.128
  H  H163  1  0.819400  0.412500  0.044000  1.0  0.1215
  H  H164  1  0.554500  0.210200  0.888800  1.0  0.1107
  H  H165  1  0.924100  0.183800  0.483700  1.0  0.0783
  H  H166  1  0.200400  0.841900  0.351100  1.0  0.0846
  H  H167  1  0.134900  0.061900  0.659600  1.0  0.1207
  H  H168  1  0.714300  0.441500  0.847800  1.0  0.0725
  H  H169  1  0.542900  0.169200  0.038100  1.0  0.1279
  H  H170  1  0.661800  0.368200  0.892300  1.0  0.1248
  H  H171  1  0.144200  0.912200  0.394700  1.0  0.1154
  H  H172  1  0.455900  0.139700  0.843000  1.0  0.079
  H  H173  1  0.444800  0.103200  0.988400  1.0  0.0742
  H  H174  1  0.867600  0.481600  0.993900  1.0  0.0723
  H  H175  1  0.348700  0.794600  0.499300  1.0  0.0773
  H  H176  1  0.019700  0.042300  0.384600  1.0  0.1232
  H  H177  1  0.351100  0.978400  0.762600  1.0  0.0807
  H  H178  1  0.675800  0.182800  0.155000  1.0  0.1249
  H  H179  1  0.924800  0.118300  0.337900  1.0  0.0733
  H  H180  1  0.188500  0.077800  0.758100  1.0  0.0777
  H  H181  1  0.301800  0.959100  0.664300  1.0  0.1217
  H  H182  1  0.726500  0.171300  0.253600  1.0  0.0698
  H  H183  1  0.867300  0.319200  0.265900  1.0  0.0779
  H  H184  1  0.824400  0.332200  0.167500  1.0  0.1191
  H  H185  1  0.797900  0.365000  0.548500  1.0  0.1209
  H  H186  1  0.523700  0.616900  0.535300  1.0  0.128
  H  H187  1  0.319400  0.912500  0.044000  1.0  0.1215
  H  H188  1  0.054500  0.710200  0.888800  1.0  0.1107
  H  H189  1  0.424100  0.683800  0.483700  1.0  0.0783
  H  H190  1  0.700400  0.341900  0.351100  1.0  0.0846
  H  H191  1  0.634900  0.561900  0.659600  1.0  0.1207
  H  H192  1  0.214300  0.941500  0.847800  1.0  0.0725
  H  H193  1  0.042900  0.669200  0.038100  1.0  0.1279
  H  H194  1  0.161800  0.868200  0.892300  1.0  0.1248
  H  H195  1  0.644200  0.412200  0.394700  1.0  0.1154
  H  H196  1  0.955900  0.639700  0.843000  1.0  0.079
  H  H197  1  0.944800  0.603200  0.988400  1.0  0.0742
  H  H198  1  0.367600  0.981600  0.993900  1.0  0.0723
  H  H199  1  0.848700  0.294600  0.499300  1.0  0.0773
  H  H200  1  0.519700  0.542300  0.384600  1.0  0.1232
  H  H201  1  0.851100  0.478400  0.762600  1.0  0.0807
  H  H202  1  0.175800  0.682800  0.155000  1.0  0.1249
  H  H203  1  0.424800  0.618300  0.337900  1.0  0.0733
  H  H204  1  0.688500  0.577800  0.758100  1.0  0.0777
  H  H205  1  0.801800  0.459100  0.664300  1.0  0.1217
  H  H206  1  0.226500  0.671300  0.253600  1.0  0.0698
  H  H207  1  0.367300  0.819200  0.265900  1.0  0.0779
  H  H208  1  0.324400  0.832200  0.167500  1.0  0.1191
  C  C209  1  0.097800  0.970500  0.999400  1.0  0.3645
  C  C210  1  0.623700  0.755900  0.501200  1.0  0.3724
  C  C211  1  0.277200  0.138400  0.008400  1.0  -0.1536
  C  C212  1  0.559600  0.801400  0.468400  1.0  -0.0216
  C  C213  1  0.181800  0.052500  0.005500  1.0  0.3667
  C  C214  1  0.003800  0.884700  0.995100  1.0  -0.1411
  C  C215  1  0.797400  0.583600  0.503900  1.0  -0.1804
  C  C216  1  0.532900  0.811000  0.410100  1.0  -0.143
  C  C217  1  0.710000  0.726200  0.586400  1.0  0.3763
  C  C218  1  0.944100  0.844200  0.963600  1.0  0.1669
  C  C219  1  0.220100  0.153000  0.891200  1.0  0.1504
  C  C220  1  0.180100  0.002300  0.086700  1.0  0.3687
  C  C221  1  0.178900  0.955900  0.179800  1.0  -0.1177
  C  C222  1  0.743100  0.736400  0.650200  1.0  -0.0194
  C  C223  1  0.033300  0.927500  0.965500  1.0  -0.0854
  C  C224  1  0.735600  0.564800  0.387800  1.0  0.1755
  C  C225  1  0.735500  0.620900  0.473300  1.0  -0.0703
  C  C226  1  0.525600  0.835100  0.498000  1.0  -0.1807
  C  C227  1  0.214700  0.101300  0.976600  1.0  -0.0203
  C  C228  1  0.703900  0.609500  0.414000  1.0  -0.1637
  C  C229  1  0.212300  0.991800  0.151000  1.0  -0.1017
  C  C230  1  0.186000  0.110300  0.917200  1.0  -0.1454
  C  C231  1  0.705000  0.672300  0.503600  1.0  0.3859
  C  C232  1  0.473300  0.852800  0.382800  1.0  0.1663
  C  C233  1  0.467000  0.874400  0.467900  1.0  0.1667
  C  C234  1  0.825300  0.541000  0.473400  1.0  0.1765
  C  C235  1  0.307400  0.180700  0.978300  1.0  0.1749
  C  C236  1  0.002000  0.928000  0.905700  1.0  -0.1725
  C  C237  1  0.306800  0.005000  0.241600  1.0  0.1612
  C  C238  1  0.714500  0.788000  0.676700  1.0  -0.1857
  C  C239  1  0.944100  0.883700  0.878100  1.0  0.1755
  C  C240  1  0.211400  0.946600  0.239000  1.0  0.1739
  C  C241  1  0.277800  0.016800  0.182500  1.0  -0.1743
  C  C242  1  0.745500  0.794200  0.736000  1.0  0.1826
  C  C243  1  0.828100  0.708500  0.743200  1.0  0.1803
  C  C244  1  0.802100  0.699100  0.684000  1.0  -0.1854
  C  C245  1  0.597800  0.470500  0.999400  1.0  0.3645
  C  C246  1  0.123700  0.255900  0.501200  1.0  0.3724
  C  C247  1  0.777200  0.638400  0.008400  1.0  -0.1536
  C  C248  1  0.059600  0.301400  0.468400  1.0  -0.0216
  C  C249  1  0.681800  0.552500  0.005500  1.0  0.3667
  C  C250  1  0.503800  0.384700  0.995100  1.0  -0.1411
  C  C251  1  0.297400  0.083600  0.503900  1.0  -0.1804
  C  C252  1  0.032900  0.311000  0.410100  1.0  -0.143
  C  C253  1  0.210000  0.226200  0.586400  1.0  0.3763
  C  C254  1  0.444100  0.344200  0.963600  1.0  0.1669
  C  C255  1  0.720100  0.653000  0.891200  1.0  0.1504
  C  C256  1  0.680100  0.502300  0.086700  1.0  0.3687
  C  C257  1  0.678900  0.455900  0.179800  1.0  -0.1177
  C  C258  1  0.243100  0.236400  0.650200  1.0  -0.0194
  C  C259  1  0.533300  0.427500  0.965500  1.0  -0.0854
  C  C260  1  0.235600  0.064800  0.387800  1.0  0.1755
  C  C261  1  0.235500  0.120900  0.473300  1.0  -0.0703
  C  C262  1  0.025600  0.335100  0.498000  1.0  -0.1807
  C  C263  1  0.714700  0.601300  0.976600  1.0  -0.0203
  C  C264  1  0.203900  0.109500  0.414000  1.0  -0.1637
  C  C265  1  0.712300  0.491800  0.151000  1.0  -0.1017
  C  C266  1  0.686000  0.610300  0.917200  1.0  -0.1454
  C  C267  1  0.205000  0.172300  0.503600  1.0  0.3859
  C  C268  1  0.973300  0.352800  0.382800  1.0  0.1663
  C  C269  1  0.967000  0.374400  0.467900  1.0  0.1667
  C  C270  1  0.325300  0.041000  0.473400  1.0  0.1765
  C  C271  1  0.807400  0.680700  0.978300  1.0  0.1749
  C  C272  1  0.502000  0.428000  0.905700  1.0  -0.1725
  C  C273  1  0.806800  0.505000  0.241600  1.0  0.1612
  C  C274  1  0.214500  0.288000  0.676700  1.0  -0.1857
  C  C275  1  0.444100  0.383700  0.878100  1.0  0.1755
  C  C276  1  0.711400  0.446600  0.239000  1.0  0.1739
  C  C277  1  0.777800  0.516800  0.182500  1.0  -0.1743
  C  C278  1  0.245500  0.294200  0.736000  1.0  0.1826
  C  C279  1  0.328100  0.208500  0.743200  1.0  0.1803
  C  C280  1  0.302100  0.199100  0.684000  1.0  -0.1854
  C  C281  1  0.902200  0.970500  0.500600  1.0  0.3649
  C  C282  1  0.376300  0.755900  0.998800  1.0  0.3723
  C  C283  1  0.722800  0.138400  0.491600  1.0  -0.153
  C  C284  1  0.440400  0.801400  0.031600  1.0  -0.0233
  C  C285  1  0.818200  0.052500  0.494500  1.0  0.3671
  C  C286  1  0.996200  0.884700  0.504900  1.0  -0.1421
  C  C287  1  0.202600  0.583600  0.996100  1.0  -0.1784
  C  C288  1  0.467100  0.811000  0.089900  1.0  -0.1452
  C  C289  1  0.290000  0.726200  0.913600  1.0  0.3759
  C  C290  1  0.055900  0.844200  0.536400  1.0  0.167
  C  C291  1  0.779900  0.153000  0.608800  1.0  0.1518
  C  C292  1  0.819900  0.002300  0.413300  1.0  0.3689
  C  C293  1  0.821100  0.955900  0.320200  1.0  -0.1208
  C  C294  1  0.256900  0.736400  0.849800  1.0  -0.0199
  C  C295  1  0.966700  0.927500  0.534500  1.0  -0.0865
  C  C296  1  0.264400  0.564800  0.112200  1.0  0.1732
  C  C297  1  0.264500  0.620900  0.026700  1.0  -0.0694
  C  C298  1  0.474400  0.835100  0.002000  1.0  -0.1805
  C  C299  1  0.785300  0.101300  0.523400  1.0  -0.02
  C  C300  1  0.296100  0.609500  0.086000  1.0  -0.1662
  C  C301  1  0.787700  0.991800  0.349000  1.0  -0.1025
  C  C302  1  0.814000  0.110300  0.582800  1.0  -0.1462
  C  C303  1  0.295000  0.672300  0.996400  1.0  0.3862
  C  C304  1  0.526700  0.852800  0.117200  1.0  0.165
  C  C305  1  0.533000  0.874400  0.032100  1.0  0.1683
  C  C306  1  0.174700  0.541000  0.026600  1.0  0.1772
  C  C307  1  0.692600  0.180700  0.521700  1.0  0.1744
  C  C308  1  0.998000  0.928000  0.594300  1.0  -0.1749
  C  C309  1  0.693200  0.005000  0.258400  1.0  0.1617
  C  C310  1  0.285500  0.788000  0.823300  1.0  -0.1859
  C  C311  1  0.055900  0.883700  0.621900  1.0  0.1755
  C  C312  1  0.788600  0.946600  0.261000  1.0  0.1746
  C  C313  1  0.722200  0.016800  0.317500  1.0  -0.1731
  C  C314  1  0.254500  0.794200  0.764000  1.0  0.1818
  C  C315  1  0.171900  0.708500  0.756800  1.0  0.1798
  C  C316  1  0.197900  0.699100  0.816000  1.0  -0.1836
  C  C317  1  0.402200  0.470500  0.500600  1.0  0.3649
  C  C318  1  0.876300  0.255900  0.998800  1.0  0.3723
  C  C319  1  0.222800  0.638400  0.491600  1.0  -0.153
  C  C320  1  0.940400  0.301400  0.031600  1.0  -0.0233
  C  C321  1  0.318200  0.552500  0.494500  1.0  0.3671
  C  C322  1  0.496200  0.384700  0.504900  1.0  -0.1421
  C  C323  1  0.702600  0.083600  0.996100  1.0  -0.1784
  C  C324  1  0.967100  0.311000  0.089900  1.0  -0.1452
  C  C325  1  0.790000  0.226200  0.913600  1.0  0.3759
  C  C326  1  0.555900  0.344200  0.536400  1.0  0.167
  C  C327  1  0.279900  0.653000  0.608800  1.0  0.1518
  C  C328  1  0.319900  0.502300  0.413300  1.0  0.3689
  C  C329  1  0.321100  0.455900  0.320200  1.0  -0.1208
  C  C330  1  0.756900  0.236400  0.849800  1.0  -0.0199
  C  C331  1  0.466700  0.427500  0.534500  1.0  -0.0865
  C  C332  1  0.764400  0.064800  0.112200  1.0  0.1732
  C  C333  1  0.764500  0.120900  0.026700  1.0  -0.0694
  C  C334  1  0.974400  0.335100  0.002000  1.0  -0.1805
  C  C335  1  0.285300  0.601300  0.523400  1.0  -0.02
  C  C336  1  0.796100  0.109500  0.086000  1.0  -0.1662
  C  C337  1  0.287700  0.491800  0.349000  1.0  -0.1025
  C  C338  1  0.314000  0.610300  0.582800  1.0  -0.1462
  C  C339  1  0.795000  0.172300  0.996400  1.0  0.3862
  C  C340  1  0.026700  0.352800  0.117200  1.0  0.165
  C  C341  1  0.033000  0.374400  0.032100  1.0  0.1683
  C  C342  1  0.674700  0.041000  0.026600  1.0  0.1772
  C  C343  1  0.192600  0.680700  0.521700  1.0  0.1744
  C  C344  1  0.498000  0.428000  0.594300  1.0  -0.1749
  C  C345  1  0.193200  0.505000  0.258400  1.0  0.1617
  C  C346  1  0.785500  0.288000  0.823300  1.0  -0.1859
  C  C347  1  0.555900  0.383700  0.621900  1.0  0.1755
  C  C348  1  0.288600  0.446600  0.261000  1.0  0.1746
  C  C349  1  0.222200  0.516800  0.317500  1.0  -0.1731
  C  C350  1  0.754500  0.294200  0.764000  1.0  0.1818
  C  C351  1  0.671900  0.208500  0.756800  1.0  0.1798
  C  C352  1  0.697900  0.199100  0.816000  1.0  -0.1836
  C  C353  1  0.902200  0.029500  0.000600  1.0  0.3649
  C  C354  1  0.376300  0.244100  0.498800  1.0  0.3725
  C  C355  1  0.722800  0.861600  0.991600  1.0  -0.1525
  C  C356  1  0.440400  0.198600  0.531600  1.0  -0.023
  C  C357  1  0.818200  0.947500  0.994500  1.0  0.3671
  C  C358  1  0.996200  0.115300  0.004900  1.0  -0.1423
  C  C359  1  0.202600  0.416400  0.496100  1.0  -0.1787
  C  C360  1  0.467100  0.189000  0.589900  1.0  -0.1445
  C  C361  1  0.290000  0.273800  0.413600  1.0  0.3759
  C  C362  1  0.055900  0.155800  0.036400  1.0  0.1666
  C  C363  1  0.779900  0.847000  0.108800  1.0  0.1521
  C  C364  1  0.819900  0.997700  0.913300  1.0  0.3688
  C  C365  1  0.821100  0.044100  0.820200  1.0  -0.1213
  C  C366  1  0.256900  0.263600  0.349800  1.0  -0.0195
  C  C367  1  0.966700  0.072500  0.034500  1.0  -0.0867
  C  C368  1  0.264400  0.435200  0.612200  1.0  0.1727
  C  C369  1  0.264500  0.379100  0.526700  1.0  -0.0694
  C  C370  1  0.474400  0.164900  0.502000  1.0  -0.1803
  C  C371  1  0.785300  0.898700  0.023400  1.0  -0.0203
  C  C372  1  0.296100  0.390500  0.586000  1.0  -0.1663
  C  C373  1  0.787700  0.008200  0.849000  1.0  -0.1018
  C  C374  1  0.814000  0.889700  0.082800  1.0  -0.1464
  C  C375  1  0.295000  0.327700  0.496400  1.0  0.386
  C  C376  1  0.526700  0.147200  0.617200  1.0  0.1645
  C  C377  1  0.533000  0.125600  0.532100  1.0  0.1672
  C  C378  1  0.174700  0.459000  0.526600  1.0  0.1766
  C  C379  1  0.692600  0.819300  0.021700  1.0  0.1748
  C  C380  1  0.998000  0.072000  0.094300  1.0  -0.1751
  C  C381  1  0.693200  0.995000  0.758400  1.0  0.1616
  C  C382  1  0.285500  0.212000  0.323300  1.0  -0.1856
  C  C383  1  0.055900  0.116300  0.121900  1.0  0.1756
  C  C384  1  0.788600  0.053400  0.761000  1.0  0.1747
  C  C385  1  0.722200  0.983200  0.817500  1.0  -0.1722
  C  C386  1  0.254500  0.205800  0.264000  1.0  0.1819
  C  C387  1  0.171900  0.291500  0.256800  1.0  0.1801
  C  C388  1  0.197900  0.300900  0.316000  1.0  -0.1832
  C  C389  1  0.402200  0.529500  0.000600  1.0  0.3649
  C  C390  1  0.876300  0.744100  0.498800  1.0  0.3725
  C  C391  1  0.222800  0.361600  0.991600  1.0  -0.1525
  C  C392  1  0.940400  0.698600  0.531600  1.0  -0.023
  C  C393  1  0.318200  0.447500  0.994500  1.0  0.3671
  C  C394  1  0.496200  0.615300  0.004900  1.0  -0.1423
  C  C395  1  0.702600  0.916400  0.496100  1.0  -0.1787
  C  C396  1  0.967100  0.689000  0.589900  1.0  -0.1445
  C  C397  1  0.790000  0.773800  0.413600  1.0  0.3759
  C  C398  1  0.555900  0.655800  0.036400  1.0  0.1666
  C  C399  1  0.279900  0.347000  0.108800  1.0  0.1521
  C  C400  1  0.319900  0.497700  0.913300  1.0  0.3688
  C  C401  1  0.321100  0.544100  0.820200  1.0  -0.1213
  C  C402  1  0.756900  0.763600  0.349800  1.0  -0.0195
  C  C403  1  0.466700  0.572500  0.034500  1.0  -0.0867
  C  C404  1  0.764400  0.935200  0.612200  1.0  0.1727
  C  C405  1  0.764500  0.879100  0.526700  1.0  -0.0694
  C  C406  1  0.974400  0.664900  0.502000  1.0  -0.1803
  C  C407  1  0.285300  0.398700  0.023400  1.0  -0.0203
  C  C408  1  0.796100  0.890500  0.586000  1.0  -0.1663
  C  C409  1  0.287700  0.508200  0.849000  1.0  -0.1018
  C  C410  1  0.314000  0.389700  0.082800  1.0  -0.1464
  C  C411  1  0.795000  0.827700  0.496400  1.0  0.386
  C  C412  1  0.026700  0.647200  0.617200  1.0  0.1645
  C  C413  1  0.033000  0.625600  0.532100  1.0  0.1672
  C  C414  1  0.674700  0.959000  0.526600  1.0  0.1766
  C  C415  1  0.192600  0.319300  0.021700  1.0  0.1748
  C  C416  1  0.498000  0.572000  0.094300  1.0  -0.1751
  C  C417  1  0.193200  0.495000  0.758400  1.0  0.1616
  C  C418  1  0.785500  0.712000  0.323300  1.0  -0.1856
  C  C419  1  0.555900  0.616300  0.121900  1.0  0.1756
  C  C420  1  0.288600  0.553400  0.761000  1.0  0.1747
  C  C421  1  0.222200  0.483200  0.817500  1.0  -0.1722
  C  C422  1  0.754500  0.705800  0.264000  1.0  0.1819
  C  C423  1  0.671900  0.791500  0.256800  1.0  0.1801
  C  C424  1  0.697900  0.800900  0.316000  1.0  -0.1832
  C  C425  1  0.097800  0.029500  0.499400  1.0  0.3647
  C  C426  1  0.623700  0.244100  0.001200  1.0  0.3727
  C  C427  1  0.277200  0.861600  0.508400  1.0  -0.1536
  C  C428  1  0.559600  0.198600  0.968400  1.0  -0.0205
  C  C429  1  0.181800  0.947500  0.505500  1.0  0.3666
  C  C430  1  0.003800  0.115300  0.495100  1.0  -0.1414
  C  C431  1  0.797400  0.416400  0.003900  1.0  -0.1803
  C  C432  1  0.532900  0.189000  0.910100  1.0  -0.1427
  C  C433  1  0.710000  0.273800  0.086400  1.0  0.3762
  C  C434  1  0.944100  0.155800  0.463600  1.0  0.1663
  C  C435  1  0.220100  0.847000  0.391200  1.0  0.1499
  C  C436  1  0.180100  0.997700  0.586700  1.0  0.3687
  C  C437  1  0.178900  0.044100  0.679800  1.0  -0.1182
  C  C438  1  0.743100  0.263600  0.150200  1.0  -0.0193
  C  C439  1  0.033300  0.072500  0.465500  1.0  -0.0865
  C  C440  1  0.735600  0.435200  0.887800  1.0  0.1751
  C  C441  1  0.735500  0.379100  0.973300  1.0  -0.0701
  C  C442  1  0.525600  0.164900  0.998000  1.0  -0.1811
  C  C443  1  0.214700  0.898700  0.476600  1.0  -0.0202
  C  C444  1  0.703900  0.390500  0.914000  1.0  -0.1633
  C  C445  1  0.212300  0.008200  0.651000  1.0  -0.1013
  C  C446  1  0.186000  0.889700  0.417200  1.0  -0.146
  C  C447  1  0.705000  0.327700  0.003600  1.0  0.3857
  C  C448  1  0.473300  0.147200  0.882800  1.0  0.1655
  C  C449  1  0.467000  0.125600  0.967900  1.0  0.1676
  C  C450  1  0.825300  0.459000  0.973400  1.0  0.176
  C  C451  1  0.307400  0.819300  0.478300  1.0  0.1754
  C  C452  1  0.002000  0.072000  0.405700  1.0  -0.1725
  C  C453  1  0.306800  0.995000  0.741600  1.0  0.1611
  C  C454  1  0.714500  0.212000  0.176700  1.0  -0.1853
  C  C455  1  0.944100  0.116300  0.378100  1.0  0.1759
  C  C456  1  0.211400  0.053400  0.739000  1.0  0.1742
  C  C457  1  0.277800  0.983200  0.682500  1.0  -0.1743
  C  C458  1  0.745500  0.205800  0.236000  1.0  0.1825
  C  C459  1  0.828100  0.291500  0.243200  1.0  0.1806
  C  C460  1  0.802100  0.300900  0.184000  1.0  -0.1852
  C  C461  1  0.597800  0.529500  0.499400  1.0  0.3647
  C  C462  1  0.123700  0.744100  0.001200  1.0  0.3727
  C  C463  1  0.777200  0.361600  0.508400  1.0  -0.1536
  C  C464  1  0.059600  0.698600  0.968400  1.0  -0.0205
  C  C465  1  0.681800  0.447500  0.505500  1.0  0.3666
  C  C466  1  0.503800  0.615300  0.495100  1.0  -0.1414
  C  C467  1  0.297400  0.916400  0.003900  1.0  -0.1803
  C  C468  1  0.032900  0.689000  0.910100  1.0  -0.1427
  C  C469  1  0.210000  0.773800  0.086400  1.0  0.3762
  C  C470  1  0.444100  0.655800  0.463600  1.0  0.1663
  C  C471  1  0.720100  0.347000  0.391200  1.0  0.1499
  C  C472  1  0.680100  0.497700  0.586700  1.0  0.3687
  C  C473  1  0.678900  0.544100  0.679800  1.0  -0.1182
  C  C474  1  0.243100  0.763600  0.150200  1.0  -0.0193
  C  C475  1  0.533300  0.572500  0.465500  1.0  -0.0865
  C  C476  1  0.235600  0.935200  0.887800  1.0  0.1751
  C  C477  1  0.235500  0.879100  0.973300  1.0  -0.0701
  C  C478  1  0.025600  0.664900  0.998000  1.0  -0.1811
  C  C479  1  0.714700  0.398700  0.476600  1.0  -0.0202
  C  C480  1  0.203900  0.890500  0.914000  1.0  -0.1633
  C  C481  1  0.712300  0.508200  0.651000  1.0  -0.1013
  C  C482  1  0.686000  0.389700  0.417200  1.0  -0.146
  C  C483  1  0.205000  0.827700  0.003600  1.0  0.3857
  C  C484  1  0.973300  0.647200  0.882800  1.0  0.1655
  C  C485  1  0.967000  0.625600  0.967900  1.0  0.1676
  C  C486  1  0.325300  0.959000  0.973400  1.0  0.176
  C  C487  1  0.807400  0.319300  0.478300  1.0  0.1754
  C  C488  1  0.502000  0.572000  0.405700  1.0  -0.1725
  C  C489  1  0.806800  0.495000  0.741600  1.0  0.1611
  C  C490  1  0.214500  0.712000  0.176700  1.0  -0.1853
  C  C491  1  0.444100  0.616300  0.378100  1.0  0.1759
  C  C492  1  0.711400  0.553400  0.739000  1.0  0.1742
  C  C493  1  0.777800  0.483200  0.682500  1.0  -0.1743
  C  C494  1  0.245500  0.705800  0.236000  1.0  0.1825
  C  C495  1  0.328100  0.791500  0.243200  1.0  0.1806
  C  C496  1  0.302100  0.800900  0.184000  1.0  -0.1852
  N  N497  1  0.795400  0.530200  0.416500  1.0  -0.3586
  N  N498  1  0.439400  0.882700  0.411000  1.0  -0.3103
  N  N499  1  0.800500  0.754900  0.769700  1.0  -0.3449
  N  N500  1  0.737600  0.677300  0.561500  1.0  -0.5003
  N  N501  1  0.647900  0.710100  0.471300  1.0  -0.4994
  N  N502  1  0.652700  0.766900  0.558200  1.0  -0.4883
  N  N503  1  0.913700  0.843300  0.905800  1.0  -0.3619
  N  N504  1  0.275100  0.971400  0.270300  1.0  -0.3585
  N  N505  1  0.279800  0.187000  0.921200  1.0  -0.3069
  N  N506  1  0.125600  0.012700  0.971800  1.0  -0.4876
  N  N507  1  0.122700  0.963300  0.057300  1.0  -0.5062
  N  N508  1  0.211100  0.049900  0.063500  1.0  -0.501
  N  N509  1  0.295400  0.030200  0.416500  1.0  -0.3586
  N  N510  1  0.939400  0.382700  0.411000  1.0  -0.3103
  N  N511  1  0.300500  0.254900  0.769700  1.0  -0.3449
  N  N512  1  0.237600  0.177300  0.561500  1.0  -0.5003
  N  N513  1  0.147900  0.210100  0.471300  1.0  -0.4994
  N  N514  1  0.152700  0.266900  0.558200  1.0  -0.4883
  N  N515  1  0.413700  0.343300  0.905800  1.0  -0.3619
  N  N516  1  0.775100  0.471400  0.270300  1.0  -0.3585
  N  N517  1  0.779800  0.687000  0.921200  1.0  -0.3069
  N  N518  1  0.625600  0.512700  0.971800  1.0  -0.4876
  N  N519  1  0.622700  0.463300  0.057300  1.0  -0.5062
  N  N520  1  0.711100  0.549900  0.063500  1.0  -0.501
  N  N521  1  0.204600  0.530200  0.083500  1.0  -0.3566
  N  N522  1  0.560600  0.882700  0.089000  1.0  -0.3125
  N  N523  1  0.199500  0.754900  0.730300  1.0  -0.3459
  N  N524  1  0.262400  0.677300  0.938500  1.0  -0.5009
  N  N525  1  0.352100  0.710100  0.028700  1.0  -0.5014
  N  N526  1  0.347300  0.766900  0.941800  1.0  -0.4868
  N  N527  1  0.086300  0.843300  0.594200  1.0  -0.3587
  N  N528  1  0.724900  0.971400  0.229700  1.0  -0.3586
  N  N529  1  0.720200  0.187000  0.578800  1.0  -0.3077
  N  N530  1  0.874400  0.012700  0.528200  1.0  -0.4864
  N  N531  1  0.877300  0.963300  0.442700  1.0  -0.5062
  N  N532  1  0.788900  0.049900  0.436500  1.0  -0.5014
  N  N533  1  0.704600  0.030200  0.083500  1.0  -0.3566
  N  N534  1  0.060600  0.382700  0.089000  1.0  -0.3125
  N  N535  1  0.699500  0.254900  0.730300  1.0  -0.3459
  N  N536  1  0.762400  0.177300  0.938500  1.0  -0.5009
  N  N537  1  0.852100  0.210100  0.028700  1.0  -0.5014
  N  N538  1  0.847300  0.266900  0.941800  1.0  -0.4868
  N  N539  1  0.586300  0.343300  0.594200  1.0  -0.3587
  N  N540  1  0.224900  0.471400  0.229700  1.0  -0.3586
  N  N541  1  0.220200  0.687000  0.578800  1.0  -0.3077
  N  N542  1  0.374400  0.512700  0.528200  1.0  -0.4864
  N  N543  1  0.377300  0.463300  0.442700  1.0  -0.5062
  N  N544  1  0.288900  0.549900  0.436500  1.0  -0.5014
  N  N545  1  0.204600  0.469800  0.583500  1.0  -0.3582
  N  N546  1  0.560600  0.117300  0.589000  1.0  -0.3117
  N  N547  1  0.199500  0.245100  0.230300  1.0  -0.3466
  N  N548  1  0.262400  0.322700  0.438500  1.0  -0.5005
  N  N549  1  0.352100  0.289900  0.528700  1.0  -0.5013
  N  N550  1  0.347300  0.233100  0.441800  1.0  -0.4874
  N  N551  1  0.086300  0.156700  0.094200  1.0  -0.3611
  N  N552  1  0.724900  0.028600  0.729700  1.0  -0.3579
  N  N553  1  0.720200  0.813000  0.078800  1.0  -0.309
  N  N554  1  0.874400  0.987300  0.028200  1.0  -0.4846
  N  N555  1  0.877300  0.036700  0.942700  1.0  -0.5069
  N  N556  1  0.788900  0.950100  0.936500  1.0  -0.5034
  N  N557  1  0.704600  0.969800  0.583500  1.0  -0.3582
  N  N558  1  0.060600  0.617300  0.589000  1.0  -0.3117
  N  N559  1  0.699500  0.745100  0.230300  1.0  -0.3466
  N  N560  1  0.762400  0.822700  0.438500  1.0  -0.5005
  N  N561  1  0.852100  0.789900  0.528700  1.0  -0.5013
  N  N562  1  0.847300  0.733100  0.441800  1.0  -0.4874
  N  N563  1  0.586300  0.656700  0.094200  1.0  -0.3611
  N  N564  1  0.224900  0.528600  0.729700  1.0  -0.3579
  N  N565  1  0.220200  0.313000  0.078800  1.0  -0.309
  N  N566  1  0.374400  0.487300  0.028200  1.0  -0.4846
  N  N567  1  0.377300  0.536700  0.942700  1.0  -0.5069
  N  N568  1  0.288900  0.450100  0.936500  1.0  -0.5034
  N  N569  1  0.795400  0.469800  0.916500  1.0  -0.3584
  N  N570  1  0.439400  0.117300  0.911000  1.0  -0.3145
  N  N571  1  0.800500  0.245100  0.269700  1.0  -0.3445
  N  N572  1  0.737600  0.322700  0.061500  1.0  -0.5015
  N  N573  1  0.647900  0.289900  0.971300  1.0  -0.4994
  N  N574  1  0.652700  0.233100  0.058200  1.0  -0.4876
  N  N575  1  0.913700  0.156700  0.405800  1.0  -0.3616
  N  N576  1  0.275100  0.028600  0.770300  1.0  -0.3586
  N  N577  1  0.279800  0.813000  0.421200  1.0  -0.3095
  N  N578  1  0.125600  0.987300  0.471800  1.0  -0.4871
  N  N579  1  0.122700  0.036700  0.557300  1.0  -0.5079
  N  N580  1  0.211100  0.950100  0.563500  1.0  -0.501
  N  N581  1  0.295400  0.969800  0.916500  1.0  -0.3584
  N  N582  1  0.939400  0.617300  0.911000  1.0  -0.3145
  N  N583  1  0.300500  0.745100  0.269700  1.0  -0.3445
  N  N584  1  0.237600  0.822700  0.061500  1.0  -0.5015
  N  N585  1  0.147900  0.789900  0.971300  1.0  -0.4994
  N  N586  1  0.152700  0.733100  0.058200  1.0  -0.4876
  N  N587  1  0.413700  0.656700  0.405800  1.0  -0.3616
  N  N588  1  0.775100  0.528600  0.770300  1.0  -0.3586
  N  N589  1  0.779800  0.313000  0.421200  1.0  -0.3095
  N  N590  1  0.625600  0.487300  0.471800  1.0  -0.4871
  N  N591  1  0.622700  0.536700  0.557300  1.0  -0.5079
  N  N592  1  0.711100  0.450100  0.563500  1.0  -0.501
