# generated using pymatgen
data_AgH12(C3N)6
_symmetry_space_group_name_H-M   'P 1'
_cell_length_a   22.04660000
_cell_length_b   16.42500000
_cell_length_c   25.59310000
_cell_angle_alpha   90.00000000
_cell_angle_beta   115.29300000
_cell_angle_gamma   90.00000000
_symmetry_Int_Tables_number   1
_chemical_formula_structural   AgH12(C3N)6
_chemical_formula_sum   'Ag16 H192 C288 N96'
_cell_volume   8379.20967618
_cell_formula_units_Z   16
loop_
 _symmetry_equiv_pos_site_id
 _symmetry_equiv_pos_as_xyz
  1  'x, y, z'
loop_
 _atom_site_type_symbol
 _atom_site_label
 _atom_site_symmetry_multiplicity
 _atom_site_fract_x
 _atom_site_fract_y
 _atom_site_fract_z
 _atom_site_occupancy
 _atom_site_charge
  Ag  Ag1  1  0.844240  0.457670  0.367850  1.0  0.3421
  Ag  Ag2  1  0.322850  0.252730  0.867210  1.0  0.2751
  Ag  Ag3  1  0.344240  0.957670  0.367840  1.0  0.3421
  Ag  Ag4  1  0.822850  0.752730  0.867210  1.0  0.2751
  Ag  Ag5  1  0.155760  0.457670  0.132160  1.0  0.3426
  Ag  Ag6  1  0.677150  0.252730  0.632790  1.0  0.275
  Ag  Ag7  1  0.655760  0.957670  0.132160  1.0  0.3426
  Ag  Ag8  1  0.177150  0.752730  0.632790  1.0  0.275
  Ag  Ag9  1  0.155760  0.542330  0.632160  1.0  0.3428
  Ag  Ag10  1  0.677150  0.747270  0.132790  1.0  0.2749
  Ag  Ag11  1  0.655760  0.042330  0.632160  1.0  0.3428
  Ag  Ag12  1  0.177150  0.247270  0.132790  1.0  0.2749
  Ag  Ag13  1  0.844240  0.542330  0.867850  1.0  0.3423
  Ag  Ag14  1  0.322850  0.747270  0.367210  1.0  0.2751
  Ag  Ag15  1  0.344240  0.042330  0.867850  1.0  0.3423
  Ag  Ag16  1  0.822850  0.247270  0.367210  1.0  0.275
  H  H17  1  0.798800  0.633800  0.049200  1.0  0.128
  H  H18  1  0.320000  0.088600  0.544600  1.0  0.1259
  H  H19  1  0.213200  0.057800  0.348400  1.0  0.0793
  H  H20  1  0.424100  0.314800  0.984400  1.0  0.0774
  H  H21  1  0.054400  0.290000  0.389600  1.0  0.1242
  H  H22  1  0.523000  0.382700  0.036200  1.0  0.1254
  H  H23  1  0.699900  0.656000  0.851900  1.0  0.091
  H  H24  1  0.635400  0.438200  0.160900  1.0  0.1178
  H  H25  1  0.043100  0.330800  0.539600  1.0  0.1305
  H  H26  1  0.643900  0.587700  0.896400  1.0  0.1218
  H  H27  1  0.956100  0.362600  0.344000  1.0  0.0844
  H  H28  1  0.944700  0.397800  0.489500  1.0  0.0769
  H  H29  1  0.367900  0.018000  0.494400  1.0  0.0744
  H  H30  1  0.849700  0.703300  0.000100  1.0  0.0788
  H  H31  1  0.161800  0.133000  0.393600  1.0  0.1277
  H  H32  1  0.851800  0.521000  0.263400  1.0  0.0818
  H  H33  1  0.520200  0.456500  0.885900  1.0  0.1292
  H  H34  1  0.424200  0.382200  0.839300  1.0  0.077
  H  H35  1  0.802300  0.540900  0.164900  1.0  0.1207
  H  H36  1  0.367900  0.180200  0.766800  1.0  0.0759
  H  H37  1  0.177400  0.319500  0.656300  1.0  0.1265
  H  H38  1  0.323700  0.164500  0.668400  1.0  0.1262
  H  H39  1  0.226900  0.329900  0.754600  1.0  0.0753
  H  H40  1  0.688800  0.422300  0.259300  1.0  0.0837
  H  H41  1  0.298800  0.133800  0.049200  1.0  0.128
  H  H42  1  0.820000  0.588600  0.544600  1.0  0.1259
  H  H43  1  0.713200  0.557800  0.348400  1.0  0.0793
  H  H44  1  0.924100  0.814800  0.984400  1.0  0.0774
  H  H45  1  0.554400  0.790000  0.389600  1.0  0.1242
  H  H46  1  0.023000  0.882700  0.036200  1.0  0.1254
  H  H47  1  0.199900  0.156000  0.851900  1.0  0.091
  H  H48  1  0.135400  0.938200  0.160900  1.0  0.1178
  H  H49  1  0.543100  0.830800  0.539600  1.0  0.1305
  H  H50  1  0.143900  0.087700  0.896400  1.0  0.1218
  H  H51  1  0.456100  0.862600  0.344000  1.0  0.0844
  H  H52  1  0.444700  0.897800  0.489500  1.0  0.0769
  H  H53  1  0.867900  0.518000  0.494400  1.0  0.0744
  H  H54  1  0.349700  0.203300  0.000100  1.0  0.0788
  H  H55  1  0.661800  0.633000  0.393600  1.0  0.1277
  H  H56  1  0.351800  0.021000  0.263400  1.0  0.0818
  H  H57  1  0.020200  0.956500  0.885900  1.0  0.1292
  H  H58  1  0.924200  0.882200  0.839300  1.0  0.077
  H  H59  1  0.302300  0.040900  0.164900  1.0  0.1207
  H  H60  1  0.867900  0.680200  0.766800  1.0  0.0759
  H  H61  1  0.677400  0.819500  0.656300  1.0  0.1265
  H  H62  1  0.823700  0.664500  0.668400  1.0  0.1262
  H  H63  1  0.726900  0.829900  0.754600  1.0  0.0753
  H  H64  1  0.188800  0.922300  0.259300  1.0  0.0834
  H  H65  1  0.201200  0.633800  0.450800  1.0  0.1279
  H  H66  1  0.680000  0.088600  0.955400  1.0  0.1263
  H  H67  1  0.786800  0.057800  0.151600  1.0  0.0779
  H  H68  1  0.575900  0.314800  0.515600  1.0  0.0784
  H  H69  1  0.945600  0.290000  0.110400  1.0  0.1235
  H  H70  1  0.477000  0.382700  0.463800  1.0  0.1254
  H  H71  1  0.300100  0.656000  0.648100  1.0  0.0903
  H  H72  1  0.364600  0.438200  0.339100  1.0  0.1165
  H  H73  1  0.956900  0.330800  0.960400  1.0  0.1307
  H  H74  1  0.356100  0.587700  0.603600  1.0  0.1219
  H  H75  1  0.043900  0.362600  0.156000  1.0  0.0849
  H  H76  1  0.055300  0.397800  0.010500  1.0  0.0771
  H  H77  1  0.632100  0.018000  0.005600  1.0  0.0735
  H  H78  1  0.150300  0.703300  0.499900  1.0  0.0782
  H  H79  1  0.838200  0.133000  0.106400  1.0  0.128
  H  H80  1  0.148200  0.521000  0.236600  1.0  0.0823
  H  H81  1  0.479800  0.456500  0.614100  1.0  0.129
  H  H82  1  0.575800  0.382200  0.660700  1.0  0.0773
  H  H83  1  0.197700  0.540900  0.335100  1.0  0.1213
  H  H84  1  0.632100  0.180200  0.733200  1.0  0.0765
  H  H85  1  0.822600  0.319500  0.843700  1.0  0.1268
  H  H86  1  0.676300  0.164500  0.831600  1.0  0.1261
  H  H87  1  0.773100  0.329900  0.745400  1.0  0.0742
  H  H88  1  0.311200  0.422300  0.240700  1.0  0.0832
  H  H89  1  0.701200  0.133800  0.450800  1.0  0.1279
  H  H90  1  0.180000  0.588600  0.955400  1.0  0.1263
  H  H91  1  0.286800  0.557800  0.151600  1.0  0.0779
  H  H92  1  0.075900  0.814800  0.515600  1.0  0.0785
  H  H93  1  0.445600  0.790000  0.110400  1.0  0.1235
  H  H94  1  0.977000  0.882700  0.463800  1.0  0.1254
  H  H95  1  0.800100  0.156000  0.648100  1.0  0.0903
  H  H96  1  0.864600  0.938200  0.339100  1.0  0.1165
  H  H97  1  0.456900  0.830800  0.960400  1.0  0.1307
  H  H98  1  0.856100  0.087700  0.603600  1.0  0.1219
  H  H99  1  0.543900  0.862600  0.156000  1.0  0.0849
  H  H100  1  0.555300  0.897800  0.010500  1.0  0.0771
  H  H101  1  0.132100  0.518000  0.005600  1.0  0.0735
  H  H102  1  0.650300  0.203300  0.499900  1.0  0.0782
  H  H103  1  0.338200  0.633000  0.106400  1.0  0.128
  H  H104  1  0.648200  0.021000  0.236600  1.0  0.0823
  H  H105  1  0.979800  0.956500  0.614100  1.0  0.129
  H  H106  1  0.075800  0.882200  0.660700  1.0  0.0773
  H  H107  1  0.697700  0.040900  0.335100  1.0  0.1213
  H  H108  1  0.132100  0.680200  0.733200  1.0  0.0765
  H  H109  1  0.322600  0.819500  0.843700  1.0  0.1268
  H  H110  1  0.176300  0.664500  0.831600  1.0  0.1261
  H  H111  1  0.273100  0.829900  0.745400  1.0  0.0742
  H  H112  1  0.811200  0.922300  0.240700  1.0  0.0828
  H  H113  1  0.201200  0.366200  0.950800  1.0  0.1278
  H  H114  1  0.680000  0.911400  0.455400  1.0  0.1265
  H  H115  1  0.786800  0.942200  0.651600  1.0  0.0778
  H  H116  1  0.575900  0.685200  0.015600  1.0  0.0785
  H  H117  1  0.945600  0.710000  0.610400  1.0  0.1234
  H  H118  1  0.477000  0.617300  0.963800  1.0  0.1258
  H  H119  1  0.300100  0.344000  0.148100  1.0  0.0898
  H  H120  1  0.364600  0.561800  0.839100  1.0  0.1172
  H  H121  1  0.956900  0.669200  0.460400  1.0  0.1305
  H  H122  1  0.356100  0.412300  0.103600  1.0  0.1221
  H  H123  1  0.043900  0.637400  0.656000  1.0  0.0847
  H  H124  1  0.055300  0.602200  0.510500  1.0  0.0775
  H  H125  1  0.632100  0.982000  0.505600  1.0  0.0736
  H  H126  1  0.150300  0.296700  0.999900  1.0  0.0782
  H  H127  1  0.838200  0.867000  0.606400  1.0  0.1281
  H  H128  1  0.148200  0.479000  0.736600  1.0  0.0821
  H  H129  1  0.479800  0.543500  0.114100  1.0  0.1291
  H  H130  1  0.575800  0.617800  0.160700  1.0  0.0773
  H  H131  1  0.197700  0.459100  0.835100  1.0  0.1212
  H  H132  1  0.632100  0.819800  0.233200  1.0  0.0767
  H  H133  1  0.822600  0.680500  0.343700  1.0  0.1266
  H  H134  1  0.676300  0.835500  0.331600  1.0  0.1263
  H  H135  1  0.773100  0.670100  0.245400  1.0  0.0747
  H  H136  1  0.311200  0.577700  0.740700  1.0  0.0825
  H  H137  1  0.701200  0.866200  0.950800  1.0  0.1278
  H  H138  1  0.180000  0.411400  0.455400  1.0  0.1265
  H  H139  1  0.286800  0.442200  0.651600  1.0  0.0778
  H  H140  1  0.075900  0.185200  0.015600  1.0  0.0785
  H  H141  1  0.445600  0.210000  0.610400  1.0  0.1234
  H  H142  1  0.977000  0.117300  0.963800  1.0  0.1258
  H  H143  1  0.800100  0.844000  0.148100  1.0  0.0898
  H  H144  1  0.864600  0.061800  0.839100  1.0  0.1172
  H  H145  1  0.456900  0.169200  0.460400  1.0  0.1305
  H  H146  1  0.856100  0.912300  0.103600  1.0  0.1221
  H  H147  1  0.543900  0.137400  0.656000  1.0  0.0847
  H  H148  1  0.555300  0.102200  0.510500  1.0  0.0775
  H  H149  1  0.132100  0.482000  0.505600  1.0  0.0736
  H  H150  1  0.650300  0.796700  0.999900  1.0  0.0782
  H  H151  1  0.338200  0.367000  0.606400  1.0  0.1281
  H  H152  1  0.648200  0.979000  0.736600  1.0  0.0821
  H  H153  1  0.979800  0.043500  0.114100  1.0  0.1291
  H  H154  1  0.075800  0.117800  0.160700  1.0  0.0773
  H  H155  1  0.697700  0.959100  0.835100  1.0  0.1212
  H  H156  1  0.132100  0.319800  0.233200  1.0  0.0767
  H  H157  1  0.322600  0.180500  0.343700  1.0  0.1266
  H  H158  1  0.176300  0.335500  0.331600  1.0  0.1263
  H  H159  1  0.273100  0.170100  0.245400  1.0  0.0747
  H  H160  1  0.811200  0.077700  0.740700  1.0  0.0824
  H  H161  1  0.798800  0.366200  0.549200  1.0  0.1282
  H  H162  1  0.320000  0.911400  0.044600  1.0  0.1257
  H  H163  1  0.213200  0.942200  0.848400  1.0  0.0793
  H  H164  1  0.424100  0.685200  0.484400  1.0  0.0773
  H  H165  1  0.054400  0.710000  0.889600  1.0  0.1239
  H  H166  1  0.523000  0.617300  0.536200  1.0  0.1253
  H  H167  1  0.699900  0.344000  0.351900  1.0  0.0908
  H  H168  1  0.635400  0.561800  0.660900  1.0  0.118
  H  H169  1  0.043100  0.669200  0.039600  1.0  0.1305
  H  H170  1  0.643900  0.412300  0.396400  1.0  0.1217
  H  H171  1  0.956100  0.637400  0.844000  1.0  0.0841
  H  H172  1  0.944700  0.602200  0.989500  1.0  0.0773
  H  H173  1  0.367900  0.982000  0.994400  1.0  0.0741
  H  H174  1  0.849700  0.296700  0.500100  1.0  0.0788
  H  H175  1  0.161800  0.867000  0.893600  1.0  0.1279
  H  H176  1  0.851800  0.479000  0.763400  1.0  0.0814
  H  H177  1  0.520200  0.543500  0.385900  1.0  0.1288
  H  H178  1  0.424200  0.617800  0.339300  1.0  0.077
  H  H179  1  0.802300  0.459100  0.664900  1.0  0.1206
  H  H180  1  0.367900  0.819800  0.266800  1.0  0.0761
  H  H181  1  0.177400  0.680500  0.156300  1.0  0.1266
  H  H182  1  0.323700  0.835500  0.168400  1.0  0.1265
  H  H183  1  0.226900  0.670100  0.254600  1.0  0.0756
  H  H184  1  0.688800  0.577700  0.759300  1.0  0.0828
  H  H185  1  0.298800  0.866200  0.549200  1.0  0.1282
  H  H186  1  0.820000  0.411400  0.044600  1.0  0.1257
  H  H187  1  0.713200  0.442200  0.848400  1.0  0.0793
  H  H188  1  0.924100  0.185200  0.484400  1.0  0.0773
  H  H189  1  0.554400  0.210000  0.889600  1.0  0.1239
  H  H190  1  0.023000  0.117300  0.536200  1.0  0.1253
  H  H191  1  0.199900  0.844000  0.351900  1.0  0.0908
  H  H192  1  0.135400  0.061800  0.660900  1.0  0.118
  H  H193  1  0.543100  0.169200  0.039600  1.0  0.1305
  H  H194  1  0.143900  0.912300  0.396400  1.0  0.1217
  H  H195  1  0.456100  0.137400  0.844000  1.0  0.0841
  H  H196  1  0.444700  0.102200  0.989500  1.0  0.0773
  H  H197  1  0.867900  0.482000  0.994400  1.0  0.0741
  H  H198  1  0.349700  0.796700  0.500100  1.0  0.0788
  H  H199  1  0.661800  0.367000  0.893600  1.0  0.1279
  H  H200  1  0.351800  0.979000  0.763400  1.0  0.0814
  H  H201  1  0.020200  0.043500  0.385900  1.0  0.1288
  H  H202  1  0.924200  0.117800  0.339300  1.0  0.077
  H  H203  1  0.302300  0.959100  0.664900  1.0  0.1206
  H  H204  1  0.867900  0.319800  0.266800  1.0  0.0761
  H  H205  1  0.677400  0.180500  0.156300  1.0  0.1266
  H  H206  1  0.823700  0.335500  0.168400  1.0  0.1265
  H  H207  1  0.726900  0.170100  0.254600  1.0  0.0756
  H  H208  1  0.188800  0.077700  0.759300  1.0  0.0828
  C  C209  1  0.777900  0.637600  0.009100  1.0  -0.1556
  C  C210  1  0.123700  0.256900  0.502100  1.0  0.3691
  C  C211  1  0.597700  0.470400  0.000600  1.0  0.3841
  C  C212  1  0.060000  0.302200  0.469900  1.0  -0.0852
  C  C213  1  0.297700  0.084200  0.504600  1.0  -0.1616
  C  C214  1  0.235100  0.064800  0.388200  1.0  0.1713
  C  C215  1  0.443900  0.343200  0.964400  1.0  0.1737
  C  C216  1  0.033100  0.311700  0.410900  1.0  -0.1429
  C  C217  1  0.533100  0.426500  0.966700  1.0  -0.0746
  C  C218  1  0.503500  0.384000  0.996000  1.0  -0.1534
  C  C219  1  0.682600  0.552000  0.006600  1.0  0.3802
  C  C220  1  0.719900  0.651900  0.892000  1.0  0.1648
  C  C221  1  0.210000  0.226900  0.587800  1.0  0.3788
  C  C222  1  0.679300  0.456100  0.181000  1.0  -0.0909
  C  C223  1  0.680100  0.502100  0.087900  1.0  0.383
  C  C224  1  0.715400  0.601400  0.977400  1.0  -0.0101
  C  C225  1  0.026000  0.335600  0.499600  1.0  -0.1862
  C  C226  1  0.243400  0.237400  0.651200  1.0  -0.0527
  C  C227  1  0.686000  0.609900  0.918400  1.0  -0.1534
  C  C228  1  0.205400  0.172300  0.504800  1.0  0.3737
  C  C229  1  0.235900  0.120900  0.474400  1.0  -0.1175
  C  C230  1  0.973300  0.354500  0.383700  1.0  0.1704
  C  C231  1  0.967000  0.375600  0.469100  1.0  0.1772
  C  C232  1  0.325700  0.041000  0.474100  1.0  0.1719
  C  C233  1  0.808000  0.679400  0.979000  1.0  0.1832
  C  C234  1  0.203800  0.110100  0.415100  1.0  -0.1523
  C  C235  1  0.712300  0.492400  0.151700  1.0  -0.0948
  C  C236  1  0.807500  0.504700  0.242500  1.0  0.1673
  C  C237  1  0.502100  0.427200  0.906900  1.0  -0.1495
  C  C238  1  0.443900  0.383400  0.879500  1.0  0.1793
  C  C239  1  0.778200  0.516900  0.183200  1.0  -0.186
  C  C240  1  0.328400  0.207500  0.744100  1.0  0.1794
  C  C241  1  0.215700  0.289300  0.678000  1.0  -0.1826
  C  C242  1  0.302300  0.197300  0.685000  1.0  -0.1687
  C  C243  1  0.245900  0.295000  0.737000  1.0  0.182
  C  C244  1  0.711800  0.446500  0.240200  1.0  0.1654
  C  C245  1  0.277900  0.137600  0.009100  1.0  -0.1556
  C  C246  1  0.623700  0.756900  0.502100  1.0  0.3691
  C  C247  1  0.097700  0.970400  0.000600  1.0  0.3841
  C  C248  1  0.560000  0.802200  0.469900  1.0  -0.0852
  C  C249  1  0.797700  0.584200  0.504600  1.0  -0.1616
  C  C250  1  0.735100  0.564800  0.388200  1.0  0.1713
  C  C251  1  0.943900  0.843200  0.964400  1.0  0.1737
  C  C252  1  0.533100  0.811700  0.410900  1.0  -0.1429
  C  C253  1  0.033100  0.926500  0.966700  1.0  -0.0746
  C  C254  1  0.003500  0.884000  0.996000  1.0  -0.1534
  C  C255  1  0.182600  0.052000  0.006600  1.0  0.3802
  C  C256  1  0.219900  0.151900  0.892000  1.0  0.1648
  C  C257  1  0.710000  0.726900  0.587800  1.0  0.3788
  C  C258  1  0.179300  0.956100  0.181000  1.0  -0.0909
  C  C259  1  0.180100  0.002100  0.087900  1.0  0.383
  C  C260  1  0.215400  0.101400  0.977400  1.0  -0.0101
  C  C261  1  0.526000  0.835600  0.499600  1.0  -0.1862
  C  C262  1  0.743400  0.737400  0.651200  1.0  -0.0527
  C  C263  1  0.186000  0.109900  0.918400  1.0  -0.1534
  C  C264  1  0.705400  0.672300  0.504800  1.0  0.3737
  C  C265  1  0.735900  0.620900  0.474400  1.0  -0.1175
  C  C266  1  0.473300  0.854500  0.383700  1.0  0.1704
  C  C267  1  0.467000  0.875600  0.469100  1.0  0.1772
  C  C268  1  0.825700  0.541000  0.474100  1.0  0.1719
  C  C269  1  0.308000  0.179400  0.979000  1.0  0.1832
  C  C270  1  0.703800  0.610100  0.415100  1.0  -0.1523
  C  C271  1  0.212300  0.992400  0.151700  1.0  -0.0948
  C  C272  1  0.307500  0.004700  0.242500  1.0  0.1673
  C  C273  1  0.002100  0.927200  0.906900  1.0  -0.1495
  C  C274  1  0.943900  0.883400  0.879500  1.0  0.1793
  C  C275  1  0.278200  0.016900  0.183200  1.0  -0.186
  C  C276  1  0.828400  0.707500  0.744100  1.0  0.1794
  C  C277  1  0.715700  0.789300  0.678000  1.0  -0.1826
  C  C278  1  0.802300  0.697300  0.685000  1.0  -0.1687
  C  C279  1  0.745900  0.795000  0.737000  1.0  0.182
  C  C280  1  0.211800  0.946500  0.240200  1.0  0.1654
  C  C281  1  0.222100  0.637600  0.490900  1.0  -0.1548
  C  C282  1  0.876300  0.256900  0.997900  1.0  0.3695
  C  C283  1  0.402300  0.470400  0.499400  1.0  0.3838
  C  C284  1  0.940000  0.302200  0.030100  1.0  -0.0848
  C  C285  1  0.702300  0.084200  0.995400  1.0  -0.1597
  C  C286  1  0.764900  0.064800  0.111800  1.0  0.1693
  C  C287  1  0.556100  0.343200  0.535600  1.0  0.1736
  C  C288  1  0.966900  0.311700  0.089100  1.0  -0.1452
  C  C289  1  0.466900  0.426500  0.533300  1.0  -0.0759
  C  C290  1  0.496500  0.384000  0.504000  1.0  -0.1541
  C  C291  1  0.317400  0.552000  0.493400  1.0  0.3809
  C  C292  1  0.280100  0.651900  0.608000  1.0  0.1646
  C  C293  1  0.790000  0.226900  0.912200  1.0  0.3785
  C  C294  1  0.320700  0.456100  0.319000  1.0  -0.0927
  C  C295  1  0.319900  0.502100  0.412100  1.0  0.3833
  C  C296  1  0.284600  0.601400  0.522600  1.0  -0.0084
  C  C297  1  0.974000  0.335600  0.000400  1.0  -0.1863
  C  C298  1  0.756600  0.237400  0.848800  1.0  -0.0527
  C  C299  1  0.314000  0.609900  0.581600  1.0  -0.152
  C  C300  1  0.794600  0.172300  0.995200  1.0  0.3738
  C  C301  1  0.764100  0.120900  0.025600  1.0  -0.1171
  C  C302  1  0.026700  0.354500  0.116300  1.0  0.1691
  C  C303  1  0.033000  0.375600  0.030900  1.0  0.1786
  C  C304  1  0.674300  0.041000  0.025900  1.0  0.1725
  C  C305  1  0.192000  0.679400  0.521000  1.0  0.183
  C  C306  1  0.796200  0.110100  0.084900  1.0  -0.1529
  C  C307  1  0.287700  0.492400  0.348300  1.0  -0.095
  C  C308  1  0.192500  0.504700  0.257500  1.0  0.1666
  C  C309  1  0.497900  0.427200  0.593100  1.0  -0.1535
  C  C310  1  0.556100  0.383400  0.620500  1.0  0.1804
  C  C311  1  0.221800  0.516900  0.316800  1.0  -0.1867
  C  C312  1  0.671600  0.207500  0.755900  1.0  0.1795
  C  C313  1  0.784300  0.289300  0.822000  1.0  -0.1826
  C  C314  1  0.697700  0.197300  0.815000  1.0  -0.1666
  C  C315  1  0.754100  0.295000  0.763000  1.0  0.1811
  C  C316  1  0.288200  0.446500  0.259800  1.0  0.1662
  C  C317  1  0.722100  0.137600  0.490900  1.0  -0.1548
  C  C318  1  0.376300  0.756900  0.997900  1.0  0.3695
  C  C319  1  0.902300  0.970400  0.499400  1.0  0.3838
  C  C320  1  0.440000  0.802200  0.030100  1.0  -0.0848
  C  C321  1  0.202300  0.584200  0.995400  1.0  -0.1597
  C  C322  1  0.264900  0.564800  0.111800  1.0  0.1693
  C  C323  1  0.056100  0.843200  0.535600  1.0  0.1736
  C  C324  1  0.466900  0.811700  0.089100  1.0  -0.1452
  C  C325  1  0.966900  0.926500  0.533300  1.0  -0.0759
  C  C326  1  0.996500  0.884000  0.504000  1.0  -0.1541
  C  C327  1  0.817400  0.052000  0.493400  1.0  0.3809
  C  C328  1  0.780100  0.151900  0.608000  1.0  0.1646
  C  C329  1  0.290000  0.726900  0.912200  1.0  0.3785
  C  C330  1  0.820700  0.956100  0.319000  1.0  -0.0927
  C  C331  1  0.819900  0.002100  0.412100  1.0  0.3833
  C  C332  1  0.784600  0.101400  0.522600  1.0  -0.0084
  C  C333  1  0.474000  0.835600  0.000400  1.0  -0.1863
  C  C334  1  0.256600  0.737400  0.848800  1.0  -0.0527
  C  C335  1  0.814000  0.109900  0.581600  1.0  -0.152
  C  C336  1  0.294600  0.672300  0.995200  1.0  0.3738
  C  C337  1  0.264100  0.620900  0.025600  1.0  -0.1171
  C  C338  1  0.526700  0.854500  0.116300  1.0  0.1691
  C  C339  1  0.533000  0.875600  0.030900  1.0  0.1786
  C  C340  1  0.174300  0.541000  0.025900  1.0  0.1725
  C  C341  1  0.692000  0.179400  0.521000  1.0  0.183
  C  C342  1  0.296200  0.610100  0.084900  1.0  -0.1529
  C  C343  1  0.787700  0.992400  0.348300  1.0  -0.095
  C  C344  1  0.692500  0.004700  0.257500  1.0  0.1666
  C  C345  1  0.997900  0.927200  0.593100  1.0  -0.1535
  C  C346  1  0.056100  0.883400  0.620500  1.0  0.1804
  C  C347  1  0.721800  0.016900  0.316800  1.0  -0.1867
  C  C348  1  0.171600  0.707500  0.755900  1.0  0.1795
  C  C349  1  0.284300  0.789300  0.822000  1.0  -0.1826
  C  C350  1  0.197700  0.697300  0.815000  1.0  -0.1666
  C  C351  1  0.254100  0.795000  0.763000  1.0  0.1811
  C  C352  1  0.788200  0.946500  0.259800  1.0  0.1662
  C  C353  1  0.222100  0.362400  0.990900  1.0  -0.1545
  C  C354  1  0.876300  0.743100  0.497900  1.0  0.37
  C  C355  1  0.402300  0.529600  0.999400  1.0  0.3838
  C  C356  1  0.940000  0.697800  0.530100  1.0  -0.0854
  C  C357  1  0.702300  0.915800  0.495400  1.0  -0.1601
  C  C358  1  0.764900  0.935200  0.611800  1.0  0.169
  C  C359  1  0.556100  0.656800  0.035600  1.0  0.1735
  C  C360  1  0.966900  0.688300  0.589100  1.0  -0.1448
  C  C361  1  0.466900  0.573500  0.033300  1.0  -0.0762
  C  C362  1  0.496500  0.616000  0.004000  1.0  -0.1542
  C  C363  1  0.317400  0.448000  0.993400  1.0  0.3806
  C  C364  1  0.280100  0.348100  0.108000  1.0  0.1656
  C  C365  1  0.790000  0.773100  0.412200  1.0  0.3787
  C  C366  1  0.320700  0.543900  0.819000  1.0  -0.0931
  C  C367  1  0.319900  0.497900  0.912100  1.0  0.3831
  C  C368  1  0.284600  0.398600  0.022600  1.0  -0.0091
  C  C369  1  0.974000  0.664400  0.500400  1.0  -0.1858
  C  C370  1  0.756600  0.762600  0.348800  1.0  -0.0524
  C  C371  1  0.314000  0.390100  0.081600  1.0  -0.1521
  C  C372  1  0.794600  0.827700  0.495200  1.0  0.3737
  C  C373  1  0.764100  0.879100  0.525600  1.0  -0.1172
  C  C374  1  0.026700  0.645500  0.616300  1.0  0.1687
  C  C375  1  0.033000  0.624400  0.530900  1.0  0.1774
  C  C376  1  0.674300  0.959000  0.525900  1.0  0.1715
  C  C377  1  0.192000  0.320600  0.021000  1.0  0.1839
  C  C378  1  0.796200  0.889900  0.584900  1.0  -0.1534
  C  C379  1  0.287700  0.507600  0.848300  1.0  -0.0947
  C  C380  1  0.192500  0.495300  0.757500  1.0  0.1665
  C  C381  1  0.497900  0.572800  0.093100  1.0  -0.1538
  C  C382  1  0.556100  0.616600  0.120500  1.0  0.1804
  C  C383  1  0.221800  0.483100  0.816800  1.0  -0.186
  C  C384  1  0.671600  0.792500  0.255900  1.0  0.1797
  C  C385  1  0.784300  0.710700  0.322000  1.0  -0.1826
  C  C386  1  0.697700  0.802700  0.315000  1.0  -0.1662
  C  C387  1  0.754100  0.705000  0.263000  1.0  0.1814
  C  C388  1  0.288200  0.553500  0.759800  1.0  0.1667
  C  C389  1  0.722100  0.862400  0.990900  1.0  -0.1545
  C  C390  1  0.376300  0.243100  0.497900  1.0  0.37
  C  C391  1  0.902300  0.029600  0.999400  1.0  0.3838
  C  C392  1  0.440000  0.197800  0.530100  1.0  -0.0854
  C  C393  1  0.202300  0.415800  0.495400  1.0  -0.1601
  C  C394  1  0.264900  0.435200  0.611800  1.0  0.169
  C  C395  1  0.056100  0.156800  0.035600  1.0  0.1735
  C  C396  1  0.466900  0.188300  0.589100  1.0  -0.1448
  C  C397  1  0.966900  0.073500  0.033300  1.0  -0.0762
  C  C398  1  0.996500  0.116000  0.004000  1.0  -0.1542
  C  C399  1  0.817400  0.948000  0.993400  1.0  0.3806
  C  C400  1  0.780100  0.848100  0.108000  1.0  0.1656
  C  C401  1  0.290000  0.273100  0.412200  1.0  0.3787
  C  C402  1  0.820700  0.043900  0.819000  1.0  -0.0931
  C  C403  1  0.819900  0.997900  0.912100  1.0  0.3831
  C  C404  1  0.784600  0.898600  0.022600  1.0  -0.0091
  C  C405  1  0.474000  0.164400  0.500400  1.0  -0.1858
  C  C406  1  0.256600  0.262600  0.348800  1.0  -0.0524
  C  C407  1  0.814000  0.890100  0.081600  1.0  -0.1521
  C  C408  1  0.294600  0.327700  0.495200  1.0  0.3737
  C  C409  1  0.264100  0.379100  0.525600  1.0  -0.1172
  C  C410  1  0.526700  0.145500  0.616300  1.0  0.1687
  C  C411  1  0.533000  0.124400  0.530900  1.0  0.1774
  C  C412  1  0.174300  0.459000  0.525900  1.0  0.1715
  C  C413  1  0.692000  0.820600  0.021000  1.0  0.1839
  C  C414  1  0.296200  0.389900  0.584900  1.0  -0.1534
  C  C415  1  0.787700  0.007600  0.848300  1.0  -0.0947
  C  C416  1  0.692500  0.995300  0.757500  1.0  0.1665
  C  C417  1  0.997900  0.072800  0.093100  1.0  -0.1538
  C  C418  1  0.056100  0.116600  0.120500  1.0  0.1804
  C  C419  1  0.721800  0.983100  0.816800  1.0  -0.186
  C  C420  1  0.171600  0.292500  0.255900  1.0  0.1797
  C  C421  1  0.284300  0.210700  0.322000  1.0  -0.1826
  C  C422  1  0.197700  0.302700  0.315000  1.0  -0.1662
  C  C423  1  0.254100  0.205000  0.263000  1.0  0.1814
  C  C424  1  0.788200  0.053500  0.759800  1.0  0.1667
  C  C425  1  0.777900  0.362400  0.509100  1.0  -0.156
  C  C426  1  0.123700  0.743100  0.002100  1.0  0.3696
  C  C427  1  0.597700  0.529600  0.500600  1.0  0.3842
  C  C428  1  0.060000  0.697800  0.969900  1.0  -0.085
  C  C429  1  0.297700  0.915800  0.004600  1.0  -0.1618
  C  C430  1  0.235100  0.935200  0.888200  1.0  0.1709
  C  C431  1  0.443900  0.656800  0.464400  1.0  0.1734
  C  C432  1  0.033100  0.688300  0.910900  1.0  -0.1433
  C  C433  1  0.533100  0.573500  0.466700  1.0  -0.0753
  C  C434  1  0.503500  0.616000  0.496000  1.0  -0.1538
  C  C435  1  0.682600  0.448000  0.506600  1.0  0.38
  C  C436  1  0.719900  0.348100  0.392000  1.0  0.1645
  C  C437  1  0.210000  0.773100  0.087800  1.0  0.379
  C  C438  1  0.679300  0.543900  0.681000  1.0  -0.091
  C  C439  1  0.680100  0.497900  0.587900  1.0  0.3829
  C  C440  1  0.715400  0.398600  0.477400  1.0  -0.0104
  C  C441  1  0.026000  0.664400  0.999600  1.0  -0.186
  C  C442  1  0.243400  0.762600  0.151200  1.0  -0.0523
  C  C443  1  0.686000  0.390100  0.418400  1.0  -0.1537
  C  C444  1  0.205400  0.827700  0.004800  1.0  0.3737
  C  C445  1  0.235900  0.879100  0.974400  1.0  -0.1171
  C  C446  1  0.973300  0.645500  0.883700  1.0  0.1697
  C  C447  1  0.967000  0.624400  0.969100  1.0  0.1776
  C  C448  1  0.325700  0.959000  0.974100  1.0  0.1711
  C  C449  1  0.808000  0.320600  0.479000  1.0  0.1839
  C  C450  1  0.203800  0.889900  0.915100  1.0  -0.152
  C  C451  1  0.712300  0.507600  0.651700  1.0  -0.0947
  C  C452  1  0.807500  0.495300  0.742500  1.0  0.1671
  C  C453  1  0.502100  0.572800  0.406900  1.0  -0.1498
  C  C454  1  0.443900  0.616600  0.379500  1.0  0.1797
  C  C455  1  0.778200  0.483100  0.683200  1.0  -0.1862
  C  C456  1  0.328400  0.792500  0.244100  1.0  0.1798
  C  C457  1  0.215700  0.710700  0.178000  1.0  -0.1821
  C  C458  1  0.302300  0.802700  0.185000  1.0  -0.1684
  C  C459  1  0.245900  0.705000  0.237000  1.0  0.1821
  C  C460  1  0.711800  0.553500  0.740200  1.0  0.1662
  C  C461  1  0.277900  0.862400  0.509100  1.0  -0.156
  C  C462  1  0.623700  0.243100  0.002100  1.0  0.3696
  C  C463  1  0.097700  0.029600  0.500600  1.0  0.3842
  C  C464  1  0.560000  0.197800  0.969900  1.0  -0.085
  C  C465  1  0.797700  0.415800  0.004600  1.0  -0.1618
  C  C466  1  0.735100  0.435200  0.888200  1.0  0.1709
  C  C467  1  0.943900  0.156800  0.464400  1.0  0.1734
  C  C468  1  0.533100  0.188300  0.910900  1.0  -0.1433
  C  C469  1  0.033100  0.073500  0.466700  1.0  -0.0753
  C  C470  1  0.003500  0.116000  0.496000  1.0  -0.1538
  C  C471  1  0.182600  0.948000  0.506600  1.0  0.38
  C  C472  1  0.219900  0.848100  0.392000  1.0  0.1645
  C  C473  1  0.710000  0.273100  0.087800  1.0  0.379
  C  C474  1  0.179300  0.043900  0.681000  1.0  -0.091
  C  C475  1  0.180100  0.997900  0.587900  1.0  0.3829
  C  C476  1  0.215400  0.898600  0.477400  1.0  -0.0104
  C  C477  1  0.526000  0.164400  0.999600  1.0  -0.186
  C  C478  1  0.743400  0.262600  0.151200  1.0  -0.0523
  C  C479  1  0.186000  0.890100  0.418400  1.0  -0.1537
  C  C480  1  0.705400  0.327700  0.004800  1.0  0.3737
  C  C481  1  0.735900  0.379100  0.974400  1.0  -0.1171
  C  C482  1  0.473300  0.145500  0.883700  1.0  0.1697
  C  C483  1  0.467000  0.124400  0.969100  1.0  0.1776
  C  C484  1  0.825700  0.459000  0.974100  1.0  0.1711
  C  C485  1  0.308000  0.820600  0.479000  1.0  0.1839
  C  C486  1  0.703800  0.389900  0.915100  1.0  -0.152
  C  C487  1  0.212300  0.007600  0.651700  1.0  -0.0947
  C  C488  1  0.307500  0.995300  0.742500  1.0  0.1671
  C  C489  1  0.002100  0.072800  0.406900  1.0  -0.1498
  C  C490  1  0.943900  0.116600  0.379500  1.0  0.1797
  C  C491  1  0.278200  0.983100  0.683200  1.0  -0.1862
  C  C492  1  0.828400  0.292500  0.244100  1.0  0.1798
  C  C493  1  0.715700  0.210700  0.178000  1.0  -0.1821
  C  C494  1  0.802300  0.302700  0.185000  1.0  -0.1684
  C  C495  1  0.745900  0.205000  0.237000  1.0  0.1821
  C  C496  1  0.211800  0.053500  0.740200  1.0  0.1662
  N  N497  1  0.939400  0.384800  0.411990  1.0  -0.3184
  N  N498  1  0.295400  0.030500  0.416710  1.0  -0.3662
  N  N499  1  0.300600  0.253900  0.770700  1.0  -0.3281
  N  N500  1  0.153200  0.267900  0.559160  1.0  -0.5249
  N  N501  1  0.147900  0.210300  0.472150  1.0  -0.5188
  N  N502  1  0.238200  0.177700  0.562750  1.0  -0.5405
  N  N503  1  0.413600  0.342300  0.907080  1.0  -0.3572
  N  N504  1  0.780100  0.687100  0.921420  1.0  -0.3299
  N  N505  1  0.775900  0.471100  0.271500  1.0  -0.3573
  N  N506  1  0.622800  0.462700  0.058600  1.0  -0.5074
  N  N507  1  0.626200  0.511600  0.972940  1.0  -0.4564
  N  N508  1  0.711400  0.549600  0.064460  1.0  -0.5035
  N  N509  1  0.439400  0.884800  0.411990  1.0  -0.3184
  N  N510  1  0.795400  0.530500  0.416710  1.0  -0.3662
  N  N511  1  0.800600  0.753900  0.770700  1.0  -0.3281
  N  N512  1  0.653200  0.767900  0.559160  1.0  -0.5249
  N  N513  1  0.647900  0.710300  0.472150  1.0  -0.5188
  N  N514  1  0.738200  0.677700  0.562750  1.0  -0.5405
  N  N515  1  0.913600  0.842300  0.907080  1.0  -0.3572
  N  N516  1  0.280100  0.187100  0.921420  1.0  -0.3299
  N  N517  1  0.275900  0.971100  0.271500  1.0  -0.3573
  N  N518  1  0.122800  0.962700  0.058600  1.0  -0.5074
  N  N519  1  0.126200  0.011600  0.972940  1.0  -0.4564
  N  N520  1  0.211400  0.049600  0.064460  1.0  -0.5035
  N  N521  1  0.060600  0.384800  0.088010  1.0  -0.3196
  N  N522  1  0.704600  0.030500  0.083290  1.0  -0.366
  N  N523  1  0.699400  0.253900  0.729300  1.0  -0.3312
  N  N524  1  0.846800  0.267900  0.940840  1.0  -0.5227
  N  N525  1  0.852100  0.210300  0.027850  1.0  -0.5201
  N  N526  1  0.761800  0.177700  0.937250  1.0  -0.5425
  N  N527  1  0.586400  0.342300  0.592920  1.0  -0.3538
  N  N528  1  0.219900  0.687100  0.578580  1.0  -0.3305
  N  N529  1  0.224100  0.471100  0.228500  1.0  -0.3569
  N  N530  1  0.377200  0.462700  0.441400  1.0  -0.5071
  N  N531  1  0.373800  0.511600  0.527060  1.0  -0.4529
  N  N532  1  0.288600  0.549600  0.435540  1.0  -0.5037
  N  N533  1  0.560600  0.884800  0.088010  1.0  -0.3196
  N  N534  1  0.204600  0.530500  0.083290  1.0  -0.366
  N  N535  1  0.199400  0.753900  0.729300  1.0  -0.3312
  N  N536  1  0.346800  0.767900  0.940840  1.0  -0.5227
  N  N537  1  0.352100  0.710300  0.027850  1.0  -0.5201
  N  N538  1  0.261800  0.677700  0.937250  1.0  -0.5425
  N  N539  1  0.086400  0.842300  0.592920  1.0  -0.3538
  N  N540  1  0.719900  0.187100  0.578580  1.0  -0.3305
  N  N541  1  0.724100  0.971100  0.228500  1.0  -0.3569
  N  N542  1  0.877200  0.962700  0.441400  1.0  -0.5071
  N  N543  1  0.873800  0.011600  0.527060  1.0  -0.4529
  N  N544  1  0.788600  0.049600  0.435540  1.0  -0.5037
  N  N545  1  0.060600  0.615200  0.588010  1.0  -0.3194
  N  N546  1  0.704600  0.969500  0.583290  1.0  -0.3675
  N  N547  1  0.699400  0.746100  0.229300  1.0  -0.3317
  N  N548  1  0.846800  0.732100  0.440840  1.0  -0.5242
  N  N549  1  0.852100  0.789700  0.527850  1.0  -0.52
  N  N550  1  0.761800  0.822300  0.437250  1.0  -0.5414
  N  N551  1  0.586400  0.657700  0.092920  1.0  -0.3568
  N  N552  1  0.219900  0.312900  0.078580  1.0  -0.331
  N  N553  1  0.224100  0.528900  0.728500  1.0  -0.3565
  N  N554  1  0.377200  0.537300  0.941400  1.0  -0.5069
  N  N555  1  0.373800  0.488400  0.027060  1.0  -0.4518
  N  N556  1  0.288600  0.450400  0.935540  1.0  -0.505
  N  N557  1  0.560600  0.115200  0.588010  1.0  -0.3194
  N  N558  1  0.204600  0.469500  0.583290  1.0  -0.3675
  N  N559  1  0.199400  0.246100  0.229300  1.0  -0.3317
  N  N560  1  0.346800  0.232100  0.440840  1.0  -0.5242
  N  N561  1  0.352100  0.289700  0.527850  1.0  -0.52
  N  N562  1  0.261800  0.322300  0.437250  1.0  -0.5414
  N  N563  1  0.086400  0.157700  0.092920  1.0  -0.3568
  N  N564  1  0.719900  0.812900  0.078580  1.0  -0.331
  N  N565  1  0.724100  0.028900  0.728500  1.0  -0.3565
  N  N566  1  0.877200  0.037300  0.941400  1.0  -0.5069
  N  N567  1  0.873800  0.988400  0.027060  1.0  -0.4518
  N  N568  1  0.788600  0.950400  0.935540  1.0  -0.505
  N  N569  1  0.939400  0.615200  0.911990  1.0  -0.3226
  N  N570  1  0.295400  0.969500  0.916710  1.0  -0.3652
  N  N571  1  0.300600  0.746100  0.270700  1.0  -0.3281
  N  N572  1  0.153200  0.732100  0.059160  1.0  -0.5252
  N  N573  1  0.147900  0.789700  0.972150  1.0  -0.5187
  N  N574  1  0.238200  0.822300  0.062750  1.0  -0.5405
  N  N575  1  0.413600  0.657700  0.407080  1.0  -0.3574
  N  N576  1  0.780100  0.312900  0.421420  1.0  -0.3324
  N  N577  1  0.775900  0.528900  0.771500  1.0  -0.3573
  N  N578  1  0.622800  0.537300  0.558600  1.0  -0.5075
  N  N579  1  0.626200  0.488400  0.472940  1.0  -0.4563
  N  N580  1  0.711400  0.450400  0.564460  1.0  -0.503
  N  N581  1  0.439400  0.115200  0.911990  1.0  -0.3226
  N  N582  1  0.795400  0.469500  0.916710  1.0  -0.3652
  N  N583  1  0.800600  0.246100  0.270700  1.0  -0.3281
  N  N584  1  0.653200  0.232100  0.059160  1.0  -0.5252
  N  N585  1  0.647900  0.289700  0.972150  1.0  -0.5187
  N  N586  1  0.738200  0.322300  0.062750  1.0  -0.5405
  N  N587  1  0.913600  0.157700  0.407080  1.0  -0.3574
  N  N588  1  0.280100  0.812900  0.421420  1.0  -0.3324
  N  N589  1  0.275900  0.028900  0.771500  1.0  -0.3573
  N  N590  1  0.122800  0.037300  0.558600  1.0  -0.5075
  N  N591  1  0.126200  0.988400  0.472940  1.0  -0.4563
  N  N592  1  0.211400  0.950400  0.564460  1.0  -0.503
