# generated using pymatgen
data_AgH12(C3N)6
_symmetry_space_group_name_H-M   'P 1'
_cell_length_a   21.97170000
_cell_length_b   16.66920000
_cell_length_c   25.62890000
_cell_angle_alpha   90.00000000
_cell_angle_beta   115.34400000
_cell_angle_gamma   90.00000000
_symmetry_Int_Tables_number   1
_chemical_formula_structural   AgH12(C3N)6
_chemical_formula_sum   'Ag16 H192 C288 N96'
_cell_volume   8483.17962573
_cell_formula_units_Z   16
loop_
 _symmetry_equiv_pos_site_id
 _symmetry_equiv_pos_as_xyz
  1  'x, y, z'
loop_
 _atom_site_type_symbol
 _atom_site_label
 _atom_site_symmetry_multiplicity
 _atom_site_fract_x
 _atom_site_fract_y
 _atom_site_fract_z
 _atom_site_occupancy
 _atom_site_charge
  Ag  Ag1  1  0.273710  0.208960  0.868080  1.0  0.3288
  Ag  Ag2  1  0.295390  0.002440  0.367560  1.0  0.2863
  Ag  Ag3  1  0.773710  0.708960  0.868080  1.0  0.3288
  Ag  Ag4  1  0.795390  0.502440  0.367560  1.0  0.2863
  Ag  Ag5  1  0.726290  0.208960  0.631920  1.0  0.3292
  Ag  Ag6  1  0.704610  0.002440  0.132440  1.0  0.2863
  Ag  Ag7  1  0.226290  0.708960  0.631920  1.0  0.3292
  Ag  Ag8  1  0.204610  0.502440  0.132440  1.0  0.2863
  Ag  Ag9  1  0.726290  0.791040  0.131920  1.0  0.329
  Ag  Ag10  1  0.704610  0.997560  0.632440  1.0  0.2863
  Ag  Ag11  1  0.226290  0.291040  0.131920  1.0  0.329
  Ag  Ag12  1  0.204610  0.497560  0.632440  1.0  0.2863
  Ag  Ag13  1  0.273710  0.791040  0.368080  1.0  0.3284
  Ag  Ag14  1  0.295390  0.997560  0.867560  1.0  0.286
  Ag  Ag15  1  0.773710  0.291040  0.368080  1.0  0.3284
  Ag  Ag16  1  0.795390  0.497560  0.867560  1.0  0.286
  H  H17  1  0.901700  0.403400  0.351900  1.0  0.0937
  H  H18  1  0.084900  0.040100  0.889600  1.0  0.1292
  H  H19  1  0.000900  0.383600  0.549100  1.0  0.1223
  H  H20  1  0.885300  0.808300  0.849100  1.0  0.0744
  H  H21  1  0.263700  0.132300  0.536700  1.0  0.1316
  H  H22  1  0.311300  0.065800  0.484800  1.0  0.0726
  H  H23  1  0.246000  0.079900  0.038800  1.0  0.1306
  H  H24  1  0.980400  0.884400  0.893400  1.0  0.117
  H  H25  1  0.292800  0.149000  0.988100  1.0  0.0747
  H  H26  1  0.001700  0.335500  0.396000  1.0  0.1115
  H  H27  1  0.975000  0.837100  0.045200  1.0  0.1206
  H  H28  1  0.275900  0.189600  0.660200  1.0  0.1067
  H  H29  1  0.321100  0.174300  0.758900  1.0  0.0807
  H  H30  1  0.138200  0.111400  0.844600  1.0  0.0802
  H  H31  1  0.113600  0.292100  0.665400  1.0  0.1202
  H  H32  1  0.877700  0.766900  0.994900  1.0  0.0716
  H  H33  1  0.164300  0.274100  0.763700  1.0  0.0753
  H  H34  1  0.116000  0.204000  0.386000  1.0  0.1267
  H  H35  1  0.902200  0.453400  0.500500  1.0  0.0743
  H  H36  1  0.276700  0.079600  0.254200  1.0  0.0824
  H  H37  1  0.227700  0.068000  0.155400  1.0  0.1279
  H  H38  1  0.095100  0.912800  0.168000  1.0  0.1261
  H  H39  1  0.151600  0.924900  0.267000  1.0  0.0861
  H  H40  1  0.165200  0.129200  0.339400  1.0  0.0764
  H  H41  1  0.401700  0.903400  0.351900  1.0  0.0937
  H  H42  1  0.584900  0.540100  0.889600  1.0  0.1292
  H  H43  1  0.500900  0.883600  0.549100  1.0  0.1223
  H  H44  1  0.385300  0.308300  0.849100  1.0  0.0744
  H  H45  1  0.763700  0.632300  0.536700  1.0  0.1316
  H  H46  1  0.811300  0.565800  0.484800  1.0  0.0728
  H  H47  1  0.746000  0.579900  0.038800  1.0  0.1306
  H  H48  1  0.480400  0.384400  0.893400  1.0  0.117
  H  H49  1  0.792800  0.649000  0.988100  1.0  0.0747
  H  H50  1  0.501700  0.835500  0.396000  1.0  0.1115
  H  H51  1  0.475000  0.337100  0.045200  1.0  0.1206
  H  H52  1  0.775900  0.689600  0.660200  1.0  0.1067
  H  H53  1  0.821100  0.674300  0.758900  1.0  0.0807
  H  H54  1  0.638200  0.611400  0.844600  1.0  0.0802
  H  H55  1  0.613600  0.792100  0.665400  1.0  0.1202
  H  H56  1  0.377700  0.266900  0.994900  1.0  0.0716
  H  H57  1  0.664300  0.774100  0.763700  1.0  0.0753
  H  H58  1  0.616000  0.704000  0.386000  1.0  0.1267
  H  H59  1  0.402200  0.953400  0.500500  1.0  0.0743
  H  H60  1  0.776700  0.579600  0.254200  1.0  0.0824
  H  H61  1  0.727700  0.568000  0.155400  1.0  0.1279
  H  H62  1  0.595100  0.412800  0.168000  1.0  0.1261
  H  H63  1  0.651600  0.424900  0.267000  1.0  0.0861
  H  H64  1  0.665200  0.629200  0.339400  1.0  0.0764
  H  H65  1  0.098300  0.403400  0.148100  1.0  0.0936
  H  H66  1  0.915100  0.040100  0.610400  1.0  0.1296
  H  H67  1  0.999100  0.383600  0.950900  1.0  0.1228
  H  H68  1  0.114700  0.808300  0.650900  1.0  0.0739
  H  H69  1  0.736300  0.132300  0.963300  1.0  0.1323
  H  H70  1  0.688700  0.065800  0.015200  1.0  0.073
  H  H71  1  0.754000  0.079900  0.461200  1.0  0.1305
  H  H72  1  0.019600  0.884400  0.606600  1.0  0.1164
  H  H73  1  0.707200  0.149000  0.511900  1.0  0.0746
  H  H74  1  0.998300  0.335500  0.104000  1.0  0.1108
  H  H75  1  0.025000  0.837100  0.454800  1.0  0.1204
  H  H76  1  0.724100  0.189600  0.839800  1.0  0.1071
  H  H77  1  0.678900  0.174300  0.741100  1.0  0.0808
  H  H78  1  0.861800  0.111400  0.655400  1.0  0.0799
  H  H79  1  0.886400  0.292100  0.834600  1.0  0.1195
  H  H80  1  0.122300  0.766900  0.505100  1.0  0.0714
  H  H81  1  0.835700  0.274100  0.736300  1.0  0.0753
  H  H82  1  0.884000  0.204000  0.114000  1.0  0.1265
  H  H83  1  0.097800  0.453400  0.999500  1.0  0.0741
  H  H84  1  0.723300  0.079600  0.245800  1.0  0.0825
  H  H85  1  0.772300  0.068000  0.344600  1.0  0.1273
  H  H86  1  0.904900  0.912800  0.332000  1.0  0.1258
  H  H87  1  0.848400  0.924900  0.233000  1.0  0.0852
  H  H88  1  0.834800  0.129200  0.160600  1.0  0.0764
  H  H89  1  0.598300  0.903400  0.148100  1.0  0.0936
  H  H90  1  0.415100  0.540100  0.610400  1.0  0.1296
  H  H91  1  0.499100  0.883600  0.950900  1.0  0.1228
  H  H92  1  0.614700  0.308300  0.650900  1.0  0.0739
  H  H93  1  0.236300  0.632300  0.963300  1.0  0.1323
  H  H94  1  0.188700  0.565800  0.015200  1.0  0.0731
  H  H95  1  0.254000  0.579900  0.461200  1.0  0.1305
  H  H96  1  0.519600  0.384400  0.606600  1.0  0.1164
  H  H97  1  0.207200  0.649000  0.511900  1.0  0.0746
  H  H98  1  0.498300  0.835500  0.104000  1.0  0.1108
  H  H99  1  0.525000  0.337100  0.454800  1.0  0.1204
  H  H100  1  0.224100  0.689600  0.839800  1.0  0.1071
  H  H101  1  0.178900  0.674300  0.741100  1.0  0.0808
  H  H102  1  0.361800  0.611400  0.655400  1.0  0.0799
  H  H103  1  0.386400  0.792100  0.834600  1.0  0.1195
  H  H104  1  0.622300  0.266900  0.505100  1.0  0.0714
  H  H105  1  0.335700  0.774100  0.736300  1.0  0.0753
  H  H106  1  0.384000  0.704000  0.114000  1.0  0.1265
  H  H107  1  0.597800  0.953400  0.999500  1.0  0.0741
  H  H108  1  0.223300  0.579600  0.245800  1.0  0.0825
  H  H109  1  0.272300  0.568000  0.344600  1.0  0.1273
  H  H110  1  0.404900  0.412800  0.332000  1.0  0.1258
  H  H111  1  0.348400  0.424900  0.233000  1.0  0.0852
  H  H112  1  0.334800  0.629200  0.160600  1.0  0.0764
  H  H113  1  0.098300  0.596600  0.648100  1.0  0.094
  H  H114  1  0.915100  0.959900  0.110400  1.0  0.1296
  H  H115  1  0.999100  0.616400  0.450900  1.0  0.1226
  H  H116  1  0.114700  0.191700  0.150900  1.0  0.0737
  H  H117  1  0.736300  0.867700  0.463300  1.0  0.1325
  H  H118  1  0.688700  0.934200  0.515200  1.0  0.0732
  H  H119  1  0.754000  0.920100  0.961200  1.0  0.1302
  H  H120  1  0.019600  0.115600  0.106600  1.0  0.1164
  H  H121  1  0.707200  0.851000  0.011900  1.0  0.0746
  H  H122  1  0.998300  0.664500  0.604000  1.0  0.111
  H  H123  1  0.025000  0.162900  0.954800  1.0  0.1206
  H  H124  1  0.724100  0.810400  0.339800  1.0  0.1072
  H  H125  1  0.678900  0.825700  0.241100  1.0  0.0807
  H  H126  1  0.861800  0.888600  0.155400  1.0  0.0799
  H  H127  1  0.886400  0.707900  0.334600  1.0  0.119
  H  H128  1  0.122300  0.233100  0.005100  1.0  0.071
  H  H129  1  0.835700  0.725900  0.236300  1.0  0.0753
  H  H130  1  0.884000  0.796000  0.614000  1.0  0.1265
  H  H131  1  0.097800  0.546600  0.499500  1.0  0.0746
  H  H132  1  0.723300  0.920400  0.745800  1.0  0.0829
  H  H133  1  0.772300  0.932000  0.844600  1.0  0.1274
  H  H134  1  0.904900  0.087200  0.832000  1.0  0.1261
  H  H135  1  0.848400  0.075100  0.733000  1.0  0.0854
  H  H136  1  0.834800  0.870800  0.660600  1.0  0.0764
  H  H137  1  0.598300  0.096600  0.648100  1.0  0.094
  H  H138  1  0.415100  0.459900  0.110400  1.0  0.1296
  H  H139  1  0.499100  0.116400  0.450900  1.0  0.1226
  H  H140  1  0.614700  0.691700  0.150900  1.0  0.0737
  H  H141  1  0.236300  0.367700  0.463300  1.0  0.1325
  H  H142  1  0.188700  0.434200  0.515200  1.0  0.0733
  H  H143  1  0.254000  0.420100  0.961200  1.0  0.1302
  H  H144  1  0.519600  0.615600  0.106600  1.0  0.1164
  H  H145  1  0.207200  0.351000  0.011900  1.0  0.0746
  H  H146  1  0.498300  0.164500  0.604000  1.0  0.111
  H  H147  1  0.525000  0.662900  0.954800  1.0  0.1206
  H  H148  1  0.224100  0.310400  0.339800  1.0  0.1072
  H  H149  1  0.178900  0.325700  0.241100  1.0  0.0807
  H  H150  1  0.361800  0.388600  0.155400  1.0  0.0799
  H  H151  1  0.386400  0.207900  0.334600  1.0  0.119
  H  H152  1  0.622300  0.733100  0.005100  1.0  0.071
  H  H153  1  0.335700  0.225900  0.236300  1.0  0.0753
  H  H154  1  0.384000  0.296000  0.614000  1.0  0.1265
  H  H155  1  0.597800  0.046600  0.499500  1.0  0.0746
  H  H156  1  0.223300  0.420400  0.745800  1.0  0.0829
  H  H157  1  0.272300  0.432000  0.844600  1.0  0.1274
  H  H158  1  0.404900  0.587200  0.832000  1.0  0.1261
  H  H159  1  0.348400  0.575100  0.733000  1.0  0.0854
  H  H160  1  0.334800  0.370800  0.660600  1.0  0.0764
  H  H161  1  0.901700  0.596600  0.851900  1.0  0.0937
  H  H162  1  0.084900  0.959900  0.389600  1.0  0.129
  H  H163  1  0.000900  0.616400  0.049100  1.0  0.1224
  H  H164  1  0.885300  0.191700  0.349100  1.0  0.0742
  H  H165  1  0.263700  0.867700  0.036700  1.0  0.1314
  H  H166  1  0.311300  0.934200  0.984800  1.0  0.0728
  H  H167  1  0.246000  0.920100  0.538800  1.0  0.1306
  H  H168  1  0.980400  0.115600  0.393400  1.0  0.1171
  H  H169  1  0.292800  0.851000  0.488100  1.0  0.075
  H  H170  1  0.001700  0.664500  0.896000  1.0  0.1112
  H  H171  1  0.975000  0.162900  0.545200  1.0  0.1203
  H  H172  1  0.275900  0.810400  0.160200  1.0  0.1072
  H  H173  1  0.321100  0.825700  0.258900  1.0  0.0809
  H  H174  1  0.138200  0.888600  0.344600  1.0  0.0802
  H  H175  1  0.113600  0.707900  0.165400  1.0  0.1206
  H  H176  1  0.877700  0.233100  0.494900  1.0  0.0713
  H  H177  1  0.164300  0.725900  0.263700  1.0  0.0756
  H  H178  1  0.116000  0.796000  0.886000  1.0  0.1267
  H  H179  1  0.902200  0.546600  0.000500  1.0  0.0744
  H  H180  1  0.276700  0.920400  0.754200  1.0  0.0829
  H  H181  1  0.227700  0.932000  0.655400  1.0  0.1277
  H  H182  1  0.095100  0.087200  0.668000  1.0  0.1262
  H  H183  1  0.151600  0.075100  0.767000  1.0  0.0863
  H  H184  1  0.165200  0.870800  0.839400  1.0  0.0764
  H  H185  1  0.401700  0.096600  0.851900  1.0  0.0937
  H  H186  1  0.584900  0.459900  0.389600  1.0  0.129
  H  H187  1  0.500900  0.116400  0.049100  1.0  0.1224
  H  H188  1  0.385300  0.691700  0.349100  1.0  0.0742
  H  H189  1  0.763700  0.367700  0.036700  1.0  0.1314
  H  H190  1  0.811300  0.434200  0.984800  1.0  0.073
  H  H191  1  0.746000  0.420100  0.538800  1.0  0.1306
  H  H192  1  0.480400  0.615600  0.393400  1.0  0.1171
  H  H193  1  0.792800  0.351000  0.488100  1.0  0.075
  H  H194  1  0.501700  0.164500  0.896000  1.0  0.1112
  H  H195  1  0.475000  0.662900  0.545200  1.0  0.1203
  H  H196  1  0.775900  0.310400  0.160200  1.0  0.1072
  H  H197  1  0.821100  0.325700  0.258900  1.0  0.0809
  H  H198  1  0.638200  0.388600  0.344600  1.0  0.0802
  H  H199  1  0.613600  0.207900  0.165400  1.0  0.1206
  H  H200  1  0.377700  0.733100  0.494900  1.0  0.0713
  H  H201  1  0.664300  0.225900  0.263700  1.0  0.0756
  H  H202  1  0.616000  0.296000  0.886000  1.0  0.1267
  H  H203  1  0.402200  0.046600  0.000500  1.0  0.0744
  H  H204  1  0.776700  0.420400  0.754200  1.0  0.0829
  H  H205  1  0.727700  0.432000  0.655400  1.0  0.1277
  H  H206  1  0.595100  0.587200  0.668000  1.0  0.1262
  H  H207  1  0.651600  0.575100  0.767000  1.0  0.0863
  H  H208  1  0.665200  0.370800  0.839400  1.0  0.0764
  C  C209  1  0.922100  0.399700  0.392000  1.0  0.1547
  C  C210  1  0.153500  0.220000  0.500800  1.0  0.3589
  C  C211  1  0.127600  0.061400  0.910900  1.0  -0.1708
  C  C212  1  0.128000  0.007200  0.001900  1.0  0.3657
  C  C213  1  0.981700  0.387000  0.509000  1.0  -0.1449
  C  C214  1  0.903000  0.815400  0.888900  1.0  0.163
  C  C215  1  0.074800  0.301500  0.506300  1.0  0.3756
  C  C216  1  0.243400  0.133400  0.496500  1.0  -0.1458
  C  C217  1  0.271100  0.093200  0.464800  1.0  0.1727
  C  C218  1  0.222800  0.085000  0.999000  1.0  -0.2004
  C  C219  1  0.159600  0.051700  0.969500  1.0  -0.0799
  C  C220  1  0.127400  0.975900  0.087500  1.0  0.3633
  C  C221  1  0.158300  0.985600  0.151200  1.0  -0.0806
  C  C222  1  0.960600  0.861300  0.915300  1.0  -0.1502
  C  C223  1  0.183900  0.175700  0.466300  1.0  -0.0363
  C  C224  1  0.190000  0.242400  0.651400  1.0  -0.079
  C  C225  1  0.250700  0.125900  0.967800  1.0  0.1801
  C  C226  1  0.982100  0.358000  0.418300  1.0  -0.1314
  C  C227  1  0.957200  0.833800  0.005100  1.0  -0.1705
  C  C228  1  0.252000  0.207300  0.680500  1.0  -0.0736
  C  C229  1  0.049500  0.922800  0.005100  1.0  0.3845
  C  C230  1  0.279100  0.198200  0.739900  1.0  0.169
  C  C231  1  0.160600  0.103900  0.884300  1.0  0.1852
  C  C232  1  0.012600  0.349900  0.477000  1.0  -0.0135
  C  C233  1  0.155800  0.268200  0.683200  1.0  -0.1916
  C  C234  1  0.158300  0.251600  0.587400  1.0  0.3505
  C  C235  1  0.899000  0.790700  0.974300  1.0  0.1743
  C  C236  1  0.187100  0.256600  0.742400  1.0  0.1755
  C  C237  1  0.155200  0.175200  0.407000  1.0  -0.1676
  C  C238  1  0.922200  0.428600  0.479300  1.0  0.1803
  C  C239  1  0.241200  0.043900  0.236800  1.0  0.1653
  C  C240  1  0.211800  0.037700  0.177400  1.0  -0.1398
  C  C241  1  0.133300  0.944900  0.184600  1.0  -0.1709
  C  C242  1  0.988800  0.872700  0.974700  1.0  -0.0369
  C  C243  1  0.167400  0.953800  0.244200  1.0  0.1887
  C  C244  1  0.185900  0.131200  0.379500  1.0  0.1733
  C  C245  1  0.422100  0.899700  0.392000  1.0  0.1547
  C  C246  1  0.653500  0.720000  0.500800  1.0  0.3589
  C  C247  1  0.627600  0.561400  0.910900  1.0  -0.1708
  C  C248  1  0.628000  0.507200  0.001900  1.0  0.3657
  C  C249  1  0.481700  0.887000  0.509000  1.0  -0.1449
  C  C250  1  0.403000  0.315400  0.888900  1.0  0.163
  C  C251  1  0.574800  0.801500  0.506300  1.0  0.3756
  C  C252  1  0.743400  0.633400  0.496500  1.0  -0.1458
  C  C253  1  0.771100  0.593200  0.464800  1.0  0.1727
  C  C254  1  0.722800  0.585000  0.999000  1.0  -0.2004
  C  C255  1  0.659600  0.551700  0.969500  1.0  -0.0799
  C  C256  1  0.627400  0.475900  0.087500  1.0  0.3633
  C  C257  1  0.658300  0.485600  0.151200  1.0  -0.0806
  C  C258  1  0.460600  0.361300  0.915300  1.0  -0.1502
  C  C259  1  0.683900  0.675700  0.466300  1.0  -0.0363
  C  C260  1  0.690000  0.742400  0.651400  1.0  -0.079
  C  C261  1  0.750700  0.625900  0.967800  1.0  0.1801
  C  C262  1  0.482100  0.858000  0.418300  1.0  -0.1314
  C  C263  1  0.457200  0.333800  0.005100  1.0  -0.1705
  C  C264  1  0.752000  0.707300  0.680500  1.0  -0.0736
  C  C265  1  0.549500  0.422800  0.005100  1.0  0.3845
  C  C266  1  0.779100  0.698200  0.739900  1.0  0.169
  C  C267  1  0.660600  0.603900  0.884300  1.0  0.1852
  C  C268  1  0.512600  0.849900  0.477000  1.0  -0.0135
  C  C269  1  0.655800  0.768200  0.683200  1.0  -0.1916
  C  C270  1  0.658300  0.751600  0.587400  1.0  0.3505
  C  C271  1  0.399000  0.290700  0.974300  1.0  0.1743
  C  C272  1  0.687100  0.756600  0.742400  1.0  0.1755
  C  C273  1  0.655200  0.675200  0.407000  1.0  -0.1676
  C  C274  1  0.422200  0.928600  0.479300  1.0  0.1803
  C  C275  1  0.741200  0.543900  0.236800  1.0  0.1653
  C  C276  1  0.711800  0.537700  0.177400  1.0  -0.1398
  C  C277  1  0.633300  0.444900  0.184600  1.0  -0.1709
  C  C278  1  0.488800  0.372700  0.974700  1.0  -0.0369
  C  C279  1  0.667400  0.453800  0.244200  1.0  0.1887
  C  C280  1  0.685900  0.631200  0.379500  1.0  0.1733
  C  C281  1  0.077900  0.399700  0.108000  1.0  0.1529
  C  C282  1  0.846500  0.220000  0.999200  1.0  0.3595
  C  C283  1  0.872400  0.061400  0.589100  1.0  -0.1723
  C  C284  1  0.872000  0.007200  0.498100  1.0  0.3661
  C  C285  1  0.018300  0.387000  0.991000  1.0  -0.1468
  C  C286  1  0.097000  0.815400  0.611100  1.0  0.1623
  C  C287  1  0.925200  0.301500  0.993700  1.0  0.3751
  C  C288  1  0.756600  0.133400  0.003500  1.0  -0.144
  C  C289  1  0.728900  0.093200  0.035200  1.0  0.1725
  C  C290  1  0.777200  0.085000  0.501000  1.0  -0.1978
  C  C291  1  0.840400  0.051700  0.530500  1.0  -0.0789
  C  C292  1  0.872600  0.975900  0.412500  1.0  0.3629
  C  C293  1  0.841700  0.985600  0.348800  1.0  -0.0785
  C  C294  1  0.039400  0.861300  0.584700  1.0  -0.1508
  C  C295  1  0.816100  0.175700  0.033700  1.0  -0.0358
  C  C296  1  0.810000  0.242400  0.848600  1.0  -0.0797
  C  C297  1  0.749300  0.125900  0.532200  1.0  0.1814
  C  C298  1  0.017900  0.358000  0.081700  1.0  -0.1336
  C  C299  1  0.042800  0.833800  0.494900  1.0  -0.1727
  C  C300  1  0.748000  0.207300  0.819500  1.0  -0.0709
  C  C301  1  0.950500  0.922800  0.494900  1.0  0.3832
  C  C302  1  0.720900  0.198200  0.760100  1.0  0.1694
  C  C303  1  0.839400  0.103900  0.615700  1.0  0.184
  C  C304  1  0.987400  0.349900  0.023000  1.0  -0.0151
  C  C305  1  0.844200  0.268200  0.816800  1.0  -0.1913
  C  C306  1  0.841700  0.251600  0.912600  1.0  0.3497
  C  C307  1  0.101000  0.790700  0.525700  1.0  0.1743
  C  C308  1  0.812900  0.256600  0.757600  1.0  0.1749
  C  C309  1  0.844800  0.175200  0.093000  1.0  -0.1673
  C  C310  1  0.077800  0.428600  0.020700  1.0  0.1808
  C  C311  1  0.758800  0.043900  0.263200  1.0  0.164
  C  C312  1  0.788200  0.037700  0.322600  1.0  -0.1384
  C  C313  1  0.866700  0.944900  0.315400  1.0  -0.1727
  C  C314  1  0.011200  0.872700  0.525300  1.0  -0.0377
  C  C315  1  0.832600  0.953800  0.255800  1.0  0.1886
  C  C316  1  0.814100  0.131200  0.120500  1.0  0.1742
  C  C317  1  0.577900  0.899700  0.108000  1.0  0.1529
  C  C318  1  0.346500  0.720000  0.999200  1.0  0.3595
  C  C319  1  0.372400  0.561400  0.589100  1.0  -0.1723
  C  C320  1  0.372000  0.507200  0.498100  1.0  0.3661
  C  C321  1  0.518300  0.887000  0.991000  1.0  -0.1468
  C  C322  1  0.597000  0.315400  0.611100  1.0  0.1623
  C  C323  1  0.425200  0.801500  0.993700  1.0  0.3751
  C  C324  1  0.256600  0.633400  0.003500  1.0  -0.144
  C  C325  1  0.228900  0.593200  0.035200  1.0  0.1725
  C  C326  1  0.277200  0.585000  0.501000  1.0  -0.1978
  C  C327  1  0.340400  0.551700  0.530500  1.0  -0.0789
  C  C328  1  0.372600  0.475900  0.412500  1.0  0.3629
  C  C329  1  0.341700  0.485600  0.348800  1.0  -0.0785
  C  C330  1  0.539400  0.361300  0.584700  1.0  -0.1508
  C  C331  1  0.316100  0.675700  0.033700  1.0  -0.0358
  C  C332  1  0.310000  0.742400  0.848600  1.0  -0.0797
  C  C333  1  0.249300  0.625900  0.532200  1.0  0.1814
  C  C334  1  0.517900  0.858000  0.081700  1.0  -0.1336
  C  C335  1  0.542800  0.333800  0.494900  1.0  -0.1727
  C  C336  1  0.248000  0.707300  0.819500  1.0  -0.0709
  C  C337  1  0.450500  0.422800  0.494900  1.0  0.3832
  C  C338  1  0.220900  0.698200  0.760100  1.0  0.1694
  C  C339  1  0.339400  0.603900  0.615700  1.0  0.184
  C  C340  1  0.487400  0.849900  0.023000  1.0  -0.0151
  C  C341  1  0.344200  0.768200  0.816800  1.0  -0.1913
  C  C342  1  0.341700  0.751600  0.912600  1.0  0.3497
  C  C343  1  0.601000  0.290700  0.525700  1.0  0.1743
  C  C344  1  0.312900  0.756600  0.757600  1.0  0.1749
  C  C345  1  0.344800  0.675200  0.093000  1.0  -0.1673
  C  C346  1  0.577800  0.928600  0.020700  1.0  0.1808
  C  C347  1  0.258800  0.543900  0.263200  1.0  0.164
  C  C348  1  0.288200  0.537700  0.322600  1.0  -0.1384
  C  C349  1  0.366700  0.444900  0.315400  1.0  -0.1727
  C  C350  1  0.511200  0.372700  0.525300  1.0  -0.0377
  C  C351  1  0.332600  0.453800  0.255800  1.0  0.1886
  C  C352  1  0.314100  0.631200  0.120500  1.0  0.1742
  C  C353  1  0.077900  0.600300  0.608000  1.0  0.1534
  C  C354  1  0.846500  0.780000  0.499200  1.0  0.3591
  C  C355  1  0.872400  0.938600  0.089100  1.0  -0.1725
  C  C356  1  0.872000  0.992800  0.998100  1.0  0.3669
  C  C357  1  0.018300  0.613000  0.491000  1.0  -0.1462
  C  C358  1  0.097000  0.184600  0.111100  1.0  0.1619
  C  C359  1  0.925200  0.698500  0.493700  1.0  0.3755
  C  C360  1  0.756600  0.866600  0.503500  1.0  -0.1438
  C  C361  1  0.728900  0.906800  0.535200  1.0  0.1723
  C  C362  1  0.777200  0.915000  0.001000  1.0  -0.1972
  C  C363  1  0.840400  0.948300  0.030500  1.0  -0.0787
  C  C364  1  0.872600  0.024100  0.912500  1.0  0.3628
  C  C365  1  0.841700  0.014400  0.848800  1.0  -0.0783
  C  C366  1  0.039400  0.138700  0.084700  1.0  -0.1509
  C  C367  1  0.816100  0.824300  0.533700  1.0  -0.0361
  C  C368  1  0.810000  0.757600  0.348600  1.0  -0.0793
  C  C369  1  0.749300  0.874100  0.032200  1.0  0.1817
  C  C370  1  0.017900  0.642000  0.581700  1.0  -0.1336
  C  C371  1  0.042800  0.166200  0.994900  1.0  -0.1733
  C  C372  1  0.748000  0.792700  0.319500  1.0  -0.0714
  C  C373  1  0.950500  0.077200  0.994900  1.0  0.3833
  C  C374  1  0.720900  0.801800  0.260100  1.0  0.1699
  C  C375  1  0.839400  0.896100  0.115700  1.0  0.185
  C  C376  1  0.987400  0.650100  0.523000  1.0  -0.0156
  C  C377  1  0.844200  0.731800  0.316800  1.0  -0.1906
  C  C378  1  0.841700  0.748400  0.412600  1.0  0.3502
  C  C379  1  0.101000  0.209300  0.025700  1.0  0.1739
  C  C380  1  0.812900  0.743400  0.257600  1.0  0.1755
  C  C381  1  0.844800  0.824800  0.593000  1.0  -0.1674
  C  C382  1  0.077800  0.571400  0.520700  1.0  0.181
  C  C383  1  0.758800  0.956100  0.763200  1.0  0.1641
  C  C384  1  0.788200  0.962300  0.822600  1.0  -0.1384
  C  C385  1  0.866700  0.055100  0.815400  1.0  -0.1729
  C  C386  1  0.011200  0.127300  0.025300  1.0  -0.0378
  C  C387  1  0.832600  0.046200  0.755800  1.0  0.189
  C  C388  1  0.814100  0.868800  0.620500  1.0  0.1742
  C  C389  1  0.577900  0.100300  0.608000  1.0  0.1534
  C  C390  1  0.346500  0.280000  0.499200  1.0  0.3591
  C  C391  1  0.372400  0.438600  0.089100  1.0  -0.1725
  C  C392  1  0.372000  0.492800  0.998100  1.0  0.3669
  C  C393  1  0.518300  0.113000  0.491000  1.0  -0.1462
  C  C394  1  0.597000  0.684600  0.111100  1.0  0.1619
  C  C395  1  0.425200  0.198500  0.493700  1.0  0.3755
  C  C396  1  0.256600  0.366600  0.503500  1.0  -0.1438
  C  C397  1  0.228900  0.406800  0.535200  1.0  0.1723
  C  C398  1  0.277200  0.415000  0.001000  1.0  -0.1972
  C  C399  1  0.340400  0.448300  0.030500  1.0  -0.0787
  C  C400  1  0.372600  0.524100  0.912500  1.0  0.3628
  C  C401  1  0.341700  0.514400  0.848800  1.0  -0.0783
  C  C402  1  0.539400  0.638700  0.084700  1.0  -0.1509
  C  C403  1  0.316100  0.324300  0.533700  1.0  -0.0361
  C  C404  1  0.310000  0.257600  0.348600  1.0  -0.0793
  C  C405  1  0.249300  0.374100  0.032200  1.0  0.1817
  C  C406  1  0.517900  0.142000  0.581700  1.0  -0.1336
  C  C407  1  0.542800  0.666200  0.994900  1.0  -0.1733
  C  C408  1  0.248000  0.292700  0.319500  1.0  -0.0714
  C  C409  1  0.450500  0.577200  0.994900  1.0  0.3833
  C  C410  1  0.220900  0.301800  0.260100  1.0  0.1699
  C  C411  1  0.339400  0.396100  0.115700  1.0  0.185
  C  C412  1  0.487400  0.150100  0.523000  1.0  -0.0156
  C  C413  1  0.344200  0.231800  0.316800  1.0  -0.1906
  C  C414  1  0.341700  0.248400  0.412600  1.0  0.3502
  C  C415  1  0.601000  0.709300  0.025700  1.0  0.1739
  C  C416  1  0.312900  0.243400  0.257600  1.0  0.1755
  C  C417  1  0.344800  0.324800  0.593000  1.0  -0.1674
  C  C418  1  0.577800  0.071400  0.520700  1.0  0.181
  C  C419  1  0.258800  0.456100  0.763200  1.0  0.1641
  C  C420  1  0.288200  0.462300  0.822600  1.0  -0.1384
  C  C421  1  0.366700  0.555100  0.815400  1.0  -0.1729
  C  C422  1  0.511200  0.627300  0.025300  1.0  -0.0378
  C  C423  1  0.332600  0.546200  0.755800  1.0  0.189
  C  C424  1  0.314100  0.368800  0.620500  1.0  0.1742
  C  C425  1  0.922100  0.600300  0.892000  1.0  0.1539
  C  C426  1  0.153500  0.780000  0.000800  1.0  0.3586
  C  C427  1  0.127600  0.938600  0.410900  1.0  -0.1711
  C  C428  1  0.128000  0.992800  0.501900  1.0  0.3663
  C  C429  1  0.981700  0.613000  0.009000  1.0  -0.1451
  C  C430  1  0.903000  0.184600  0.388900  1.0  0.1624
  C  C431  1  0.074800  0.698500  0.006300  1.0  0.376
  C  C432  1  0.243400  0.866600  0.996500  1.0  -0.1462
  C  C433  1  0.271100  0.906800  0.964800  1.0  0.1725
  C  C434  1  0.222800  0.915000  0.499000  1.0  -0.1999
  C  C435  1  0.159600  0.948300  0.469500  1.0  -0.0807
  C  C436  1  0.127400  0.024100  0.587500  1.0  0.3632
  C  C437  1  0.158300  0.014400  0.651200  1.0  -0.0801
  C  C438  1  0.960600  0.138700  0.415300  1.0  -0.1497
  C  C439  1  0.183900  0.824300  0.966300  1.0  -0.037
  C  C440  1  0.190000  0.757600  0.151400  1.0  -0.0791
  C  C441  1  0.250700  0.874100  0.467800  1.0  0.1798
  C  C442  1  0.982100  0.642000  0.918300  1.0  -0.133
  C  C443  1  0.957200  0.166200  0.505100  1.0  -0.1709
  C  C444  1  0.252000  0.792700  0.180500  1.0  -0.0736
  C  C445  1  0.049500  0.077200  0.505100  1.0  0.3845
  C  C446  1  0.279100  0.801800  0.239900  1.0  0.1697
  C  C447  1  0.160600  0.896100  0.384300  1.0  0.1845
  C  C448  1  0.012600  0.650100  0.977000  1.0  -0.0133
  C  C449  1  0.155800  0.731800  0.183200  1.0  -0.191
  C  C450  1  0.158300  0.748400  0.087400  1.0  0.3511
  C  C451  1  0.899000  0.209300  0.474300  1.0  0.1739
  C  C452  1  0.187100  0.743400  0.242400  1.0  0.1761
  C  C453  1  0.155200  0.824800  0.907000  1.0  -0.1677
  C  C454  1  0.922200  0.571400  0.979300  1.0  0.1813
  C  C455  1  0.241200  0.956100  0.736800  1.0  0.1657
  C  C456  1  0.211800  0.962300  0.677400  1.0  -0.1394
  C  C457  1  0.133300  0.055100  0.684600  1.0  -0.1707
  C  C458  1  0.988800  0.127300  0.474700  1.0  -0.0373
  C  C459  1  0.167400  0.046200  0.744200  1.0  0.1894
  C  C460  1  0.185900  0.868800  0.879500  1.0  0.1736
  C  C461  1  0.422100  0.100300  0.892000  1.0  0.1539
  C  C462  1  0.653500  0.280000  0.000800  1.0  0.3586
  C  C463  1  0.627600  0.438600  0.410900  1.0  -0.1711
  C  C464  1  0.628000  0.492800  0.501900  1.0  0.3663
  C  C465  1  0.481700  0.113000  0.009000  1.0  -0.1451
  C  C466  1  0.403000  0.684600  0.388900  1.0  0.1624
  C  C467  1  0.574800  0.198500  0.006300  1.0  0.376
  C  C468  1  0.743400  0.366600  0.996500  1.0  -0.1462
  C  C469  1  0.771100  0.406800  0.964800  1.0  0.1725
  C  C470  1  0.722800  0.415000  0.499000  1.0  -0.1999
  C  C471  1  0.659600  0.448300  0.469500  1.0  -0.0807
  C  C472  1  0.627400  0.524100  0.587500  1.0  0.3632
  C  C473  1  0.658300  0.514400  0.651200  1.0  -0.0801
  C  C474  1  0.460600  0.638700  0.415300  1.0  -0.1497
  C  C475  1  0.683900  0.324300  0.966300  1.0  -0.037
  C  C476  1  0.690000  0.257600  0.151400  1.0  -0.0791
  C  C477  1  0.750700  0.374100  0.467800  1.0  0.1798
  C  C478  1  0.482100  0.142000  0.918300  1.0  -0.133
  C  C479  1  0.457200  0.666200  0.505100  1.0  -0.1709
  C  C480  1  0.752000  0.292700  0.180500  1.0  -0.0736
  C  C481  1  0.549500  0.577200  0.505100  1.0  0.3845
  C  C482  1  0.779100  0.301800  0.239900  1.0  0.1697
  C  C483  1  0.660600  0.396100  0.384300  1.0  0.1845
  C  C484  1  0.512600  0.150100  0.977000  1.0  -0.0133
  C  C485  1  0.655800  0.231800  0.183200  1.0  -0.191
  C  C486  1  0.658300  0.248400  0.087400  1.0  0.3511
  C  C487  1  0.399000  0.709300  0.474300  1.0  0.1739
  C  C488  1  0.687100  0.243400  0.242400  1.0  0.1761
  C  C489  1  0.655200  0.324800  0.907000  1.0  -0.1677
  C  C490  1  0.422200  0.071400  0.979300  1.0  0.1813
  C  C491  1  0.741200  0.456100  0.736800  1.0  0.1657
  C  C492  1  0.711800  0.462300  0.677400  1.0  -0.1394
  C  C493  1  0.633300  0.555100  0.684600  1.0  -0.1707
  C  C494  1  0.488800  0.627300  0.474700  1.0  -0.0373
  C  C495  1  0.667400  0.546200  0.744200  1.0  0.1894
  C  C496  1  0.685900  0.368800  0.879500  1.0  0.1736
  N  N497  1  0.222000  0.134600  0.911600  1.0  -0.3163
  N  N498  1  0.871400  0.780800  0.917500  1.0  -0.3531
  N  N499  1  0.220600  0.000200  0.270900  1.0  -0.3319
  N  N500  1  0.074000  0.960700  0.972100  1.0  -0.5389
  N  N501  1  0.074700  0.927400  0.062600  1.0  -0.5191
  N  N502  1  0.155800  0.017500  0.058700  1.0  -0.5357
  N  N503  1  0.243800  0.091000  0.407200  1.0  -0.3654
  N  N504  1  0.892000  0.435200  0.422000  1.0  -0.3268
  N  N505  1  0.246400  0.223000  0.771100  1.0  -0.3545
  N  N506  1  0.097100  0.260800  0.472700  1.0  -0.487
  N  N507  1  0.103600  0.299300  0.564000  1.0  -0.5028
  N  N508  1  0.186100  0.212600  0.558400  1.0  -0.4911
  N  N509  1  0.722000  0.634600  0.911600  1.0  -0.3163
  N  N510  1  0.371400  0.280800  0.917500  1.0  -0.3531
  N  N511  1  0.720600  0.500200  0.270900  1.0  -0.3319
  N  N512  1  0.574000  0.460700  0.972100  1.0  -0.5389
  N  N513  1  0.574700  0.427400  0.062600  1.0  -0.5191
  N  N514  1  0.655800  0.517500  0.058700  1.0  -0.5357
  N  N515  1  0.743800  0.591000  0.407200  1.0  -0.3654
  N  N516  1  0.392000  0.935200  0.422000  1.0  -0.3268
  N  N517  1  0.746400  0.723000  0.771100  1.0  -0.3545
  N  N518  1  0.597100  0.760800  0.472700  1.0  -0.487
  N  N519  1  0.603600  0.799300  0.564000  1.0  -0.5028
  N  N520  1  0.686100  0.712600  0.558400  1.0  -0.4911
  N  N521  1  0.778000  0.134600  0.588400  1.0  -0.3165
  N  N522  1  0.128600  0.780800  0.582500  1.0  -0.3512
  N  N523  1  0.779400  0.000200  0.229100  1.0  -0.3333
  N  N524  1  0.926000  0.960700  0.527900  1.0  -0.5415
  N  N525  1  0.925300  0.927400  0.437400  1.0  -0.5162
  N  N526  1  0.844200  0.017500  0.441300  1.0  -0.535
  N  N527  1  0.756200  0.091000  0.092800  1.0  -0.3649
  N  N528  1  0.108000  0.435200  0.078000  1.0  -0.329
  N  N529  1  0.753600  0.223000  0.728900  1.0  -0.3534
  N  N530  1  0.902900  0.260800  0.027300  1.0  -0.4865
  N  N531  1  0.896400  0.299300  0.936000  1.0  -0.4977
  N  N532  1  0.813900  0.212600  0.941600  1.0  -0.4924
  N  N533  1  0.278000  0.634600  0.588400  1.0  -0.3165
  N  N534  1  0.628600  0.280800  0.582500  1.0  -0.3512
  N  N535  1  0.279400  0.500200  0.229100  1.0  -0.3333
  N  N536  1  0.426000  0.460700  0.527900  1.0  -0.5415
  N  N537  1  0.425300  0.427400  0.437400  1.0  -0.5162
  N  N538  1  0.344200  0.517500  0.441300  1.0  -0.535
  N  N539  1  0.256200  0.591000  0.092800  1.0  -0.3649
  N  N540  1  0.608000  0.935200  0.078000  1.0  -0.329
  N  N541  1  0.253600  0.723000  0.728900  1.0  -0.3534
  N  N542  1  0.402900  0.760800  0.027300  1.0  -0.4865
  N  N543  1  0.396400  0.799300  0.936000  1.0  -0.4977
  N  N544  1  0.313900  0.712600  0.941600  1.0  -0.4924
  N  N545  1  0.778000  0.865400  0.088400  1.0  -0.3187
  N  N546  1  0.128600  0.219200  0.082500  1.0  -0.3527
  N  N547  1  0.779400  0.999800  0.729100  1.0  -0.3338
  N  N548  1  0.926000  0.039300  0.027900  1.0  -0.5414
  N  N549  1  0.925300  0.072600  0.937400  1.0  -0.5147
  N  N550  1  0.844200  0.982500  0.941300  1.0  -0.5352
  N  N551  1  0.756200  0.909000  0.592800  1.0  -0.3666
  N  N552  1  0.108000  0.564800  0.578000  1.0  -0.3287
  N  N553  1  0.753600  0.777000  0.228900  1.0  -0.3527
  N  N554  1  0.902900  0.739200  0.527300  1.0  -0.4854
  N  N555  1  0.896400  0.700700  0.436000  1.0  -0.4991
  N  N556  1  0.813900  0.787400  0.441600  1.0  -0.4921
  N  N557  1  0.278000  0.365400  0.088400  1.0  -0.3187
  N  N558  1  0.628600  0.719200  0.082500  1.0  -0.3527
  N  N559  1  0.279400  0.499800  0.729100  1.0  -0.3338
  N  N560  1  0.426000  0.539300  0.027900  1.0  -0.5414
  N  N561  1  0.425300  0.572600  0.937400  1.0  -0.5147
  N  N562  1  0.344200  0.482500  0.941300  1.0  -0.5352
  N  N563  1  0.256200  0.409000  0.592800  1.0  -0.3666
  N  N564  1  0.608000  0.064800  0.578000  1.0  -0.3287
  N  N565  1  0.253600  0.277000  0.228900  1.0  -0.3527
  N  N566  1  0.402900  0.239200  0.527300  1.0  -0.4854
  N  N567  1  0.396400  0.200700  0.436000  1.0  -0.4991
  N  N568  1  0.313900  0.287400  0.441600  1.0  -0.4921
  N  N569  1  0.222000  0.865400  0.411600  1.0  -0.3171
  N  N570  1  0.871400  0.219200  0.417500  1.0  -0.3534
  N  N571  1  0.220600  0.999800  0.770900  1.0  -0.3308
  N  N572  1  0.074000  0.039300  0.472100  1.0  -0.5385
  N  N573  1  0.074700  0.072600  0.562600  1.0  -0.5191
  N  N574  1  0.155800  0.982500  0.558700  1.0  -0.5354
  N  N575  1  0.243800  0.909000  0.907200  1.0  -0.3653
  N  N576  1  0.892000  0.564800  0.922000  1.0  -0.3312
  N  N577  1  0.246400  0.777000  0.271100  1.0  -0.3551
  N  N578  1  0.097100  0.739200  0.972700  1.0  -0.4868
  N  N579  1  0.103600  0.700700  0.064000  1.0  -0.5021
  N  N580  1  0.186100  0.787400  0.058400  1.0  -0.4923
  N  N581  1  0.722000  0.365400  0.411600  1.0  -0.3171
  N  N582  1  0.371400  0.719200  0.417500  1.0  -0.3534
  N  N583  1  0.720600  0.499800  0.770900  1.0  -0.3308
  N  N584  1  0.574000  0.539300  0.472100  1.0  -0.5385
  N  N585  1  0.574700  0.572600  0.562600  1.0  -0.5191
  N  N586  1  0.655800  0.482500  0.558700  1.0  -0.5354
  N  N587  1  0.743800  0.409000  0.907200  1.0  -0.3653
  N  N588  1  0.392000  0.064800  0.922000  1.0  -0.3312
  N  N589  1  0.746400  0.277000  0.271100  1.0  -0.3551
  N  N590  1  0.597100  0.239200  0.972700  1.0  -0.4868
  N  N591  1  0.603600  0.200700  0.064000  1.0  -0.5021
  N  N592  1  0.686100  0.287400  0.058400  1.0  -0.4923
