# generated using pymatgen
data_AgH12(C3N)6
_symmetry_space_group_name_H-M   'P 1'
_cell_length_a   21.99440000
_cell_length_b   16.66210000
_cell_length_c   25.63630000
_cell_angle_alpha   90.00000000
_cell_angle_beta   115.34000000
_cell_angle_gamma   90.00000000
_symmetry_Int_Tables_number   1
_chemical_formula_structural   AgH12(C3N)6
_chemical_formula_sum   'Ag16 H192 C288 N96'
_cell_volume   8491.05860736
_cell_formula_units_Z   16
loop_
 _symmetry_equiv_pos_site_id
 _symmetry_equiv_pos_as_xyz
  1  'x, y, z'
loop_
 _atom_site_type_symbol
 _atom_site_label
 _atom_site_symmetry_multiplicity
 _atom_site_fract_x
 _atom_site_fract_y
 _atom_site_fract_z
 _atom_site_occupancy
 _atom_site_charge
  Ag  Ag1  1  0.773780  0.709010  0.368150  1.0  0.3255
  Ag  Ag2  1  0.295350  0.002210  0.867570  1.0  0.2901
  Ag  Ag3  1  0.273780  0.209010  0.368150  1.0  0.3255
  Ag  Ag4  1  0.795350  0.502210  0.867570  1.0  0.2901
  Ag  Ag5  1  0.226220  0.709010  0.131850  1.0  0.3259
  Ag  Ag6  1  0.704650  0.002210  0.632430  1.0  0.2901
  Ag  Ag7  1  0.726220  0.209010  0.131850  1.0  0.3259
  Ag  Ag8  1  0.204650  0.502210  0.632430  1.0  0.2901
  Ag  Ag9  1  0.226220  0.290990  0.631850  1.0  0.3256
  Ag  Ag10  1  0.704650  0.997790  0.132430  1.0  0.29
  Ag  Ag11  1  0.726220  0.790990  0.631850  1.0  0.3256
  Ag  Ag12  1  0.204650  0.497790  0.132430  1.0  0.29
  Ag  Ag13  1  0.773780  0.290990  0.868150  1.0  0.3251
  Ag  Ag14  1  0.295350  0.997790  0.367570  1.0  0.2899
  Ag  Ag15  1  0.273780  0.790990  0.868150  1.0  0.3251
  Ag  Ag16  1  0.795350  0.497790  0.367570  1.0  0.2899
  H  H17  1  0.902100  0.403600  0.852200  1.0  0.0829
  H  H18  1  0.085200  0.040400  0.389600  1.0  0.1258
  H  H19  1  0.885000  0.810300  0.349100  1.0  0.0712
  H  H20  1  0.000800  0.383400  0.049500  1.0  0.1258
  H  H21  1  0.264000  0.132600  0.036600  1.0  0.1297
  H  H22  1  0.311400  0.066000  0.984700  1.0  0.0709
  H  H23  1  0.245500  0.081300  0.538700  1.0  0.1259
  H  H24  1  0.980900  0.884400  0.393500  1.0  0.1194
  H  H25  1  0.293800  0.147700  0.488600  1.0  0.071
  H  H26  1  0.975100  0.837400  0.545400  1.0  0.1202
  H  H27  1  0.275900  0.188000  0.160600  1.0  0.1205
  H  H28  1  0.138300  0.110800  0.344500  1.0  0.0792
  H  H29  1  0.001500  0.335100  0.896000  1.0  0.1158
  H  H30  1  0.228000  0.068000  0.655900  1.0  0.1234
  H  H31  1  0.164100  0.274800  0.263700  1.0  0.0748
  H  H32  1  0.878000  0.766400  0.495000  1.0  0.0702
  H  H33  1  0.321400  0.176200  0.259200  1.0  0.0704
  H  H34  1  0.902100  0.453800  0.000200  1.0  0.0749
  H  H35  1  0.113800  0.291300  0.165400  1.0  0.1196
  H  H36  1  0.116400  0.204300  0.886300  1.0  0.1242
  H  H37  1  0.095300  0.913300  0.668500  1.0  0.1247
  H  H38  1  0.276400  0.079500  0.754400  1.0  0.0717
  H  H39  1  0.151400  0.925200  0.766800  1.0  0.0824
  H  H40  1  0.165100  0.129800  0.839100  1.0  0.0798
  H  H41  1  0.402100  0.903600  0.852200  1.0  0.0829
  H  H42  1  0.585200  0.540400  0.389600  1.0  0.1258
  H  H43  1  0.385000  0.310300  0.349100  1.0  0.0712
  H  H44  1  0.500800  0.883400  0.049500  1.0  0.1258
  H  H45  1  0.764000  0.632600  0.036600  1.0  0.1297
  H  H46  1  0.811400  0.566000  0.984700  1.0  0.071
  H  H47  1  0.745500  0.581300  0.538700  1.0  0.1259
  H  H48  1  0.480900  0.384400  0.393500  1.0  0.1194
  H  H49  1  0.793800  0.647700  0.488600  1.0  0.071
  H  H50  1  0.475100  0.337400  0.545400  1.0  0.1202
  H  H51  1  0.775900  0.688000  0.160600  1.0  0.1205
  H  H52  1  0.638300  0.610800  0.344500  1.0  0.0792
  H  H53  1  0.501500  0.835100  0.896000  1.0  0.1158
  H  H54  1  0.728000  0.568000  0.655900  1.0  0.1234
  H  H55  1  0.664100  0.774800  0.263700  1.0  0.0748
  H  H56  1  0.378000  0.266400  0.495000  1.0  0.0702
  H  H57  1  0.821400  0.676200  0.259200  1.0  0.0704
  H  H58  1  0.402100  0.953800  0.000200  1.0  0.0749
  H  H59  1  0.613800  0.791300  0.165400  1.0  0.1196
  H  H60  1  0.616400  0.704300  0.886300  1.0  0.1242
  H  H61  1  0.595300  0.413300  0.668500  1.0  0.1247
  H  H62  1  0.776400  0.579500  0.754400  1.0  0.0717
  H  H63  1  0.651400  0.425200  0.766800  1.0  0.0824
  H  H64  1  0.665100  0.629800  0.839100  1.0  0.0798
  H  H65  1  0.097900  0.403600  0.647800  1.0  0.0827
  H  H66  1  0.914800  0.040400  0.110400  1.0  0.1269
  H  H67  1  0.115000  0.810300  0.150900  1.0  0.0711
  H  H68  1  0.999200  0.383400  0.450500  1.0  0.1253
  H  H69  1  0.736000  0.132600  0.463400  1.0  0.1305
  H  H70  1  0.688600  0.066000  0.515300  1.0  0.071
  H  H71  1  0.754500  0.081300  0.961300  1.0  0.1258
  H  H72  1  0.019100  0.884400  0.106500  1.0  0.1192
  H  H73  1  0.706200  0.147700  0.011400  1.0  0.0709
  H  H74  1  0.024900  0.837400  0.954600  1.0  0.1203
  H  H75  1  0.724100  0.188000  0.339400  1.0  0.121
  H  H76  1  0.861700  0.110800  0.155500  1.0  0.0791
  H  H77  1  0.998500  0.335100  0.604000  1.0  0.1149
  H  H78  1  0.772000  0.068000  0.844100  1.0  0.1228
  H  H79  1  0.835900  0.274800  0.236300  1.0  0.0748
  H  H80  1  0.122000  0.766400  0.005000  1.0  0.07
  H  H81  1  0.678600  0.176200  0.240800  1.0  0.0698
  H  H82  1  0.097900  0.453800  0.499800  1.0  0.075
  H  H83  1  0.886200  0.291300  0.334600  1.0  0.1194
  H  H84  1  0.883600  0.204300  0.613700  1.0  0.1246
  H  H85  1  0.904700  0.913300  0.831500  1.0  0.1245
  H  H86  1  0.723600  0.079500  0.745600  1.0  0.0718
  H  H87  1  0.848600  0.925200  0.733200  1.0  0.0816
  H  H88  1  0.834900  0.129800  0.660900  1.0  0.0796
  H  H89  1  0.597900  0.903600  0.647800  1.0  0.0827
  H  H90  1  0.414800  0.540400  0.110400  1.0  0.1269
  H  H91  1  0.615000  0.310300  0.150900  1.0  0.0711
  H  H92  1  0.499200  0.883400  0.450500  1.0  0.1253
  H  H93  1  0.236000  0.632600  0.463400  1.0  0.1305
  H  H94  1  0.188600  0.566000  0.515300  1.0  0.0711
  H  H95  1  0.254500  0.581300  0.961300  1.0  0.1258
  H  H96  1  0.519100  0.384400  0.106500  1.0  0.1192
  H  H97  1  0.206200  0.647700  0.011400  1.0  0.0709
  H  H98  1  0.524900  0.337400  0.954600  1.0  0.1203
  H  H99  1  0.224100  0.688000  0.339400  1.0  0.121
  H  H100  1  0.361700  0.610800  0.155500  1.0  0.0791
  H  H101  1  0.498500  0.835100  0.604000  1.0  0.1149
  H  H102  1  0.272000  0.568000  0.844100  1.0  0.1228
  H  H103  1  0.335900  0.774800  0.236300  1.0  0.0748
  H  H104  1  0.622000  0.266400  0.005000  1.0  0.07
  H  H105  1  0.178600  0.676200  0.240800  1.0  0.0698
  H  H106  1  0.597900  0.953800  0.499800  1.0  0.075
  H  H107  1  0.386200  0.791300  0.334600  1.0  0.1194
  H  H108  1  0.383600  0.704300  0.613700  1.0  0.1246
  H  H109  1  0.404700  0.413300  0.831500  1.0  0.1245
  H  H110  1  0.223600  0.579500  0.745600  1.0  0.0718
  H  H111  1  0.348600  0.425200  0.733200  1.0  0.0816
  H  H112  1  0.334900  0.629800  0.660900  1.0  0.0796
  H  H113  1  0.097900  0.596400  0.147800  1.0  0.0831
  H  H114  1  0.914800  0.959600  0.610400  1.0  0.1267
  H  H115  1  0.115000  0.189700  0.650900  1.0  0.0708
  H  H116  1  0.999200  0.616600  0.950500  1.0  0.125
  H  H117  1  0.736000  0.867400  0.963400  1.0  0.1307
  H  H118  1  0.688600  0.934000  0.015300  1.0  0.0712
  H  H119  1  0.754500  0.918700  0.461300  1.0  0.1256
  H  H120  1  0.019100  0.115600  0.606500  1.0  0.1193
  H  H121  1  0.706200  0.852300  0.511400  1.0  0.0709
  H  H122  1  0.024900  0.162600  0.454600  1.0  0.1205
  H  H123  1  0.724100  0.812000  0.839400  1.0  0.121
  H  H124  1  0.861700  0.889200  0.655500  1.0  0.0791
  H  H125  1  0.998500  0.664900  0.104000  1.0  0.1151
  H  H126  1  0.772000  0.932000  0.344100  1.0  0.1229
  H  H127  1  0.835900  0.725200  0.736300  1.0  0.0749
  H  H128  1  0.122000  0.233600  0.505000  1.0  0.0697
  H  H129  1  0.678600  0.823800  0.740800  1.0  0.0697
  H  H130  1  0.097900  0.546200  0.999800  1.0  0.0754
  H  H131  1  0.886200  0.708700  0.834600  1.0  0.1189
  H  H132  1  0.883600  0.795700  0.113700  1.0  0.1246
  H  H133  1  0.904700  0.086700  0.331500  1.0  0.1248
  H  H134  1  0.723600  0.920500  0.245600  1.0  0.0721
  H  H135  1  0.848600  0.074800  0.233200  1.0  0.0816
  H  H136  1  0.834900  0.870200  0.160900  1.0  0.0796
  H  H137  1  0.597900  0.096400  0.147800  1.0  0.0831
  H  H138  1  0.414800  0.459600  0.610400  1.0  0.1267
  H  H139  1  0.615000  0.689700  0.650900  1.0  0.0708
  H  H140  1  0.499200  0.116600  0.950500  1.0  0.125
  H  H141  1  0.236000  0.367400  0.963400  1.0  0.1307
  H  H142  1  0.188600  0.434000  0.015300  1.0  0.0713
  H  H143  1  0.254500  0.418700  0.461300  1.0  0.1256
  H  H144  1  0.519100  0.615600  0.606500  1.0  0.1193
  H  H145  1  0.206200  0.352300  0.511400  1.0  0.0709
  H  H146  1  0.524900  0.662600  0.454600  1.0  0.1205
  H  H147  1  0.224100  0.312000  0.839400  1.0  0.121
  H  H148  1  0.361700  0.389200  0.655500  1.0  0.0791
  H  H149  1  0.498500  0.164900  0.104000  1.0  0.1151
  H  H150  1  0.272000  0.432000  0.344100  1.0  0.1229
  H  H151  1  0.335900  0.225200  0.736300  1.0  0.0749
  H  H152  1  0.622000  0.733600  0.505000  1.0  0.0697
  H  H153  1  0.178600  0.323800  0.740800  1.0  0.0697
  H  H154  1  0.597900  0.046200  0.999800  1.0  0.0754
  H  H155  1  0.386200  0.208700  0.834600  1.0  0.1189
  H  H156  1  0.383600  0.295700  0.113700  1.0  0.1246
  H  H157  1  0.404700  0.586700  0.331500  1.0  0.1248
  H  H158  1  0.223600  0.420500  0.245600  1.0  0.0721
  H  H159  1  0.348600  0.574800  0.233200  1.0  0.0816
  H  H160  1  0.334900  0.370200  0.160900  1.0  0.0796
  H  H161  1  0.902100  0.596400  0.352200  1.0  0.0829
  H  H162  1  0.085200  0.959600  0.889600  1.0  0.1255
  H  H163  1  0.885000  0.189700  0.849100  1.0  0.0711
  H  H164  1  0.000800  0.616600  0.549500  1.0  0.1256
  H  H165  1  0.264000  0.867400  0.536600  1.0  0.1296
  H  H166  1  0.311400  0.934000  0.484700  1.0  0.0709
  H  H167  1  0.245500  0.918700  0.038700  1.0  0.1259
  H  H168  1  0.980900  0.115600  0.893500  1.0  0.1195
  H  H169  1  0.293800  0.852300  0.988600  1.0  0.0714
  H  H170  1  0.975100  0.162600  0.045400  1.0  0.12
  H  H171  1  0.275900  0.812000  0.660600  1.0  0.121
  H  H172  1  0.138300  0.889200  0.844500  1.0  0.0792
  H  H173  1  0.001500  0.664900  0.396000  1.0  0.1157
  H  H174  1  0.228000  0.932000  0.155900  1.0  0.1233
  H  H175  1  0.164100  0.725200  0.763700  1.0  0.0751
  H  H176  1  0.878000  0.233600  0.995000  1.0  0.0701
  H  H177  1  0.321400  0.823800  0.759200  1.0  0.0706
  H  H178  1  0.902100  0.546200  0.500200  1.0  0.075
  H  H179  1  0.113800  0.708700  0.665400  1.0  0.1198
  H  H180  1  0.116400  0.795700  0.386300  1.0  0.1242
  H  H181  1  0.095300  0.086700  0.168500  1.0  0.1245
  H  H182  1  0.276400  0.920500  0.254400  1.0  0.0721
  H  H183  1  0.151400  0.074800  0.266800  1.0  0.0824
  H  H184  1  0.165100  0.870200  0.339100  1.0  0.0798
  H  H185  1  0.402100  0.096400  0.352200  1.0  0.0829
  H  H186  1  0.585200  0.459600  0.889600  1.0  0.1255
  H  H187  1  0.385000  0.689700  0.849100  1.0  0.0711
  H  H188  1  0.500800  0.116600  0.549500  1.0  0.1256
  H  H189  1  0.764000  0.367400  0.536600  1.0  0.1296
  H  H190  1  0.811400  0.434000  0.484700  1.0  0.071
  H  H191  1  0.745500  0.418700  0.038700  1.0  0.1259
  H  H192  1  0.480900  0.615600  0.893500  1.0  0.1195
  H  H193  1  0.793800  0.352300  0.988600  1.0  0.0714
  H  H194  1  0.475100  0.662600  0.045400  1.0  0.12
  H  H195  1  0.775900  0.312000  0.660600  1.0  0.121
  H  H196  1  0.638300  0.389200  0.844500  1.0  0.0792
  H  H197  1  0.501500  0.164900  0.396000  1.0  0.1157
  H  H198  1  0.728000  0.432000  0.155900  1.0  0.1233
  H  H199  1  0.664100  0.225200  0.763700  1.0  0.0751
  H  H200  1  0.378000  0.733600  0.995000  1.0  0.0701
  H  H201  1  0.821400  0.323800  0.759200  1.0  0.0706
  H  H202  1  0.402100  0.046200  0.500200  1.0  0.075
  H  H203  1  0.613800  0.208700  0.665400  1.0  0.1198
  H  H204  1  0.616400  0.295700  0.386300  1.0  0.1242
  H  H205  1  0.595300  0.586700  0.168500  1.0  0.1245
  H  H206  1  0.776400  0.420500  0.254400  1.0  0.0721
  H  H207  1  0.651400  0.574800  0.266800  1.0  0.0824
  H  H208  1  0.665100  0.370200  0.339100  1.0  0.0798
  C  C209  1  0.153700  0.220000  0.001000  1.0  0.3598
  C  C210  1  0.127900  0.007200  0.501900  1.0  0.3753
  C  C211  1  0.922300  0.399800  0.892200  1.0  0.1497
  C  C212  1  0.127800  0.061700  0.410900  1.0  -0.1824
  C  C213  1  0.903100  0.816600  0.388900  1.0  0.1578
  C  C214  1  0.981900  0.387000  0.009500  1.0  -0.1689
  C  C215  1  0.074800  0.301400  0.006700  1.0  0.3706
  C  C216  1  0.159400  0.052000  0.469400  1.0  0.0
  C  C217  1  0.158500  0.985900  0.651200  1.0  -0.0655
  C  C218  1  0.243400  0.133500  0.996500  1.0  -0.1374
  C  C219  1  0.271100  0.093200  0.964700  1.0  0.171
  C  C220  1  0.222800  0.085800  0.498800  1.0  -0.1954
  C  C221  1  0.049700  0.922700  0.505100  1.0  0.3923
  C  C222  1  0.183900  0.175400  0.966600  1.0  -0.0298
  C  C223  1  0.960700  0.861600  0.415300  1.0  -0.1507
  C  C224  1  0.251300  0.125700  0.468300  1.0  0.1792
  C  C225  1  0.127700  0.975400  0.587600  1.0  0.3786
  C  C226  1  0.957300  0.834000  0.505400  1.0  -0.1601
  C  C227  1  0.190300  0.243100  0.151900  1.0  -0.0907
  C  C228  1  0.252400  0.206900  0.180900  1.0  -0.1274
  C  C229  1  0.158200  0.251800  0.087700  1.0  0.3515
  C  C230  1  0.160500  0.103700  0.384300  1.0  0.1706
  C  C231  1  0.982100  0.357900  0.918300  1.0  -0.1516
  C  C232  1  0.988700  0.872600  0.474800  1.0  -0.0488
  C  C233  1  0.012700  0.350200  0.977400  1.0  -0.021
  C  C234  1  0.211900  0.037600  0.677700  1.0  -0.17
  C  C235  1  0.186900  0.257100  0.242500  1.0  0.1661
  C  C236  1  0.899100  0.790700  0.474400  1.0  0.1669
  C  C237  1  0.279000  0.199200  0.240000  1.0  0.1705
  C  C238  1  0.922200  0.428800  0.979100  1.0  0.1749
  C  C239  1  0.156200  0.267900  0.183400  1.0  -0.1851
  C  C240  1  0.155400  0.175300  0.907300  1.0  -0.1427
  C  C241  1  0.133500  0.945300  0.685000  1.0  -0.1724
  C  C242  1  0.241000  0.043600  0.736900  1.0  0.1629
  C  C243  1  0.167300  0.953900  0.744100  1.0  0.1833
  C  C244  1  0.185700  0.131400  0.879300  1.0  0.164
  C  C245  1  0.653700  0.720000  0.001000  1.0  0.3598
  C  C246  1  0.627900  0.507200  0.501900  1.0  0.3753
  C  C247  1  0.422300  0.899800  0.892200  1.0  0.1497
  C  C248  1  0.627800  0.561700  0.410900  1.0  -0.1824
  C  C249  1  0.403100  0.316600  0.388900  1.0  0.1578
  C  C250  1  0.481900  0.887000  0.009500  1.0  -0.1689
  C  C251  1  0.574800  0.801400  0.006700  1.0  0.3706
  C  C252  1  0.659400  0.552000  0.469400  1.0  0.0
  C  C253  1  0.658500  0.485900  0.651200  1.0  -0.0655
  C  C254  1  0.743400  0.633500  0.996500  1.0  -0.1374
  C  C255  1  0.771100  0.593200  0.964700  1.0  0.171
  C  C256  1  0.722800  0.585800  0.498800  1.0  -0.1954
  C  C257  1  0.549700  0.422700  0.505100  1.0  0.3923
  C  C258  1  0.683900  0.675400  0.966600  1.0  -0.0298
  C  C259  1  0.460700  0.361600  0.415300  1.0  -0.1507
  C  C260  1  0.751300  0.625700  0.468300  1.0  0.1792
  C  C261  1  0.627700  0.475400  0.587600  1.0  0.3786
  C  C262  1  0.457300  0.334000  0.505400  1.0  -0.1601
  C  C263  1  0.690300  0.743100  0.151900  1.0  -0.0907
  C  C264  1  0.752400  0.706900  0.180900  1.0  -0.1274
  C  C265  1  0.658200  0.751800  0.087700  1.0  0.3515
  C  C266  1  0.660500  0.603700  0.384300  1.0  0.1706
  C  C267  1  0.482100  0.857900  0.918300  1.0  -0.1516
  C  C268  1  0.488700  0.372600  0.474800  1.0  -0.0488
  C  C269  1  0.512700  0.850200  0.977400  1.0  -0.021
  C  C270  1  0.711900  0.537600  0.677700  1.0  -0.17
  C  C271  1  0.686900  0.757100  0.242500  1.0  0.1661
  C  C272  1  0.399100  0.290700  0.474400  1.0  0.1669
  C  C273  1  0.779000  0.699200  0.240000  1.0  0.1705
  C  C274  1  0.422200  0.928800  0.979100  1.0  0.1749
  C  C275  1  0.656200  0.767900  0.183400  1.0  -0.1851
  C  C276  1  0.655400  0.675300  0.907300  1.0  -0.1427
  C  C277  1  0.633500  0.445300  0.685000  1.0  -0.1724
  C  C278  1  0.741000  0.543600  0.736900  1.0  0.1629
  C  C279  1  0.667300  0.453900  0.744100  1.0  0.1833
  C  C280  1  0.685700  0.631400  0.879300  1.0  0.164
  C  C281  1  0.846300  0.220000  0.499000  1.0  0.3602
  C  C282  1  0.872100  0.007200  0.998100  1.0  0.376
  C  C283  1  0.077700  0.399800  0.607800  1.0  0.1479
  C  C284  1  0.872200  0.061700  0.089100  1.0  -0.1846
  C  C285  1  0.096900  0.816600  0.111100  1.0  0.1583
  C  C286  1  0.018100  0.387000  0.490500  1.0  -0.1719
  C  C287  1  0.925200  0.301400  0.493300  1.0  0.3698
  C  C288  1  0.840600  0.052000  0.030600  1.0  0.0005
  C  C289  1  0.841500  0.985900  0.848800  1.0  -0.0644
  C  C290  1  0.756600  0.133500  0.503500  1.0  -0.1354
  C  C291  1  0.728900  0.093200  0.535300  1.0  0.1704
  C  C292  1  0.777200  0.085800  0.001200  1.0  -0.196
  C  C293  1  0.950300  0.922700  0.994900  1.0  0.3911
  C  C294  1  0.816100  0.175400  0.533400  1.0  -0.0298
  C  C295  1  0.039300  0.861600  0.084700  1.0  -0.1502
  C  C296  1  0.748700  0.125700  0.031700  1.0  0.1805
  C  C297  1  0.872300  0.975400  0.912400  1.0  0.3785
  C  C298  1  0.042700  0.834000  0.994600  1.0  -0.1622
  C  C299  1  0.809700  0.243100  0.348100  1.0  -0.0907
  C  C300  1  0.747600  0.206900  0.319100  1.0  -0.1242
  C  C301  1  0.841800  0.251800  0.412300  1.0  0.3512
  C  C302  1  0.839500  0.103700  0.115700  1.0  0.1697
  C  C303  1  0.017900  0.357900  0.581700  1.0  -0.1563
  C  C304  1  0.011300  0.872600  0.025200  1.0  -0.0497
  C  C305  1  0.987300  0.350200  0.522600  1.0  -0.0225
  C  C306  1  0.788100  0.037600  0.822300  1.0  -0.1676
  C  C307  1  0.813100  0.257100  0.257500  1.0  0.1653
  C  C308  1  0.100900  0.790700  0.025600  1.0  0.1668
  C  C309  1  0.721000  0.199200  0.260000  1.0  0.1704
  C  C310  1  0.077800  0.428800  0.520900  1.0  0.1759
  C  C311  1  0.843800  0.267900  0.316600  1.0  -0.1863
  C  C312  1  0.844600  0.175300  0.592700  1.0  -0.143
  C  C313  1  0.866500  0.945300  0.815000  1.0  -0.1735
  C  C314  1  0.759000  0.043600  0.763100  1.0  0.1625
  C  C315  1  0.832700  0.953900  0.755900  1.0  0.1829
  C  C316  1  0.814300  0.131400  0.620700  1.0  0.1641
  C  C317  1  0.346300  0.720000  0.499000  1.0  0.3602
  C  C318  1  0.372100  0.507200  0.998100  1.0  0.376
  C  C319  1  0.577700  0.899800  0.607800  1.0  0.1479
  C  C320  1  0.372200  0.561700  0.089100  1.0  -0.1846
  C  C321  1  0.596900  0.316600  0.111100  1.0  0.1583
  C  C322  1  0.518100  0.887000  0.490500  1.0  -0.1719
  C  C323  1  0.425200  0.801400  0.493300  1.0  0.3698
  C  C324  1  0.340600  0.552000  0.030600  1.0  0.0005
  C  C325  1  0.341500  0.485900  0.848800  1.0  -0.0644
  C  C326  1  0.256600  0.633500  0.503500  1.0  -0.1354
  C  C327  1  0.228900  0.593200  0.535300  1.0  0.1704
  C  C328  1  0.277200  0.585800  0.001200  1.0  -0.196
  C  C329  1  0.450300  0.422700  0.994900  1.0  0.3911
  C  C330  1  0.316100  0.675400  0.533400  1.0  -0.0298
  C  C331  1  0.539300  0.361600  0.084700  1.0  -0.1502
  C  C332  1  0.248700  0.625700  0.031700  1.0  0.1805
  C  C333  1  0.372300  0.475400  0.912400  1.0  0.3785
  C  C334  1  0.542700  0.334000  0.994600  1.0  -0.1622
  C  C335  1  0.309700  0.743100  0.348100  1.0  -0.0907
  C  C336  1  0.247600  0.706900  0.319100  1.0  -0.1242
  C  C337  1  0.341800  0.751800  0.412300  1.0  0.3512
  C  C338  1  0.339500  0.603700  0.115700  1.0  0.1697
  C  C339  1  0.517900  0.857900  0.581700  1.0  -0.1563
  C  C340  1  0.511300  0.372600  0.025200  1.0  -0.0497
  C  C341  1  0.487300  0.850200  0.522600  1.0  -0.0225
  C  C342  1  0.288100  0.537600  0.822300  1.0  -0.1676
  C  C343  1  0.313100  0.757100  0.257500  1.0  0.1653
  C  C344  1  0.600900  0.290700  0.025600  1.0  0.1668
  C  C345  1  0.221000  0.699200  0.260000  1.0  0.1704
  C  C346  1  0.577800  0.928800  0.520900  1.0  0.1759
  C  C347  1  0.343800  0.767900  0.316600  1.0  -0.1863
  C  C348  1  0.344600  0.675300  0.592700  1.0  -0.143
  C  C349  1  0.366500  0.445300  0.815000  1.0  -0.1735
  C  C350  1  0.259000  0.543600  0.763100  1.0  0.1625
  C  C351  1  0.332700  0.453900  0.755900  1.0  0.1829
  C  C352  1  0.314300  0.631400  0.620700  1.0  0.1641
  C  C353  1  0.846300  0.780000  0.999000  1.0  0.3597
  C  C354  1  0.872100  0.992800  0.498100  1.0  0.3763
  C  C355  1  0.077700  0.600200  0.107800  1.0  0.1482
  C  C356  1  0.872200  0.938300  0.589100  1.0  -0.1846
  C  C357  1  0.096900  0.183400  0.611100  1.0  0.1579
  C  C358  1  0.018100  0.613000  0.990500  1.0  -0.1714
  C  C359  1  0.925200  0.698600  0.993300  1.0  0.3695
  C  C360  1  0.840600  0.948000  0.530600  1.0  0.0007
  C  C361  1  0.841500  0.014100  0.348800  1.0  -0.0641
  C  C362  1  0.756600  0.866500  0.003500  1.0  -0.135
  C  C363  1  0.728900  0.906800  0.035300  1.0  0.17
  C  C364  1  0.777200  0.914200  0.501200  1.0  -0.1954
  C  C365  1  0.950300  0.077300  0.494900  1.0  0.391
  C  C366  1  0.816100  0.824600  0.033400  1.0  -0.0296
  C  C367  1  0.039300  0.138400  0.584700  1.0  -0.1505
  C  C368  1  0.748700  0.874300  0.531700  1.0  0.1809
  C  C369  1  0.872300  0.024600  0.412400  1.0  0.3787
  C  C370  1  0.042700  0.166000  0.494600  1.0  -0.1624
  C  C371  1  0.809700  0.756900  0.848100  1.0  -0.0904
  C  C372  1  0.747600  0.793100  0.819100  1.0  -0.1239
  C  C373  1  0.841800  0.748200  0.912300  1.0  0.3511
  C  C374  1  0.839500  0.896300  0.615700  1.0  0.1702
  C  C375  1  0.017900  0.642100  0.081700  1.0  -0.1566
  C  C376  1  0.011300  0.127400  0.525200  1.0  -0.0497
  C  C377  1  0.987300  0.649800  0.022600  1.0  -0.0231
  C  C378  1  0.788100  0.962400  0.322300  1.0  -0.168
  C  C379  1  0.813100  0.742900  0.757500  1.0  0.1658
  C  C380  1  0.100900  0.209300  0.525600  1.0  0.1661
  C  C381  1  0.721000  0.800800  0.760000  1.0  0.1705
  C  C382  1  0.077800  0.571200  0.020900  1.0  0.1761
  C  C383  1  0.843800  0.732100  0.816600  1.0  -0.1859
  C  C384  1  0.844600  0.824700  0.092700  1.0  -0.1435
  C  C385  1  0.866500  0.054700  0.315000  1.0  -0.1736
  C  C386  1  0.759000  0.956400  0.263100  1.0  0.1623
  C  C387  1  0.832700  0.046100  0.255900  1.0  0.1833
  C  C388  1  0.814300  0.868600  0.120700  1.0  0.1641
  C  C389  1  0.346300  0.280000  0.999000  1.0  0.3597
  C  C390  1  0.372100  0.492800  0.498100  1.0  0.3763
  C  C391  1  0.577700  0.100200  0.107800  1.0  0.1482
  C  C392  1  0.372200  0.438300  0.589100  1.0  -0.1846
  C  C393  1  0.596900  0.683400  0.611100  1.0  0.1579
  C  C394  1  0.518100  0.113000  0.990500  1.0  -0.1714
  C  C395  1  0.425200  0.198600  0.993300  1.0  0.3695
  C  C396  1  0.340600  0.448000  0.530600  1.0  0.0007
  C  C397  1  0.341500  0.514100  0.348800  1.0  -0.0641
  C  C398  1  0.256600  0.366500  0.003500  1.0  -0.135
  C  C399  1  0.228900  0.406800  0.035300  1.0  0.17
  C  C400  1  0.277200  0.414200  0.501200  1.0  -0.1954
  C  C401  1  0.450300  0.577300  0.494900  1.0  0.391
  C  C402  1  0.316100  0.324600  0.033400  1.0  -0.0296
  C  C403  1  0.539300  0.638400  0.584700  1.0  -0.1505
  C  C404  1  0.248700  0.374300  0.531700  1.0  0.1809
  C  C405  1  0.372300  0.524600  0.412400  1.0  0.3787
  C  C406  1  0.542700  0.666000  0.494600  1.0  -0.1624
  C  C407  1  0.309700  0.256900  0.848100  1.0  -0.0904
  C  C408  1  0.247600  0.293100  0.819100  1.0  -0.1239
  C  C409  1  0.341800  0.248200  0.912300  1.0  0.3511
  C  C410  1  0.339500  0.396300  0.615700  1.0  0.1702
  C  C411  1  0.517900  0.142100  0.081700  1.0  -0.1566
  C  C412  1  0.511300  0.627400  0.525200  1.0  -0.0497
  C  C413  1  0.487300  0.149800  0.022600  1.0  -0.0231
  C  C414  1  0.288100  0.462400  0.322300  1.0  -0.168
  C  C415  1  0.313100  0.242900  0.757500  1.0  0.1658
  C  C416  1  0.600900  0.709300  0.525600  1.0  0.1661
  C  C417  1  0.221000  0.300800  0.760000  1.0  0.1705
  C  C418  1  0.577800  0.071200  0.020900  1.0  0.1761
  C  C419  1  0.343800  0.232100  0.816600  1.0  -0.1859
  C  C420  1  0.344600  0.324700  0.092700  1.0  -0.1435
  C  C421  1  0.366500  0.554700  0.315000  1.0  -0.1736
  C  C422  1  0.259000  0.456400  0.263100  1.0  0.1623
  C  C423  1  0.332700  0.546100  0.255900  1.0  0.1833
  C  C424  1  0.314300  0.368600  0.120700  1.0  0.1641
  C  C425  1  0.153700  0.780000  0.501000  1.0  0.3594
  C  C426  1  0.127900  0.992800  0.001900  1.0  0.3755
  C  C427  1  0.922300  0.600200  0.392200  1.0  0.1486
  C  C428  1  0.127800  0.938300  0.910900  1.0  -0.1826
  C  C429  1  0.903100  0.183400  0.888900  1.0  0.1574
  C  C430  1  0.981900  0.613000  0.509500  1.0  -0.1692
  C  C431  1  0.074800  0.698600  0.506700  1.0  0.3701
  C  C432  1  0.159400  0.948000  0.969400  1.0  -0.0004
  C  C433  1  0.158500  0.014100  0.151200  1.0  -0.0651
  C  C434  1  0.243400  0.866500  0.496500  1.0  -0.1377
  C  C435  1  0.271100  0.906800  0.464700  1.0  0.1707
  C  C436  1  0.222800  0.914200  0.998800  1.0  -0.195
  C  C437  1  0.049700  0.077300  0.005100  1.0  0.3922
  C  C438  1  0.183900  0.824600  0.466600  1.0  -0.0302
  C  C439  1  0.960700  0.138400  0.915300  1.0  -0.1506
  C  C440  1  0.251300  0.874300  0.968300  1.0  0.1791
  C  C441  1  0.127700  0.024600  0.087600  1.0  0.3788
  C  C442  1  0.957300  0.166000  0.005400  1.0  -0.1598
  C  C443  1  0.190300  0.756900  0.651900  1.0  -0.0907
  C  C444  1  0.252400  0.793100  0.680900  1.0  -0.127
  C  C445  1  0.158200  0.748200  0.587700  1.0  0.3514
  C  C446  1  0.160500  0.896300  0.884300  1.0  0.1698
  C  C447  1  0.982100  0.642100  0.418300  1.0  -0.1528
  C  C448  1  0.988700  0.127400  0.974800  1.0  -0.0491
  C  C449  1  0.012700  0.649800  0.477400  1.0  -0.0216
  C  C450  1  0.211900  0.962400  0.177700  1.0  -0.1695
  C  C451  1  0.186900  0.742900  0.742500  1.0  0.1665
  C  C452  1  0.899100  0.209300  0.974400  1.0  0.1664
  C  C453  1  0.279000  0.800800  0.740000  1.0  0.1708
  C  C454  1  0.922200  0.571200  0.479100  1.0  0.176
  C  C455  1  0.156200  0.732100  0.683400  1.0  -0.1844
  C  C456  1  0.155400  0.824700  0.407300  1.0  -0.1428
  C  C457  1  0.133500  0.054700  0.185000  1.0  -0.1718
  C  C458  1  0.241000  0.956400  0.236900  1.0  0.1632
  C  C459  1  0.167300  0.046100  0.244100  1.0  0.184
  C  C460  1  0.185700  0.868600  0.379300  1.0  0.1645
  C  C461  1  0.653700  0.280000  0.501000  1.0  0.3594
  C  C462  1  0.627900  0.492800  0.001900  1.0  0.3755
  C  C463  1  0.422300  0.100200  0.392200  1.0  0.1486
  C  C464  1  0.627800  0.438300  0.910900  1.0  -0.1826
  C  C465  1  0.403100  0.683400  0.888900  1.0  0.1574
  C  C466  1  0.481900  0.113000  0.509500  1.0  -0.1692
  C  C467  1  0.574800  0.198600  0.506700  1.0  0.3701
  C  C468  1  0.659400  0.448000  0.969400  1.0  -0.0004
  C  C469  1  0.658500  0.514100  0.151200  1.0  -0.0651
  C  C470  1  0.743400  0.366500  0.496500  1.0  -0.1377
  C  C471  1  0.771100  0.406800  0.464700  1.0  0.1707
  C  C472  1  0.722800  0.414200  0.998800  1.0  -0.195
  C  C473  1  0.549700  0.577300  0.005100  1.0  0.3922
  C  C474  1  0.683900  0.324600  0.466600  1.0  -0.0302
  C  C475  1  0.460700  0.638400  0.915300  1.0  -0.1506
  C  C476  1  0.751300  0.374300  0.968300  1.0  0.1791
  C  C477  1  0.627700  0.524600  0.087600  1.0  0.3788
  C  C478  1  0.457300  0.666000  0.005400  1.0  -0.1598
  C  C479  1  0.690300  0.256900  0.651900  1.0  -0.0907
  C  C480  1  0.752400  0.293100  0.680900  1.0  -0.127
  C  C481  1  0.658200  0.248200  0.587700  1.0  0.3514
  C  C482  1  0.660500  0.396300  0.884300  1.0  0.1698
  C  C483  1  0.482100  0.142100  0.418300  1.0  -0.1528
  C  C484  1  0.488700  0.627400  0.974800  1.0  -0.0491
  C  C485  1  0.512700  0.149800  0.477400  1.0  -0.0216
  C  C486  1  0.711900  0.462400  0.177700  1.0  -0.1695
  C  C487  1  0.686900  0.242900  0.742500  1.0  0.1665
  C  C488  1  0.399100  0.709300  0.974400  1.0  0.1664
  C  C489  1  0.779000  0.300800  0.740000  1.0  0.1708
  C  C490  1  0.422200  0.071200  0.479100  1.0  0.176
  C  C491  1  0.656200  0.232100  0.683400  1.0  -0.1844
  C  C492  1  0.655400  0.324700  0.407300  1.0  -0.1428
  C  C493  1  0.633500  0.554700  0.185000  1.0  -0.1718
  C  C494  1  0.741000  0.456400  0.236900  1.0  0.1632
  C  C495  1  0.667300  0.546100  0.244100  1.0  0.184
  C  C496  1  0.685700  0.368600  0.379300  1.0  0.1645
  N  N497  1  0.871400  0.781300  0.417500  1.0  -0.3607
  N  N498  1  0.221900  0.134800  0.411600  1.0  -0.3251
  N  N499  1  0.220700  0.000100  0.770800  1.0  -0.3331
  N  N500  1  0.074100  0.961000  0.472300  1.0  -0.5207
  N  N501  1  0.156000  0.017500  0.559100  1.0  -0.4767
  N  N502  1  0.074800  0.927300  0.562800  1.0  -0.5285
  N  N503  1  0.243800  0.090600  0.907200  1.0  -0.3706
  N  N504  1  0.246500  0.223400  0.271200  1.0  -0.3609
  N  N505  1  0.892000  0.435100  0.921700  1.0  -0.324
  N  N506  1  0.186200  0.212900  0.058500  1.0  -0.4905
  N  N507  1  0.103700  0.299000  0.064100  1.0  -0.4946
  N  N508  1  0.097600  0.260600  0.973200  1.0  -0.445
  N  N509  1  0.371400  0.281300  0.417500  1.0  -0.3607
  N  N510  1  0.721900  0.634800  0.411600  1.0  -0.3251
  N  N511  1  0.720700  0.500100  0.770800  1.0  -0.3331
  N  N512  1  0.574100  0.461000  0.472300  1.0  -0.5207
  N  N513  1  0.656000  0.517500  0.559100  1.0  -0.4767
  N  N514  1  0.574800  0.427300  0.562800  1.0  -0.5285
  N  N515  1  0.743800  0.590600  0.907200  1.0  -0.3706
  N  N516  1  0.746500  0.723400  0.271200  1.0  -0.3609
  N  N517  1  0.392000  0.935100  0.921700  1.0  -0.324
  N  N518  1  0.686200  0.712900  0.058500  1.0  -0.4905
  N  N519  1  0.603700  0.799000  0.064100  1.0  -0.4946
  N  N520  1  0.597600  0.760600  0.973200  1.0  -0.445
  N  N521  1  0.128600  0.781300  0.082500  1.0  -0.3593
  N  N522  1  0.778100  0.134800  0.088400  1.0  -0.3237
  N  N523  1  0.779300  0.000100  0.729200  1.0  -0.3348
  N  N524  1  0.925900  0.961000  0.027700  1.0  -0.523
  N  N525  1  0.844000  0.017500  0.940900  1.0  -0.476
  N  N526  1  0.925200  0.927300  0.937200  1.0  -0.5258
  N  N527  1  0.756200  0.090600  0.592800  1.0  -0.3697
  N  N528  1  0.753500  0.223400  0.228800  1.0  -0.3609
  N  N529  1  0.108000  0.435100  0.578300  1.0  -0.3242
  N  N530  1  0.813800  0.212900  0.441500  1.0  -0.4912
  N  N531  1  0.896300  0.299000  0.435900  1.0  -0.4898
  N  N532  1  0.902400  0.260600  0.526800  1.0  -0.4434
  N  N533  1  0.628600  0.281300  0.082500  1.0  -0.3593
  N  N534  1  0.278100  0.634800  0.088400  1.0  -0.3237
  N  N535  1  0.279300  0.500100  0.729200  1.0  -0.3348
  N  N536  1  0.425900  0.461000  0.027700  1.0  -0.523
  N  N537  1  0.344000  0.517500  0.940900  1.0  -0.476
  N  N538  1  0.425200  0.427300  0.937200  1.0  -0.5258
  N  N539  1  0.256200  0.590600  0.592800  1.0  -0.3697
  N  N540  1  0.253500  0.723400  0.228800  1.0  -0.3609
  N  N541  1  0.608000  0.935100  0.578300  1.0  -0.3242
  N  N542  1  0.313800  0.712900  0.441500  1.0  -0.4912
  N  N543  1  0.396300  0.799000  0.435900  1.0  -0.4898
  N  N544  1  0.402400  0.760600  0.526800  1.0  -0.4434
  N  N545  1  0.128600  0.218700  0.582500  1.0  -0.3613
  N  N546  1  0.778100  0.865200  0.588400  1.0  -0.327
  N  N547  1  0.779300  0.999900  0.229200  1.0  -0.3351
  N  N548  1  0.925900  0.039000  0.527700  1.0  -0.5228
  N  N549  1  0.844000  0.982500  0.440900  1.0  -0.4764
  N  N550  1  0.925200  0.072700  0.437200  1.0  -0.5245
  N  N551  1  0.756200  0.909400  0.092800  1.0  -0.3719
  N  N552  1  0.753500  0.776600  0.728800  1.0  -0.3602
  N  N553  1  0.108000  0.564900  0.078300  1.0  -0.3236
  N  N554  1  0.813800  0.787100  0.941500  1.0  -0.4906
  N  N555  1  0.896300  0.701000  0.935900  1.0  -0.491
  N  N556  1  0.902400  0.739400  0.026800  1.0  -0.4423
  N  N557  1  0.628600  0.718700  0.582500  1.0  -0.3613
  N  N558  1  0.278100  0.365200  0.588400  1.0  -0.327
  N  N559  1  0.279300  0.499900  0.229200  1.0  -0.3351
  N  N560  1  0.425900  0.539000  0.527700  1.0  -0.5228
  N  N561  1  0.344000  0.482500  0.440900  1.0  -0.4764
  N  N562  1  0.425200  0.572700  0.437200  1.0  -0.5245
  N  N563  1  0.256200  0.409400  0.092800  1.0  -0.3719
  N  N564  1  0.253500  0.276600  0.728800  1.0  -0.3602
  N  N565  1  0.608000  0.064900  0.078300  1.0  -0.3236
  N  N566  1  0.313800  0.287100  0.941500  1.0  -0.4906
  N  N567  1  0.396300  0.201000  0.935900  1.0  -0.491
  N  N568  1  0.402400  0.239400  0.026800  1.0  -0.4423
  N  N569  1  0.871400  0.218700  0.917500  1.0  -0.3607
  N  N570  1  0.221900  0.865200  0.911600  1.0  -0.3279
  N  N571  1  0.220700  0.999900  0.270800  1.0  -0.3324
  N  N572  1  0.074100  0.039000  0.972300  1.0  -0.5204
  N  N573  1  0.156000  0.982500  0.059100  1.0  -0.4761
  N  N574  1  0.074800  0.072700  0.062800  1.0  -0.5286
  N  N575  1  0.243800  0.909400  0.407200  1.0  -0.3708
  N  N576  1  0.246500  0.776600  0.771200  1.0  -0.3617
  N  N577  1  0.892000  0.564900  0.421700  1.0  -0.3278
  N  N578  1  0.186200  0.787100  0.558500  1.0  -0.491
  N  N579  1  0.103700  0.701000  0.564100  1.0  -0.4939
  N  N580  1  0.097600  0.739400  0.473200  1.0  -0.4448
  N  N581  1  0.371400  0.718700  0.917500  1.0  -0.3607
  N  N582  1  0.721900  0.365200  0.911600  1.0  -0.3279
  N  N583  1  0.720700  0.499900  0.270800  1.0  -0.3324
  N  N584  1  0.574100  0.539000  0.972300  1.0  -0.5204
  N  N585  1  0.656000  0.482500  0.059100  1.0  -0.4761
  N  N586  1  0.574800  0.572700  0.062800  1.0  -0.5286
  N  N587  1  0.743800  0.409400  0.407200  1.0  -0.3708
  N  N588  1  0.746500  0.276600  0.771200  1.0  -0.3617
  N  N589  1  0.392000  0.064900  0.421700  1.0  -0.3278
  N  N590  1  0.686200  0.287100  0.558500  1.0  -0.491
  N  N591  1  0.603700  0.201000  0.564100  1.0  -0.4939
  N  N592  1  0.597600  0.239400  0.473200  1.0  -0.4448
