# generated using pymatgen
data_AgH12(C3N)6
_symmetry_space_group_name_H-M   'P 1'
_cell_length_a   21.99430000
_cell_length_b   16.57730000
_cell_length_c   25.55800000
_cell_angle_alpha   90.00000000
_cell_angle_beta   115.20300000
_cell_angle_gamma   90.00000000
_symmetry_Int_Tables_number   1
_chemical_formula_structural   AgH12(C3N)6
_chemical_formula_sum   'Ag16 H192 C288 N96'
_cell_volume   8431.51627655
_cell_formula_units_Z   16
loop_
 _symmetry_equiv_pos_site_id
 _symmetry_equiv_pos_as_xyz
  1  'x, y, z'
loop_
 _atom_site_type_symbol
 _atom_site_label
 _atom_site_symmetry_multiplicity
 _atom_site_fract_x
 _atom_site_fract_y
 _atom_site_fract_z
 _atom_site_occupancy
 _atom_site_charge
  Ag  Ag1  1  0.844270  0.457140  0.367300  1.0  0.3343
  Ag  Ag2  1  0.822280  0.754920  0.866770  1.0  0.2839
  Ag  Ag3  1  0.344270  0.957140  0.367300  1.0  0.3343
  Ag  Ag4  1  0.322280  0.254920  0.866770  1.0  0.2839
  Ag  Ag5  1  0.155730  0.457140  0.132700  1.0  0.335
  Ag  Ag6  1  0.177720  0.754920  0.633230  1.0  0.284
  Ag  Ag7  1  0.655730  0.957140  0.132700  1.0  0.335
  Ag  Ag8  1  0.677720  0.254920  0.633230  1.0  0.284
  Ag  Ag9  1  0.155730  0.542860  0.632700  1.0  0.3349
  Ag  Ag10  1  0.177720  0.245080  0.133230  1.0  0.2839
  Ag  Ag11  1  0.655730  0.042860  0.632700  1.0  0.3349
  Ag  Ag12  1  0.677720  0.745080  0.133230  1.0  0.2839
  Ag  Ag13  1  0.844270  0.542860  0.867300  1.0  0.3342
  Ag  Ag14  1  0.822280  0.245080  0.366770  1.0  0.2839
  Ag  Ag15  1  0.344270  0.042860  0.867300  1.0  0.3342
  Ag  Ag16  1  0.322280  0.745080  0.366770  1.0  0.2839
  H  H17  1  0.819700  0.588200  0.544200  1.0  0.1233
  H  H18  1  0.022900  0.883400  0.035400  1.0  0.13
  H  H19  1  0.298300  0.133800  0.048700  1.0  0.1245
  H  H20  1  0.554600  0.790100  0.389000  1.0  0.1108
  H  H21  1  0.924200  0.815500  0.983500  1.0  0.0705
  H  H22  1  0.200200  0.158100  0.851100  1.0  0.0887
  H  H23  1  0.135000  0.938800  0.159900  1.0  0.1196
  H  H24  1  0.713800  0.557500  0.347800  1.0  0.0763
  H  H25  1  0.543100  0.831900  0.538100  1.0  0.1241
  H  H26  1  0.143900  0.088600  0.895000  1.0  0.1111
  H  H27  1  0.661900  0.631600  0.392500  1.0  0.1215
  H  H28  1  0.348500  0.205400  0.999600  1.0  0.0767
  H  H29  1  0.455900  0.860400  0.342900  1.0  0.0792
  H  H30  1  0.867200  0.518100  0.493900  1.0  0.0717
  H  H31  1  0.444400  0.896000  0.488200  1.0  0.0737
  H  H32  1  0.019800  0.957000  0.884700  1.0  0.1265
  H  H33  1  0.350800  0.022500  0.262200  1.0  0.0791
  H  H34  1  0.924700  0.881900  0.838400  1.0  0.0729
  H  H35  1  0.188800  0.921900  0.258300  1.0  0.0786
  H  H36  1  0.676300  0.817500  0.655300  1.0  0.1236
  H  H37  1  0.726300  0.828800  0.754100  1.0  0.0737
  H  H38  1  0.301600  0.039500  0.163300  1.0  0.1233
  H  H39  1  0.867800  0.681700  0.765900  1.0  0.079
  H  H40  1  0.824300  0.668100  0.667400  1.0  0.1195
  H  H41  1  0.319700  0.088200  0.544200  1.0  0.1233
  H  H42  1  0.522900  0.383400  0.035400  1.0  0.13
  H  H43  1  0.798300  0.633800  0.048700  1.0  0.1245
  H  H44  1  0.054600  0.290100  0.389000  1.0  0.1108
  H  H45  1  0.424200  0.315500  0.983500  1.0  0.0705
  H  H46  1  0.700200  0.658100  0.851100  1.0  0.0887
  H  H47  1  0.635000  0.438800  0.159900  1.0  0.1196
  H  H48  1  0.213800  0.057500  0.347800  1.0  0.0763
  H  H49  1  0.043100  0.331900  0.538100  1.0  0.1241
  H  H50  1  0.643900  0.588600  0.895000  1.0  0.1111
  H  H51  1  0.161900  0.131600  0.392500  1.0  0.1215
  H  H52  1  0.848500  0.705400  0.999600  1.0  0.0767
  H  H53  1  0.955900  0.360400  0.342900  1.0  0.0792
  H  H54  1  0.367200  0.018100  0.493900  1.0  0.0717
  H  H55  1  0.944400  0.396000  0.488200  1.0  0.0737
  H  H56  1  0.519800  0.457000  0.884700  1.0  0.1265
  H  H57  1  0.850800  0.522500  0.262200  1.0  0.0791
  H  H58  1  0.424700  0.381900  0.838400  1.0  0.0729
  H  H59  1  0.688800  0.421900  0.258300  1.0  0.0785
  H  H60  1  0.176300  0.317500  0.655300  1.0  0.1236
  H  H61  1  0.226300  0.328800  0.754100  1.0  0.0737
  H  H62  1  0.801600  0.539500  0.163300  1.0  0.1233
  H  H63  1  0.367800  0.181700  0.765900  1.0  0.079
  H  H64  1  0.324300  0.168100  0.667400  1.0  0.1195
  H  H65  1  0.180300  0.588200  0.955800  1.0  0.1238
  H  H66  1  0.977100  0.883400  0.464600  1.0  0.13
  H  H67  1  0.701700  0.133800  0.451300  1.0  0.1243
  H  H68  1  0.445400  0.790100  0.111000  1.0  0.1101
  H  H69  1  0.075800  0.815500  0.516500  1.0  0.0712
  H  H70  1  0.799800  0.158100  0.648900  1.0  0.0884
  H  H71  1  0.865000  0.938800  0.340100  1.0  0.1189
  H  H72  1  0.286200  0.557500  0.152200  1.0  0.0748
  H  H73  1  0.456900  0.831900  0.961900  1.0  0.1245
  H  H74  1  0.856100  0.088600  0.605000  1.0  0.1115
  H  H75  1  0.338100  0.631600  0.107500  1.0  0.1217
  H  H76  1  0.651500  0.205400  0.500400  1.0  0.0758
  H  H77  1  0.544100  0.860400  0.157100  1.0  0.0792
  H  H78  1  0.132800  0.518100  0.006100  1.0  0.0714
  H  H79  1  0.555600  0.896000  0.011800  1.0  0.074
  H  H80  1  0.980200  0.957000  0.615300  1.0  0.1261
  H  H81  1  0.649200  0.022500  0.237800  1.0  0.081
  H  H82  1  0.075300  0.881900  0.661600  1.0  0.0731
  H  H83  1  0.811200  0.921900  0.241700  1.0  0.0786
  H  H84  1  0.323700  0.817500  0.844700  1.0  0.1234
  H  H85  1  0.273700  0.828800  0.745900  1.0  0.0731
  H  H86  1  0.698400  0.039500  0.336700  1.0  0.123
  H  H87  1  0.132200  0.681700  0.734100  1.0  0.0795
  H  H88  1  0.175700  0.668100  0.832600  1.0  0.1193
  H  H89  1  0.680300  0.088200  0.955800  1.0  0.1238
  H  H90  1  0.477100  0.383400  0.464600  1.0  0.13
  H  H91  1  0.201700  0.633800  0.451300  1.0  0.1243
  H  H92  1  0.945400  0.290100  0.111000  1.0  0.1101
  H  H93  1  0.575800  0.315500  0.516500  1.0  0.0712
  H  H94  1  0.299800  0.658100  0.648900  1.0  0.0884
  H  H95  1  0.365000  0.438800  0.340100  1.0  0.1189
  H  H96  1  0.786200  0.057500  0.152200  1.0  0.0748
  H  H97  1  0.956900  0.331900  0.961900  1.0  0.1245
  H  H98  1  0.356100  0.588600  0.605000  1.0  0.1115
  H  H99  1  0.838100  0.131600  0.107500  1.0  0.1217
  H  H100  1  0.151500  0.705400  0.500400  1.0  0.0758
  H  H101  1  0.044100  0.360400  0.157100  1.0  0.0792
  H  H102  1  0.632800  0.018100  0.006100  1.0  0.0714
  H  H103  1  0.055600  0.396000  0.011800  1.0  0.074
  H  H104  1  0.480200  0.457000  0.615300  1.0  0.1261
  H  H105  1  0.149200  0.522500  0.237800  1.0  0.081
  H  H106  1  0.575300  0.381900  0.661600  1.0  0.0731
  H  H107  1  0.311200  0.421900  0.241700  1.0  0.0784
  H  H108  1  0.823700  0.317500  0.844700  1.0  0.1234
  H  H109  1  0.773700  0.328800  0.745900  1.0  0.0731
  H  H110  1  0.198400  0.539500  0.336700  1.0  0.123
  H  H111  1  0.632200  0.181700  0.734100  1.0  0.0795
  H  H112  1  0.675700  0.168100  0.832600  1.0  0.1193
  H  H113  1  0.180300  0.411800  0.455800  1.0  0.124
  H  H114  1  0.977100  0.116600  0.964600  1.0  0.1303
  H  H115  1  0.701700  0.866200  0.951300  1.0  0.1241
  H  H116  1  0.445400  0.209900  0.611000  1.0  0.11
  H  H117  1  0.075800  0.184500  0.016500  1.0  0.0712
  H  H118  1  0.799800  0.841900  0.148900  1.0  0.0881
  H  H119  1  0.865000  0.061200  0.840100  1.0  0.1193
  H  H120  1  0.286200  0.442500  0.652200  1.0  0.0747
  H  H121  1  0.456900  0.168100  0.461900  1.0  0.1242
  H  H122  1  0.856100  0.911400  0.105000  1.0  0.1116
  H  H123  1  0.338100  0.368400  0.607500  1.0  0.1217
  H  H124  1  0.651500  0.794600  0.000400  1.0  0.076
  H  H125  1  0.544100  0.139600  0.657100  1.0  0.0793
  H  H126  1  0.132800  0.481900  0.506100  1.0  0.0713
  H  H127  1  0.555600  0.104000  0.511800  1.0  0.0741
  H  H128  1  0.980200  0.043000  0.115300  1.0  0.1264
  H  H129  1  0.649200  0.977500  0.737800  1.0  0.0806
  H  H130  1  0.075300  0.118100  0.161600  1.0  0.073
  H  H131  1  0.811200  0.078100  0.741700  1.0  0.0783
  H  H132  1  0.323700  0.182500  0.344700  1.0  0.1233
  H  H133  1  0.273700  0.171200  0.245900  1.0  0.0735
  H  H134  1  0.698400  0.960500  0.836700  1.0  0.1233
  H  H135  1  0.132200  0.318300  0.234100  1.0  0.0785
  H  H136  1  0.175700  0.331900  0.332600  1.0  0.1193
  H  H137  1  0.680300  0.911800  0.455800  1.0  0.124
  H  H138  1  0.477100  0.616600  0.964600  1.0  0.1303
  H  H139  1  0.201700  0.366200  0.951300  1.0  0.1241
  H  H140  1  0.945400  0.709900  0.611000  1.0  0.11
  H  H141  1  0.575800  0.684500  0.016500  1.0  0.0712
  H  H142  1  0.299800  0.341900  0.148900  1.0  0.0881
  H  H143  1  0.365000  0.561200  0.840100  1.0  0.1193
  H  H144  1  0.786200  0.942500  0.652200  1.0  0.0747
  H  H145  1  0.956900  0.668100  0.461900  1.0  0.1242
  H  H146  1  0.356100  0.411400  0.105000  1.0  0.1116
  H  H147  1  0.838100  0.868400  0.607500  1.0  0.1217
  H  H148  1  0.151500  0.294600  0.000400  1.0  0.076
  H  H149  1  0.044100  0.639600  0.657100  1.0  0.0793
  H  H150  1  0.632800  0.981900  0.506100  1.0  0.0713
  H  H151  1  0.055600  0.604000  0.511800  1.0  0.0741
  H  H152  1  0.480200  0.543000  0.115300  1.0  0.1264
  H  H153  1  0.149200  0.477500  0.737800  1.0  0.0806
  H  H154  1  0.575300  0.618100  0.161600  1.0  0.073
  H  H155  1  0.311200  0.578100  0.741700  1.0  0.0783
  H  H156  1  0.823700  0.682500  0.344700  1.0  0.1233
  H  H157  1  0.773700  0.671200  0.245900  1.0  0.0735
  H  H158  1  0.198400  0.460500  0.836700  1.0  0.1233
  H  H159  1  0.632200  0.818300  0.234100  1.0  0.0785
  H  H160  1  0.675700  0.831900  0.332600  1.0  0.1193
  H  H161  1  0.819700  0.411800  0.044200  1.0  0.123
  H  H162  1  0.022900  0.116600  0.535400  1.0  0.1298
  H  H163  1  0.298300  0.866200  0.548700  1.0  0.1245
  H  H164  1  0.554600  0.209900  0.889000  1.0  0.1104
  H  H165  1  0.924200  0.184500  0.483500  1.0  0.0707
  H  H166  1  0.200200  0.841900  0.351100  1.0  0.0884
  H  H167  1  0.135000  0.061200  0.659900  1.0  0.1197
  H  H168  1  0.713800  0.442500  0.847800  1.0  0.0761
  H  H169  1  0.543100  0.168100  0.038100  1.0  0.1243
  H  H170  1  0.143900  0.911400  0.395000  1.0  0.1109
  H  H171  1  0.661900  0.368400  0.892500  1.0  0.1216
  H  H172  1  0.348500  0.794600  0.499600  1.0  0.0766
  H  H173  1  0.455900  0.139600  0.842900  1.0  0.079
  H  H174  1  0.867200  0.481900  0.993900  1.0  0.0715
  H  H175  1  0.444400  0.104000  0.988200  1.0  0.0742
  H  H176  1  0.019800  0.043000  0.384700  1.0  0.1262
  H  H177  1  0.350800  0.977500  0.762200  1.0  0.0787
  H  H178  1  0.924700  0.118100  0.338400  1.0  0.0727
  H  H179  1  0.188800  0.078100  0.758300  1.0  0.0783
  H  H180  1  0.676300  0.182500  0.155300  1.0  0.1237
  H  H181  1  0.726300  0.171200  0.254100  1.0  0.0742
  H  H182  1  0.301600  0.960500  0.663300  1.0  0.1234
  H  H183  1  0.867800  0.318300  0.265900  1.0  0.0782
  H  H184  1  0.824300  0.331900  0.167400  1.0  0.1199
  H  H185  1  0.319700  0.911800  0.044200  1.0  0.123
  H  H186  1  0.522900  0.616600  0.535400  1.0  0.1298
  H  H187  1  0.798300  0.366200  0.548700  1.0  0.1245
  H  H188  1  0.054600  0.709900  0.889000  1.0  0.1104
  H  H189  1  0.424200  0.684500  0.483500  1.0  0.0708
  H  H190  1  0.700200  0.341900  0.351100  1.0  0.0884
  H  H191  1  0.635000  0.561200  0.659900  1.0  0.1197
  H  H192  1  0.213800  0.942500  0.847800  1.0  0.0761
  H  H193  1  0.043100  0.668100  0.038100  1.0  0.1243
  H  H194  1  0.643900  0.411400  0.395000  1.0  0.1109
  H  H195  1  0.161900  0.868400  0.892500  1.0  0.1216
  H  H196  1  0.848500  0.294600  0.499600  1.0  0.0766
  H  H197  1  0.955900  0.639600  0.842900  1.0  0.079
  H  H198  1  0.367200  0.981900  0.993900  1.0  0.0715
  H  H199  1  0.944400  0.604000  0.988200  1.0  0.0742
  H  H200  1  0.519800  0.543000  0.384700  1.0  0.1262
  H  H201  1  0.850800  0.477500  0.762200  1.0  0.0787
  H  H202  1  0.424700  0.618100  0.338400  1.0  0.0727
  H  H203  1  0.688800  0.578100  0.758300  1.0  0.0783
  H  H204  1  0.176300  0.682500  0.155300  1.0  0.1237
  H  H205  1  0.226300  0.671200  0.254100  1.0  0.0742
  H  H206  1  0.801600  0.460500  0.663300  1.0  0.1234
  H  H207  1  0.367800  0.818300  0.265900  1.0  0.0782
  H  H208  1  0.324300  0.831900  0.167400  1.0  0.1199
  C  C209  1  0.097800  0.970800  0.999600  1.0  0.3794
  C  C210  1  0.797500  0.584100  0.504200  1.0  -0.1934
  C  C211  1  0.003400  0.884600  0.995200  1.0  -0.1442
  C  C212  1  0.277300  0.137800  0.008600  1.0  -0.147
  C  C213  1  0.181700  0.052200  0.005700  1.0  0.3645
  C  C214  1  0.709800  0.726400  0.586400  1.0  0.3651
  C  C215  1  0.559800  0.801400  0.468300  1.0  -0.052
  C  C216  1  0.533000  0.811200  0.410200  1.0  -0.1319
  C  C217  1  0.623300  0.756300  0.500900  1.0  0.3693
  C  C218  1  0.944000  0.844100  0.963500  1.0  0.1692
  C  C219  1  0.033100  0.927200  0.965400  1.0  -0.0059
  C  C220  1  0.219900  0.153200  0.891100  1.0  0.1565
  C  C221  1  0.179100  0.956300  0.180000  1.0  -0.1251
  C  C222  1  0.735400  0.564400  0.387700  1.0  0.1691
  C  C223  1  0.743200  0.736900  0.650500  1.0  -0.0155
  C  C224  1  0.180100  0.002000  0.086600  1.0  0.3559
  C  C225  1  0.214900  0.101300  0.976800  1.0  -0.018
  C  C226  1  0.735700  0.621000  0.473700  1.0  -0.094
  C  C227  1  0.525600  0.835600  0.498000  1.0  -0.1875
  C  C228  1  0.212200  0.992000  0.151100  1.0  -0.1281
  C  C229  1  0.185900  0.110700  0.917300  1.0  -0.1321
  C  C230  1  0.704000  0.609300  0.414200  1.0  -0.1599
  C  C231  1  0.307300  0.180500  0.978500  1.0  0.1708
  C  C232  1  0.705000  0.672100  0.503800  1.0  0.3886
  C  C233  1  0.473200  0.852900  0.382700  1.0  0.1688
  C  C234  1  0.825100  0.541100  0.473400  1.0  0.1734
  C  C235  1  0.466800  0.874200  0.467800  1.0  0.1726
  C  C236  1  0.002000  0.927600  0.905900  1.0  -0.1755
  C  C237  1  0.306700  0.005300  0.241400  1.0  0.163
  C  C238  1  0.944000  0.883700  0.878600  1.0  0.1791
  C  C239  1  0.211700  0.946600  0.239200  1.0  0.1697
  C  C240  1  0.714900  0.788200  0.677100  1.0  -0.1651
  C  C241  1  0.745400  0.794600  0.736400  1.0  0.1703
  C  C242  1  0.277600  0.016300  0.181800  1.0  -0.1501
  C  C243  1  0.828300  0.708900  0.743300  1.0  0.1796
  C  C244  1  0.802200  0.699400  0.684100  1.0  -0.1771
  C  C245  1  0.597800  0.470800  0.999600  1.0  0.3794
  C  C246  1  0.297500  0.084100  0.504200  1.0  -0.1934
  C  C247  1  0.503400  0.384600  0.995200  1.0  -0.1442
  C  C248  1  0.777300  0.637800  0.008600  1.0  -0.147
  C  C249  1  0.681700  0.552200  0.005700  1.0  0.3645
  C  C250  1  0.209800  0.226400  0.586400  1.0  0.3651
  C  C251  1  0.059800  0.301400  0.468300  1.0  -0.052
  C  C252  1  0.033000  0.311200  0.410200  1.0  -0.1319
  C  C253  1  0.123300  0.256300  0.500900  1.0  0.3693
  C  C254  1  0.444000  0.344100  0.963500  1.0  0.1692
  C  C255  1  0.533100  0.427200  0.965400  1.0  -0.0059
  C  C256  1  0.719900  0.653200  0.891100  1.0  0.1565
  C  C257  1  0.679100  0.456300  0.180000  1.0  -0.1251
  C  C258  1  0.235400  0.064400  0.387700  1.0  0.1691
  C  C259  1  0.243200  0.236900  0.650500  1.0  -0.0155
  C  C260  1  0.680100  0.502000  0.086600  1.0  0.3559
  C  C261  1  0.714900  0.601300  0.976800  1.0  -0.018
  C  C262  1  0.235700  0.121000  0.473700  1.0  -0.094
  C  C263  1  0.025600  0.335600  0.498000  1.0  -0.1875
  C  C264  1  0.712200  0.492000  0.151100  1.0  -0.1281
  C  C265  1  0.685900  0.610700  0.917300  1.0  -0.1321
  C  C266  1  0.204000  0.109300  0.414200  1.0  -0.1599
  C  C267  1  0.807300  0.680500  0.978500  1.0  0.1708
  C  C268  1  0.205000  0.172100  0.503800  1.0  0.3886
  C  C269  1  0.973200  0.352900  0.382700  1.0  0.1688
  C  C270  1  0.325100  0.041100  0.473400  1.0  0.1734
  C  C271  1  0.966800  0.374200  0.467800  1.0  0.1726
  C  C272  1  0.502000  0.427600  0.905900  1.0  -0.1755
  C  C273  1  0.806700  0.505300  0.241400  1.0  0.163
  C  C274  1  0.444000  0.383700  0.878600  1.0  0.1791
  C  C275  1  0.711700  0.446600  0.239200  1.0  0.1697
  C  C276  1  0.214900  0.288200  0.677100  1.0  -0.1651
  C  C277  1  0.245400  0.294600  0.736400  1.0  0.1703
  C  C278  1  0.777600  0.516300  0.181800  1.0  -0.1501
  C  C279  1  0.328300  0.208900  0.743300  1.0  0.1796
  C  C280  1  0.302200  0.199400  0.684100  1.0  -0.1771
  C  C281  1  0.902200  0.970800  0.500400  1.0  0.3793
  C  C282  1  0.202500  0.584100  0.995800  1.0  -0.1911
  C  C283  1  0.996600  0.884600  0.504800  1.0  -0.1445
  C  C284  1  0.722700  0.137800  0.491400  1.0  -0.1469
  C  C285  1  0.818300  0.052200  0.494300  1.0  0.3651
  C  C286  1  0.290200  0.726400  0.913600  1.0  0.3652
  C  C287  1  0.440200  0.801400  0.031700  1.0  -0.0521
  C  C288  1  0.467000  0.811200  0.089800  1.0  -0.1336
  C  C289  1  0.376700  0.756300  0.999100  1.0  0.3693
  C  C290  1  0.056000  0.844100  0.536500  1.0  0.1695
  C  C291  1  0.966900  0.927200  0.534600  1.0  -0.0076
  C  C292  1  0.780100  0.153200  0.608900  1.0  0.1546
  C  C293  1  0.820900  0.956300  0.320000  1.0  -0.1287
  C  C294  1  0.264600  0.564400  0.112300  1.0  0.1682
  C  C295  1  0.256800  0.736900  0.849500  1.0  -0.0156
  C  C296  1  0.819900  0.002000  0.413400  1.0  0.3564
  C  C297  1  0.785100  0.101300  0.523200  1.0  -0.017
  C  C298  1  0.264300  0.621000  0.026300  1.0  -0.0934
  C  C299  1  0.474400  0.835600  0.002000  1.0  -0.188
  C  C300  1  0.787800  0.992000  0.348900  1.0  -0.1287
  C  C301  1  0.814100  0.110700  0.582700  1.0  -0.1331
  C  C302  1  0.296000  0.609300  0.085800  1.0  -0.1599
  C  C303  1  0.692700  0.180500  0.521500  1.0  0.17
  C  C304  1  0.295000  0.672100  0.996200  1.0  0.3886
  C  C305  1  0.526800  0.852900  0.117300  1.0  0.1692
  C  C306  1  0.174900  0.541100  0.026600  1.0  0.1736
  C  C307  1  0.533200  0.874200  0.032200  1.0  0.1737
  C  C308  1  0.998000  0.927600  0.594100  1.0  -0.1767
  C  C309  1  0.693300  0.005300  0.258600  1.0  0.1631
  C  C310  1  0.056000  0.883700  0.621400  1.0  0.1779
  C  C311  1  0.788300  0.946600  0.260800  1.0  0.1712
  C  C312  1  0.285100  0.788200  0.822900  1.0  -0.1651
  C  C313  1  0.254600  0.794600  0.763600  1.0  0.1689
  C  C314  1  0.722400  0.016300  0.318200  1.0  -0.1481
  C  C315  1  0.171700  0.708900  0.756700  1.0  0.1787
  C  C316  1  0.197800  0.699400  0.815900  1.0  -0.1749
  C  C317  1  0.402200  0.470800  0.500400  1.0  0.3793
  C  C318  1  0.702500  0.084100  0.995800  1.0  -0.1911
  C  C319  1  0.496600  0.384600  0.504800  1.0  -0.1445
  C  C320  1  0.222700  0.637800  0.491400  1.0  -0.1469
  C  C321  1  0.318300  0.552200  0.494300  1.0  0.3651
  C  C322  1  0.790200  0.226400  0.913600  1.0  0.3652
  C  C323  1  0.940200  0.301400  0.031700  1.0  -0.0521
  C  C324  1  0.967000  0.311200  0.089800  1.0  -0.1336
  C  C325  1  0.876700  0.256300  0.999100  1.0  0.3693
  C  C326  1  0.556000  0.344100  0.536500  1.0  0.1695
  C  C327  1  0.466900  0.427200  0.534600  1.0  -0.0076
  C  C328  1  0.280100  0.653200  0.608900  1.0  0.1546
  C  C329  1  0.320900  0.456300  0.320000  1.0  -0.1287
  C  C330  1  0.764600  0.064400  0.112300  1.0  0.1682
  C  C331  1  0.756800  0.236900  0.849500  1.0  -0.0156
  C  C332  1  0.319900  0.502000  0.413400  1.0  0.3564
  C  C333  1  0.285100  0.601300  0.523200  1.0  -0.017
  C  C334  1  0.764300  0.121000  0.026300  1.0  -0.0934
  C  C335  1  0.974400  0.335600  0.002000  1.0  -0.188
  C  C336  1  0.287800  0.492000  0.348900  1.0  -0.1287
  C  C337  1  0.314100  0.610700  0.582700  1.0  -0.1331
  C  C338  1  0.796000  0.109300  0.085800  1.0  -0.1599
  C  C339  1  0.192700  0.680500  0.521500  1.0  0.17
  C  C340  1  0.795000  0.172100  0.996200  1.0  0.3886
  C  C341  1  0.026800  0.352900  0.117300  1.0  0.1692
  C  C342  1  0.674900  0.041100  0.026600  1.0  0.1736
  C  C343  1  0.033200  0.374200  0.032200  1.0  0.1737
  C  C344  1  0.498000  0.427600  0.594100  1.0  -0.1767
  C  C345  1  0.193300  0.505300  0.258600  1.0  0.1631
  C  C346  1  0.556000  0.383700  0.621400  1.0  0.1779
  C  C347  1  0.288300  0.446600  0.260800  1.0  0.1712
  C  C348  1  0.785100  0.288200  0.822900  1.0  -0.1651
  C  C349  1  0.754600  0.294600  0.763600  1.0  0.1689
  C  C350  1  0.222400  0.516300  0.318200  1.0  -0.1481
  C  C351  1  0.671700  0.208900  0.756700  1.0  0.1787
  C  C352  1  0.697800  0.199400  0.815900  1.0  -0.1749
  C  C353  1  0.902200  0.029200  0.000400  1.0  0.3795
  C  C354  1  0.202500  0.415900  0.495800  1.0  -0.1915
  C  C355  1  0.996600  0.115400  0.004800  1.0  -0.1448
  C  C356  1  0.722700  0.862200  0.991400  1.0  -0.1467
  C  C357  1  0.818300  0.947800  0.994300  1.0  0.3651
  C  C358  1  0.290200  0.273600  0.413600  1.0  0.3652
  C  C359  1  0.440200  0.198600  0.531700  1.0  -0.0522
  C  C360  1  0.467000  0.188800  0.589800  1.0  -0.1328
  C  C361  1  0.376700  0.243700  0.499100  1.0  0.3699
  C  C362  1  0.056000  0.155900  0.036500  1.0  0.1692
  C  C363  1  0.966900  0.072800  0.034600  1.0  -0.0082
  C  C364  1  0.780100  0.846800  0.108900  1.0  0.1557
  C  C365  1  0.820900  0.043700  0.820000  1.0  -0.129
  C  C366  1  0.264600  0.435600  0.612300  1.0  0.1677
  C  C367  1  0.256800  0.263100  0.349500  1.0  -0.0151
  C  C368  1  0.819900  0.998000  0.913400  1.0  0.3568
  C  C369  1  0.785100  0.898700  0.023200  1.0  -0.0172
  C  C370  1  0.264300  0.379000  0.526300  1.0  -0.0936
  C  C371  1  0.474400  0.164400  0.502000  1.0  -0.1874
  C  C372  1  0.787800  0.008000  0.848900  1.0  -0.128
  C  C373  1  0.814100  0.889300  0.082700  1.0  -0.1329
  C  C374  1  0.296000  0.390700  0.585800  1.0  -0.1602
  C  C375  1  0.692700  0.819500  0.021500  1.0  0.1703
  C  C376  1  0.295000  0.327900  0.496200  1.0  0.3884
  C  C377  1  0.526800  0.147100  0.617300  1.0  0.1689
  C  C378  1  0.174900  0.458900  0.526600  1.0  0.173
  C  C379  1  0.533200  0.125800  0.532200  1.0  0.1733
  C  C380  1  0.998000  0.072400  0.094100  1.0  -0.177
  C  C381  1  0.693300  0.994700  0.758600  1.0  0.1637
  C  C382  1  0.056000  0.116300  0.121400  1.0  0.1782
  C  C383  1  0.788300  0.053400  0.760800  1.0  0.1713
  C  C384  1  0.285100  0.211800  0.322900  1.0  -0.165
  C  C385  1  0.254600  0.205400  0.263600  1.0  0.1693
  C  C386  1  0.722400  0.983700  0.818200  1.0  -0.1483
  C  C387  1  0.171700  0.291100  0.256700  1.0  0.179
  C  C388  1  0.197800  0.300600  0.315900  1.0  -0.1744
  C  C389  1  0.402200  0.529200  0.000400  1.0  0.3795
  C  C390  1  0.702500  0.915900  0.495800  1.0  -0.1915
  C  C391  1  0.496600  0.615400  0.004800  1.0  -0.1448
  C  C392  1  0.222700  0.362200  0.991400  1.0  -0.1467
  C  C393  1  0.318300  0.447800  0.994300  1.0  0.3651
  C  C394  1  0.790200  0.773600  0.413600  1.0  0.3652
  C  C395  1  0.940200  0.698600  0.531700  1.0  -0.0522
  C  C396  1  0.967000  0.688800  0.589800  1.0  -0.1328
  C  C397  1  0.876700  0.743700  0.499100  1.0  0.3699
  C  C398  1  0.556000  0.655900  0.036500  1.0  0.1692
  C  C399  1  0.466900  0.572800  0.034600  1.0  -0.0082
  C  C400  1  0.280100  0.346800  0.108900  1.0  0.1557
  C  C401  1  0.320900  0.543700  0.820000  1.0  -0.129
  C  C402  1  0.764600  0.935600  0.612300  1.0  0.1677
  C  C403  1  0.756800  0.763100  0.349500  1.0  -0.0151
  C  C404  1  0.319900  0.498000  0.913400  1.0  0.3568
  C  C405  1  0.285100  0.398700  0.023200  1.0  -0.0172
  C  C406  1  0.764300  0.879000  0.526300  1.0  -0.0936
  C  C407  1  0.974400  0.664400  0.502000  1.0  -0.1874
  C  C408  1  0.287800  0.508000  0.848900  1.0  -0.128
  C  C409  1  0.314100  0.389300  0.082700  1.0  -0.1329
  C  C410  1  0.796000  0.890700  0.585800  1.0  -0.1602
  C  C411  1  0.192700  0.319500  0.021500  1.0  0.1703
  C  C412  1  0.795000  0.827900  0.496200  1.0  0.3884
  C  C413  1  0.026800  0.647100  0.617300  1.0  0.1689
  C  C414  1  0.674900  0.958900  0.526600  1.0  0.173
  C  C415  1  0.033200  0.625800  0.532200  1.0  0.1733
  C  C416  1  0.498000  0.572400  0.094100  1.0  -0.177
  C  C417  1  0.193300  0.494700  0.758600  1.0  0.1637
  C  C418  1  0.556000  0.616300  0.121400  1.0  0.1782
  C  C419  1  0.288300  0.553400  0.760800  1.0  0.1713
  C  C420  1  0.785100  0.711800  0.322900  1.0  -0.165
  C  C421  1  0.754600  0.705400  0.263600  1.0  0.1693
  C  C422  1  0.222400  0.483700  0.818200  1.0  -0.1483
  C  C423  1  0.671700  0.791100  0.256700  1.0  0.179
  C  C424  1  0.697800  0.800600  0.315900  1.0  -0.1744
  C  C425  1  0.097800  0.029200  0.499600  1.0  0.3797
  C  C426  1  0.797500  0.415900  0.004200  1.0  -0.1933
  C  C427  1  0.003400  0.115400  0.495200  1.0  -0.1442
  C  C428  1  0.277300  0.862200  0.508600  1.0  -0.1472
  C  C429  1  0.181700  0.947800  0.505700  1.0  0.3644
  C  C430  1  0.709800  0.273600  0.086400  1.0  0.3652
  C  C431  1  0.559800  0.198600  0.968300  1.0  -0.0513
  C  C432  1  0.533000  0.188800  0.910200  1.0  -0.1315
  C  C433  1  0.623300  0.243700  0.000900  1.0  0.3699
  C  C434  1  0.944000  0.155900  0.463500  1.0  0.1687
  C  C435  1  0.033100  0.072800  0.465400  1.0  -0.0067
  C  C436  1  0.219900  0.846800  0.391100  1.0  0.1563
  C  C437  1  0.179100  0.043700  0.680000  1.0  -0.1252
  C  C438  1  0.735400  0.435600  0.887700  1.0  0.1688
  C  C439  1  0.743200  0.263100  0.150500  1.0  -0.0154
  C  C440  1  0.180100  0.998000  0.586600  1.0  0.3564
  C  C441  1  0.214900  0.898700  0.476800  1.0  -0.0182
  C  C442  1  0.735700  0.379000  0.973700  1.0  -0.0941
  C  C443  1  0.525600  0.164400  0.998000  1.0  -0.1872
  C  C444  1  0.212200  0.008000  0.651100  1.0  -0.128
  C  C445  1  0.185900  0.889300  0.417300  1.0  -0.1323
  C  C446  1  0.704000  0.390700  0.914200  1.0  -0.1594
  C  C447  1  0.307300  0.819500  0.478500  1.0  0.171
  C  C448  1  0.705000  0.327900  0.003800  1.0  0.3885
  C  C449  1  0.473200  0.147100  0.882700  1.0  0.1682
  C  C450  1  0.825100  0.458900  0.973400  1.0  0.1726
  C  C451  1  0.466800  0.125800  0.967800  1.0  0.1739
  C  C452  1  0.002000  0.072400  0.405900  1.0  -0.1753
  C  C453  1  0.306700  0.994700  0.741400  1.0  0.1636
  C  C454  1  0.944000  0.116300  0.378600  1.0  0.1793
  C  C455  1  0.211700  0.053400  0.739200  1.0  0.1699
  C  C456  1  0.714900  0.211800  0.177100  1.0  -0.165
  C  C457  1  0.745400  0.205400  0.236400  1.0  0.1703
  C  C458  1  0.277600  0.983700  0.681800  1.0  -0.1503
  C  C459  1  0.828300  0.291100  0.243300  1.0  0.1801
  C  C460  1  0.802200  0.300600  0.184100  1.0  -0.1767
  C  C461  1  0.597800  0.529200  0.499600  1.0  0.3797
  C  C462  1  0.297500  0.915900  0.004200  1.0  -0.1933
  C  C463  1  0.503400  0.615400  0.495200  1.0  -0.1442
  C  C464  1  0.777300  0.362200  0.508600  1.0  -0.1472
  C  C465  1  0.681700  0.447800  0.505700  1.0  0.3644
  C  C466  1  0.209800  0.773600  0.086400  1.0  0.3652
  C  C467  1  0.059800  0.698600  0.968300  1.0  -0.0513
  C  C468  1  0.033000  0.688800  0.910200  1.0  -0.1315
  C  C469  1  0.123300  0.743700  0.000900  1.0  0.3699
  C  C470  1  0.444000  0.655900  0.463500  1.0  0.1687
  C  C471  1  0.533100  0.572800  0.465400  1.0  -0.0067
  C  C472  1  0.719900  0.346800  0.391100  1.0  0.1563
  C  C473  1  0.679100  0.543700  0.680000  1.0  -0.1252
  C  C474  1  0.235400  0.935600  0.887700  1.0  0.1688
  C  C475  1  0.243200  0.763100  0.150500  1.0  -0.0154
  C  C476  1  0.680100  0.498000  0.586600  1.0  0.3564
  C  C477  1  0.714900  0.398700  0.476800  1.0  -0.0182
  C  C478  1  0.235700  0.879000  0.973700  1.0  -0.0941
  C  C479  1  0.025600  0.664400  0.998000  1.0  -0.1872
  C  C480  1  0.712200  0.508000  0.651100  1.0  -0.128
  C  C481  1  0.685900  0.389300  0.417300  1.0  -0.1323
  C  C482  1  0.204000  0.890700  0.914200  1.0  -0.1594
  C  C483  1  0.807300  0.319500  0.478500  1.0  0.171
  C  C484  1  0.205000  0.827900  0.003800  1.0  0.3885
  C  C485  1  0.973200  0.647100  0.882700  1.0  0.1682
  C  C486  1  0.325100  0.958900  0.973400  1.0  0.1726
  C  C487  1  0.966800  0.625800  0.967800  1.0  0.1739
  C  C488  1  0.502000  0.572400  0.405900  1.0  -0.1753
  C  C489  1  0.806700  0.494700  0.741400  1.0  0.1636
  C  C490  1  0.444000  0.616300  0.378600  1.0  0.1793
  C  C491  1  0.711700  0.553400  0.739200  1.0  0.1699
  C  C492  1  0.214900  0.711800  0.177100  1.0  -0.165
  C  C493  1  0.245400  0.705400  0.236400  1.0  0.1703
  C  C494  1  0.777600  0.483700  0.681800  1.0  -0.1503
  C  C495  1  0.328300  0.791100  0.243300  1.0  0.1801
  C  C496  1  0.302200  0.800600  0.184100  1.0  -0.1767
  N  N497  1  0.795600  0.530400  0.416700  1.0  -0.3602
  N  N498  1  0.439400  0.882700  0.411000  1.0  -0.3084
  N  N499  1  0.800800  0.754300  0.769700  1.0  -0.3425
  N  N500  1  0.737800  0.677300  0.561800  1.0  -0.5186
  N  N501  1  0.647800  0.710000  0.471200  1.0  -0.5059
  N  N502  1  0.652500  0.766600  0.558000  1.0  -0.5192
  N  N503  1  0.913500  0.843600  0.905900  1.0  -0.3532
  N  N504  1  0.275300  0.971500  0.270300  1.0  -0.3568
  N  N505  1  0.279700  0.187100  0.921300  1.0  -0.3123
  N  N506  1  0.125700  0.012700  0.971800  1.0  -0.4777
  N  N507  1  0.122900  0.963200  0.057700  1.0  -0.497
  N  N508  1  0.211100  0.049800  0.063600  1.0  -0.5031
  N  N509  1  0.295600  0.030400  0.416700  1.0  -0.3602
  N  N510  1  0.939400  0.382700  0.411000  1.0  -0.3084
  N  N511  1  0.300800  0.254300  0.769700  1.0  -0.3425
  N  N512  1  0.237800  0.177300  0.561800  1.0  -0.5186
  N  N513  1  0.147800  0.210000  0.471200  1.0  -0.5059
  N  N514  1  0.152500  0.266600  0.558000  1.0  -0.5192
  N  N515  1  0.413500  0.343600  0.905900  1.0  -0.3532
  N  N516  1  0.775300  0.471500  0.270300  1.0  -0.3568
  N  N517  1  0.779700  0.687100  0.921300  1.0  -0.3123
  N  N518  1  0.625700  0.512700  0.971800  1.0  -0.4777
  N  N519  1  0.622900  0.463200  0.057700  1.0  -0.497
  N  N520  1  0.711100  0.549800  0.063600  1.0  -0.5031
  N  N521  1  0.204400  0.530400  0.083300  1.0  -0.3589
  N  N522  1  0.560600  0.882700  0.089000  1.0  -0.3097
  N  N523  1  0.199200  0.754300  0.730300  1.0  -0.3421
  N  N524  1  0.262200  0.677300  0.938200  1.0  -0.5201
  N  N525  1  0.352200  0.710000  0.028800  1.0  -0.5083
  N  N526  1  0.347500  0.766600  0.942000  1.0  -0.5159
  N  N527  1  0.086500  0.843600  0.594100  1.0  -0.3499
  N  N528  1  0.724700  0.971500  0.229700  1.0  -0.3571
  N  N529  1  0.720300  0.187100  0.578700  1.0  -0.3126
  N  N530  1  0.874300  0.012700  0.528200  1.0  -0.4802
  N  N531  1  0.877100  0.963200  0.442300  1.0  -0.4951
  N  N532  1  0.788900  0.049800  0.436400  1.0  -0.503
  N  N533  1  0.704400  0.030400  0.083300  1.0  -0.3589
  N  N534  1  0.060600  0.382700  0.089000  1.0  -0.3097
  N  N535  1  0.699200  0.254300  0.730300  1.0  -0.3421
  N  N536  1  0.762200  0.177300  0.938200  1.0  -0.5201
  N  N537  1  0.852200  0.210000  0.028800  1.0  -0.5083
  N  N538  1  0.847500  0.266600  0.942000  1.0  -0.5159
  N  N539  1  0.586500  0.343600  0.594100  1.0  -0.3499
  N  N540  1  0.224700  0.471500  0.229700  1.0  -0.3571
  N  N541  1  0.220300  0.687100  0.578700  1.0  -0.3126
  N  N542  1  0.374300  0.512700  0.528200  1.0  -0.4802
  N  N543  1  0.377100  0.463200  0.442300  1.0  -0.4951
  N  N544  1  0.288900  0.549800  0.436400  1.0  -0.503
  N  N545  1  0.204400  0.469600  0.583300  1.0  -0.36
  N  N546  1  0.560600  0.117300  0.589000  1.0  -0.3097
  N  N547  1  0.199200  0.245700  0.230300  1.0  -0.3427
  N  N548  1  0.262200  0.322700  0.438200  1.0  -0.5188
  N  N549  1  0.352200  0.290000  0.528800  1.0  -0.5081
  N  N550  1  0.347500  0.233400  0.442000  1.0  -0.5171
  N  N551  1  0.086500  0.156400  0.094100  1.0  -0.3519
  N  N552  1  0.724700  0.028500  0.729700  1.0  -0.3566
  N  N553  1  0.720300  0.812900  0.078700  1.0  -0.3134
  N  N554  1  0.874300  0.987300  0.028200  1.0  -0.4788
  N  N555  1  0.877100  0.036800  0.942300  1.0  -0.4957
  N  N556  1  0.788900  0.950200  0.936400  1.0  -0.5046
  N  N557  1  0.704400  0.969600  0.583300  1.0  -0.36
  N  N558  1  0.060600  0.617300  0.589000  1.0  -0.3097
  N  N559  1  0.699200  0.745700  0.230300  1.0  -0.3427
  N  N560  1  0.762200  0.822700  0.438200  1.0  -0.5188
  N  N561  1  0.852200  0.790000  0.528800  1.0  -0.5081
  N  N562  1  0.847500  0.733400  0.442000  1.0  -0.5171
  N  N563  1  0.586500  0.656400  0.094100  1.0  -0.3519
  N  N564  1  0.224700  0.528500  0.729700  1.0  -0.3566
  N  N565  1  0.220300  0.312900  0.078700  1.0  -0.3134
  N  N566  1  0.374300  0.487300  0.028200  1.0  -0.4788
  N  N567  1  0.377100  0.536800  0.942300  1.0  -0.4957
  N  N568  1  0.288900  0.450200  0.936400  1.0  -0.5046
  N  N569  1  0.795600  0.469600  0.916700  1.0  -0.3598
  N  N570  1  0.439400  0.117300  0.911000  1.0  -0.3132
  N  N571  1  0.800800  0.245700  0.269700  1.0  -0.3422
  N  N572  1  0.737800  0.322700  0.061800  1.0  -0.5186
  N  N573  1  0.647800  0.290000  0.971200  1.0  -0.5059
  N  N574  1  0.652500  0.233400  0.058000  1.0  -0.5193
  N  N575  1  0.913500  0.156400  0.405900  1.0  -0.3527
  N  N576  1  0.275300  0.028500  0.770300  1.0  -0.3569
  N  N577  1  0.279700  0.812900  0.421300  1.0  -0.3147
  N  N578  1  0.125700  0.987300  0.471800  1.0  -0.4778
  N  N579  1  0.122900  0.036800  0.557700  1.0  -0.498
  N  N580  1  0.211100  0.950200  0.563600  1.0  -0.5028
  N  N581  1  0.295600  0.969600  0.916700  1.0  -0.3598
  N  N582  1  0.939400  0.617300  0.911000  1.0  -0.3132
  N  N583  1  0.300800  0.745700  0.269700  1.0  -0.3422
  N  N584  1  0.237800  0.822700  0.061800  1.0  -0.5186
  N  N585  1  0.147800  0.790000  0.971200  1.0  -0.5059
  N  N586  1  0.152500  0.733400  0.058000  1.0  -0.5193
  N  N587  1  0.413500  0.656400  0.405900  1.0  -0.3527
  N  N588  1  0.775300  0.528500  0.770300  1.0  -0.3569
  N  N589  1  0.779700  0.312900  0.421300  1.0  -0.3147
  N  N590  1  0.625700  0.487300  0.471800  1.0  -0.4778
  N  N591  1  0.622900  0.536800  0.557700  1.0  -0.498
  N  N592  1  0.711100  0.450200  0.563600  1.0  -0.5028
