# generated using pymatgen
data_AgH12(C3N)6
_symmetry_space_group_name_H-M   'P 1'
_cell_length_a   21.96600000
_cell_length_b   16.62880000
_cell_length_c   25.53150000
_cell_angle_alpha   90.00000000
_cell_angle_beta   115.15800000
_cell_angle_gamma   90.00000000
_symmetry_Int_Tables_number   1
_chemical_formula_structural   AgH12(C3N)6
_chemical_formula_sum   'Ag16 H192 C288 N96'
_cell_volume   8441.18581311
_cell_formula_units_Z   16
loop_
 _symmetry_equiv_pos_site_id
 _symmetry_equiv_pos_as_xyz
  1  'x, y, z'
loop_
 _atom_site_type_symbol
 _atom_site_label
 _atom_site_symmetry_multiplicity
 _atom_site_fract_x
 _atom_site_fract_y
 _atom_site_fract_z
 _atom_site_occupancy
 _atom_site_charge
  Ag  Ag1  1  0.344230  0.956930  0.367060  1.0  0.3327
  Ag  Ag2  1  0.321950  0.255580  0.866590  1.0  0.297
  Ag  Ag3  1  0.844230  0.456930  0.367060  1.0  0.3327
  Ag  Ag4  1  0.821950  0.755580  0.866590  1.0  0.297
  Ag  Ag5  1  0.655770  0.956930  0.132940  1.0  0.3329
  Ag  Ag6  1  0.678050  0.255580  0.633410  1.0  0.2968
  Ag  Ag7  1  0.155770  0.456930  0.132940  1.0  0.3329
  Ag  Ag8  1  0.178050  0.755580  0.633410  1.0  0.2968
  Ag  Ag9  1  0.655770  0.043070  0.632940  1.0  0.3323
  Ag  Ag10  1  0.678050  0.744420  0.133410  1.0  0.2966
  Ag  Ag11  1  0.155770  0.543070  0.632940  1.0  0.3323
  Ag  Ag12  1  0.178050  0.244420  0.133410  1.0  0.2966
  Ag  Ag13  1  0.344230  0.043070  0.867060  1.0  0.3324
  Ag  Ag14  1  0.321950  0.744420  0.366590  1.0  0.2969
  Ag  Ag15  1  0.844230  0.543070  0.867060  1.0  0.3324
  Ag  Ag16  1  0.821950  0.244420  0.366590  1.0  0.2969
  H  H17  1  0.798000  0.634600  0.048600  1.0  0.1229
  H  H18  1  0.319600  0.088400  0.544000  1.0  0.1212
  H  H19  1  0.522900  0.383500  0.035000  1.0  0.1284
  H  H20  1  0.054000  0.288600  0.388200  1.0  0.1239
  H  H21  1  0.424600  0.315800  0.983400  1.0  0.0764
  H  H22  1  0.700000  0.658300  0.850700  1.0  0.0865
  H  H23  1  0.635000  0.439500  0.159700  1.0  0.1075
  H  H24  1  0.214200  0.057500  0.347500  1.0  0.0758
  H  H25  1  0.042800  0.330800  0.538100  1.0  0.129
  H  H26  1  0.161800  0.132000  0.392000  1.0  0.1217
  H  H27  1  0.644400  0.587200  0.894800  1.0  0.1044
  H  H28  1  0.367500  0.018700  0.493800  1.0  0.0724
  H  H29  1  0.955900  0.360500  0.343000  1.0  0.0822
  H  H30  1  0.945000  0.396100  0.488100  1.0  0.0642
  H  H31  1  0.850300  0.521600  0.261900  1.0  0.0763
  H  H32  1  0.847700  0.705600  0.999200  1.0  0.0742
  H  H33  1  0.519900  0.457700  0.884600  1.0  0.1254
  H  H34  1  0.802300  0.539500  0.163900  1.0  0.1244
  H  H35  1  0.425400  0.380800  0.838000  1.0  0.0721
  H  H36  1  0.689100  0.420800  0.257700  1.0  0.0759
  H  H37  1  0.225700  0.328900  0.753000  1.0  0.0709
  H  H38  1  0.324600  0.167900  0.666667  1.0  0.1254
  H  H39  1  0.175700  0.315800  0.654700  1.0  0.1203
  H  H40  1  0.366600  0.181600  0.765300  1.0  0.078
  H  H41  1  0.298000  0.134600  0.048600  1.0  0.1229
  H  H42  1  0.819600  0.588400  0.544000  1.0  0.1212
  H  H43  1  0.022900  0.883500  0.035000  1.0  0.1284
  H  H44  1  0.554000  0.788600  0.388200  1.0  0.1239
  H  H45  1  0.924600  0.815800  0.983400  1.0  0.0765
  H  H46  1  0.200000  0.158300  0.850700  1.0  0.0865
  H  H47  1  0.135000  0.939500  0.159700  1.0  0.1075
  H  H48  1  0.714200  0.557500  0.347500  1.0  0.0758
  H  H49  1  0.542800  0.830800  0.538100  1.0  0.129
  H  H50  1  0.661800  0.632000  0.392000  1.0  0.1217
  H  H51  1  0.144400  0.087200  0.894800  1.0  0.1044
  H  H52  1  0.867500  0.518700  0.493800  1.0  0.0724
  H  H53  1  0.455900  0.860500  0.343000  1.0  0.0822
  H  H54  1  0.445000  0.896100  0.488100  1.0  0.0642
  H  H55  1  0.350300  0.021600  0.261900  1.0  0.0763
  H  H56  1  0.347700  0.205600  0.999200  1.0  0.0742
  H  H57  1  0.019900  0.957700  0.884600  1.0  0.1254
  H  H58  1  0.302300  0.039500  0.163900  1.0  0.1244
  H  H59  1  0.925400  0.880800  0.838000  1.0  0.0721
  H  H60  1  0.189100  0.920800  0.257700  1.0  0.0757
  H  H61  1  0.725700  0.828900  0.753000  1.0  0.0709
  H  H62  1  0.824600  0.667900  0.666667  1.0  0.1254
  H  H63  1  0.675700  0.815800  0.654700  1.0  0.1203
  H  H64  1  0.866600  0.681600  0.765300  1.0  0.078
  H  H65  1  0.202000  0.634600  0.451400  1.0  0.1227
  H  H66  1  0.680400  0.088400  0.956000  1.0  0.1214
  H  H67  1  0.477100  0.383500  0.465000  1.0  0.1291
  H  H68  1  0.946000  0.288600  0.111800  1.0  0.1234
  H  H69  1  0.575400  0.315800  0.516600  1.0  0.0773
  H  H70  1  0.300000  0.658300  0.649300  1.0  0.0862
  H  H71  1  0.365000  0.439500  0.340300  1.0  0.1065
  H  H72  1  0.785800  0.057500  0.152500  1.0  0.0748
  H  H73  1  0.957200  0.330800  0.961900  1.0  0.1296
  H  H74  1  0.838200  0.132000  0.108000  1.0  0.1217
  H  H75  1  0.355600  0.587200  0.605200  1.0  0.1048
  H  H76  1  0.632500  0.018700  0.006200  1.0  0.0715
  H  H77  1  0.044100  0.360500  0.157000  1.0  0.0824
  H  H78  1  0.055000  0.396100  0.011900  1.0  0.0639
  H  H79  1  0.149700  0.521600  0.238100  1.0  0.0784
  H  H80  1  0.152300  0.705600  0.500800  1.0  0.0732
  H  H81  1  0.480100  0.457700  0.615400  1.0  0.125
  H  H82  1  0.197700  0.539500  0.336100  1.0  0.1251
  H  H83  1  0.574600  0.380800  0.662000  1.0  0.0726
  H  H84  1  0.310900  0.420800  0.242300  1.0  0.076
  H  H85  1  0.774300  0.328900  0.747000  1.0  0.0701
  H  H86  1  0.675400  0.167900  0.833300  1.0  0.1243
  H  H87  1  0.824300  0.315800  0.845300  1.0  0.1201
  H  H88  1  0.633400  0.181600  0.734700  1.0  0.078
  H  H89  1  0.702000  0.134600  0.451400  1.0  0.1227
  H  H90  1  0.180400  0.588400  0.956000  1.0  0.1214
  H  H91  1  0.977100  0.883500  0.465000  1.0  0.1291
  H  H92  1  0.446000  0.788600  0.111800  1.0  0.1234
  H  H93  1  0.075400  0.815800  0.516600  1.0  0.0773
  H  H94  1  0.800000  0.158300  0.649300  1.0  0.0862
  H  H95  1  0.865000  0.939500  0.340300  1.0  0.1065
  H  H96  1  0.285800  0.557500  0.152500  1.0  0.0748
  H  H97  1  0.457200  0.830800  0.961900  1.0  0.1296
  H  H98  1  0.338200  0.632000  0.108000  1.0  0.1217
  H  H99  1  0.855600  0.087200  0.605200  1.0  0.1048
  H  H100  1  0.132500  0.518700  0.006200  1.0  0.0715
  H  H101  1  0.544100  0.860500  0.157000  1.0  0.0824
  H  H102  1  0.555000  0.896100  0.011900  1.0  0.0639
  H  H103  1  0.649700  0.021600  0.238100  1.0  0.0784
  H  H104  1  0.652300  0.205600  0.500800  1.0  0.0732
  H  H105  1  0.980100  0.957700  0.615400  1.0  0.125
  H  H106  1  0.697700  0.039500  0.336100  1.0  0.1251
  H  H107  1  0.074600  0.880800  0.662000  1.0  0.0726
  H  H108  1  0.810900  0.920800  0.242300  1.0  0.0759
  H  H109  1  0.274300  0.828900  0.747000  1.0  0.0701
  H  H110  1  0.175400  0.667900  0.833300  1.0  0.1243
  H  H111  1  0.324300  0.815800  0.845300  1.0  0.1201
  H  H112  1  0.133400  0.681600  0.734700  1.0  0.078
  H  H113  1  0.202000  0.365400  0.951400  1.0  0.1226
  H  H114  1  0.680400  0.911600  0.456000  1.0  0.1218
  H  H115  1  0.477100  0.616500  0.965000  1.0  0.1294
  H  H116  1  0.946000  0.711400  0.611800  1.0  0.1233
  H  H117  1  0.575400  0.684200  0.016600  1.0  0.0773
  H  H118  1  0.300000  0.341700  0.149300  1.0  0.086
  H  H119  1  0.365000  0.560500  0.840300  1.0  0.1071
  H  H120  1  0.785800  0.942500  0.652500  1.0  0.0746
  H  H121  1  0.957200  0.669200  0.461900  1.0  0.1294
  H  H122  1  0.838200  0.868000  0.608000  1.0  0.1217
  H  H123  1  0.355600  0.412800  0.105200  1.0  0.1051
  H  H124  1  0.632500  0.981300  0.506200  1.0  0.0715
  H  H125  1  0.044100  0.639500  0.657000  1.0  0.0824
  H  H126  1  0.055000  0.603900  0.511900  1.0  0.0639
  H  H127  1  0.149700  0.478400  0.738100  1.0  0.0782
  H  H128  1  0.152300  0.294400  0.000800  1.0  0.0732
  H  H129  1  0.480100  0.542300  0.115400  1.0  0.1252
  H  H130  1  0.197700  0.460500  0.836100  1.0  0.1253
  H  H131  1  0.574600  0.619200  0.162000  1.0  0.0726
  H  H132  1  0.310900  0.579200  0.742300  1.0  0.0757
  H  H133  1  0.774300  0.671100  0.247000  1.0  0.0705
  H  H134  1  0.675400  0.832100  0.333333  1.0  0.1251
  H  H135  1  0.824300  0.684200  0.345300  1.0  0.12
  H  H136  1  0.633400  0.818400  0.234700  1.0  0.0773
  H  H137  1  0.702000  0.865400  0.951400  1.0  0.1226
  H  H138  1  0.180400  0.411600  0.456000  1.0  0.1218
  H  H139  1  0.977100  0.116500  0.965000  1.0  0.1294
  H  H140  1  0.446000  0.211400  0.611800  1.0  0.1233
  H  H141  1  0.075400  0.184200  0.016600  1.0  0.0774
  H  H142  1  0.800000  0.841700  0.149300  1.0  0.086
  H  H143  1  0.865000  0.060500  0.840300  1.0  0.1071
  H  H144  1  0.285800  0.442500  0.652500  1.0  0.0746
  H  H145  1  0.457200  0.169200  0.461900  1.0  0.1294
  H  H146  1  0.338200  0.368000  0.608000  1.0  0.1217
  H  H147  1  0.855600  0.912800  0.105200  1.0  0.1051
  H  H148  1  0.132500  0.481300  0.506200  1.0  0.0715
  H  H149  1  0.544100  0.139500  0.657000  1.0  0.0824
  H  H150  1  0.555000  0.103900  0.511900  1.0  0.0639
  H  H151  1  0.649700  0.978400  0.738100  1.0  0.0782
  H  H152  1  0.652300  0.794400  0.000800  1.0  0.0732
  H  H153  1  0.980100  0.042300  0.115400  1.0  0.1252
  H  H154  1  0.697700  0.960500  0.836100  1.0  0.1253
  H  H155  1  0.074600  0.119200  0.162000  1.0  0.0726
  H  H156  1  0.810900  0.079200  0.742300  1.0  0.0757
  H  H157  1  0.274300  0.171100  0.247000  1.0  0.0705
  H  H158  1  0.175400  0.332100  0.333333  1.0  0.1251
  H  H159  1  0.324300  0.184200  0.345300  1.0  0.12
  H  H160  1  0.133400  0.318400  0.234700  1.0  0.0773
  H  H161  1  0.798000  0.365400  0.548600  1.0  0.1229
  H  H162  1  0.319600  0.911600  0.044000  1.0  0.1211
  H  H163  1  0.522900  0.616500  0.535000  1.0  0.1281
  H  H164  1  0.054000  0.711400  0.888200  1.0  0.1236
  H  H165  1  0.424600  0.684200  0.483400  1.0  0.0764
  H  H166  1  0.700000  0.341700  0.350700  1.0  0.0864
  H  H167  1  0.635000  0.560500  0.659700  1.0  0.1076
  H  H168  1  0.214200  0.942500  0.847500  1.0  0.0756
  H  H169  1  0.042800  0.669200  0.038100  1.0  0.1291
  H  H170  1  0.161800  0.868000  0.892000  1.0  0.1219
  H  H171  1  0.644400  0.412800  0.394800  1.0  0.1045
  H  H172  1  0.367500  0.981300  0.993800  1.0  0.0722
  H  H173  1  0.955900  0.639500  0.843000  1.0  0.082
  H  H174  1  0.945000  0.603900  0.988100  1.0  0.0645
  H  H175  1  0.850300  0.478400  0.761900  1.0  0.076
  H  H176  1  0.847700  0.294400  0.499200  1.0  0.074
  H  H177  1  0.519900  0.542300  0.384600  1.0  0.1249
  H  H178  1  0.802300  0.460500  0.663900  1.0  0.1245
  H  H179  1  0.425400  0.619200  0.338000  1.0  0.0721
  H  H180  1  0.689100  0.579200  0.757700  1.0  0.0752
  H  H181  1  0.225700  0.671100  0.253000  1.0  0.0715
  H  H182  1  0.324600  0.832100  0.166700  1.0  0.1252
  H  H183  1  0.175700  0.684200  0.154700  1.0  0.1205
  H  H184  1  0.366600  0.818400  0.265300  1.0  0.0776
  H  H185  1  0.298000  0.865400  0.548600  1.0  0.1229
  H  H186  1  0.819600  0.411600  0.044000  1.0  0.1211
  H  H187  1  0.022900  0.116500  0.535000  1.0  0.1281
  H  H188  1  0.554000  0.211400  0.888200  1.0  0.1236
  H  H189  1  0.924600  0.184200  0.483400  1.0  0.0765
  H  H190  1  0.200000  0.841700  0.350700  1.0  0.0864
  H  H191  1  0.135000  0.060500  0.659700  1.0  0.1076
  H  H192  1  0.714200  0.442500  0.847500  1.0  0.0756
  H  H193  1  0.542800  0.169200  0.038100  1.0  0.1291
  H  H194  1  0.661800  0.368000  0.892000  1.0  0.1219
  H  H195  1  0.144400  0.912800  0.394800  1.0  0.1045
  H  H196  1  0.867500  0.481300  0.993800  1.0  0.0722
  H  H197  1  0.455900  0.139500  0.843000  1.0  0.082
  H  H198  1  0.445000  0.103900  0.988100  1.0  0.0645
  H  H199  1  0.350300  0.978400  0.761900  1.0  0.076
  H  H200  1  0.347700  0.794400  0.499200  1.0  0.074
  H  H201  1  0.019900  0.042300  0.384600  1.0  0.1249
  H  H202  1  0.302300  0.960500  0.663900  1.0  0.1245
  H  H203  1  0.925400  0.119200  0.338000  1.0  0.0721
  H  H204  1  0.189100  0.079200  0.757700  1.0  0.0754
  H  H205  1  0.725700  0.171100  0.253000  1.0  0.0715
  H  H206  1  0.824600  0.332100  0.166700  1.0  0.1252
  H  H207  1  0.675700  0.184200  0.154700  1.0  0.1205
  H  H208  1  0.866600  0.318400  0.265300  1.0  0.0776
  C  C209  1  0.597600  0.471000  0.999300  1.0  0.3615
  C  C210  1  0.777100  0.638200  0.008500  1.0  -0.1607
  C  C211  1  0.297400  0.084200  0.504000  1.0  -0.1689
  C  C212  1  0.123300  0.256500  0.500700  1.0  0.3683
  C  C213  1  0.503400  0.384800  0.994800  1.0  -0.1683
  C  C214  1  0.032800  0.310300  0.409600  1.0  -0.1653
  C  C215  1  0.059600  0.301400  0.468200  1.0  -0.0033
  C  C216  1  0.681600  0.552400  0.005600  1.0  0.3624
  C  C217  1  0.209400  0.226000  0.586000  1.0  0.369
  C  C218  1  0.444200  0.344400  0.963200  1.0  0.173
  C  C219  1  0.533300  0.427200  0.965400  1.0  -0.0742
  C  C220  1  0.242600  0.236600  0.649700  1.0  -0.0716
  C  C221  1  0.719900  0.653200  0.890700  1.0  0.1577
  C  C222  1  0.679300  0.456500  0.179800  1.0  -0.1059
  C  C223  1  0.235500  0.121300  0.473700  1.0  -0.0636
  C  C224  1  0.235500  0.064400  0.387500  1.0  0.1692
  C  C225  1  0.714500  0.601100  0.976400  1.0  -0.0371
  C  C226  1  0.025600  0.335000  0.498000  1.0  -0.1938
  C  C227  1  0.204800  0.172400  0.503300  1.0  0.3959
  C  C228  1  0.679700  0.502100  0.086200  1.0  0.3565
  C  C229  1  0.712200  0.491800  0.150600  1.0  -0.0755
  C  C230  1  0.203900  0.109500  0.413800  1.0  -0.1536
  C  C231  1  0.686100  0.610000  0.917200  1.0  -0.1016
  C  C232  1  0.325200  0.041200  0.473300  1.0  0.1749
  C  C233  1  0.973100  0.352600  0.382800  1.0  0.1702
  C  C234  1  0.967200  0.373800  0.467700  1.0  0.1757
  C  C235  1  0.806100  0.504800  0.241000  1.0  0.1723
  C  C236  1  0.806600  0.680600  0.978100  1.0  0.1745
  C  C237  1  0.502200  0.428000  0.905700  1.0  -0.1827
  C  C238  1  0.777900  0.516100  0.182000  1.0  -0.1885
  C  C239  1  0.444300  0.383500  0.878200  1.0  0.1751
  C  C240  1  0.711800  0.446200  0.238800  1.0  0.1656
  C  C241  1  0.245000  0.294400  0.735600  1.0  0.1724
  C  C242  1  0.302100  0.199000  0.683200  1.0  -0.2015
  C  C243  1  0.214600  0.287100  0.676500  1.0  -0.1715
  C  C244  1  0.327400  0.209200  0.742500  1.0  0.1958
  C  C245  1  0.097600  0.971000  0.999300  1.0  0.3615
  C  C246  1  0.277100  0.138200  0.008500  1.0  -0.1607
  C  C247  1  0.797400  0.584200  0.504000  1.0  -0.1689
  C  C248  1  0.623300  0.756500  0.500700  1.0  0.3683
  C  C249  1  0.003400  0.884800  0.994800  1.0  -0.1683
  C  C250  1  0.532800  0.810300  0.409600  1.0  -0.1653
  C  C251  1  0.559600  0.801400  0.468200  1.0  -0.0033
  C  C252  1  0.181600  0.052400  0.005600  1.0  0.3624
  C  C253  1  0.709400  0.726000  0.586000  1.0  0.369
  C  C254  1  0.944200  0.844400  0.963200  1.0  0.173
  C  C255  1  0.033300  0.927200  0.965400  1.0  -0.0742
  C  C256  1  0.742600  0.736600  0.649700  1.0  -0.0716
  C  C257  1  0.219900  0.153200  0.890700  1.0  0.1577
  C  C258  1  0.179300  0.956500  0.179800  1.0  -0.1059
  C  C259  1  0.735500  0.621300  0.473700  1.0  -0.0636
  C  C260  1  0.735500  0.564400  0.387500  1.0  0.1692
  C  C261  1  0.214500  0.101100  0.976400  1.0  -0.0371
  C  C262  1  0.525600  0.835000  0.498000  1.0  -0.1938
  C  C263  1  0.704800  0.672400  0.503300  1.0  0.3959
  C  C264  1  0.179700  0.002100  0.086200  1.0  0.3565
  C  C265  1  0.212200  0.991800  0.150600  1.0  -0.0755
  C  C266  1  0.703900  0.609500  0.413800  1.0  -0.1536
  C  C267  1  0.186100  0.110000  0.917200  1.0  -0.1016
  C  C268  1  0.825200  0.541200  0.473300  1.0  0.1749
  C  C269  1  0.473100  0.852600  0.382800  1.0  0.1702
  C  C270  1  0.467200  0.873800  0.467700  1.0  0.1757
  C  C271  1  0.306100  0.004800  0.241000  1.0  0.1723
  C  C272  1  0.306600  0.180600  0.978100  1.0  0.1745
  C  C273  1  0.002200  0.928000  0.905700  1.0  -0.1827
  C  C274  1  0.277900  0.016100  0.182000  1.0  -0.1885
  C  C275  1  0.944300  0.883500  0.878200  1.0  0.1751
  C  C276  1  0.211800  0.946200  0.238800  1.0  0.1656
  C  C277  1  0.745000  0.794400  0.735600  1.0  0.1724
  C  C278  1  0.802100  0.699000  0.683200  1.0  -0.2015
  C  C279  1  0.714600  0.787100  0.676500  1.0  -0.1715
  C  C280  1  0.827400  0.709200  0.742500  1.0  0.1958
  C  C281  1  0.402400  0.471000  0.500700  1.0  0.3622
  C  C282  1  0.222900  0.638200  0.491500  1.0  -0.1604
  C  C283  1  0.702600  0.084200  0.996000  1.0  -0.1673
  C  C284  1  0.876700  0.256500  0.999300  1.0  0.3681
  C  C285  1  0.496600  0.384800  0.505200  1.0  -0.1694
  C  C286  1  0.967200  0.310300  0.090400  1.0  -0.1684
  C  C287  1  0.940400  0.301400  0.031800  1.0  -0.0047
  C  C288  1  0.318400  0.552400  0.494400  1.0  0.3629
  C  C289  1  0.790600  0.226000  0.914000  1.0  0.3691
  C  C290  1  0.555800  0.344400  0.536800  1.0  0.1739
  C  C291  1  0.466700  0.427200  0.534600  1.0  -0.075
  C  C292  1  0.757400  0.236600  0.850300  1.0  -0.0698
  C  C293  1  0.280100  0.653200  0.609300  1.0  0.1558
  C  C294  1  0.320700  0.456500  0.320200  1.0  -0.1078
  C  C295  1  0.764500  0.121300  0.026300  1.0  -0.0628
  C  C296  1  0.764500  0.064400  0.112500  1.0  0.1673
  C  C297  1  0.285500  0.601100  0.523600  1.0  -0.0363
  C  C298  1  0.974400  0.335000  0.002000  1.0  -0.1942
  C  C299  1  0.795200  0.172400  0.996700  1.0  0.3958
  C  C300  1  0.320300  0.502100  0.413800  1.0  0.3571
  C  C301  1  0.287800  0.491800  0.349400  1.0  -0.0766
  C  C302  1  0.796100  0.109500  0.086200  1.0  -0.155
  C  C303  1  0.313900  0.610000  0.582800  1.0  -0.1015
  C  C304  1  0.674800  0.041200  0.026700  1.0  0.1758
  C  C305  1  0.026900  0.352600  0.117200  1.0  0.1702
  C  C306  1  0.032800  0.373800  0.032300  1.0  0.1766
  C  C307  1  0.193900  0.504800  0.259000  1.0  0.1731
  C  C308  1  0.193400  0.680600  0.521900  1.0  0.1748
  C  C309  1  0.497800  0.428000  0.594300  1.0  -0.1856
  C  C310  1  0.222100  0.516100  0.318000  1.0  -0.1872
  C  C311  1  0.555700  0.383500  0.621800  1.0  0.1755
  C  C312  1  0.288200  0.446200  0.261200  1.0  0.166
  C  C313  1  0.755000  0.294400  0.764400  1.0  0.1714
  C  C314  1  0.697900  0.199000  0.816800  1.0  -0.2011
  C  C315  1  0.785400  0.287100  0.823500  1.0  -0.1707
  C  C316  1  0.672600  0.209200  0.757500  1.0  0.1946
  C  C317  1  0.902400  0.971000  0.500700  1.0  0.3622
  C  C318  1  0.722900  0.138200  0.491500  1.0  -0.1604
  C  C319  1  0.202600  0.584200  0.996000  1.0  -0.1673
  C  C320  1  0.376700  0.756500  0.999300  1.0  0.3681
  C  C321  1  0.996600  0.884800  0.505200  1.0  -0.1694
  C  C322  1  0.467200  0.810300  0.090400  1.0  -0.1684
  C  C323  1  0.440400  0.801400  0.031800  1.0  -0.0047
  C  C324  1  0.818400  0.052400  0.494400  1.0  0.3629
  C  C325  1  0.290600  0.726000  0.914000  1.0  0.3691
  C  C326  1  0.055800  0.844400  0.536800  1.0  0.1739
  C  C327  1  0.966700  0.927200  0.534600  1.0  -0.075
  C  C328  1  0.257400  0.736600  0.850300  1.0  -0.0698
  C  C329  1  0.780100  0.153200  0.609300  1.0  0.1558
  C  C330  1  0.820700  0.956500  0.320200  1.0  -0.1078
  C  C331  1  0.264500  0.621300  0.026300  1.0  -0.0628
  C  C332  1  0.264500  0.564400  0.112500  1.0  0.1673
  C  C333  1  0.785500  0.101100  0.523600  1.0  -0.0363
  C  C334  1  0.474400  0.835000  0.002000  1.0  -0.1942
  C  C335  1  0.295200  0.672400  0.996700  1.0  0.3958
  C  C336  1  0.820300  0.002100  0.413800  1.0  0.3571
  C  C337  1  0.787800  0.991800  0.349400  1.0  -0.0766
  C  C338  1  0.296100  0.609500  0.086200  1.0  -0.155
  C  C339  1  0.813900  0.110000  0.582800  1.0  -0.1015
  C  C340  1  0.174800  0.541200  0.026700  1.0  0.1758
  C  C341  1  0.526900  0.852600  0.117200  1.0  0.1702
  C  C342  1  0.532800  0.873800  0.032300  1.0  0.1766
  C  C343  1  0.693900  0.004800  0.259000  1.0  0.1731
  C  C344  1  0.693400  0.180600  0.521900  1.0  0.1748
  C  C345  1  0.997800  0.928000  0.594300  1.0  -0.1856
  C  C346  1  0.722100  0.016100  0.318000  1.0  -0.1872
  C  C347  1  0.055700  0.883500  0.621800  1.0  0.1755
  C  C348  1  0.788200  0.946200  0.261200  1.0  0.166
  C  C349  1  0.255000  0.794400  0.764400  1.0  0.1714
  C  C350  1  0.197900  0.699000  0.816800  1.0  -0.2011
  C  C351  1  0.285400  0.787100  0.823500  1.0  -0.1707
  C  C352  1  0.172600  0.709200  0.757500  1.0  0.1946
  C  C353  1  0.402400  0.529000  0.000700  1.0  0.3622
  C  C354  1  0.222900  0.361800  0.991500  1.0  -0.1597
  C  C355  1  0.702600  0.915800  0.496000  1.0  -0.1675
  C  C356  1  0.876700  0.743500  0.499300  1.0  0.3687
  C  C357  1  0.496600  0.615200  0.005200  1.0  -0.1695
  C  C358  1  0.967200  0.689700  0.590400  1.0  -0.1684
  C  C359  1  0.940400  0.698600  0.531800  1.0  -0.0047
  C  C360  1  0.318400  0.447600  0.994400  1.0  0.363
  C  C361  1  0.790600  0.774000  0.414000  1.0  0.3691
  C  C362  1  0.555800  0.655600  0.036800  1.0  0.1736
  C  C363  1  0.466700  0.572800  0.034600  1.0  -0.0755
  C  C364  1  0.757400  0.763400  0.350300  1.0  -0.0702
  C  C365  1  0.280100  0.346800  0.109300  1.0  0.1567
  C  C366  1  0.320700  0.543500  0.820200  1.0  -0.1077
  C  C367  1  0.764500  0.878700  0.526300  1.0  -0.0631
  C  C368  1  0.764500  0.935600  0.612500  1.0  0.167
  C  C369  1  0.285500  0.398900  0.023600  1.0  -0.0364
  C  C370  1  0.974400  0.665000  0.502000  1.0  -0.1935
  C  C371  1  0.795200  0.827600  0.496700  1.0  0.3958
  C  C372  1  0.320300  0.497900  0.913800  1.0  0.3574
  C  C373  1  0.287800  0.508200  0.849400  1.0  -0.0762
  C  C374  1  0.796100  0.890500  0.586200  1.0  -0.1555
  C  C375  1  0.313900  0.390000  0.082800  1.0  -0.1022
  C  C376  1  0.674800  0.958800  0.526700  1.0  0.1751
  C  C377  1  0.026900  0.647400  0.617200  1.0  0.1706
  C  C378  1  0.032800  0.626200  0.532300  1.0  0.1761
  C  C379  1  0.193900  0.495200  0.759000  1.0  0.1731
  C  C380  1  0.193400  0.319400  0.021900  1.0  0.1754
  C  C381  1  0.497800  0.572000  0.094300  1.0  -0.1859
  C  C382  1  0.222100  0.483900  0.818000  1.0  -0.1868
  C  C383  1  0.555700  0.616500  0.121800  1.0  0.1755
  C  C384  1  0.288200  0.553800  0.761200  1.0  0.1659
  C  C385  1  0.755000  0.705600  0.264400  1.0  0.1716
  C  C386  1  0.697900  0.801000  0.316800  1.0  -0.1992
  C  C387  1  0.785400  0.712900  0.323500  1.0  -0.1701
  C  C388  1  0.672600  0.790800  0.257500  1.0  0.1954
  C  C389  1  0.902400  0.029000  0.000700  1.0  0.3622
  C  C390  1  0.722900  0.861800  0.991500  1.0  -0.1597
  C  C391  1  0.202600  0.415800  0.496000  1.0  -0.1675
  C  C392  1  0.376700  0.243500  0.499300  1.0  0.3687
  C  C393  1  0.996600  0.115200  0.005200  1.0  -0.1695
  C  C394  1  0.467200  0.189700  0.590400  1.0  -0.1684
  C  C395  1  0.440400  0.198600  0.531800  1.0  -0.0047
  C  C396  1  0.818400  0.947600  0.994400  1.0  0.363
  C  C397  1  0.290600  0.274000  0.414000  1.0  0.3691
  C  C398  1  0.055800  0.155600  0.036800  1.0  0.1736
  C  C399  1  0.966700  0.072800  0.034600  1.0  -0.0755
  C  C400  1  0.257400  0.263400  0.350300  1.0  -0.0702
  C  C401  1  0.780100  0.846800  0.109300  1.0  0.1567
  C  C402  1  0.820700  0.043500  0.820200  1.0  -0.1077
  C  C403  1  0.264500  0.378700  0.526300  1.0  -0.0631
  C  C404  1  0.264500  0.435600  0.612500  1.0  0.167
  C  C405  1  0.785500  0.898900  0.023600  1.0  -0.0364
  C  C406  1  0.474400  0.165000  0.502000  1.0  -0.1935
  C  C407  1  0.295200  0.327600  0.496700  1.0  0.3958
  C  C408  1  0.820300  0.997900  0.913800  1.0  0.3574
  C  C409  1  0.787800  0.008200  0.849400  1.0  -0.0762
  C  C410  1  0.296100  0.390500  0.586200  1.0  -0.1555
  C  C411  1  0.813900  0.890000  0.082800  1.0  -0.1022
  C  C412  1  0.174800  0.458800  0.526700  1.0  0.1751
  C  C413  1  0.526900  0.147400  0.617200  1.0  0.1706
  C  C414  1  0.532800  0.126200  0.532300  1.0  0.1761
  C  C415  1  0.693900  0.995200  0.759000  1.0  0.1731
  C  C416  1  0.693400  0.819400  0.021900  1.0  0.1754
  C  C417  1  0.997800  0.072000  0.094300  1.0  -0.1859
  C  C418  1  0.722100  0.983900  0.818000  1.0  -0.1868
  C  C419  1  0.055700  0.116500  0.121800  1.0  0.1755
  C  C420  1  0.788200  0.053800  0.761200  1.0  0.1659
  C  C421  1  0.255000  0.205600  0.264400  1.0  0.1716
  C  C422  1  0.197900  0.301000  0.316800  1.0  -0.1992
  C  C423  1  0.285400  0.212900  0.323500  1.0  -0.1701
  C  C424  1  0.172600  0.290800  0.257500  1.0  0.1954
  C  C425  1  0.597600  0.529000  0.499300  1.0  0.3616
  C  C426  1  0.777100  0.361800  0.508500  1.0  -0.1606
  C  C427  1  0.297400  0.915800  0.004000  1.0  -0.1686
  C  C428  1  0.123300  0.743500  0.000700  1.0  0.3689
  C  C429  1  0.503400  0.615200  0.494800  1.0  -0.1687
  C  C430  1  0.032800  0.689700  0.909600  1.0  -0.1655
  C  C431  1  0.059600  0.698600  0.968200  1.0  -0.0023
  C  C432  1  0.681600  0.447600  0.505600  1.0  0.3625
  C  C433  1  0.209400  0.774000  0.086000  1.0  0.3691
  C  C434  1  0.444200  0.655600  0.463200  1.0  0.1724
  C  C435  1  0.533300  0.572800  0.465400  1.0  -0.075
  C  C436  1  0.242600  0.763400  0.149700  1.0  -0.0703
  C  C437  1  0.719900  0.346800  0.390700  1.0  0.1575
  C  C438  1  0.679300  0.543500  0.679800  1.0  -0.1054
  C  C439  1  0.235500  0.878700  0.973700  1.0  -0.0638
  C  C440  1  0.235500  0.935600  0.887500  1.0  0.1689
  C  C441  1  0.714500  0.398900  0.476400  1.0  -0.0369
  C  C442  1  0.025600  0.665000  0.998000  1.0  -0.1932
  C  C443  1  0.204800  0.827600  0.003300  1.0  0.3958
  C  C444  1  0.679700  0.497900  0.586200  1.0  0.357
  C  C445  1  0.712200  0.508200  0.650600  1.0  -0.0755
  C  C446  1  0.203900  0.890500  0.913800  1.0  -0.1534
  C  C447  1  0.686100  0.390000  0.417200  1.0  -0.1022
  C  C448  1  0.325200  0.958800  0.973300  1.0  0.1747
  C  C449  1  0.973100  0.647400  0.882800  1.0  0.1703
  C  C450  1  0.967200  0.626200  0.967700  1.0  0.1767
  C  C451  1  0.806100  0.495200  0.741000  1.0  0.1729
  C  C452  1  0.806600  0.319400  0.478100  1.0  0.1745
  C  C453  1  0.502200  0.572000  0.405700  1.0  -0.1829
  C  C454  1  0.777900  0.483900  0.682000  1.0  -0.1886
  C  C455  1  0.444300  0.616500  0.378200  1.0  0.1753
  C  C456  1  0.711800  0.553800  0.738800  1.0  0.1659
  C  C457  1  0.245000  0.705600  0.235600  1.0  0.1722
  C  C458  1  0.302100  0.801000  0.183200  1.0  -0.2025
  C  C459  1  0.214600  0.712900  0.176500  1.0  -0.1707
  C  C460  1  0.327400  0.790800  0.242500  1.0  0.1964
  C  C461  1  0.097600  0.029000  0.499300  1.0  0.3616
  C  C462  1  0.277100  0.861800  0.508500  1.0  -0.1606
  C  C463  1  0.797400  0.415800  0.004000  1.0  -0.1686
  C  C464  1  0.623300  0.243500  0.000700  1.0  0.3689
  C  C465  1  0.003400  0.115200  0.494800  1.0  -0.1687
  C  C466  1  0.532800  0.189700  0.909600  1.0  -0.1655
  C  C467  1  0.559600  0.198600  0.968200  1.0  -0.0023
  C  C468  1  0.181600  0.947600  0.505600  1.0  0.3625
  C  C469  1  0.709400  0.274000  0.086000  1.0  0.3691
  C  C470  1  0.944200  0.155600  0.463200  1.0  0.1724
  C  C471  1  0.033300  0.072800  0.465400  1.0  -0.075
  C  C472  1  0.742600  0.263400  0.149700  1.0  -0.0703
  C  C473  1  0.219900  0.846800  0.390700  1.0  0.1575
  C  C474  1  0.179300  0.043500  0.679800  1.0  -0.1054
  C  C475  1  0.735500  0.378700  0.973700  1.0  -0.0638
  C  C476  1  0.735500  0.435600  0.887500  1.0  0.1689
  C  C477  1  0.214500  0.898900  0.476400  1.0  -0.0369
  C  C478  1  0.525600  0.165000  0.998000  1.0  -0.1932
  C  C479  1  0.704800  0.327600  0.003300  1.0  0.3958
  C  C480  1  0.179700  0.997900  0.586200  1.0  0.357
  C  C481  1  0.212200  0.008200  0.650600  1.0  -0.0755
  C  C482  1  0.703900  0.390500  0.913800  1.0  -0.1534
  C  C483  1  0.186100  0.890000  0.417200  1.0  -0.1022
  C  C484  1  0.825200  0.458800  0.973300  1.0  0.1747
  C  C485  1  0.473100  0.147400  0.882800  1.0  0.1703
  C  C486  1  0.467200  0.126200  0.967700  1.0  0.1767
  C  C487  1  0.306100  0.995200  0.741000  1.0  0.1729
  C  C488  1  0.306600  0.819400  0.478100  1.0  0.1745
  C  C489  1  0.002200  0.072000  0.405700  1.0  -0.1829
  C  C490  1  0.277900  0.983900  0.682000  1.0  -0.1886
  C  C491  1  0.944300  0.116500  0.378200  1.0  0.1753
  C  C492  1  0.211800  0.053800  0.738800  1.0  0.1659
  C  C493  1  0.745000  0.205600  0.235600  1.0  0.1722
  C  C494  1  0.802100  0.301000  0.183200  1.0  -0.2025
  C  C495  1  0.714600  0.212900  0.176500  1.0  -0.1707
  C  C496  1  0.827400  0.290800  0.242500  1.0  0.1964
  N  N497  1  0.295500  0.030000  0.416600  1.0  -0.3682
  N  N498  1  0.939400  0.382300  0.410700  1.0  -0.302
  N  N499  1  0.300500  0.254700  0.769300  1.0  -0.3475
  N  N500  1  0.237500  0.177000  0.561300  1.0  -0.5226
  N  N501  1  0.147800  0.210300  0.471100  1.0  -0.4966
  N  N502  1  0.152500  0.266400  0.557800  1.0  -0.4601
  N  N503  1  0.413400  0.343900  0.905800  1.0  -0.3652
  N  N504  1  0.775300  0.471800  0.270100  1.0  -0.3501
  N  N505  1  0.779600  0.687300  0.920700  1.0  -0.317
  N  N506  1  0.625400  0.512800  0.971600  1.0  -0.4555
  N  N507  1  0.622600  0.463100  0.057300  1.0  -0.4986
  N  N508  1  0.711100  0.549500  0.063400  1.0  -0.5046
  N  N509  1  0.795500  0.530000  0.416600  1.0  -0.3682
  N  N510  1  0.439400  0.882300  0.410700  1.0  -0.302
  N  N511  1  0.800500  0.754700  0.769300  1.0  -0.3475
  N  N512  1  0.737500  0.677000  0.561300  1.0  -0.5226
  N  N513  1  0.647800  0.710300  0.471100  1.0  -0.4966
  N  N514  1  0.652500  0.766400  0.557800  1.0  -0.4601
  N  N515  1  0.913400  0.843900  0.905800  1.0  -0.3652
  N  N516  1  0.275300  0.971800  0.270100  1.0  -0.3501
  N  N517  1  0.279600  0.187300  0.920700  1.0  -0.317
  N  N518  1  0.125400  0.012800  0.971600  1.0  -0.4555
  N  N519  1  0.122600  0.963100  0.057300  1.0  -0.4986
  N  N520  1  0.211100  0.049500  0.063400  1.0  -0.5046
  N  N521  1  0.704500  0.030000  0.083400  1.0  -0.3657
  N  N522  1  0.060600  0.382300  0.089300  1.0  -0.3032
  N  N523  1  0.699500  0.254700  0.730700  1.0  -0.3474
  N  N524  1  0.762500  0.177000  0.938700  1.0  -0.5248
  N  N525  1  0.852200  0.210300  0.028900  1.0  -0.499
  N  N526  1  0.847500  0.266400  0.942200  1.0  -0.4582
  N  N527  1  0.586600  0.343900  0.594200  1.0  -0.3642
  N  N528  1  0.224700  0.471800  0.229900  1.0  -0.3512
  N  N529  1  0.220400  0.687300  0.579300  1.0  -0.3181
  N  N530  1  0.374600  0.512800  0.528400  1.0  -0.4524
  N  N531  1  0.377400  0.463100  0.442700  1.0  -0.4975
  N  N532  1  0.288900  0.549500  0.436600  1.0  -0.5045
  N  N533  1  0.204500  0.530000  0.083400  1.0  -0.3657
  N  N534  1  0.560600  0.882300  0.089300  1.0  -0.3032
  N  N535  1  0.199500  0.754700  0.730700  1.0  -0.3474
  N  N536  1  0.262500  0.677000  0.938700  1.0  -0.5248
  N  N537  1  0.352200  0.710300  0.028900  1.0  -0.499
  N  N538  1  0.347500  0.766400  0.942200  1.0  -0.4582
  N  N539  1  0.086600  0.843900  0.594200  1.0  -0.3642
  N  N540  1  0.724700  0.971800  0.229900  1.0  -0.3512
  N  N541  1  0.720400  0.187300  0.579300  1.0  -0.3181
  N  N542  1  0.874600  0.012800  0.528400  1.0  -0.4524
  N  N543  1  0.877400  0.963100  0.442700  1.0  -0.4975
  N  N544  1  0.788900  0.049500  0.436600  1.0  -0.5045
  N  N545  1  0.704500  0.970000  0.583400  1.0  -0.3666
  N  N546  1  0.060600  0.617700  0.589300  1.0  -0.3029
  N  N547  1  0.699500  0.745300  0.230700  1.0  -0.3481
  N  N548  1  0.762500  0.823000  0.438700  1.0  -0.5236
  N  N549  1  0.852200  0.789700  0.528900  1.0  -0.4985
  N  N550  1  0.847500  0.733600  0.442200  1.0  -0.4587
  N  N551  1  0.586600  0.656100  0.094200  1.0  -0.3661
  N  N552  1  0.224700  0.528200  0.729900  1.0  -0.3503
  N  N553  1  0.220400  0.312700  0.079300  1.0  -0.319
  N  N554  1  0.374600  0.487200  0.028400  1.0  -0.4515
  N  N555  1  0.377400  0.536900  0.942700  1.0  -0.4978
  N  N556  1  0.288900  0.450500  0.936600  1.0  -0.5064
  N  N557  1  0.204500  0.470000  0.583400  1.0  -0.3666
  N  N558  1  0.560600  0.117700  0.589300  1.0  -0.3029
  N  N559  1  0.199500  0.245300  0.230700  1.0  -0.3481
  N  N560  1  0.262500  0.323000  0.438700  1.0  -0.5236
  N  N561  1  0.352200  0.289700  0.528900  1.0  -0.4985
  N  N562  1  0.347500  0.233600  0.442200  1.0  -0.4587
  N  N563  1  0.086600  0.156100  0.094200  1.0  -0.3661
  N  N564  1  0.724700  0.028200  0.729900  1.0  -0.3503
  N  N565  1  0.720400  0.812700  0.079300  1.0  -0.319
  N  N566  1  0.874600  0.987200  0.028400  1.0  -0.4515
  N  N567  1  0.877400  0.036900  0.942700  1.0  -0.4978
  N  N568  1  0.788900  0.950500  0.936600  1.0  -0.5064
  N  N569  1  0.295500  0.970000  0.916600  1.0  -0.3677
  N  N570  1  0.939400  0.617700  0.910700  1.0  -0.3061
  N  N571  1  0.300500  0.745300  0.269300  1.0  -0.3472
  N  N572  1  0.237500  0.823000  0.061300  1.0  -0.5228
  N  N573  1  0.147800  0.789700  0.971100  1.0  -0.4969
  N  N574  1  0.152500  0.733600  0.057800  1.0  -0.4598
  N  N575  1  0.413400  0.656100  0.405800  1.0  -0.3645
  N  N576  1  0.775300  0.528200  0.770100  1.0  -0.3502
  N  N577  1  0.779600  0.312700  0.420700  1.0  -0.319
  N  N578  1  0.625400  0.487200  0.471600  1.0  -0.4552
  N  N579  1  0.622600  0.536900  0.557300  1.0  -0.4996
  N  N580  1  0.711100  0.450500  0.563400  1.0  -0.5048
  N  N581  1  0.795500  0.470000  0.916600  1.0  -0.3677
  N  N582  1  0.439400  0.117700  0.910700  1.0  -0.3061
  N  N583  1  0.800500  0.245300  0.269300  1.0  -0.3472
  N  N584  1  0.737500  0.323000  0.061300  1.0  -0.5228
  N  N585  1  0.647800  0.289700  0.971100  1.0  -0.4969
  N  N586  1  0.652500  0.233600  0.057800  1.0  -0.4598
  N  N587  1  0.913400  0.156100  0.405800  1.0  -0.3645
  N  N588  1  0.275300  0.028200  0.770100  1.0  -0.3502
  N  N589  1  0.279600  0.812700  0.420700  1.0  -0.319
  N  N590  1  0.125400  0.987200  0.471600  1.0  -0.4552
  N  N591  1  0.122600  0.036900  0.557300  1.0  -0.4996
  N  N592  1  0.211100  0.950500  0.563400  1.0  -0.5048
