# generated using pymatgen
data_AgH12(C3N)6
_symmetry_space_group_name_H-M   'P 1'
_cell_length_a   22.01010000
_cell_length_b   16.52660000
_cell_length_c   25.56840000
_cell_angle_alpha   90.00000000
_cell_angle_beta   115.23400000
_cell_angle_gamma   90.00000000
_symmetry_Int_Tables_number   1
_chemical_formula_structural   AgH12(C3N)6
_chemical_formula_sum   'Ag16 H192 C288 N96'
_cell_volume   8413.04660879
_cell_formula_units_Z   16
loop_
 _symmetry_equiv_pos_site_id
 _symmetry_equiv_pos_as_xyz
  1  'x, y, z'
loop_
 _atom_site_type_symbol
 _atom_site_label
 _atom_site_symmetry_multiplicity
 _atom_site_fract_x
 _atom_site_fract_y
 _atom_site_fract_z
 _atom_site_occupancy
 _atom_site_charge
  Ag  Ag1  1  0.344270  0.957310  0.367470  1.0  0.3397
  Ag  Ag2  1  0.322490  0.254330  0.866910  1.0  0.2818
  Ag  Ag3  1  0.844270  0.457310  0.367470  1.0  0.3397
  Ag  Ag4  1  0.822490  0.754330  0.866910  1.0  0.2818
  Ag  Ag5  1  0.655730  0.957310  0.132530  1.0  0.34
  Ag  Ag6  1  0.677510  0.254330  0.633090  1.0  0.2819
  Ag  Ag7  1  0.155730  0.457310  0.132530  1.0  0.34
  Ag  Ag8  1  0.177510  0.754330  0.633090  1.0  0.2819
  Ag  Ag9  1  0.655730  0.042690  0.632530  1.0  0.3399
  Ag  Ag10  1  0.677510  0.745670  0.133090  1.0  0.2818
  Ag  Ag11  1  0.155730  0.542690  0.632530  1.0  0.3399
  Ag  Ag12  1  0.177510  0.245670  0.133090  1.0  0.2818
  Ag  Ag13  1  0.344270  0.042690  0.867470  1.0  0.3397
  Ag  Ag14  1  0.322490  0.745670  0.366910  1.0  0.2817
  Ag  Ag15  1  0.844270  0.542690  0.867470  1.0  0.3397
  Ag  Ag16  1  0.822490  0.245670  0.366910  1.0  0.2817
  H  H17  1  0.798000  0.634800  0.048900  1.0  0.1267
  H  H18  1  0.319900  0.087800  0.544600  1.0  0.1255
  H  H19  1  0.522600  0.383300  0.035500  1.0  0.1306
  H  H20  1  0.424100  0.316400  0.984100  1.0  0.0786
  H  H21  1  0.054200  0.290100  0.388800  1.0  0.1274
  H  H22  1  0.213800  0.056800  0.348400  1.0  0.0733
  H  H23  1  0.700400  0.657800  0.851500  1.0  0.0897
  H  H24  1  0.634800  0.439100  0.160200  1.0  0.1206
  H  H25  1  0.043200  0.330700  0.538800  1.0  0.1316
  H  H26  1  0.162100  0.133100  0.392300  1.0  0.1259
  H  H27  1  0.644500  0.587500  0.895600  1.0  0.1108
  H  H28  1  0.955800  0.360200  0.343600  1.0  0.08
  H  H29  1  0.367900  0.019000  0.493600  1.0  0.0744
  H  H30  1  0.849100  0.704500  0.999500  1.0  0.0785
  H  H31  1  0.944500  0.397000  0.488400  1.0  0.0742
  H  H32  1  0.850800  0.522400  0.262800  1.0  0.077
  H  H33  1  0.519200  0.458400  0.885300  1.0  0.1233
  H  H34  1  0.424700  0.381100  0.838400  1.0  0.0769
  H  H35  1  0.176700  0.317800  0.655700  1.0  0.1249
  H  H36  1  0.226600  0.329900  0.753700  1.0  0.0756
  H  H37  1  0.688600  0.422300  0.258700  1.0  0.0866
  H  H38  1  0.802400  0.540300  0.164400  1.0  0.1209
  H  H39  1  0.368000  0.180900  0.766300  1.0  0.0796
  H  H40  1  0.324100  0.166700  0.667600  1.0  0.1235
  H  H41  1  0.298000  0.134800  0.048900  1.0  0.1267
  H  H42  1  0.819900  0.587800  0.544600  1.0  0.1255
  H  H43  1  0.022600  0.883300  0.035500  1.0  0.1306
  H  H44  1  0.924100  0.816400  0.984100  1.0  0.0788
  H  H45  1  0.554200  0.790100  0.388800  1.0  0.1274
  H  H46  1  0.713800  0.556800  0.348400  1.0  0.0733
  H  H47  1  0.200400  0.157800  0.851500  1.0  0.0897
  H  H48  1  0.134800  0.939100  0.160200  1.0  0.1206
  H  H49  1  0.543200  0.830700  0.538800  1.0  0.1316
  H  H50  1  0.662100  0.633100  0.392300  1.0  0.1259
  H  H51  1  0.144500  0.087500  0.895600  1.0  0.1108
  H  H52  1  0.455800  0.860200  0.343600  1.0  0.08
  H  H53  1  0.867900  0.519000  0.493600  1.0  0.0744
  H  H54  1  0.349100  0.204500  0.999500  1.0  0.0785
  H  H55  1  0.444500  0.897000  0.488400  1.0  0.0742
  H  H56  1  0.350800  0.022400  0.262800  1.0  0.077
  H  H57  1  0.019200  0.958400  0.885300  1.0  0.1233
  H  H58  1  0.924700  0.881100  0.838400  1.0  0.0769
  H  H59  1  0.676700  0.817800  0.655700  1.0  0.1249
  H  H60  1  0.726600  0.829900  0.753700  1.0  0.0756
  H  H61  1  0.188600  0.922300  0.258700  1.0  0.0867
  H  H62  1  0.302400  0.040300  0.164400  1.0  0.121
  H  H63  1  0.868000  0.680900  0.766300  1.0  0.0796
  H  H64  1  0.824100  0.666667  0.667600  1.0  0.1246
  H  H65  1  0.202000  0.634800  0.451100  1.0  0.1264
  H  H66  1  0.680100  0.087800  0.955400  1.0  0.1257
  H  H67  1  0.477400  0.383300  0.464500  1.0  0.131
  H  H68  1  0.575900  0.316400  0.515900  1.0  0.0793
  H  H69  1  0.945800  0.290100  0.111200  1.0  0.1266
  H  H70  1  0.786200  0.056800  0.151600  1.0  0.0715
  H  H71  1  0.299600  0.657800  0.648500  1.0  0.0891
  H  H72  1  0.365200  0.439100  0.339800  1.0  0.1194
  H  H73  1  0.956800  0.330700  0.961200  1.0  0.1319
  H  H74  1  0.837900  0.133100  0.107700  1.0  0.126
  H  H75  1  0.355500  0.587500  0.604400  1.0  0.1109
  H  H76  1  0.044200  0.360200  0.156400  1.0  0.0804
  H  H77  1  0.632100  0.019000  0.006400  1.0  0.0738
  H  H78  1  0.150900  0.704500  0.500500  1.0  0.0778
  H  H79  1  0.055500  0.397000  0.011600  1.0  0.0743
  H  H80  1  0.149200  0.522400  0.237200  1.0  0.0758
  H  H81  1  0.480800  0.458400  0.614700  1.0  0.1228
  H  H82  1  0.575300  0.381100  0.661600  1.0  0.0773
  H  H83  1  0.823300  0.317800  0.844300  1.0  0.125
  H  H84  1  0.773400  0.329900  0.746300  1.0  0.0745
  H  H85  1  0.311400  0.422300  0.241300  1.0  0.086
  H  H86  1  0.197600  0.540300  0.335600  1.0  0.1218
  H  H87  1  0.632000  0.180900  0.733700  1.0  0.0799
  H  H88  1  0.675900  0.166700  0.832400  1.0  0.1232
  H  H89  1  0.702000  0.134800  0.451100  1.0  0.1264
  H  H90  1  0.180100  0.587800  0.955400  1.0  0.1257
  H  H91  1  0.977400  0.883300  0.464500  1.0  0.131
  H  H92  1  0.075900  0.816400  0.515900  1.0  0.0795
  H  H93  1  0.445800  0.790100  0.111200  1.0  0.1266
  H  H94  1  0.286200  0.556800  0.151600  1.0  0.0715
  H  H95  1  0.799600  0.157800  0.648500  1.0  0.0891
  H  H96  1  0.865200  0.939100  0.339800  1.0  0.1194
  H  H97  1  0.456800  0.830700  0.961200  1.0  0.1319
  H  H98  1  0.337900  0.633100  0.107700  1.0  0.126
  H  H99  1  0.855500  0.087500  0.604400  1.0  0.1109
  H  H100  1  0.544200  0.860200  0.156400  1.0  0.0804
  H  H101  1  0.132100  0.519000  0.006400  1.0  0.0738
  H  H102  1  0.650900  0.204500  0.500500  1.0  0.0778
  H  H103  1  0.555500  0.897000  0.011600  1.0  0.0743
  H  H104  1  0.649200  0.022400  0.237200  1.0  0.0758
  H  H105  1  0.980800  0.958400  0.614700  1.0  0.1228
  H  H106  1  0.075300  0.881100  0.661600  1.0  0.0773
  H  H107  1  0.323300  0.817800  0.844300  1.0  0.125
  H  H108  1  0.273400  0.829900  0.746300  1.0  0.0745
  H  H109  1  0.811400  0.922300  0.241300  1.0  0.086
  H  H110  1  0.697600  0.040300  0.335600  1.0  0.1218
  H  H111  1  0.132000  0.680900  0.733700  1.0  0.0799
  H  H112  1  0.175900  0.666667  0.832400  1.0  0.1242
  H  H113  1  0.202000  0.365200  0.951100  1.0  0.1263
  H  H114  1  0.680100  0.912200  0.455400  1.0  0.1257
  H  H115  1  0.477400  0.616700  0.964500  1.0  0.1312
  H  H116  1  0.575900  0.683600  0.015900  1.0  0.0795
  H  H117  1  0.945800  0.709900  0.611200  1.0  0.1266
  H  H118  1  0.786200  0.943200  0.651600  1.0  0.0716
  H  H119  1  0.299600  0.342200  0.148500  1.0  0.0886
  H  H120  1  0.365200  0.560900  0.839800  1.0  0.1201
  H  H121  1  0.956800  0.669300  0.461200  1.0  0.1316
  H  H122  1  0.837900  0.866900  0.607700  1.0  0.126
  H  H123  1  0.355500  0.412500  0.104400  1.0  0.1111
  H  H124  1  0.044200  0.639800  0.656400  1.0  0.0807
  H  H125  1  0.632100  0.981000  0.506400  1.0  0.0739
  H  H126  1  0.150900  0.295500  0.000500  1.0  0.0779
  H  H127  1  0.055500  0.603000  0.511600  1.0  0.0745
  H  H128  1  0.149200  0.477600  0.737200  1.0  0.0758
  H  H129  1  0.480800  0.541600  0.114700  1.0  0.1229
  H  H130  1  0.575300  0.618900  0.161600  1.0  0.0774
  H  H131  1  0.823300  0.682200  0.344300  1.0  0.1251
  H  H132  1  0.773400  0.670100  0.246300  1.0  0.0748
  H  H133  1  0.311400  0.577700  0.741300  1.0  0.0858
  H  H134  1  0.197600  0.459700  0.835600  1.0  0.1217
  H  H135  1  0.632000  0.819100  0.233700  1.0  0.0791
  H  H136  1  0.675900  0.833300  0.332400  1.0  0.1232
  H  H137  1  0.702000  0.865200  0.951100  1.0  0.1263
  H  H138  1  0.180100  0.412200  0.455400  1.0  0.1257
  H  H139  1  0.977400  0.116700  0.964500  1.0  0.1312
  H  H140  1  0.075900  0.183600  0.015900  1.0  0.0796
  H  H141  1  0.445800  0.209900  0.611200  1.0  0.1265
  H  H142  1  0.286200  0.443200  0.651600  1.0  0.0716
  H  H143  1  0.799600  0.842200  0.148500  1.0  0.0886
  H  H144  1  0.865200  0.060900  0.839800  1.0  0.1201
  H  H145  1  0.456800  0.169300  0.461200  1.0  0.1316
  H  H146  1  0.337900  0.366900  0.607700  1.0  0.126
  H  H147  1  0.855500  0.912500  0.104400  1.0  0.1111
  H  H148  1  0.544200  0.139800  0.656400  1.0  0.0807
  H  H149  1  0.132100  0.481000  0.506400  1.0  0.0739
  H  H150  1  0.650900  0.795500  0.000500  1.0  0.0779
  H  H151  1  0.555500  0.103000  0.511600  1.0  0.0745
  H  H152  1  0.649200  0.977600  0.737200  1.0  0.0758
  H  H153  1  0.980800  0.041600  0.114700  1.0  0.1229
  H  H154  1  0.075300  0.118900  0.161600  1.0  0.0774
  H  H155  1  0.323300  0.182200  0.344300  1.0  0.1251
  H  H156  1  0.273400  0.170100  0.246300  1.0  0.0748
  H  H157  1  0.811400  0.077700  0.741300  1.0  0.0859
  H  H158  1  0.697600  0.959700  0.835600  1.0  0.1218
  H  H159  1  0.132000  0.319100  0.233700  1.0  0.0791
  H  H160  1  0.175900  0.333333  0.332400  1.0  0.1243
  H  H161  1  0.798000  0.365200  0.548900  1.0  0.1268
  H  H162  1  0.319900  0.912200  0.044600  1.0  0.1252
  H  H163  1  0.522600  0.616700  0.535500  1.0  0.1304
  H  H164  1  0.424100  0.683600  0.484100  1.0  0.0785
  H  H165  1  0.054200  0.709900  0.888800  1.0  0.1272
  H  H166  1  0.213800  0.943200  0.848400  1.0  0.0731
  H  H167  1  0.700400  0.342200  0.351500  1.0  0.0893
  H  H168  1  0.634800  0.560900  0.660200  1.0  0.1207
  H  H169  1  0.043200  0.669300  0.038800  1.0  0.1316
  H  H170  1  0.162100  0.866900  0.892300  1.0  0.126
  H  H171  1  0.644500  0.412500  0.395600  1.0  0.1109
  H  H172  1  0.955800  0.639800  0.843600  1.0  0.0799
  H  H173  1  0.367900  0.981000  0.993600  1.0  0.0743
  H  H174  1  0.849100  0.295500  0.499500  1.0  0.0786
  H  H175  1  0.944500  0.603000  0.988400  1.0  0.0747
  H  H176  1  0.850800  0.477600  0.762800  1.0  0.0768
  H  H177  1  0.519200  0.541600  0.385300  1.0  0.1233
  H  H178  1  0.424700  0.618900  0.338400  1.0  0.0769
  H  H179  1  0.176700  0.682200  0.155700  1.0  0.1251
  H  H180  1  0.226600  0.670100  0.253700  1.0  0.0759
  H  H181  1  0.688600  0.577700  0.758700  1.0  0.0861
  H  H182  1  0.802400  0.459700  0.664400  1.0  0.1208
  H  H183  1  0.368000  0.819100  0.266300  1.0  0.0789
  H  H184  1  0.324100  0.833300  0.167600  1.0  0.1236
  H  H185  1  0.298000  0.865200  0.548900  1.0  0.1268
  H  H186  1  0.819900  0.412200  0.044600  1.0  0.1252
  H  H187  1  0.022600  0.116700  0.535500  1.0  0.1304
  H  H188  1  0.924100  0.183600  0.484100  1.0  0.0787
  H  H189  1  0.554200  0.209900  0.888800  1.0  0.1272
  H  H190  1  0.713800  0.443200  0.848400  1.0  0.0731
  H  H191  1  0.200400  0.842200  0.351500  1.0  0.0893
  H  H192  1  0.134800  0.060900  0.660200  1.0  0.1207
  H  H193  1  0.543200  0.169300  0.038800  1.0  0.1316
  H  H194  1  0.662100  0.366900  0.892300  1.0  0.126
  H  H195  1  0.144500  0.912500  0.395600  1.0  0.1109
  H  H196  1  0.455800  0.139800  0.843600  1.0  0.0799
  H  H197  1  0.867900  0.481000  0.993600  1.0  0.0743
  H  H198  1  0.349100  0.795500  0.499500  1.0  0.0786
  H  H199  1  0.444500  0.103000  0.988400  1.0  0.0747
  H  H200  1  0.350800  0.977600  0.762800  1.0  0.0768
  H  H201  1  0.019200  0.041600  0.385300  1.0  0.1233
  H  H202  1  0.924700  0.118900  0.338400  1.0  0.0769
  H  H203  1  0.676700  0.182200  0.155700  1.0  0.1251
  H  H204  1  0.726600  0.170100  0.253700  1.0  0.0759
  H  H205  1  0.188600  0.077700  0.758700  1.0  0.0859
  H  H206  1  0.302400  0.959700  0.664400  1.0  0.1209
  H  H207  1  0.868000  0.319100  0.266300  1.0  0.0789
  H  H208  1  0.824100  0.333333  0.167600  1.0  0.1248
  C  C209  1  0.597700  0.471000  0.999900  1.0  0.3546
  C  C210  1  0.777300  0.638100  0.008700  1.0  -0.1468
  C  C211  1  0.297800  0.083900  0.504600  1.0  -0.162
  C  C212  1  0.123500  0.256700  0.501000  1.0  0.3671
  C  C213  1  0.059700  0.301600  0.468800  1.0  -0.064
  C  C214  1  0.503200  0.384300  0.995300  1.0  -0.1569
  C  C215  1  0.444100  0.344200  0.963900  1.0  0.1781
  C  C216  1  0.209700  0.226200  0.586700  1.0  0.3697
  C  C217  1  0.032700  0.311300  0.410100  1.0  -0.1742
  C  C218  1  0.682000  0.552600  0.006000  1.0  0.3635
  C  C219  1  0.533400  0.426200  0.965900  1.0  -0.0651
  C  C220  1  0.235500  0.064300  0.388200  1.0  0.1774
  C  C221  1  0.720300  0.652900  0.891600  1.0  0.166
  C  C222  1  0.243100  0.237100  0.650500  1.0  -0.0425
  C  C223  1  0.679000  0.456300  0.180400  1.0  -0.1126
  C  C224  1  0.680200  0.501900  0.087000  1.0  0.3806
  C  C225  1  0.714900  0.601200  0.976800  1.0  -0.0066
  C  C226  1  0.235200  0.121100  0.473600  1.0  -0.0824
  C  C227  1  0.025900  0.335100  0.498800  1.0  -0.1873
  C  C228  1  0.203800  0.110000  0.414200  1.0  -0.1586
  C  C229  1  0.686400  0.610000  0.917900  1.0  -0.1489
  C  C230  1  0.205000  0.172000  0.504100  1.0  0.3889
  C  C231  1  0.712400  0.491900  0.151200  1.0  -0.1121
  C  C232  1  0.973300  0.353000  0.383400  1.0  0.1731
  C  C233  1  0.325400  0.041300  0.473400  1.0  0.1784
  C  C234  1  0.807600  0.680200  0.978500  1.0  0.173
  C  C235  1  0.966900  0.374800  0.468100  1.0  0.1778
  C  C236  1  0.806800  0.505200  0.241900  1.0  0.1697
  C  C237  1  0.501800  0.427900  0.906300  1.0  -0.169
  C  C238  1  0.443900  0.383300  0.878500  1.0  0.1718
  C  C239  1  0.215300  0.288400  0.677400  1.0  -0.1698
  C  C240  1  0.245500  0.294900  0.736200  1.0  0.1733
  C  C241  1  0.711600  0.446600  0.239600  1.0  0.1627
  C  C242  1  0.778100  0.516700  0.182600  1.0  -0.1601
  C  C243  1  0.328500  0.208100  0.743600  1.0  0.181
  C  C244  1  0.302300  0.198500  0.684300  1.0  -0.1768
  C  C245  1  0.097700  0.971000  0.999900  1.0  0.3546
  C  C246  1  0.277300  0.138100  0.008700  1.0  -0.1468
  C  C247  1  0.797800  0.583900  0.504600  1.0  -0.162
  C  C248  1  0.623500  0.756700  0.501000  1.0  0.3671
  C  C249  1  0.559700  0.801600  0.468800  1.0  -0.064
  C  C250  1  0.003200  0.884300  0.995300  1.0  -0.1569
  C  C251  1  0.944100  0.844200  0.963900  1.0  0.1781
  C  C252  1  0.709700  0.726200  0.586700  1.0  0.3697
  C  C253  1  0.532700  0.811300  0.410100  1.0  -0.1742
  C  C254  1  0.182000  0.052600  0.006000  1.0  0.3635
  C  C255  1  0.033400  0.926200  0.965900  1.0  -0.0651
  C  C256  1  0.735500  0.564300  0.388200  1.0  0.1774
  C  C257  1  0.220300  0.152900  0.891600  1.0  0.166
  C  C258  1  0.743100  0.737100  0.650500  1.0  -0.0425
  C  C259  1  0.179000  0.956300  0.180400  1.0  -0.1126
  C  C260  1  0.180200  0.001900  0.087000  1.0  0.3806
  C  C261  1  0.214900  0.101200  0.976800  1.0  -0.0066
  C  C262  1  0.735200  0.621100  0.473600  1.0  -0.0824
  C  C263  1  0.525900  0.835100  0.498800  1.0  -0.1873
  C  C264  1  0.703800  0.610000  0.414200  1.0  -0.1586
  C  C265  1  0.186400  0.110000  0.917900  1.0  -0.1489
  C  C266  1  0.705000  0.672000  0.504100  1.0  0.3889
  C  C267  1  0.212400  0.991900  0.151200  1.0  -0.112
  C  C268  1  0.473300  0.853000  0.383400  1.0  0.1731
  C  C269  1  0.825400  0.541300  0.473400  1.0  0.1784
  C  C270  1  0.307600  0.180200  0.978500  1.0  0.173
  C  C271  1  0.466900  0.874800  0.468100  1.0  0.1778
  C  C272  1  0.306800  0.005200  0.241900  1.0  0.1697
  C  C273  1  0.001800  0.927900  0.906300  1.0  -0.169
  C  C274  1  0.943900  0.883300  0.878500  1.0  0.1718
  C  C275  1  0.715300  0.788400  0.677400  1.0  -0.1698
  C  C276  1  0.745500  0.794900  0.736200  1.0  0.1733
  C  C277  1  0.211600  0.946600  0.239600  1.0  0.1627
  C  C278  1  0.278100  0.016700  0.182600  1.0  -0.1601
  C  C279  1  0.828500  0.708100  0.743600  1.0  0.1795
  C  C280  1  0.802300  0.698500  0.684300  1.0  -0.1806
  C  C281  1  0.402300  0.471000  0.500100  1.0  0.3549
  C  C282  1  0.222700  0.638100  0.491300  1.0  -0.1473
  C  C283  1  0.702200  0.083900  0.995400  1.0  -0.1611
  C  C284  1  0.876500  0.256700  0.999000  1.0  0.3669
  C  C285  1  0.940300  0.301600  0.031200  1.0  -0.0646
  C  C286  1  0.496800  0.384300  0.504700  1.0  -0.1576
  C  C287  1  0.555900  0.344200  0.536100  1.0  0.1783
  C  C288  1  0.790300  0.226200  0.913300  1.0  0.3688
  C  C289  1  0.967300  0.311300  0.089900  1.0  -0.175
  C  C290  1  0.318000  0.552600  0.494000  1.0  0.3638
  C  C291  1  0.466600  0.426200  0.534100  1.0  -0.0665
  C  C292  1  0.764500  0.064300  0.111800  1.0  0.1758
  C  C293  1  0.279700  0.652900  0.608400  1.0  0.1658
  C  C294  1  0.756900  0.237100  0.849500  1.0  -0.0421
  C  C295  1  0.321000  0.456300  0.319600  1.0  -0.1149
  C  C296  1  0.319800  0.501900  0.413000  1.0  0.381
  C  C297  1  0.285100  0.601200  0.523200  1.0  -0.0047
  C  C298  1  0.764800  0.121100  0.026400  1.0  -0.0813
  C  C299  1  0.974100  0.335100  0.001200  1.0  -0.1871
  C  C300  1  0.796200  0.110000  0.085800  1.0  -0.1599
  C  C301  1  0.313600  0.610000  0.582100  1.0  -0.1494
  C  C302  1  0.795000  0.172000  0.995900  1.0  0.389
  C  C303  1  0.287600  0.491900  0.348800  1.0  -0.1119
  C  C304  1  0.026700  0.353000  0.116600  1.0  0.1723
  C  C305  1  0.674600  0.041300  0.026600  1.0  0.1795
  C  C306  1  0.192400  0.680200  0.521500  1.0  0.1724
  C  C307  1  0.033100  0.374800  0.031900  1.0  0.1799
  C  C308  1  0.193200  0.505200  0.258100  1.0  0.1693
  C  C309  1  0.498200  0.427900  0.593700  1.0  -0.1723
  C  C310  1  0.556100  0.383300  0.621500  1.0  0.1712
  C  C311  1  0.784700  0.288400  0.822600  1.0  -0.1693
  C  C312  1  0.754500  0.294900  0.763800  1.0  0.1723
  C  C313  1  0.288400  0.446600  0.260400  1.0  0.1628
  C  C314  1  0.221900  0.516700  0.317400  1.0  -0.1606
  C  C315  1  0.671500  0.208100  0.756400  1.0  0.1804
  C  C316  1  0.697700  0.198500  0.815700  1.0  -0.1748
  C  C317  1  0.902300  0.971000  0.500100  1.0  0.3549
  C  C318  1  0.722700  0.138100  0.491300  1.0  -0.1473
  C  C319  1  0.202200  0.583900  0.995400  1.0  -0.1611
  C  C320  1  0.376500  0.756700  0.999000  1.0  0.3669
  C  C321  1  0.440300  0.801600  0.031200  1.0  -0.0646
  C  C322  1  0.996800  0.884300  0.504700  1.0  -0.1576
  C  C323  1  0.055900  0.844200  0.536100  1.0  0.1783
  C  C324  1  0.290300  0.726200  0.913300  1.0  0.3688
  C  C325  1  0.467300  0.811300  0.089900  1.0  -0.175
  C  C326  1  0.818000  0.052600  0.494000  1.0  0.3638
  C  C327  1  0.966600  0.926200  0.534100  1.0  -0.0665
  C  C328  1  0.264500  0.564300  0.111800  1.0  0.1758
  C  C329  1  0.779700  0.152900  0.608400  1.0  0.1658
  C  C330  1  0.256900  0.737100  0.849500  1.0  -0.0419
  C  C331  1  0.821000  0.956300  0.319600  1.0  -0.1149
  C  C332  1  0.819800  0.001900  0.413000  1.0  0.381
  C  C333  1  0.785100  0.101200  0.523200  1.0  -0.0047
  C  C334  1  0.264800  0.621100  0.026400  1.0  -0.0813
  C  C335  1  0.474100  0.835100  0.001200  1.0  -0.1871
  C  C336  1  0.296200  0.610000  0.085800  1.0  -0.1599
  C  C337  1  0.813600  0.110000  0.582100  1.0  -0.1494
  C  C338  1  0.295000  0.672000  0.995900  1.0  0.389
  C  C339  1  0.787600  0.991900  0.348800  1.0  -0.1119
  C  C340  1  0.526700  0.853000  0.116600  1.0  0.1723
  C  C341  1  0.174600  0.541300  0.026600  1.0  0.1795
  C  C342  1  0.692400  0.180200  0.521500  1.0  0.1724
  C  C343  1  0.533100  0.874800  0.031900  1.0  0.1799
  C  C344  1  0.693200  0.005200  0.258100  1.0  0.1693
  C  C345  1  0.998200  0.927900  0.593700  1.0  -0.1723
  C  C346  1  0.056100  0.883300  0.621500  1.0  0.1712
  C  C347  1  0.284700  0.788400  0.822600  1.0  -0.1693
  C  C348  1  0.254500  0.794900  0.763800  1.0  0.1723
  C  C349  1  0.788400  0.946600  0.260400  1.0  0.1628
  C  C350  1  0.721900  0.016700  0.317400  1.0  -0.1606
  C  C351  1  0.171500  0.708100  0.756400  1.0  0.1791
  C  C352  1  0.197700  0.698500  0.815700  1.0  -0.1785
  C  C353  1  0.402300  0.529000  0.000100  1.0  0.3547
  C  C354  1  0.222700  0.361900  0.991300  1.0  -0.1469
  C  C355  1  0.702200  0.916100  0.495400  1.0  -0.1613
  C  C356  1  0.876500  0.743300  0.499000  1.0  0.3673
  C  C357  1  0.940300  0.698400  0.531200  1.0  -0.0654
  C  C358  1  0.496800  0.615700  0.004700  1.0  -0.1581
  C  C359  1  0.555900  0.655800  0.036100  1.0  0.1781
  C  C360  1  0.790300  0.773800  0.413300  1.0  0.3689
  C  C361  1  0.967300  0.688700  0.589900  1.0  -0.1746
  C  C362  1  0.318000  0.447400  0.994000  1.0  0.3641
  C  C363  1  0.466600  0.573800  0.034100  1.0  -0.0663
  C  C364  1  0.764500  0.935700  0.611800  1.0  0.1755
  C  C365  1  0.279700  0.347100  0.108400  1.0  0.1663
  C  C366  1  0.756900  0.762900  0.349500  1.0  -0.0415
  C  C367  1  0.321000  0.543700  0.819600  1.0  -0.1151
  C  C368  1  0.319800  0.498100  0.913000  1.0  0.381
  C  C369  1  0.285100  0.398800  0.023200  1.0  -0.0056
  C  C370  1  0.764800  0.878900  0.526400  1.0  -0.0818
  C  C371  1  0.974100  0.664900  0.501200  1.0  -0.1872
  C  C372  1  0.796200  0.890000  0.585800  1.0  -0.1604
  C  C373  1  0.313600  0.390000  0.082100  1.0  -0.1501
  C  C374  1  0.795000  0.828000  0.495900  1.0  0.3889
  C  C375  1  0.287600  0.508100  0.848800  1.0  -0.1114
  C  C376  1  0.026700  0.647000  0.616600  1.0  0.1723
  C  C377  1  0.674600  0.958700  0.526600  1.0  0.1793
  C  C378  1  0.192400  0.319800  0.021500  1.0  0.1731
  C  C379  1  0.033100  0.625200  0.531900  1.0  0.1787
  C  C380  1  0.193200  0.494800  0.758100  1.0  0.1695
  C  C381  1  0.498200  0.572100  0.093700  1.0  -0.1724
  C  C382  1  0.556100  0.616700  0.121500  1.0  0.1714
  C  C383  1  0.784700  0.711600  0.322600  1.0  -0.1689
  C  C384  1  0.754500  0.705100  0.263800  1.0  0.1725
  C  C385  1  0.288400  0.553400  0.760400  1.0  0.1631
  C  C386  1  0.221900  0.483300  0.817400  1.0  -0.1599
  C  C387  1  0.671500  0.791900  0.256400  1.0  0.181
  C  C388  1  0.697700  0.801500  0.315700  1.0  -0.1744
  C  C389  1  0.902300  0.029000  0.000100  1.0  0.3547
  C  C390  1  0.722700  0.861900  0.991300  1.0  -0.1469
  C  C391  1  0.202200  0.416100  0.495400  1.0  -0.1613
  C  C392  1  0.376500  0.243300  0.499000  1.0  0.3673
  C  C393  1  0.440300  0.198400  0.531200  1.0  -0.0654
  C  C394  1  0.996800  0.115700  0.004700  1.0  -0.1581
  C  C395  1  0.055900  0.155800  0.036100  1.0  0.1781
  C  C396  1  0.290300  0.273800  0.413300  1.0  0.3689
  C  C397  1  0.467300  0.188700  0.589900  1.0  -0.1746
  C  C398  1  0.818000  0.947400  0.994000  1.0  0.3641
  C  C399  1  0.966600  0.073800  0.034100  1.0  -0.0663
  C  C400  1  0.264500  0.435700  0.611800  1.0  0.1755
  C  C401  1  0.779700  0.847100  0.108400  1.0  0.1663
  C  C402  1  0.256900  0.262900  0.349500  1.0  -0.0413
  C  C403  1  0.821000  0.043700  0.819600  1.0  -0.1151
  C  C404  1  0.819800  0.998100  0.913000  1.0  0.381
  C  C405  1  0.785100  0.898800  0.023200  1.0  -0.0056
  C  C406  1  0.264800  0.378900  0.526400  1.0  -0.0818
  C  C407  1  0.474100  0.164900  0.501200  1.0  -0.1872
  C  C408  1  0.296200  0.390000  0.585800  1.0  -0.1604
  C  C409  1  0.813600  0.890000  0.082100  1.0  -0.1501
  C  C410  1  0.295000  0.328000  0.495900  1.0  0.3889
  C  C411  1  0.787600  0.008100  0.848800  1.0  -0.1114
  C  C412  1  0.526700  0.147000  0.616600  1.0  0.1723
  C  C413  1  0.174600  0.458700  0.526600  1.0  0.1793
  C  C414  1  0.692400  0.819800  0.021500  1.0  0.1731
  C  C415  1  0.533100  0.125200  0.531900  1.0  0.1787
  C  C416  1  0.693200  0.994800  0.758100  1.0  0.1695
  C  C417  1  0.998200  0.072100  0.093700  1.0  -0.1724
  C  C418  1  0.056100  0.116700  0.121500  1.0  0.1714
  C  C419  1  0.284700  0.211600  0.322600  1.0  -0.1689
  C  C420  1  0.254500  0.205100  0.263800  1.0  0.1725
  C  C421  1  0.788400  0.053400  0.760400  1.0  0.1631
  C  C422  1  0.721900  0.983300  0.817400  1.0  -0.1599
  C  C423  1  0.171500  0.291900  0.256400  1.0  0.1796
  C  C424  1  0.197700  0.301500  0.315700  1.0  -0.178
  C  C425  1  0.597700  0.529000  0.499900  1.0  0.3543
  C  C426  1  0.777300  0.361900  0.508700  1.0  -0.1471
  C  C427  1  0.297800  0.916100  0.004600  1.0  -0.1616
  C  C428  1  0.123500  0.743300  0.001000  1.0  0.3677
  C  C429  1  0.059700  0.698400  0.968800  1.0  -0.0638
  C  C430  1  0.503200  0.615700  0.495300  1.0  -0.1576
  C  C431  1  0.444100  0.655800  0.463900  1.0  0.1774
  C  C432  1  0.209700  0.773800  0.086700  1.0  0.3699
  C  C433  1  0.032700  0.688700  0.910100  1.0  -0.1739
  C  C434  1  0.682000  0.447400  0.506000  1.0  0.3638
  C  C435  1  0.533400  0.573800  0.465900  1.0  -0.0655
  C  C436  1  0.235500  0.935700  0.888200  1.0  0.1771
  C  C437  1  0.720300  0.347100  0.391600  1.0  0.1658
  C  C438  1  0.243100  0.762900  0.150500  1.0  -0.0422
  C  C439  1  0.679000  0.543700  0.680400  1.0  -0.1126
  C  C440  1  0.680200  0.498100  0.587000  1.0  0.3806
  C  C441  1  0.714900  0.398800  0.476800  1.0  -0.0071
  C  C442  1  0.235200  0.878900  0.973600  1.0  -0.0824
  C  C443  1  0.025900  0.664900  0.998800  1.0  -0.1878
  C  C444  1  0.203800  0.890000  0.914200  1.0  -0.1581
  C  C445  1  0.686400  0.390000  0.417900  1.0  -0.1496
  C  C446  1  0.205000  0.828000  0.004100  1.0  0.3888
  C  C447  1  0.712400  0.508100  0.651200  1.0  -0.1116
  C  C448  1  0.973300  0.647000  0.883400  1.0  0.1727
  C  C449  1  0.325400  0.958700  0.973400  1.0  0.1782
  C  C450  1  0.807600  0.319800  0.478500  1.0  0.1733
  C  C451  1  0.966900  0.625200  0.968100  1.0  0.1789
  C  C452  1  0.806800  0.494800  0.741900  1.0  0.1701
  C  C453  1  0.501800  0.572100  0.406300  1.0  -0.1687
  C  C454  1  0.443900  0.616700  0.378500  1.0  0.1721
  C  C455  1  0.215300  0.711600  0.177400  1.0  -0.1689
  C  C456  1  0.245500  0.705100  0.236200  1.0  0.1734
  C  C457  1  0.711600  0.553400  0.739600  1.0  0.1631
  C  C458  1  0.778100  0.483300  0.682600  1.0  -0.1606
  C  C459  1  0.328500  0.791900  0.243600  1.0  0.1816
  C  C460  1  0.302300  0.801500  0.184300  1.0  -0.1764
  C  C461  1  0.097700  0.029000  0.499900  1.0  0.3543
  C  C462  1  0.277300  0.861900  0.508700  1.0  -0.1471
  C  C463  1  0.797800  0.416100  0.004600  1.0  -0.1616
  C  C464  1  0.623500  0.243300  0.001000  1.0  0.3677
  C  C465  1  0.559700  0.198400  0.968800  1.0  -0.0638
  C  C466  1  0.003200  0.115700  0.495300  1.0  -0.1576
  C  C467  1  0.944100  0.155800  0.463900  1.0  0.1774
  C  C468  1  0.709700  0.273800  0.086700  1.0  0.3698
  C  C469  1  0.532700  0.188700  0.910100  1.0  -0.1739
  C  C470  1  0.182000  0.947400  0.506000  1.0  0.3638
  C  C471  1  0.033400  0.073800  0.465900  1.0  -0.0655
  C  C472  1  0.735500  0.435700  0.888200  1.0  0.1771
  C  C473  1  0.220300  0.847100  0.391600  1.0  0.1658
  C  C474  1  0.743100  0.262900  0.150500  1.0  -0.0422
  C  C475  1  0.179000  0.043700  0.680400  1.0  -0.1126
  C  C476  1  0.180200  0.998100  0.587000  1.0  0.3806
  C  C477  1  0.214900  0.898800  0.476800  1.0  -0.0071
  C  C478  1  0.735200  0.378900  0.973600  1.0  -0.0824
  C  C479  1  0.525900  0.164900  0.998800  1.0  -0.1878
  C  C480  1  0.703800  0.390000  0.914200  1.0  -0.1581
  C  C481  1  0.186400  0.890000  0.417900  1.0  -0.1496
  C  C482  1  0.705000  0.328000  0.004100  1.0  0.3888
  C  C483  1  0.212400  0.008100  0.651200  1.0  -0.1116
  C  C484  1  0.473300  0.147000  0.883400  1.0  0.1727
  C  C485  1  0.825400  0.458700  0.973400  1.0  0.1782
  C  C486  1  0.307600  0.819800  0.478500  1.0  0.1733
  C  C487  1  0.466900  0.125200  0.968100  1.0  0.1789
  C  C488  1  0.306800  0.994800  0.741900  1.0  0.1701
  C  C489  1  0.001800  0.072100  0.406300  1.0  -0.1687
  C  C490  1  0.943900  0.116700  0.378500  1.0  0.1721
  C  C491  1  0.715300  0.211600  0.177400  1.0  -0.1689
  C  C492  1  0.745500  0.205100  0.236200  1.0  0.1734
  C  C493  1  0.211600  0.053400  0.739600  1.0  0.1631
  C  C494  1  0.278100  0.983300  0.682600  1.0  -0.1606
  C  C495  1  0.828500  0.291900  0.243600  1.0  0.1801
  C  C496  1  0.802300  0.301500  0.184300  1.0  -0.1802
  N  N497  1  0.295400  0.030200  0.416800  1.0  -0.3531
  N  N498  1  0.939400  0.383600  0.411100  1.0  -0.3086
  N  N499  1  0.300700  0.254000  0.770100  1.0  -0.3288
  N  N500  1  0.237900  0.177200  0.562100  1.0  -0.5219
  N  N501  1  0.148200  0.210500  0.471600  1.0  -0.5022
  N  N502  1  0.152700  0.266900  0.558300  1.0  -0.5376
  N  N503  1  0.413800  0.342700  0.906500  1.0  -0.3665
  N  N504  1  0.775700  0.471200  0.270900  1.0  -0.3622
  N  N505  1  0.779800  0.686900  0.921300  1.0  -0.3089
  N  N506  1  0.623000  0.462800  0.057900  1.0  -0.5074
  N  N507  1  0.711300  0.549600  0.063900  1.0  -0.4979
  N  N508  1  0.626100  0.512200  0.972400  1.0  -0.4646
  N  N509  1  0.795400  0.530200  0.416800  1.0  -0.3531
  N  N510  1  0.439400  0.883600  0.411100  1.0  -0.3086
  N  N511  1  0.800700  0.754000  0.770100  1.0  -0.3288
  N  N512  1  0.737900  0.677200  0.562100  1.0  -0.5219
  N  N513  1  0.648200  0.710500  0.471600  1.0  -0.5022
  N  N514  1  0.652700  0.766900  0.558300  1.0  -0.5376
  N  N515  1  0.913800  0.842700  0.906500  1.0  -0.3665
  N  N516  1  0.275700  0.971200  0.270900  1.0  -0.3622
  N  N517  1  0.279800  0.186900  0.921300  1.0  -0.3089
  N  N518  1  0.123000  0.962800  0.057900  1.0  -0.5074
  N  N519  1  0.211300  0.049600  0.063900  1.0  -0.4979
  N  N520  1  0.126100  0.012200  0.972400  1.0  -0.4646
  N  N521  1  0.704600  0.030200  0.083200  1.0  -0.3505
  N  N522  1  0.060600  0.383600  0.088900  1.0  -0.31
  N  N523  1  0.699300  0.254000  0.729900  1.0  -0.3305
  N  N524  1  0.762100  0.177200  0.937900  1.0  -0.5243
  N  N525  1  0.851800  0.210500  0.028400  1.0  -0.5048
  N  N526  1  0.847300  0.266900  0.941700  1.0  -0.5347
  N  N527  1  0.586200  0.342700  0.593500  1.0  -0.3641
  N  N528  1  0.224300  0.471200  0.229100  1.0  -0.3619
  N  N529  1  0.220200  0.686900  0.578700  1.0  -0.3095
  N  N530  1  0.377000  0.462800  0.442100  1.0  -0.507
  N  N531  1  0.288700  0.549600  0.436100  1.0  -0.4979
  N  N532  1  0.373900  0.512200  0.527600  1.0  -0.4606
  N  N533  1  0.204600  0.530200  0.083200  1.0  -0.3505
  N  N534  1  0.560600  0.883600  0.088900  1.0  -0.31
  N  N535  1  0.199300  0.754000  0.729900  1.0  -0.3305
  N  N536  1  0.262100  0.677200  0.937900  1.0  -0.5244
  N  N537  1  0.351800  0.710500  0.028400  1.0  -0.5048
  N  N538  1  0.347300  0.766900  0.941700  1.0  -0.5347
  N  N539  1  0.086200  0.842700  0.593500  1.0  -0.3641
  N  N540  1  0.724300  0.971200  0.229100  1.0  -0.3619
  N  N541  1  0.720200  0.186900  0.578700  1.0  -0.3095
  N  N542  1  0.877000  0.962800  0.442100  1.0  -0.507
  N  N543  1  0.788700  0.049600  0.436100  1.0  -0.4979
  N  N544  1  0.873900  0.012200  0.527600  1.0  -0.4606
  N  N545  1  0.704600  0.969800  0.583200  1.0  -0.3522
  N  N546  1  0.060600  0.616400  0.588900  1.0  -0.3102
  N  N547  1  0.699300  0.746000  0.229900  1.0  -0.3309
  N  N548  1  0.762100  0.822800  0.437900  1.0  -0.5232
  N  N549  1  0.851800  0.789500  0.528400  1.0  -0.5047
  N  N550  1  0.847300  0.733100  0.441700  1.0  -0.5357
  N  N551  1  0.586200  0.657300  0.093500  1.0  -0.3659
  N  N552  1  0.224300  0.528800  0.729100  1.0  -0.3614
  N  N553  1  0.220200  0.313100  0.078700  1.0  -0.3101
  N  N554  1  0.377000  0.537200  0.942100  1.0  -0.507
  N  N555  1  0.288700  0.450400  0.936100  1.0  -0.4997
  N  N556  1  0.373900  0.487800  0.027600  1.0  -0.461
  N  N557  1  0.204600  0.469800  0.583200  1.0  -0.3522
  N  N558  1  0.560600  0.116400  0.588900  1.0  -0.3102
  N  N559  1  0.199300  0.246000  0.229900  1.0  -0.3309
  N  N560  1  0.262100  0.322800  0.437900  1.0  -0.5232
  N  N561  1  0.351800  0.289500  0.528400  1.0  -0.5047
  N  N562  1  0.347300  0.233100  0.441700  1.0  -0.5357
  N  N563  1  0.086200  0.157300  0.093500  1.0  -0.3659
  N  N564  1  0.724300  0.028800  0.729100  1.0  -0.3614
  N  N565  1  0.720200  0.813100  0.078700  1.0  -0.3101
  N  N566  1  0.877000  0.037200  0.942100  1.0  -0.507
  N  N567  1  0.788700  0.950400  0.936100  1.0  -0.4997
  N  N568  1  0.873900  0.987800  0.027600  1.0  -0.461
  N  N569  1  0.295400  0.969800  0.916800  1.0  -0.3525
  N  N570  1  0.939400  0.616400  0.911100  1.0  -0.3132
  N  N571  1  0.300700  0.746000  0.270100  1.0  -0.3281
  N  N572  1  0.237900  0.822800  0.062100  1.0  -0.522
  N  N573  1  0.148200  0.789500  0.971600  1.0  -0.5022
  N  N574  1  0.152700  0.733100  0.058300  1.0  -0.5375
  N  N575  1  0.413800  0.657300  0.406500  1.0  -0.3657
  N  N576  1  0.775700  0.528800  0.770900  1.0  -0.3625
  N  N577  1  0.779800  0.313100  0.421300  1.0  -0.3112
  N  N578  1  0.623000  0.537200  0.557900  1.0  -0.5076
  N  N579  1  0.711300  0.450400  0.563900  1.0  -0.4979
  N  N580  1  0.626100  0.487800  0.472400  1.0  -0.4655
  N  N581  1  0.795400  0.469800  0.916800  1.0  -0.3525
  N  N582  1  0.439400  0.116400  0.911100  1.0  -0.3132
  N  N583  1  0.800700  0.246000  0.270100  1.0  -0.3281
  N  N584  1  0.737900  0.322800  0.062100  1.0  -0.522
  N  N585  1  0.648200  0.289500  0.971600  1.0  -0.5022
  N  N586  1  0.652700  0.233100  0.058300  1.0  -0.5375
  N  N587  1  0.913800  0.157300  0.406500  1.0  -0.3657
  N  N588  1  0.275700  0.028800  0.770900  1.0  -0.3625
  N  N589  1  0.279800  0.813100  0.421300  1.0  -0.3112
  N  N590  1  0.123000  0.037200  0.557900  1.0  -0.5076
  N  N591  1  0.211300  0.950400  0.563900  1.0  -0.4979
  N  N592  1  0.126100  0.987800  0.472400  1.0  -0.4655
