# generated using pymatgen
data_AgH12(C3N)6
_symmetry_space_group_name_H-M   'P 1'
_cell_length_a   21.98480000
_cell_length_b   16.56170000
_cell_length_c   25.64430000
_cell_angle_alpha   90.00000000
_cell_angle_beta   115.36600000
_cell_angle_gamma   90.00000000
_symmetry_Int_Tables_number   1
_chemical_formula_structural   AgH12(C3N)6
_chemical_formula_sum   'Ag16 H192 C288 N96'
_cell_volume   8437.02893163
_cell_formula_units_Z   16
loop_
 _symmetry_equiv_pos_site_id
 _symmetry_equiv_pos_as_xyz
  1  'x, y, z'
loop_
 _atom_site_type_symbol
 _atom_site_label
 _atom_site_symmetry_multiplicity
 _atom_site_fract_x
 _atom_site_fract_y
 _atom_site_fract_z
 _atom_site_occupancy
 _atom_site_charge
  Ag  Ag1  1  0.273900  0.208970  0.868250  1.0  0.3298
  Ag  Ag2  1  0.795000  0.501320  0.367690  1.0  0.2948
  Ag  Ag3  1  0.773900  0.708970  0.868250  1.0  0.3298
  Ag  Ag4  1  0.295000  0.001320  0.367690  1.0  0.2948
  Ag  Ag5  1  0.726100  0.208970  0.631750  1.0  0.33
  Ag  Ag6  1  0.205000  0.501320  0.132310  1.0  0.2953
  Ag  Ag7  1  0.226100  0.708970  0.631750  1.0  0.33
  Ag  Ag8  1  0.705000  0.001320  0.132310  1.0  0.2953
  Ag  Ag9  1  0.726100  0.791030  0.131750  1.0  0.3301
  Ag  Ag10  1  0.205000  0.498680  0.632310  1.0  0.2952
  Ag  Ag11  1  0.226100  0.291030  0.131750  1.0  0.3301
  Ag  Ag12  1  0.705000  0.998680  0.632310  1.0  0.2952
  Ag  Ag13  1  0.273900  0.791030  0.368250  1.0  0.3295
  Ag  Ag14  1  0.795000  0.498680  0.867690  1.0  0.2945
  Ag  Ag15  1  0.773900  0.291030  0.368250  1.0  0.3295
  Ag  Ag16  1  0.295000  0.998680  0.867690  1.0  0.2945
  H  H17  1  0.402900  0.905000  0.352600  1.0  0.0843
  H  H18  1  0.585500  0.539800  0.890000  1.0  0.1292
  H  H19  1  0.501400  0.884200  0.549500  1.0  0.1245
  H  H20  1  0.384600  0.311300  0.849300  1.0  0.074
  H  H21  1  0.763900  0.633000  0.536400  1.0  0.1246
  H  H22  1  0.745500  0.582100  0.039400  1.0  0.1217
  H  H23  1  0.812200  0.565400  0.485800  1.0  0.0802
  H  H24  1  0.794200  0.649000  0.989600  1.0  0.0766
  H  H25  1  0.475000  0.338000  0.045600  1.0  0.1206
  H  H26  1  0.481300  0.383600  0.893900  1.0  0.118
  H  H27  1  0.501600  0.834100  0.396400  1.0  0.1197
  H  H28  1  0.821500  0.675000  0.759400  1.0  0.0754
  H  H29  1  0.776700  0.688900  0.661000  1.0  0.1188
  H  H30  1  0.638800  0.611200  0.844600  1.0  0.0805
  H  H31  1  0.614200  0.791800  0.666200  1.0  0.1194
  H  H32  1  0.728400  0.568600  0.156600  1.0  0.125
  H  H33  1  0.664000  0.775000  0.764000  1.0  0.0768
  H  H34  1  0.377600  0.266400  0.995100  1.0  0.0704
  H  H35  1  0.777300  0.578800  0.255300  1.0  0.0718
  H  H36  1  0.616300  0.703300  0.386400  1.0  0.1237
  H  H37  1  0.595300  0.412700  0.168700  1.0  0.1258
  H  H38  1  0.402100  0.953000  0.501000  1.0  0.0752
  H  H39  1  0.651800  0.424300  0.267100  1.0  0.0808
  H  H40  1  0.666000  0.629900  0.339800  1.0  0.0792
  H  H41  1  0.902900  0.405000  0.352600  1.0  0.0843
  H  H42  1  0.085500  0.039800  0.890000  1.0  0.1292
  H  H43  1  0.001400  0.384200  0.549500  1.0  0.1245
  H  H44  1  0.884600  0.811300  0.849300  1.0  0.074
  H  H45  1  0.263900  0.133000  0.536400  1.0  0.1246
  H  H46  1  0.245500  0.082100  0.039400  1.0  0.1217
  H  H47  1  0.312200  0.065400  0.485800  1.0  0.0802
  H  H48  1  0.294200  0.149000  0.989600  1.0  0.0766
  H  H49  1  0.975000  0.838000  0.045600  1.0  0.1206
  H  H50  1  0.981300  0.883600  0.893900  1.0  0.118
  H  H51  1  0.001600  0.334100  0.396400  1.0  0.1197
  H  H52  1  0.321500  0.175000  0.759400  1.0  0.0753
  H  H53  1  0.276700  0.188900  0.661000  1.0  0.1188
  H  H54  1  0.138800  0.111200  0.844600  1.0  0.0805
  H  H55  1  0.114200  0.291800  0.666200  1.0  0.1194
  H  H56  1  0.228400  0.068600  0.156600  1.0  0.125
  H  H57  1  0.164000  0.275000  0.764000  1.0  0.0768
  H  H58  1  0.877600  0.766400  0.995100  1.0  0.0704
  H  H59  1  0.277300  0.078800  0.255300  1.0  0.0718
  H  H60  1  0.116300  0.203300  0.386400  1.0  0.1237
  H  H61  1  0.095300  0.912700  0.168700  1.0  0.1258
  H  H62  1  0.902100  0.453000  0.501000  1.0  0.0752
  H  H63  1  0.151800  0.924300  0.267100  1.0  0.0808
  H  H64  1  0.166000  0.129900  0.339800  1.0  0.0792
  H  H65  1  0.597100  0.905000  0.147400  1.0  0.0843
  H  H66  1  0.414500  0.539800  0.610000  1.0  0.1296
  H  H67  1  0.498600  0.884200  0.950500  1.0  0.1244
  H  H68  1  0.615400  0.311300  0.650700  1.0  0.0731
  H  H69  1  0.236100  0.633000  0.963600  1.0  0.1252
  H  H70  1  0.254500  0.582100  0.460600  1.0  0.122
  H  H71  1  0.187800  0.565400  0.014200  1.0  0.08
  H  H72  1  0.205800  0.649000  0.510400  1.0  0.0764
  H  H73  1  0.525000  0.338000  0.454400  1.0  0.1208
  H  H74  1  0.518700  0.383600  0.606100  1.0  0.1175
  H  H75  1  0.498400  0.834100  0.103600  1.0  0.1192
  H  H76  1  0.178500  0.675000  0.740600  1.0  0.0751
  H  H77  1  0.223300  0.688900  0.839000  1.0  0.1198
  H  H78  1  0.361200  0.611200  0.655400  1.0  0.0806
  H  H79  1  0.385800  0.791800  0.833800  1.0  0.1194
  H  H80  1  0.271600  0.568600  0.343400  1.0  0.1245
  H  H81  1  0.336000  0.775000  0.736000  1.0  0.0768
  H  H82  1  0.622400  0.266400  0.504900  1.0  0.0703
  H  H83  1  0.222700  0.578800  0.244700  1.0  0.0716
  H  H84  1  0.383700  0.703300  0.113600  1.0  0.1236
  H  H85  1  0.404700  0.412700  0.331300  1.0  0.1255
  H  H86  1  0.597900  0.953000  0.999000  1.0  0.0752
  H  H87  1  0.348200  0.424300  0.232900  1.0  0.0803
  H  H88  1  0.334000  0.629900  0.160200  1.0  0.0789
  H  H89  1  0.097100  0.405000  0.147400  1.0  0.0843
  H  H90  1  0.914500  0.039800  0.610000  1.0  0.1296
  H  H91  1  0.998600  0.384200  0.950500  1.0  0.1244
  H  H92  1  0.115400  0.811300  0.650700  1.0  0.0731
  H  H93  1  0.736100  0.133000  0.963600  1.0  0.1252
  H  H94  1  0.754500  0.082100  0.460600  1.0  0.122
  H  H95  1  0.687800  0.065400  0.014200  1.0  0.08
  H  H96  1  0.705800  0.149000  0.510400  1.0  0.0764
  H  H97  1  0.025000  0.838000  0.454400  1.0  0.1208
  H  H98  1  0.018700  0.883600  0.606100  1.0  0.1175
  H  H99  1  0.998400  0.334100  0.103600  1.0  0.1192
  H  H100  1  0.678500  0.175000  0.740600  1.0  0.075
  H  H101  1  0.723300  0.188900  0.839000  1.0  0.1198
  H  H102  1  0.861200  0.111200  0.655400  1.0  0.0806
  H  H103  1  0.885800  0.291800  0.833800  1.0  0.1194
  H  H104  1  0.771600  0.068600  0.343400  1.0  0.1245
  H  H105  1  0.836000  0.275000  0.736000  1.0  0.0768
  H  H106  1  0.122400  0.766400  0.504900  1.0  0.0703
  H  H107  1  0.722700  0.078800  0.244700  1.0  0.0716
  H  H108  1  0.883700  0.203300  0.113600  1.0  0.1236
  H  H109  1  0.904700  0.912700  0.331300  1.0  0.1255
  H  H110  1  0.097900  0.453000  0.999000  1.0  0.0752
  H  H111  1  0.848200  0.924300  0.232900  1.0  0.0803
  H  H112  1  0.834000  0.129900  0.160200  1.0  0.0789
  H  H113  1  0.597100  0.095000  0.647400  1.0  0.0845
  H  H114  1  0.414500  0.460200  0.110000  1.0  0.1297
  H  H115  1  0.498600  0.115800  0.450500  1.0  0.1243
  H  H116  1  0.615400  0.688700  0.150700  1.0  0.073
  H  H117  1  0.236100  0.367000  0.463600  1.0  0.1254
  H  H118  1  0.254500  0.417900  0.960600  1.0  0.1218
  H  H119  1  0.187800  0.434600  0.514200  1.0  0.0803
  H  H120  1  0.205800  0.351000  0.010400  1.0  0.0764
  H  H121  1  0.525000  0.662000  0.954400  1.0  0.121
  H  H122  1  0.518700  0.616400  0.106100  1.0  0.1174
  H  H123  1  0.498400  0.165900  0.603600  1.0  0.1194
  H  H124  1  0.178500  0.325000  0.240600  1.0  0.0748
  H  H125  1  0.223300  0.311100  0.339000  1.0  0.1198
  H  H126  1  0.361200  0.388800  0.155400  1.0  0.0806
  H  H127  1  0.385800  0.208200  0.333800  1.0  0.1187
  H  H128  1  0.271600  0.431400  0.843400  1.0  0.1246
  H  H129  1  0.336000  0.225000  0.236000  1.0  0.0769
  H  H130  1  0.622400  0.733600  0.004900  1.0  0.0699
  H  H131  1  0.222700  0.421200  0.744700  1.0  0.072
  H  H132  1  0.383700  0.296700  0.613600  1.0  0.1235
  H  H133  1  0.404700  0.587300  0.831300  1.0  0.1259
  H  H134  1  0.597900  0.047000  0.499000  1.0  0.074
  H  H135  1  0.348200  0.575700  0.732900  1.0  0.08
  H  H136  1  0.334000  0.370100  0.660200  1.0  0.0789
  H  H137  1  0.097100  0.595000  0.647400  1.0  0.0845
  H  H138  1  0.914500  0.960200  0.110000  1.0  0.1297
  H  H139  1  0.998600  0.615800  0.450500  1.0  0.1243
  H  H140  1  0.115400  0.188700  0.150700  1.0  0.073
  H  H141  1  0.736100  0.867000  0.463600  1.0  0.1254
  H  H142  1  0.754500  0.917900  0.960600  1.0  0.1218
  H  H143  1  0.687800  0.934600  0.514200  1.0  0.0803
  H  H144  1  0.705800  0.851000  0.010400  1.0  0.0764
  H  H145  1  0.025000  0.162000  0.954400  1.0  0.121
  H  H146  1  0.018700  0.116400  0.106100  1.0  0.1174
  H  H147  1  0.998400  0.665900  0.603600  1.0  0.1194
  H  H148  1  0.678500  0.825000  0.240600  1.0  0.0747
  H  H149  1  0.723300  0.811100  0.339000  1.0  0.1198
  H  H150  1  0.861200  0.888800  0.155400  1.0  0.0806
  H  H151  1  0.885800  0.708200  0.333800  1.0  0.1187
  H  H152  1  0.771600  0.931400  0.843400  1.0  0.1246
  H  H153  1  0.836000  0.725000  0.236000  1.0  0.0769
  H  H154  1  0.122400  0.233600  0.004900  1.0  0.0699
  H  H155  1  0.722700  0.921200  0.744700  1.0  0.072
  H  H156  1  0.883700  0.796700  0.613600  1.0  0.1235
  H  H157  1  0.904700  0.087300  0.831300  1.0  0.1259
  H  H158  1  0.097900  0.547000  0.499000  1.0  0.074
  H  H159  1  0.848200  0.075700  0.732900  1.0  0.08
  H  H160  1  0.834000  0.870100  0.660200  1.0  0.0789
  H  H161  1  0.402900  0.095000  0.852600  1.0  0.0843
  H  H162  1  0.585500  0.460200  0.390000  1.0  0.1291
  H  H163  1  0.501400  0.115800  0.049500  1.0  0.1247
  H  H164  1  0.384600  0.688700  0.349300  1.0  0.0739
  H  H165  1  0.763900  0.367000  0.036400  1.0  0.1245
  H  H166  1  0.745500  0.417900  0.539400  1.0  0.1218
  H  H167  1  0.812200  0.434600  0.985800  1.0  0.0802
  H  H168  1  0.794200  0.351000  0.489600  1.0  0.0771
  H  H169  1  0.475000  0.662000  0.545600  1.0  0.1204
  H  H170  1  0.481300  0.616400  0.393900  1.0  0.118
  H  H171  1  0.501600  0.165900  0.896400  1.0  0.1196
  H  H172  1  0.821500  0.325000  0.259400  1.0  0.0753
  H  H173  1  0.776700  0.311100  0.161000  1.0  0.1195
  H  H174  1  0.638800  0.388800  0.344600  1.0  0.0804
  H  H175  1  0.614200  0.208200  0.166200  1.0  0.1195
  H  H176  1  0.728400  0.431400  0.656600  1.0  0.1249
  H  H177  1  0.664000  0.225000  0.264000  1.0  0.077
  H  H178  1  0.377600  0.733600  0.495100  1.0  0.0703
  H  H179  1  0.777300  0.421200  0.755300  1.0  0.0722
  H  H180  1  0.616300  0.296700  0.886400  1.0  0.1239
  H  H181  1  0.595300  0.587300  0.668700  1.0  0.1259
  H  H182  1  0.402100  0.047000  0.001000  1.0  0.0736
  H  H183  1  0.651800  0.575700  0.767100  1.0  0.0809
  H  H184  1  0.666000  0.370100  0.839800  1.0  0.0792
  H  H185  1  0.902900  0.595000  0.852600  1.0  0.0843
  H  H186  1  0.085500  0.960200  0.390000  1.0  0.1291
  H  H187  1  0.001400  0.615800  0.049500  1.0  0.1247
  H  H188  1  0.884600  0.188700  0.349300  1.0  0.0739
  H  H189  1  0.263900  0.867000  0.036400  1.0  0.1245
  H  H190  1  0.245500  0.917900  0.539400  1.0  0.1218
  H  H191  1  0.312200  0.934600  0.985800  1.0  0.0802
  H  H192  1  0.294200  0.851000  0.489600  1.0  0.0771
  H  H193  1  0.975000  0.162000  0.545600  1.0  0.1204
  H  H194  1  0.981300  0.116400  0.393900  1.0  0.118
  H  H195  1  0.001600  0.665900  0.896400  1.0  0.1196
  H  H196  1  0.321500  0.825000  0.259400  1.0  0.0753
  H  H197  1  0.276700  0.811100  0.161000  1.0  0.1195
  H  H198  1  0.138800  0.888800  0.344600  1.0  0.0804
  H  H199  1  0.114200  0.708200  0.166200  1.0  0.1195
  H  H200  1  0.228400  0.931400  0.656600  1.0  0.1249
  H  H201  1  0.164000  0.725000  0.264000  1.0  0.077
  H  H202  1  0.877600  0.233600  0.495100  1.0  0.0703
  H  H203  1  0.277300  0.921200  0.755300  1.0  0.0722
  H  H204  1  0.116300  0.796700  0.886400  1.0  0.1239
  H  H205  1  0.095300  0.087300  0.668700  1.0  0.1259
  H  H206  1  0.902100  0.547000  0.001000  1.0  0.0736
  H  H207  1  0.151800  0.075700  0.767100  1.0  0.0809
  H  H208  1  0.166000  0.870100  0.839800  1.0  0.0792
  C  C209  1  0.627800  0.476000  0.087820  1.0  0.3633
  C  C210  1  0.422700  0.900400  0.392600  1.0  0.1554
  C  C211  1  0.653800  0.719700  0.501290  1.0  0.3685
  C  C212  1  0.628000  0.561600  0.911300  1.0  -0.1719
  C  C213  1  0.628000  0.507000  0.002440  1.0  0.3646
  C  C214  1  0.482100  0.887200  0.509400  1.0  -0.1565
  C  C215  1  0.403100  0.316900  0.889200  1.0  0.1707
  C  C216  1  0.743400  0.633500  0.496290  1.0  -0.1438
  C  C217  1  0.575300  0.800700  0.507200  1.0  0.3782
  C  C218  1  0.659900  0.552300  0.970320  1.0  -0.0618
  C  C219  1  0.722900  0.586500  0.999400  1.0  -0.1763
  C  C220  1  0.771900  0.592700  0.465600  1.0  0.1706
  C  C221  1  0.751700  0.626600  0.969200  1.0  0.1705
  C  C222  1  0.457300  0.334100  0.005600  1.0  -0.1606
  C  C223  1  0.658300  0.486200  0.151800  1.0  -0.0786
  C  C224  1  0.460900  0.361000  0.915600  1.0  -0.1505
  C  C225  1  0.683700  0.675100  0.466860  1.0  -0.0614
  C  C226  1  0.690200  0.742600  0.651900  1.0  -0.0507
  C  C227  1  0.482300  0.857600  0.418650  1.0  -0.153
  C  C228  1  0.549800  0.422800  0.005650  1.0  0.3875
  C  C229  1  0.779300  0.698700  0.740300  1.0  0.1759
  C  C230  1  0.752700  0.707000  0.681100  1.0  -0.1267
  C  C231  1  0.661000  0.604200  0.884400  1.0  0.1763
  C  C232  1  0.656500  0.768000  0.684100  1.0  -0.1927
  C  C233  1  0.712200  0.538000  0.178300  1.0  -0.165
  C  C234  1  0.686900  0.757300  0.742900  1.0  0.1724
  C  C235  1  0.398900  0.290600  0.974700  1.0  0.1724
  C  C236  1  0.658300  0.752200  0.587900  1.0  0.3738
  C  C237  1  0.741400  0.543400  0.237700  1.0  0.1718
  C  C238  1  0.512700  0.850200  0.477970  1.0  0.027
  C  C239  1  0.655600  0.674600  0.407500  1.0  -0.1544
  C  C240  1  0.489100  0.372000  0.975110  1.0  -0.0486
  C  C241  1  0.633500  0.445000  0.185300  1.0  -0.1847
  C  C242  1  0.422300  0.928600  0.479700  1.0  0.1683
  C  C243  1  0.667500  0.453500  0.244500  1.0  0.1858
  C  C244  1  0.686400  0.631200  0.379900  1.0  0.1754
  C  C245  1  0.127800  0.976000  0.087820  1.0  0.3633
  C  C246  1  0.922700  0.400400  0.392600  1.0  0.1554
  C  C247  1  0.153800  0.219700  0.501290  1.0  0.3685
  C  C248  1  0.128000  0.061600  0.911300  1.0  -0.1719
  C  C249  1  0.128000  0.007000  0.002440  1.0  0.3646
  C  C250  1  0.982100  0.387200  0.509400  1.0  -0.1565
  C  C251  1  0.903100  0.816900  0.889200  1.0  0.1707
  C  C252  1  0.243400  0.133500  0.496290  1.0  -0.1438
  C  C253  1  0.075300  0.300700  0.507200  1.0  0.3782
  C  C254  1  0.159900  0.052300  0.970320  1.0  -0.0618
  C  C255  1  0.222900  0.086500  0.999400  1.0  -0.1763
  C  C256  1  0.271900  0.092700  0.465600  1.0  0.1706
  C  C257  1  0.251700  0.126600  0.969200  1.0  0.1705
  C  C258  1  0.957300  0.834100  0.005600  1.0  -0.1606
  C  C259  1  0.158300  0.986200  0.151800  1.0  -0.0786
  C  C260  1  0.960900  0.861000  0.915600  1.0  -0.1505
  C  C261  1  0.183700  0.175100  0.466860  1.0  -0.0614
  C  C262  1  0.190200  0.242600  0.651900  1.0  -0.0507
  C  C263  1  0.982300  0.357600  0.418650  1.0  -0.153
  C  C264  1  0.049800  0.922800  0.005650  1.0  0.3875
  C  C265  1  0.279300  0.198700  0.740300  1.0  0.1759
  C  C266  1  0.252700  0.207000  0.681100  1.0  -0.1267
  C  C267  1  0.161000  0.104200  0.884400  1.0  0.1763
  C  C268  1  0.156500  0.268000  0.684100  1.0  -0.1927
  C  C269  1  0.212200  0.038000  0.178300  1.0  -0.165
  C  C270  1  0.186900  0.257300  0.742900  1.0  0.1724
  C  C271  1  0.898900  0.790600  0.974700  1.0  0.1724
  C  C272  1  0.158300  0.252200  0.587900  1.0  0.3738
  C  C273  1  0.241400  0.043400  0.237700  1.0  0.1718
  C  C274  1  0.012700  0.350200  0.477970  1.0  0.027
  C  C275  1  0.155600  0.174600  0.407500  1.0  -0.1544
  C  C276  1  0.989100  0.872000  0.975110  1.0  -0.0486
  C  C277  1  0.133500  0.945000  0.185300  1.0  -0.1847
  C  C278  1  0.922300  0.428600  0.479700  1.0  0.1683
  C  C279  1  0.167500  0.953500  0.244500  1.0  0.1858
  C  C280  1  0.186400  0.131200  0.379900  1.0  0.1754
  C  C281  1  0.372200  0.476000  0.412180  1.0  0.364
  C  C282  1  0.577300  0.900400  0.107400  1.0  0.1536
  C  C283  1  0.346200  0.719700  0.998710  1.0  0.3685
  C  C284  1  0.372000  0.561600  0.588700  1.0  -0.175
  C  C285  1  0.372000  0.507000  0.497560  1.0  0.3657
  C  C286  1  0.517900  0.887200  0.990600  1.0  -0.1576
  C  C287  1  0.596900  0.316900  0.610800  1.0  0.1704
  C  C288  1  0.256600  0.633500  0.003710  1.0  -0.1433
  C  C289  1  0.424700  0.800700  0.992800  1.0  0.377
  C  C290  1  0.340100  0.552300  0.529680  1.0  -0.0609
  C  C291  1  0.277100  0.586500  0.500600  1.0  -0.1772
  C  C292  1  0.228100  0.592700  0.034400  1.0  0.1702
  C  C293  1  0.248300  0.626600  0.530800  1.0  0.1712
  C  C294  1  0.542700  0.334100  0.494400  1.0  -0.1626
  C  C295  1  0.341700  0.486200  0.348200  1.0  -0.0764
  C  C296  1  0.539100  0.361000  0.584400  1.0  -0.1506
  C  C297  1  0.316300  0.675100  0.033140  1.0  -0.0625
  C  C298  1  0.309800  0.742600  0.848100  1.0  -0.051
  C  C299  1  0.517700  0.857600  0.081350  1.0  -0.1542
  C  C300  1  0.450200  0.422800  0.494350  1.0  0.3873
  C  C301  1  0.220700  0.698700  0.759700  1.0  0.1756
  C  C302  1  0.247300  0.707000  0.818900  1.0  -0.1241
  C  C303  1  0.339000  0.604200  0.615600  1.0  0.1748
  C  C304  1  0.343500  0.768000  0.815900  1.0  -0.1917
  C  C305  1  0.287800  0.538000  0.321700  1.0  -0.164
  C  C306  1  0.313100  0.757300  0.757100  1.0  0.1723
  C  C307  1  0.601100  0.290600  0.525300  1.0  0.1723
  C  C308  1  0.341700  0.752200  0.912100  1.0  0.3739
  C  C309  1  0.258600  0.543400  0.262300  1.0  0.172
  C  C310  1  0.487300  0.850200  0.022030  1.0  0.0273
  C  C311  1  0.344400  0.674600  0.092500  1.0  -0.1559
  C  C312  1  0.510900  0.372000  0.524890  1.0  -0.0494
  C  C313  1  0.366500  0.445000  0.314700  1.0  -0.1856
  C  C314  1  0.577700  0.928600  0.020300  1.0  0.1691
  C  C315  1  0.332500  0.453500  0.255500  1.0  0.185
  C  C316  1  0.313600  0.631200  0.120100  1.0  0.1759
  C  C317  1  0.872200  0.976000  0.412180  1.0  0.364
  C  C318  1  0.077300  0.400400  0.107400  1.0  0.1536
  C  C319  1  0.846200  0.219700  0.998710  1.0  0.3685
  C  C320  1  0.872000  0.061600  0.588700  1.0  -0.175
  C  C321  1  0.872000  0.007000  0.497560  1.0  0.3657
  C  C322  1  0.017900  0.387200  0.990600  1.0  -0.1576
  C  C323  1  0.096900  0.816900  0.610800  1.0  0.1704
  C  C324  1  0.756600  0.133500  0.003710  1.0  -0.1433
  C  C325  1  0.924700  0.300700  0.992800  1.0  0.377
  C  C326  1  0.840100  0.052300  0.529680  1.0  -0.0609
  C  C327  1  0.777100  0.086500  0.500600  1.0  -0.1772
  C  C328  1  0.728100  0.092700  0.034400  1.0  0.1702
  C  C329  1  0.748300  0.126600  0.530800  1.0  0.1712
  C  C330  1  0.042700  0.834100  0.494400  1.0  -0.1626
  C  C331  1  0.841700  0.986200  0.348200  1.0  -0.0764
  C  C332  1  0.039100  0.861000  0.584400  1.0  -0.1506
  C  C333  1  0.816300  0.175100  0.033140  1.0  -0.0625
  C  C334  1  0.809800  0.242600  0.848100  1.0  -0.051
  C  C335  1  0.017700  0.357600  0.081350  1.0  -0.1542
  C  C336  1  0.950200  0.922800  0.494350  1.0  0.3873
  C  C337  1  0.720700  0.198700  0.759700  1.0  0.1756
  C  C338  1  0.747300  0.207000  0.818900  1.0  -0.1241
  C  C339  1  0.839000  0.104200  0.615600  1.0  0.1748
  C  C340  1  0.843500  0.268000  0.815900  1.0  -0.1917
  C  C341  1  0.787800  0.038000  0.321700  1.0  -0.164
  C  C342  1  0.813100  0.257300  0.757100  1.0  0.1723
  C  C343  1  0.101100  0.790600  0.525300  1.0  0.1723
  C  C344  1  0.841700  0.252200  0.912100  1.0  0.3739
  C  C345  1  0.758600  0.043400  0.262300  1.0  0.172
  C  C346  1  0.987300  0.350200  0.022030  1.0  0.0273
  C  C347  1  0.844400  0.174600  0.092500  1.0  -0.1559
  C  C348  1  0.010900  0.872000  0.524890  1.0  -0.0494
  C  C349  1  0.866500  0.945000  0.314700  1.0  -0.1856
  C  C350  1  0.077700  0.428600  0.020300  1.0  0.1691
  C  C351  1  0.832500  0.953500  0.255500  1.0  0.185
  C  C352  1  0.813600  0.131200  0.120100  1.0  0.1759
  C  C353  1  0.372200  0.524000  0.912180  1.0  0.3643
  C  C354  1  0.577300  0.099600  0.607400  1.0  0.1539
  C  C355  1  0.346200  0.280300  0.498710  1.0  0.3685
  C  C356  1  0.372000  0.438400  0.088700  1.0  -0.1742
  C  C357  1  0.372000  0.493000  0.997560  1.0  0.3663
  C  C358  1  0.517900  0.112800  0.490600  1.0  -0.1566
  C  C359  1  0.596900  0.683100  0.110800  1.0  0.1699
  C  C360  1  0.256600  0.366500  0.503710  1.0  -0.1435
  C  C361  1  0.424700  0.199300  0.492800  1.0  0.3773
  C  C362  1  0.340100  0.447700  0.029680  1.0  -0.0608
  C  C363  1  0.277100  0.413500  0.000600  1.0  -0.177
  C  C364  1  0.228100  0.407300  0.534400  1.0  0.1698
  C  C365  1  0.248300  0.373400  0.030800  1.0  0.1719
  C  C366  1  0.542700  0.665900  0.994400  1.0  -0.1631
  C  C367  1  0.341700  0.513800  0.848200  1.0  -0.0763
  C  C368  1  0.539100  0.639000  0.084400  1.0  -0.1506
  C  C369  1  0.316300  0.324900  0.533140  1.0  -0.0626
  C  C370  1  0.309800  0.257400  0.348100  1.0  -0.0506
  C  C371  1  0.517700  0.142400  0.581350  1.0  -0.154
  C  C372  1  0.450200  0.577200  0.994350  1.0  0.3873
  C  C373  1  0.220700  0.301300  0.259700  1.0  0.1757
  C  C374  1  0.247300  0.293000  0.318900  1.0  -0.1239
  C  C375  1  0.339000  0.395800  0.115600  1.0  0.1758
  C  C376  1  0.343500  0.232000  0.315900  1.0  -0.1911
  C  C377  1  0.287800  0.462000  0.821700  1.0  -0.1644
  C  C378  1  0.313100  0.242700  0.257100  1.0  0.1727
  C  C379  1  0.601100  0.709400  0.025300  1.0  0.1717
  C  C380  1  0.341700  0.247800  0.412100  1.0  0.3737
  C  C381  1  0.258600  0.456600  0.762300  1.0  0.1716
  C  C382  1  0.487300  0.149800  0.522030  1.0  0.027
  C  C383  1  0.344400  0.325400  0.592500  1.0  -0.156
  C  C384  1  0.510900  0.628000  0.024890  1.0  -0.0495
  C  C385  1  0.366500  0.555000  0.814700  1.0  -0.1855
  C  C386  1  0.577700  0.071400  0.520300  1.0  0.1694
  C  C387  1  0.332500  0.546500  0.755500  1.0  0.1851
  C  C388  1  0.313600  0.368800  0.620100  1.0  0.1761
  C  C389  1  0.872200  0.024000  0.912180  1.0  0.3643
  C  C390  1  0.077300  0.599600  0.607400  1.0  0.1539
  C  C391  1  0.846200  0.780300  0.498710  1.0  0.3685
  C  C392  1  0.872000  0.938400  0.088700  1.0  -0.1742
  C  C393  1  0.872000  0.993000  0.997560  1.0  0.3663
  C  C394  1  0.017900  0.612800  0.490600  1.0  -0.1566
  C  C395  1  0.096900  0.183100  0.110800  1.0  0.1699
  C  C396  1  0.756600  0.866500  0.503710  1.0  -0.1435
  C  C397  1  0.924700  0.699300  0.492800  1.0  0.3773
  C  C398  1  0.840100  0.947700  0.029680  1.0  -0.0608
  C  C399  1  0.777100  0.913500  0.000600  1.0  -0.177
  C  C400  1  0.728100  0.907300  0.534400  1.0  0.1698
  C  C401  1  0.748300  0.873400  0.030800  1.0  0.1719
  C  C402  1  0.042700  0.165900  0.994400  1.0  -0.1631
  C  C403  1  0.841700  0.013800  0.848200  1.0  -0.0763
  C  C404  1  0.039100  0.139000  0.084400  1.0  -0.1506
  C  C405  1  0.816300  0.824900  0.533140  1.0  -0.0626
  C  C406  1  0.809800  0.757400  0.348100  1.0  -0.0506
  C  C407  1  0.017700  0.642400  0.581350  1.0  -0.154
  C  C408  1  0.950200  0.077200  0.994350  1.0  0.3873
  C  C409  1  0.720700  0.801300  0.259700  1.0  0.1757
  C  C410  1  0.747300  0.793000  0.318900  1.0  -0.1239
  C  C411  1  0.839000  0.895800  0.115600  1.0  0.1758
  C  C412  1  0.843500  0.732000  0.315900  1.0  -0.1911
  C  C413  1  0.787800  0.962000  0.821700  1.0  -0.1644
  C  C414  1  0.813100  0.742700  0.257100  1.0  0.1727
  C  C415  1  0.101100  0.209400  0.025300  1.0  0.1717
  C  C416  1  0.841700  0.747800  0.412100  1.0  0.3737
  C  C417  1  0.758600  0.956600  0.762300  1.0  0.1716
  C  C418  1  0.987300  0.649800  0.522030  1.0  0.027
  C  C419  1  0.844400  0.825400  0.592500  1.0  -0.156
  C  C420  1  0.010900  0.128000  0.024890  1.0  -0.0495
  C  C421  1  0.866500  0.055000  0.814700  1.0  -0.1855
  C  C422  1  0.077700  0.571400  0.520300  1.0  0.1694
  C  C423  1  0.832500  0.046500  0.755500  1.0  0.1851
  C  C424  1  0.813600  0.868800  0.620100  1.0  0.1761
  C  C425  1  0.627800  0.524000  0.587820  1.0  0.3635
  C  C426  1  0.422700  0.099600  0.892600  1.0  0.1544
  C  C427  1  0.653800  0.280300  0.001290  1.0  0.3684
  C  C428  1  0.628000  0.438400  0.411300  1.0  -0.172
  C  C429  1  0.628000  0.493000  0.502440  1.0  0.3652
  C  C430  1  0.482100  0.112800  0.009400  1.0  -0.1561
  C  C431  1  0.403100  0.683100  0.389200  1.0  0.1704
  C  C432  1  0.743400  0.366500  0.996290  1.0  -0.1442
  C  C433  1  0.575300  0.199300  0.007200  1.0  0.3785
  C  C434  1  0.659900  0.447700  0.470320  1.0  -0.0627
  C  C435  1  0.722900  0.413500  0.499400  1.0  -0.1765
  C  C436  1  0.771900  0.407300  0.965600  1.0  0.1701
  C  C437  1  0.751700  0.373400  0.469200  1.0  0.1706
  C  C438  1  0.457300  0.665900  0.505600  1.0  -0.1604
  C  C439  1  0.658300  0.513800  0.651800  1.0  -0.0781
  C  C440  1  0.460900  0.639000  0.415600  1.0  -0.1501
  C  C441  1  0.683700  0.324900  0.966860  1.0  -0.0621
  C  C442  1  0.690200  0.257400  0.151900  1.0  -0.0508
  C  C443  1  0.482300  0.142400  0.918650  1.0  -0.1542
  C  C444  1  0.549800  0.577200  0.505650  1.0  0.3875
  C  C445  1  0.779300  0.301300  0.240300  1.0  0.1764
  C  C446  1  0.752700  0.293000  0.181100  1.0  -0.1264
  C  C447  1  0.661000  0.395800  0.384400  1.0  0.1753
  C  C448  1  0.656500  0.232000  0.184100  1.0  -0.1912
  C  C449  1  0.712200  0.462000  0.678300  1.0  -0.1645
  C  C450  1  0.686900  0.242700  0.242900  1.0  0.1731
  C  C451  1  0.398900  0.709400  0.474700  1.0  0.172
  C  C452  1  0.658300  0.247800  0.087900  1.0  0.3738
  C  C453  1  0.741400  0.456600  0.737700  1.0  0.1717
  C  C454  1  0.512700  0.149800  0.977970  1.0  0.0274
  C  C455  1  0.655600  0.325400  0.907500  1.0  -0.154
  C  C456  1  0.489100  0.628000  0.475110  1.0  -0.049
  C  C457  1  0.633500  0.555000  0.685300  1.0  -0.1841
  C  C458  1  0.422300  0.071400  0.979700  1.0  0.1694
  C  C459  1  0.667500  0.546500  0.744500  1.0  0.1861
  C  C460  1  0.686400  0.368800  0.879900  1.0  0.1759
  C  C461  1  0.127800  0.024000  0.587820  1.0  0.3635
  C  C462  1  0.922700  0.599600  0.892600  1.0  0.1544
  C  C463  1  0.153800  0.780300  0.001290  1.0  0.3684
  C  C464  1  0.128000  0.938400  0.411300  1.0  -0.172
  C  C465  1  0.128000  0.993000  0.502440  1.0  0.3652
  C  C466  1  0.982100  0.612800  0.009400  1.0  -0.1561
  C  C467  1  0.903100  0.183100  0.389200  1.0  0.1704
  C  C468  1  0.243400  0.866500  0.996290  1.0  -0.1442
  C  C469  1  0.075300  0.699300  0.007200  1.0  0.3785
  C  C470  1  0.159900  0.947700  0.470320  1.0  -0.0627
  C  C471  1  0.222900  0.913500  0.499400  1.0  -0.1765
  C  C472  1  0.271900  0.907300  0.965600  1.0  0.1701
  C  C473  1  0.251700  0.873400  0.469200  1.0  0.1706
  C  C474  1  0.957300  0.165900  0.505600  1.0  -0.1604
  C  C475  1  0.158300  0.013800  0.651800  1.0  -0.0781
  C  C476  1  0.960900  0.139000  0.415600  1.0  -0.1501
  C  C477  1  0.183700  0.824900  0.966860  1.0  -0.0621
  C  C478  1  0.190200  0.757400  0.151900  1.0  -0.0508
  C  C479  1  0.982300  0.642400  0.918650  1.0  -0.1542
  C  C480  1  0.049800  0.077200  0.505650  1.0  0.3875
  C  C481  1  0.279300  0.801300  0.240300  1.0  0.1764
  C  C482  1  0.252700  0.793000  0.181100  1.0  -0.1264
  C  C483  1  0.161000  0.895800  0.384400  1.0  0.1753
  C  C484  1  0.156500  0.732000  0.184100  1.0  -0.1912
  C  C485  1  0.212200  0.962000  0.678300  1.0  -0.1645
  C  C486  1  0.186900  0.742700  0.242900  1.0  0.1731
  C  C487  1  0.898900  0.209400  0.474700  1.0  0.172
  C  C488  1  0.158300  0.747800  0.087900  1.0  0.3738
  C  C489  1  0.241400  0.956600  0.737700  1.0  0.1717
  C  C490  1  0.012700  0.649800  0.977970  1.0  0.0274
  C  C491  1  0.155600  0.825400  0.907500  1.0  -0.154
  C  C492  1  0.989100  0.128000  0.475110  1.0  -0.049
  C  C493  1  0.133500  0.055000  0.685300  1.0  -0.1841
  C  C494  1  0.922300  0.571400  0.979700  1.0  0.1694
  C  C495  1  0.167500  0.046500  0.744500  1.0  0.1861
  C  C496  1  0.186400  0.868800  0.879900  1.0  0.1759
  N  N497  1  0.371540  0.281300  0.917670  1.0  -0.3581
  N  N498  1  0.722090  0.635600  0.911840  1.0  -0.3293
  N  N499  1  0.720900  0.500300  0.271430  1.0  -0.3289
  N  N500  1  0.574740  0.461000  0.972880  1.0  -0.5112
  N  N501  1  0.656280  0.518200  0.059680  1.0  -0.5365
  N  N502  1  0.575040  0.427500  0.063150  1.0  -0.5178
  N  N503  1  0.744110  0.590500  0.407490  1.0  -0.3463
  N  N504  1  0.746800  0.723400  0.771590  1.0  -0.358
  N  N505  1  0.392000  0.935500  0.422180  1.0  -0.3327
  N  N506  1  0.597610  0.760400  0.473290  1.0  -0.498
  N  N507  1  0.686820  0.712400  0.558940  1.0  -0.5077
  N  N508  1  0.604150  0.798900  0.564590  1.0  -0.4863
  N  N509  1  0.871540  0.781300  0.917670  1.0  -0.3581
  N  N510  1  0.222090  0.135600  0.911840  1.0  -0.3293
  N  N511  1  0.220900  0.000300  0.271430  1.0  -0.3289
  N  N512  1  0.074740  0.961000  0.972880  1.0  -0.5112
  N  N513  1  0.156280  0.018200  0.059680  1.0  -0.5365
  N  N514  1  0.075040  0.927500  0.063150  1.0  -0.5178
  N  N515  1  0.244110  0.090500  0.407490  1.0  -0.3463
  N  N516  1  0.246800  0.223400  0.771590  1.0  -0.358
  N  N517  1  0.892000  0.435500  0.422180  1.0  -0.3327
  N  N518  1  0.097610  0.260400  0.473290  1.0  -0.498
  N  N519  1  0.186820  0.212400  0.558940  1.0  -0.5077
  N  N520  1  0.104150  0.298900  0.564590  1.0  -0.4863
  N  N521  1  0.628460  0.281300  0.582330  1.0  -0.3568
  N  N522  1  0.277910  0.635600  0.588160  1.0  -0.3285
  N  N523  1  0.279100  0.500300  0.228570  1.0  -0.3301
  N  N524  1  0.425260  0.461000  0.527120  1.0  -0.5126
  N  N525  1  0.343720  0.518200  0.440320  1.0  -0.5353
  N  N526  1  0.424960  0.427500  0.436850  1.0  -0.5154
  N  N527  1  0.255890  0.590500  0.092510  1.0  -0.3447
  N  N528  1  0.253200  0.723400  0.728410  1.0  -0.3569
  N  N529  1  0.608000  0.935500  0.077820  1.0  -0.334
  N  N530  1  0.402390  0.760400  0.026710  1.0  -0.4966
  N  N531  1  0.313180  0.712400  0.941060  1.0  -0.5081
  N  N532  1  0.395850  0.798900  0.935410  1.0  -0.481
  N  N533  1  0.128460  0.781300  0.582330  1.0  -0.3568
  N  N534  1  0.777910  0.135600  0.588160  1.0  -0.3285
  N  N535  1  0.779100  0.000300  0.228570  1.0  -0.3301
  N  N536  1  0.925260  0.961000  0.527120  1.0  -0.5126
  N  N537  1  0.843720  0.018200  0.440320  1.0  -0.5353
  N  N538  1  0.924960  0.927500  0.436850  1.0  -0.5154
  N  N539  1  0.755890  0.090500  0.092510  1.0  -0.3447
  N  N540  1  0.753200  0.223400  0.728410  1.0  -0.3569
  N  N541  1  0.108000  0.435500  0.077820  1.0  -0.334
  N  N542  1  0.902390  0.260400  0.026710  1.0  -0.4966
  N  N543  1  0.813180  0.212400  0.941060  1.0  -0.5081
  N  N544  1  0.895850  0.298900  0.935410  1.0  -0.481
  N  N545  1  0.628460  0.718700  0.082330  1.0  -0.3586
  N  N546  1  0.277910  0.364400  0.088160  1.0  -0.3317
  N  N547  1  0.279100  0.499700  0.728570  1.0  -0.3303
  N  N548  1  0.425260  0.539000  0.027120  1.0  -0.5124
  N  N549  1  0.343720  0.481800  0.940320  1.0  -0.5357
  N  N550  1  0.424960  0.572500  0.936850  1.0  -0.5139
  N  N551  1  0.255890  0.409500  0.592510  1.0  -0.3465
  N  N552  1  0.253200  0.276600  0.228410  1.0  -0.3561
  N  N553  1  0.608000  0.064500  0.577820  1.0  -0.3348
  N  N554  1  0.402390  0.239600  0.526710  1.0  -0.4957
  N  N555  1  0.313180  0.287600  0.441060  1.0  -0.5074
  N  N556  1  0.395850  0.201100  0.435410  1.0  -0.4817
  N  N557  1  0.128460  0.218700  0.082330  1.0  -0.3586
  N  N558  1  0.777910  0.864400  0.088160  1.0  -0.3317
  N  N559  1  0.779100  0.999700  0.728570  1.0  -0.3303
  N  N560  1  0.925260  0.039000  0.027120  1.0  -0.5124
  N  N561  1  0.843720  0.981800  0.940320  1.0  -0.5357
  N  N562  1  0.924960  0.072500  0.936850  1.0  -0.5139
  N  N563  1  0.755890  0.909500  0.592510  1.0  -0.3465
  N  N564  1  0.753200  0.776600  0.228410  1.0  -0.3561
  N  N565  1  0.108000  0.564500  0.577820  1.0  -0.3348
  N  N566  1  0.902390  0.739600  0.526710  1.0  -0.4957
  N  N567  1  0.813180  0.787600  0.441060  1.0  -0.5074
  N  N568  1  0.895850  0.701100  0.435410  1.0  -0.4817
  N  N569  1  0.371540  0.718700  0.417670  1.0  -0.3581
  N  N570  1  0.722090  0.364400  0.411840  1.0  -0.3321
  N  N571  1  0.720900  0.499700  0.771430  1.0  -0.3284
  N  N572  1  0.574740  0.539000  0.472880  1.0  -0.511
  N  N573  1  0.656280  0.481800  0.559680  1.0  -0.5365
  N  N574  1  0.575040  0.572500  0.563150  1.0  -0.5179
  N  N575  1  0.744110  0.409500  0.907490  1.0  -0.3457
  N  N576  1  0.746800  0.276600  0.271590  1.0  -0.3585
  N  N577  1  0.392000  0.064500  0.922180  1.0  -0.3377
  N  N578  1  0.597610  0.239600  0.973290  1.0  -0.4984
  N  N579  1  0.686820  0.287600  0.058940  1.0  -0.5087
  N  N580  1  0.604150  0.201100  0.064590  1.0  -0.4854
  N  N581  1  0.871540  0.218700  0.417670  1.0  -0.3581
  N  N582  1  0.222090  0.864400  0.411840  1.0  -0.3321
  N  N583  1  0.220900  0.999700  0.771430  1.0  -0.3284
  N  N584  1  0.074740  0.039000  0.472880  1.0  -0.511
  N  N585  1  0.156280  0.981800  0.559680  1.0  -0.5365
  N  N586  1  0.075040  0.072500  0.563150  1.0  -0.5179
  N  N587  1  0.244110  0.909500  0.907490  1.0  -0.3457
  N  N588  1  0.246800  0.776600  0.271590  1.0  -0.3585
  N  N589  1  0.892000  0.564500  0.922180  1.0  -0.3377
  N  N590  1  0.097610  0.739600  0.973290  1.0  -0.4984
  N  N591  1  0.186820  0.787600  0.058940  1.0  -0.5087
  N  N592  1  0.104150  0.701100  0.064590  1.0  -0.4854
