# generated using pymatgen
data_AgH12(C3N)6
_symmetry_space_group_name_H-M   'P 1'
_cell_length_a   21.93620000
_cell_length_b   16.73290000
_cell_length_c   25.57150000
_cell_angle_alpha   90.00000000
_cell_angle_beta   115.32400000
_cell_angle_gamma   90.00000000
_symmetry_Int_Tables_number   1
_chemical_formula_structural   AgH12(C3N)6
_chemical_formula_sum   'Ag16 H192 C288 N96'
_cell_volume   8484.19936420
_cell_formula_units_Z   16
loop_
 _symmetry_equiv_pos_site_id
 _symmetry_equiv_pos_as_xyz
  1  'x, y, z'
loop_
 _atom_site_type_symbol
 _atom_site_label
 _atom_site_symmetry_multiplicity
 _atom_site_fract_x
 _atom_site_fract_y
 _atom_site_fract_z
 _atom_site_occupancy
 _atom_site_charge
  Ag  Ag1  1  0.344280  0.958360  0.367670  1.0  0.3281
  Ag  Ag2  1  0.321660  0.254050  0.867190  1.0  0.283
  Ag  Ag3  1  0.844280  0.458360  0.367670  1.0  0.3281
  Ag  Ag4  1  0.821660  0.754050  0.867190  1.0  0.283
  Ag  Ag5  1  0.655720  0.958360  0.132330  1.0  0.3278
  Ag  Ag6  1  0.678340  0.254050  0.632810  1.0  0.2827
  Ag  Ag7  1  0.155720  0.458360  0.132330  1.0  0.3278
  Ag  Ag8  1  0.178340  0.754050  0.632810  1.0  0.2827
  Ag  Ag9  1  0.655720  0.041640  0.632330  1.0  0.3274
  Ag  Ag10  1  0.678340  0.745950  0.132810  1.0  0.2823
  Ag  Ag11  1  0.155720  0.541640  0.632330  1.0  0.3274
  Ag  Ag12  1  0.178340  0.245950  0.132810  1.0  0.2823
  Ag  Ag13  1  0.344280  0.041640  0.867670  1.0  0.3281
  Ag  Ag14  1  0.321660  0.745950  0.367190  1.0  0.2826
  Ag  Ag15  1  0.844280  0.541640  0.867670  1.0  0.3281
  Ag  Ag16  1  0.821660  0.245950  0.367190  1.0  0.2826
  H  H17  1  0.054100  0.289700  0.388600  1.0  0.1228
  H  H18  1  0.700600  0.654000  0.851500  1.0  0.0876
  H  H19  1  0.522200  0.383700  0.035500  1.0  0.1258
  H  H20  1  0.319900  0.087500  0.545100  1.0  0.1206
  H  H21  1  0.423600  0.316300  0.984500  1.0  0.077
  H  H22  1  0.797500  0.634800  0.048900  1.0  0.1236
  H  H23  1  0.214500  0.059100  0.348900  1.0  0.0679
  H  H24  1  0.042300  0.329500  0.538100  1.0  0.1233
  H  H25  1  0.945300  0.397000  0.488400  1.0  0.0718
  H  H26  1  0.634200  0.439200  0.159600  1.0  0.1188
  H  H27  1  0.367500  0.017700  0.494800  1.0  0.0675
  H  H28  1  0.645000  0.585400  0.895200  1.0  0.1117
  H  H29  1  0.955400  0.359200  0.343500  1.0  0.0793
  H  H30  1  0.162600  0.134400  0.392500  1.0  0.1238
  H  H31  1  0.519700  0.453900  0.885400  1.0  0.1227
  H  H32  1  0.849200  0.523800  0.262900  1.0  0.0732
  H  H33  1  0.848100  0.703200  0.999100  1.0  0.073
  H  H34  1  0.687800  0.424400  0.258300  1.0  0.0697
  H  H35  1  0.801600  0.541100  0.164700  1.0  0.1216
  H  H36  1  0.424000  0.380100  0.838700  1.0  0.0766
  H  H37  1  0.176400  0.316100  0.654800  1.0  0.1212
  H  H38  1  0.322900  0.164300  0.667900  1.0  0.1265
  H  H39  1  0.365900  0.177900  0.765600  1.0  0.0759
  H  H40  1  0.227100  0.329100  0.753600  1.0  0.0772
  H  H41  1  0.554100  0.789700  0.388600  1.0  0.1228
  H  H42  1  0.200600  0.154000  0.851500  1.0  0.0876
  H  H43  1  0.022200  0.883700  0.035500  1.0  0.1258
  H  H44  1  0.819900  0.587500  0.545100  1.0  0.1206
  H  H45  1  0.923600  0.816300  0.984500  1.0  0.077
  H  H46  1  0.297500  0.134800  0.048900  1.0  0.1236
  H  H47  1  0.714500  0.559100  0.348900  1.0  0.0679
  H  H48  1  0.542300  0.829500  0.538100  1.0  0.1233
  H  H49  1  0.445300  0.897000  0.488400  1.0  0.0718
  H  H50  1  0.134200  0.939200  0.159600  1.0  0.1188
  H  H51  1  0.867500  0.517700  0.494800  1.0  0.0675
  H  H52  1  0.145000  0.085400  0.895200  1.0  0.1117
  H  H53  1  0.455400  0.859200  0.343500  1.0  0.0793
  H  H54  1  0.662600  0.634400  0.392500  1.0  0.1238
  H  H55  1  0.019700  0.953900  0.885400  1.0  0.1227
  H  H56  1  0.349200  0.023800  0.262900  1.0  0.0732
  H  H57  1  0.348100  0.203200  0.999100  1.0  0.073
  H  H58  1  0.187800  0.924400  0.258300  1.0  0.0697
  H  H59  1  0.301600  0.041100  0.164700  1.0  0.1216
  H  H60  1  0.924000  0.880100  0.838700  1.0  0.0766
  H  H61  1  0.676400  0.816100  0.654800  1.0  0.1212
  H  H62  1  0.822900  0.664300  0.667900  1.0  0.1265
  H  H63  1  0.865900  0.677900  0.765600  1.0  0.0759
  H  H64  1  0.727100  0.829100  0.753600  1.0  0.0772
  H  H65  1  0.945900  0.289700  0.111400  1.0  0.122
  H  H66  1  0.299400  0.654000  0.648500  1.0  0.087
  H  H67  1  0.477800  0.383700  0.464500  1.0  0.1261
  H  H68  1  0.680100  0.087500  0.954900  1.0  0.1211
  H  H69  1  0.576400  0.316300  0.515500  1.0  0.0775
  H  H70  1  0.202500  0.634800  0.451100  1.0  0.1234
  H  H71  1  0.785500  0.059100  0.151100  1.0  0.0666
  H  H72  1  0.957700  0.329500  0.961900  1.0  0.1236
  H  H73  1  0.054700  0.397000  0.011600  1.0  0.0715
  H  H74  1  0.365800  0.439200  0.340400  1.0  0.1184
  H  H75  1  0.632500  0.017700  0.005200  1.0  0.067
  H  H76  1  0.355000  0.585400  0.604800  1.0  0.1117
  H  H77  1  0.044600  0.359200  0.156500  1.0  0.0797
  H  H78  1  0.837400  0.134400  0.107500  1.0  0.1239
  H  H79  1  0.480300  0.453900  0.614600  1.0  0.1222
  H  H80  1  0.150800  0.523800  0.237100  1.0  0.0719
  H  H81  1  0.151900  0.703200  0.500900  1.0  0.0725
  H  H82  1  0.312200  0.424400  0.241700  1.0  0.0702
  H  H83  1  0.198400  0.541100  0.335300  1.0  0.1218
  H  H84  1  0.576000  0.380100  0.661300  1.0  0.0765
  H  H85  1  0.823600  0.316100  0.845200  1.0  0.1213
  H  H86  1  0.677100  0.164300  0.832100  1.0  0.1266
  H  H87  1  0.634100  0.177900  0.734400  1.0  0.0755
  H  H88  1  0.772900  0.329100  0.746400  1.0  0.0763
  H  H89  1  0.445900  0.789700  0.111400  1.0  0.122
  H  H90  1  0.799400  0.154000  0.648500  1.0  0.087
  H  H91  1  0.977800  0.883700  0.464500  1.0  0.1261
  H  H92  1  0.180100  0.587500  0.954900  1.0  0.1211
  H  H93  1  0.076400  0.816300  0.515500  1.0  0.0775
  H  H94  1  0.702500  0.134800  0.451100  1.0  0.1234
  H  H95  1  0.285500  0.559100  0.151100  1.0  0.0666
  H  H96  1  0.457700  0.829500  0.961900  1.0  0.1236
  H  H97  1  0.554700  0.897000  0.011600  1.0  0.0715
  H  H98  1  0.865800  0.939200  0.340400  1.0  0.1184
  H  H99  1  0.132500  0.517700  0.005200  1.0  0.067
  H  H100  1  0.855000  0.085400  0.604800  1.0  0.1117
  H  H101  1  0.544600  0.859200  0.156500  1.0  0.0797
  H  H102  1  0.337400  0.634400  0.107500  1.0  0.1239
  H  H103  1  0.980300  0.953900  0.614600  1.0  0.1222
  H  H104  1  0.650800  0.023800  0.237100  1.0  0.0719
  H  H105  1  0.651900  0.203200  0.500900  1.0  0.0725
  H  H106  1  0.812200  0.924400  0.241700  1.0  0.0702
  H  H107  1  0.698400  0.041100  0.335300  1.0  0.1218
  H  H108  1  0.076000  0.880100  0.661300  1.0  0.0765
  H  H109  1  0.323600  0.816100  0.845200  1.0  0.1213
  H  H110  1  0.177100  0.664300  0.832100  1.0  0.1266
  H  H111  1  0.134100  0.677900  0.734400  1.0  0.0755
  H  H112  1  0.272900  0.829100  0.746400  1.0  0.0763
  H  H113  1  0.945900  0.710300  0.611400  1.0  0.1218
  H  H114  1  0.299400  0.346000  0.148500  1.0  0.0868
  H  H115  1  0.477800  0.616300  0.964500  1.0  0.1261
  H  H116  1  0.680100  0.912500  0.454900  1.0  0.1213
  H  H117  1  0.576400  0.683700  0.015500  1.0  0.0777
  H  H118  1  0.202500  0.365200  0.951100  1.0  0.1234
  H  H119  1  0.785500  0.940900  0.651100  1.0  0.0664
  H  H120  1  0.957700  0.670500  0.461900  1.0  0.1234
  H  H121  1  0.054700  0.603000  0.511600  1.0  0.0717
  H  H122  1  0.365800  0.560800  0.840400  1.0  0.119
  H  H123  1  0.632500  0.982300  0.505200  1.0  0.067
  H  H124  1  0.355000  0.414600  0.104800  1.0  0.1119
  H  H125  1  0.044600  0.640800  0.656500  1.0  0.0795
  H  H126  1  0.837400  0.865600  0.607500  1.0  0.124
  H  H127  1  0.480300  0.546100  0.114600  1.0  0.1224
  H  H128  1  0.150800  0.476200  0.737100  1.0  0.0726
  H  H129  1  0.151900  0.296800  0.000900  1.0  0.0725
  H  H130  1  0.312200  0.575600  0.741700  1.0  0.0699
  H  H131  1  0.198400  0.458900  0.835300  1.0  0.1219
  H  H132  1  0.576000  0.619900  0.161300  1.0  0.0764
  H  H133  1  0.823600  0.683900  0.345200  1.0  0.121
  H  H134  1  0.677100  0.835700  0.332100  1.0  0.1266
  H  H135  1  0.634100  0.822100  0.234400  1.0  0.0757
  H  H136  1  0.772900  0.670900  0.246400  1.0  0.0766
  H  H137  1  0.445900  0.210300  0.611400  1.0  0.1218
  H  H138  1  0.799400  0.846000  0.148500  1.0  0.0868
  H  H139  1  0.977800  0.116300  0.964500  1.0  0.1261
  H  H140  1  0.180100  0.412500  0.454900  1.0  0.1213
  H  H141  1  0.076400  0.183700  0.015500  1.0  0.0777
  H  H142  1  0.702500  0.865200  0.951100  1.0  0.1234
  H  H143  1  0.285500  0.440900  0.651100  1.0  0.0664
  H  H144  1  0.457700  0.170500  0.461900  1.0  0.1234
  H  H145  1  0.554700  0.103000  0.511600  1.0  0.0717
  H  H146  1  0.865800  0.060800  0.840400  1.0  0.119
  H  H147  1  0.132500  0.482300  0.505200  1.0  0.067
  H  H148  1  0.855000  0.914600  0.104800  1.0  0.1119
  H  H149  1  0.544600  0.140800  0.656500  1.0  0.0795
  H  H150  1  0.337400  0.365600  0.607500  1.0  0.124
  H  H151  1  0.980300  0.046100  0.114600  1.0  0.1224
  H  H152  1  0.650800  0.976200  0.737100  1.0  0.0726
  H  H153  1  0.651900  0.796800  0.000900  1.0  0.0725
  H  H154  1  0.812200  0.075600  0.741700  1.0  0.0699
  H  H155  1  0.698400  0.958900  0.835300  1.0  0.1219
  H  H156  1  0.076000  0.119900  0.161300  1.0  0.0764
  H  H157  1  0.323600  0.183900  0.345200  1.0  0.121
  H  H158  1  0.177100  0.335700  0.332100  1.0  0.1266
  H  H159  1  0.134100  0.322100  0.234400  1.0  0.0757
  H  H160  1  0.272900  0.170900  0.246400  1.0  0.0766
  H  H161  1  0.054100  0.710300  0.888600  1.0  0.1224
  H  H162  1  0.700600  0.346000  0.351500  1.0  0.0876
  H  H163  1  0.522200  0.616300  0.535500  1.0  0.1254
  H  H164  1  0.319900  0.912500  0.045100  1.0  0.1204
  H  H165  1  0.423600  0.683700  0.484500  1.0  0.077
  H  H166  1  0.797500  0.365200  0.548900  1.0  0.1238
  H  H167  1  0.214500  0.940900  0.848900  1.0  0.0678
  H  H168  1  0.042300  0.670500  0.038100  1.0  0.1232
  H  H169  1  0.945300  0.603000  0.988400  1.0  0.0722
  H  H170  1  0.634200  0.560800  0.659600  1.0  0.1189
  H  H171  1  0.367500  0.982300  0.994800  1.0  0.0675
  H  H172  1  0.645000  0.414600  0.395200  1.0  0.1115
  H  H173  1  0.955400  0.640800  0.843500  1.0  0.0791
  H  H174  1  0.162600  0.865600  0.892500  1.0  0.1238
  H  H175  1  0.519700  0.546100  0.385400  1.0  0.1223
  H  H176  1  0.849200  0.476200  0.762900  1.0  0.0733
  H  H177  1  0.848100  0.296800  0.499100  1.0  0.0729
  H  H178  1  0.687800  0.575600  0.758300  1.0  0.0694
  H  H179  1  0.801600  0.458900  0.664700  1.0  0.1216
  H  H180  1  0.424000  0.619900  0.338700  1.0  0.0765
  H  H181  1  0.176400  0.683900  0.154800  1.0  0.1212
  H  H182  1  0.322900  0.835700  0.167900  1.0  0.1266
  H  H183  1  0.365900  0.822100  0.265600  1.0  0.0762
  H  H184  1  0.227100  0.670900  0.253600  1.0  0.0777
  H  H185  1  0.554100  0.210300  0.888600  1.0  0.1224
  H  H186  1  0.200600  0.846000  0.351500  1.0  0.0876
  H  H187  1  0.022200  0.116300  0.535500  1.0  0.1254
  H  H188  1  0.819900  0.412500  0.045100  1.0  0.1204
  H  H189  1  0.923600  0.183700  0.484500  1.0  0.077
  H  H190  1  0.297500  0.865200  0.548900  1.0  0.1238
  H  H191  1  0.714500  0.440900  0.848900  1.0  0.0678
  H  H192  1  0.542300  0.170500  0.038100  1.0  0.1232
  H  H193  1  0.445300  0.103000  0.988400  1.0  0.0722
  H  H194  1  0.134200  0.060800  0.659600  1.0  0.1189
  H  H195  1  0.867500  0.482300  0.994800  1.0  0.0675
  H  H196  1  0.145000  0.914600  0.395200  1.0  0.1115
  H  H197  1  0.455400  0.140800  0.843500  1.0  0.0791
  H  H198  1  0.662600  0.365600  0.892500  1.0  0.1238
  H  H199  1  0.019700  0.046100  0.385400  1.0  0.1223
  H  H200  1  0.349200  0.976200  0.762900  1.0  0.0733
  H  H201  1  0.348100  0.796800  0.499100  1.0  0.0729
  H  H202  1  0.187800  0.075600  0.758300  1.0  0.0695
  H  H203  1  0.301600  0.958900  0.664700  1.0  0.1216
  H  H204  1  0.924000  0.119900  0.338700  1.0  0.0765
  H  H205  1  0.676400  0.183900  0.154800  1.0  0.1212
  H  H206  1  0.822900  0.335700  0.167900  1.0  0.1266
  H  H207  1  0.865900  0.322100  0.265600  1.0  0.0762
  H  H208  1  0.727100  0.170900  0.253600  1.0  0.0777
  C  C209  1  0.597400  0.470500  0.000000  1.0  0.355
  C  C210  1  0.123500  0.256300  0.501000  1.0  0.3617
  C  C211  1  0.032900  0.310900  0.410100  1.0  -0.1856
  C  C212  1  0.720100  0.650300  0.891700  1.0  0.1622
  C  C213  1  0.060200  0.301400  0.468700  1.0  -0.0243
  C  C214  1  0.502700  0.384400  0.995300  1.0  -0.1636
  C  C215  1  0.532700  0.426100  0.965900  1.0  0.0194
  C  C216  1  0.297800  0.083900  0.505000  1.0  -0.1633
  C  C217  1  0.443500  0.343800  0.964200  1.0  0.1675
  C  C218  1  0.681300  0.551500  0.005800  1.0  0.3747
  C  C219  1  0.209700  0.225300  0.586600  1.0  0.3571
  C  C220  1  0.776700  0.637600  0.008800  1.0  -0.1707
  C  C221  1  0.236100  0.065800  0.388800  1.0  0.1759
  C  C222  1  0.711300  0.492900  0.151100  1.0  -0.0901
  C  C223  1  0.242600  0.235900  0.650200  1.0  -0.0702
  C  C224  1  0.025600  0.334700  0.498200  1.0  -0.1841
  C  C225  1  0.967200  0.374500  0.467900  1.0  0.1758
  C  C226  1  0.679200  0.501700  0.086800  1.0  0.354
  C  C227  1  0.714400  0.600600  0.976700  1.0  0.0023
  C  C228  1  0.205400  0.172500  0.504500  1.0  0.3941
  C  C229  1  0.678200  0.457200  0.179800  1.0  -0.1288
  C  C230  1  0.235600  0.121900  0.474100  1.0  -0.0594
  C  C231  1  0.325400  0.041000  0.474300  1.0  0.1711
  C  C232  1  0.686600  0.608400  0.917700  1.0  -0.1522
  C  C233  1  0.973200  0.352400  0.383400  1.0  0.1701
  C  C234  1  0.204400  0.111200  0.414500  1.0  -0.1703
  C  C235  1  0.501600  0.425400  0.906600  1.0  -0.158
  C  C236  1  0.805200  0.506200  0.241700  1.0  0.1722
  C  C237  1  0.806500  0.679000  0.978100  1.0  0.1749
  C  C238  1  0.710900  0.448200  0.239200  1.0  0.1694
  C  C239  1  0.777100  0.517600  0.182600  1.0  -0.1928
  C  C240  1  0.443500  0.381900  0.878900  1.0  0.1725
  C  C241  1  0.215000  0.286800  0.676700  1.0  -0.1711
  C  C242  1  0.301100  0.196500  0.684300  1.0  -0.1847
  C  C243  1  0.326700  0.205700  0.743100  1.0  0.1826
  C  C244  1  0.245300  0.293500  0.736100  1.0  0.1691
  C  C245  1  0.097400  0.970500  0.000000  1.0  0.355
  C  C246  1  0.623500  0.756300  0.501000  1.0  0.3617
  C  C247  1  0.532900  0.810900  0.410100  1.0  -0.1856
  C  C248  1  0.220100  0.150300  0.891700  1.0  0.1622
  C  C249  1  0.560200  0.801400  0.468700  1.0  -0.0243
  C  C250  1  0.002700  0.884400  0.995300  1.0  -0.1636
  C  C251  1  0.032700  0.926100  0.965900  1.0  0.0194
  C  C252  1  0.797800  0.583900  0.505000  1.0  -0.1633
  C  C253  1  0.943500  0.843800  0.964200  1.0  0.1675
  C  C254  1  0.181300  0.051500  0.005800  1.0  0.3747
  C  C255  1  0.709700  0.725300  0.586600  1.0  0.3571
  C  C256  1  0.276700  0.137600  0.008800  1.0  -0.1707
  C  C257  1  0.736100  0.565800  0.388800  1.0  0.1759
  C  C258  1  0.211300  0.992900  0.151100  1.0  -0.0901
  C  C259  1  0.742600  0.735900  0.650200  1.0  -0.0702
  C  C260  1  0.525600  0.834700  0.498200  1.0  -0.1841
  C  C261  1  0.467200  0.874500  0.467900  1.0  0.1758
  C  C262  1  0.179200  0.001700  0.086800  1.0  0.354
  C  C263  1  0.214400  0.100600  0.976700  1.0  0.0023
  C  C264  1  0.705400  0.672500  0.504500  1.0  0.3941
  C  C265  1  0.178200  0.957200  0.179800  1.0  -0.1288
  C  C266  1  0.735600  0.621900  0.474100  1.0  -0.0594
  C  C267  1  0.825400  0.541000  0.474300  1.0  0.1711
  C  C268  1  0.186600  0.108400  0.917700  1.0  -0.1522
  C  C269  1  0.473200  0.852400  0.383400  1.0  0.1701
  C  C270  1  0.704400  0.611200  0.414500  1.0  -0.1703
  C  C271  1  0.001600  0.925400  0.906600  1.0  -0.158
  C  C272  1  0.305200  0.006200  0.241700  1.0  0.1722
  C  C273  1  0.306500  0.179000  0.978100  1.0  0.1749
  C  C274  1  0.210900  0.948200  0.239200  1.0  0.1694
  C  C275  1  0.277100  0.017600  0.182600  1.0  -0.1928
  C  C276  1  0.943500  0.881900  0.878900  1.0  0.1725
  C  C277  1  0.715000  0.786800  0.676700  1.0  -0.1711
  C  C278  1  0.801100  0.696500  0.684300  1.0  -0.1847
  C  C279  1  0.826700  0.705700  0.743100  1.0  0.1826
  C  C280  1  0.745300  0.793500  0.736100  1.0  0.1691
  C  C281  1  0.402600  0.470500  0.500000  1.0  0.3552
  C  C282  1  0.876500  0.256300  0.999000  1.0  0.3617
  C  C283  1  0.967100  0.310900  0.089900  1.0  -0.1872
  C  C284  1  0.279900  0.650300  0.608300  1.0  0.1611
  C  C285  1  0.939800  0.301400  0.031300  1.0  -0.025
  C  C286  1  0.497300  0.384400  0.504700  1.0  -0.1645
  C  C287  1  0.467300  0.426100  0.534100  1.0  0.0185
  C  C288  1  0.702200  0.083900  0.995000  1.0  -0.1613
  C  C289  1  0.556500  0.343800  0.535800  1.0  0.1674
  C  C290  1  0.318700  0.551500  0.494200  1.0  0.3752
  C  C291  1  0.790300  0.225300  0.913400  1.0  0.3572
  C  C292  1  0.223300  0.637600  0.491200  1.0  -0.1686
  C  C293  1  0.763900  0.065800  0.111200  1.0  0.1744
  C  C294  1  0.288700  0.492900  0.348900  1.0  -0.0903
  C  C295  1  0.757400  0.235900  0.849800  1.0  -0.0699
  C  C296  1  0.974400  0.334700  0.001800  1.0  -0.1855
  C  C297  1  0.032800  0.374500  0.032100  1.0  0.1768
  C  C298  1  0.320800  0.501700  0.413200  1.0  0.3542
  C  C299  1  0.285600  0.600600  0.523300  1.0  0.0034
  C  C300  1  0.794600  0.172500  0.995500  1.0  0.3941
  C  C301  1  0.321800  0.457200  0.320200  1.0  -0.1317
  C  C302  1  0.764400  0.121900  0.025900  1.0  -0.0579
  C  C303  1  0.674600  0.041000  0.025700  1.0  0.1716
  C  C304  1  0.313400  0.608400  0.582300  1.0  -0.1541
  C  C305  1  0.026800  0.352400  0.116600  1.0  0.1701
  C  C306  1  0.795600  0.111200  0.085500  1.0  -0.1713
  C  C307  1  0.498400  0.425400  0.593400  1.0  -0.1581
  C  C308  1  0.194800  0.506200  0.258300  1.0  0.1725
  C  C309  1  0.193500  0.679000  0.521900  1.0  0.1747
  C  C310  1  0.289100  0.448200  0.260800  1.0  0.1716
  C  C311  1  0.222900  0.517600  0.317400  1.0  -0.191
  C  C312  1  0.556500  0.381900  0.621100  1.0  0.172
  C  C313  1  0.785000  0.286800  0.823300  1.0  -0.1715
  C  C314  1  0.698900  0.196500  0.815700  1.0  -0.1821
  C  C315  1  0.673300  0.205700  0.756900  1.0  0.1824
  C  C316  1  0.754700  0.293500  0.763900  1.0  0.1682
  C  C317  1  0.902600  0.970500  0.500000  1.0  0.3552
  C  C318  1  0.376500  0.756300  0.999000  1.0  0.3617
  C  C319  1  0.467100  0.810900  0.089900  1.0  -0.1872
  C  C320  1  0.779900  0.150300  0.608300  1.0  0.1611
  C  C321  1  0.439800  0.801400  0.031300  1.0  -0.025
  C  C322  1  0.997300  0.884400  0.504700  1.0  -0.1645
  C  C323  1  0.967300  0.926100  0.534100  1.0  0.0185
  C  C324  1  0.202200  0.583900  0.995000  1.0  -0.1613
  C  C325  1  0.056500  0.843800  0.535800  1.0  0.1674
  C  C326  1  0.818700  0.051500  0.494200  1.0  0.3752
  C  C327  1  0.290300  0.725300  0.913400  1.0  0.3572
  C  C328  1  0.723300  0.137600  0.491200  1.0  -0.1686
  C  C329  1  0.263900  0.565800  0.111200  1.0  0.1744
  C  C330  1  0.788700  0.992900  0.348900  1.0  -0.0903
  C  C331  1  0.257400  0.735900  0.849800  1.0  -0.0699
  C  C332  1  0.474400  0.834700  0.001800  1.0  -0.1855
  C  C333  1  0.532800  0.874500  0.032100  1.0  0.1768
  C  C334  1  0.820800  0.001700  0.413200  1.0  0.3542
  C  C335  1  0.785600  0.100600  0.523300  1.0  0.0034
  C  C336  1  0.294600  0.672500  0.995500  1.0  0.3941
  C  C337  1  0.821800  0.957200  0.320200  1.0  -0.1317
  C  C338  1  0.264400  0.621900  0.025900  1.0  -0.0579
  C  C339  1  0.174600  0.541000  0.025700  1.0  0.1716
  C  C340  1  0.813400  0.108400  0.582300  1.0  -0.1541
  C  C341  1  0.526800  0.852400  0.116600  1.0  0.1701
  C  C342  1  0.295600  0.611200  0.085500  1.0  -0.1713
  C  C343  1  0.998400  0.925400  0.593400  1.0  -0.1581
  C  C344  1  0.694800  0.006200  0.258300  1.0  0.1725
  C  C345  1  0.693500  0.179000  0.521900  1.0  0.1747
  C  C346  1  0.789100  0.948200  0.260800  1.0  0.1716
  C  C347  1  0.722900  0.017600  0.317400  1.0  -0.191
  C  C348  1  0.056500  0.881900  0.621100  1.0  0.172
  C  C349  1  0.285000  0.786800  0.823300  1.0  -0.1715
  C  C350  1  0.198900  0.696500  0.815700  1.0  -0.1821
  C  C351  1  0.173300  0.705700  0.756900  1.0  0.1824
  C  C352  1  0.254700  0.793500  0.763900  1.0  0.1682
  C  C353  1  0.402600  0.529500  0.000000  1.0  0.3553
  C  C354  1  0.876500  0.743700  0.499000  1.0  0.3617
  C  C355  1  0.967100  0.689100  0.589900  1.0  -0.1867
  C  C356  1  0.279900  0.349700  0.108300  1.0  0.1618
  C  C357  1  0.939800  0.698600  0.531300  1.0  -0.0258
  C  C358  1  0.497300  0.615600  0.004700  1.0  -0.1649
  C  C359  1  0.467300  0.573900  0.034100  1.0  0.0179
  C  C360  1  0.702200  0.916100  0.495000  1.0  -0.1616
  C  C361  1  0.556500  0.656200  0.035800  1.0  0.1672
  C  C362  1  0.318700  0.448500  0.994200  1.0  0.3754
  C  C363  1  0.790300  0.774700  0.413400  1.0  0.3573
  C  C364  1  0.223300  0.362400  0.991200  1.0  -0.1683
  C  C365  1  0.763900  0.934200  0.611200  1.0  0.174
  C  C366  1  0.288700  0.507100  0.848900  1.0  -0.0899
  C  C367  1  0.757400  0.764100  0.349800  1.0  -0.0698
  C  C368  1  0.974400  0.665300  0.501800  1.0  -0.1848
  C  C369  1  0.032800  0.625500  0.532100  1.0  0.1763
  C  C370  1  0.320800  0.498300  0.913200  1.0  0.3546
  C  C371  1  0.285600  0.399400  0.023300  1.0  0.0033
  C  C372  1  0.794600  0.827500  0.495500  1.0  0.394
  C  C373  1  0.321800  0.542800  0.820200  1.0  -0.132
  C  C374  1  0.764400  0.878100  0.525900  1.0  -0.0584
  C  C375  1  0.674600  0.959000  0.525700  1.0  0.1709
  C  C376  1  0.313400  0.391600  0.082300  1.0  -0.1537
  C  C377  1  0.026800  0.647600  0.616600  1.0  0.1705
  C  C378  1  0.795600  0.888800  0.585500  1.0  -0.1717
  C  C379  1  0.498400  0.574600  0.093400  1.0  -0.1583
  C  C380  1  0.194800  0.493800  0.758300  1.0  0.1727
  C  C381  1  0.193500  0.321000  0.021900  1.0  0.1753
  C  C382  1  0.289100  0.551800  0.760800  1.0  0.1719
  C  C383  1  0.222900  0.482400  0.817400  1.0  -0.1903
  C  C384  1  0.556500  0.618100  0.121100  1.0  0.1722
  C  C385  1  0.785000  0.713200  0.323300  1.0  -0.1709
  C  C386  1  0.698900  0.803500  0.315700  1.0  -0.1817
  C  C387  1  0.673300  0.794300  0.256900  1.0  0.1827
  C  C388  1  0.754700  0.706500  0.263900  1.0  0.1681
  C  C389  1  0.902600  0.029500  0.000000  1.0  0.3553
  C  C390  1  0.376500  0.243700  0.499000  1.0  0.3617
  C  C391  1  0.467100  0.189100  0.589900  1.0  -0.1867
  C  C392  1  0.779900  0.849700  0.108300  1.0  0.1618
  C  C393  1  0.439800  0.198600  0.531300  1.0  -0.0258
  C  C394  1  0.997300  0.115600  0.004700  1.0  -0.1649
  C  C395  1  0.967300  0.073900  0.034100  1.0  0.0179
  C  C396  1  0.202200  0.416100  0.495000  1.0  -0.1616
  C  C397  1  0.056500  0.156200  0.035800  1.0  0.1672
  C  C398  1  0.818700  0.948500  0.994200  1.0  0.3754
  C  C399  1  0.290300  0.274700  0.413400  1.0  0.3573
  C  C400  1  0.723300  0.862400  0.991200  1.0  -0.1683
  C  C401  1  0.263900  0.434200  0.611200  1.0  0.174
  C  C402  1  0.788700  0.007100  0.848900  1.0  -0.0899
  C  C403  1  0.257400  0.264100  0.349800  1.0  -0.0698
  C  C404  1  0.474400  0.165300  0.501800  1.0  -0.1848
  C  C405  1  0.532800  0.125500  0.532100  1.0  0.1763
  C  C406  1  0.820800  0.998300  0.913200  1.0  0.3546
  C  C407  1  0.785600  0.899400  0.023300  1.0  0.0033
  C  C408  1  0.294600  0.327500  0.495500  1.0  0.394
  C  C409  1  0.821800  0.042800  0.820200  1.0  -0.132
  C  C410  1  0.264400  0.378100  0.525900  1.0  -0.0584
  C  C411  1  0.174600  0.459000  0.525700  1.0  0.1709
  C  C412  1  0.813400  0.891600  0.082300  1.0  -0.1537
  C  C413  1  0.526800  0.147600  0.616600  1.0  0.1705
  C  C414  1  0.295600  0.388800  0.585500  1.0  -0.1717
  C  C415  1  0.998400  0.074600  0.093400  1.0  -0.1583
  C  C416  1  0.694800  0.993800  0.758300  1.0  0.1727
  C  C417  1  0.693500  0.821000  0.021900  1.0  0.1753
  C  C418  1  0.789100  0.051800  0.760800  1.0  0.1719
  C  C419  1  0.722900  0.982400  0.817400  1.0  -0.1903
  C  C420  1  0.056500  0.118100  0.121100  1.0  0.1722
  C  C421  1  0.285000  0.213200  0.323300  1.0  -0.1709
  C  C422  1  0.198900  0.303500  0.315700  1.0  -0.1817
  C  C423  1  0.173300  0.294300  0.256900  1.0  0.1827
  C  C424  1  0.254700  0.206500  0.263900  1.0  0.1681
  C  C425  1  0.597400  0.529500  0.500000  1.0  0.3551
  C  C426  1  0.123500  0.743700  0.001000  1.0  0.3619
  C  C427  1  0.032900  0.689100  0.910100  1.0  -0.1853
  C  C428  1  0.720100  0.349700  0.391700  1.0  0.1621
  C  C429  1  0.060200  0.698600  0.968700  1.0  -0.0243
  C  C430  1  0.502700  0.615600  0.495300  1.0  -0.1643
  C  C431  1  0.532700  0.573900  0.465900  1.0  0.0185
  C  C432  1  0.297800  0.916100  0.005000  1.0  -0.1631
  C  C433  1  0.443500  0.656200  0.464200  1.0  0.1671
  C  C434  1  0.681300  0.448500  0.505800  1.0  0.375
  C  C435  1  0.209700  0.774700  0.086600  1.0  0.3574
  C  C436  1  0.776700  0.362400  0.508800  1.0  -0.1707
  C  C437  1  0.236100  0.934200  0.888800  1.0  0.1757
  C  C438  1  0.711300  0.507100  0.651100  1.0  -0.0904
  C  C439  1  0.242600  0.764100  0.150200  1.0  -0.0701
  C  C440  1  0.025600  0.665300  0.998200  1.0  -0.184
  C  C441  1  0.967200  0.625500  0.967900  1.0  0.1771
  C  C442  1  0.679200  0.498300  0.586800  1.0  0.3545
  C  C443  1  0.714400  0.399400  0.476700  1.0  0.0022
  C  C444  1  0.205400  0.827500  0.004500  1.0  0.394
  C  C445  1  0.678200  0.542800  0.679800  1.0  -0.1292
  C  C446  1  0.235600  0.878100  0.974100  1.0  -0.0596
  C  C447  1  0.325400  0.959000  0.974300  1.0  0.1706
  C  C448  1  0.686600  0.391600  0.417700  1.0  -0.1524
  C  C449  1  0.973200  0.647600  0.883400  1.0  0.1703
  C  C450  1  0.204400  0.888800  0.914500  1.0  -0.1698
  C  C451  1  0.501600  0.574600  0.406600  1.0  -0.1576
  C  C452  1  0.805200  0.493800  0.741700  1.0  0.1729
  C  C453  1  0.806500  0.321000  0.478100  1.0  0.1757
  C  C454  1  0.710900  0.551800  0.739200  1.0  0.1699
  C  C455  1  0.777100  0.482400  0.682600  1.0  -0.1928
  C  C456  1  0.443500  0.618100  0.378900  1.0  0.1731
  C  C457  1  0.215000  0.713200  0.176700  1.0  -0.1707
  C  C458  1  0.301100  0.803500  0.184300  1.0  -0.1841
  C  C459  1  0.326700  0.794300  0.243100  1.0  0.1833
  C  C460  1  0.245300  0.706500  0.236100  1.0  0.1687
  C  C461  1  0.097400  0.029500  0.500000  1.0  0.3551
  C  C462  1  0.623500  0.243700  0.001000  1.0  0.3619
  C  C463  1  0.532900  0.189100  0.910100  1.0  -0.1853
  C  C464  1  0.220100  0.849700  0.391700  1.0  0.1621
  C  C465  1  0.560200  0.198600  0.968700  1.0  -0.0243
  C  C466  1  0.002700  0.115600  0.495300  1.0  -0.1643
  C  C467  1  0.032700  0.073900  0.465900  1.0  0.0185
  C  C468  1  0.797800  0.416100  0.005000  1.0  -0.1631
  C  C469  1  0.943500  0.156200  0.464200  1.0  0.1671
  C  C470  1  0.181300  0.948500  0.505800  1.0  0.375
  C  C471  1  0.709700  0.274700  0.086600  1.0  0.3574
  C  C472  1  0.276700  0.862400  0.508800  1.0  -0.1707
  C  C473  1  0.736100  0.434200  0.888800  1.0  0.1757
  C  C474  1  0.211300  0.007100  0.651100  1.0  -0.0904
  C  C475  1  0.742600  0.264100  0.150200  1.0  -0.0701
  C  C476  1  0.525600  0.165300  0.998200  1.0  -0.184
  C  C477  1  0.467200  0.125500  0.967900  1.0  0.1771
  C  C478  1  0.179200  0.998300  0.586800  1.0  0.3545
  C  C479  1  0.214400  0.899400  0.476700  1.0  0.0022
  C  C480  1  0.705400  0.327500  0.004500  1.0  0.394
  C  C481  1  0.178200  0.042800  0.679800  1.0  -0.1292
  C  C482  1  0.735600  0.378100  0.974100  1.0  -0.0596
  C  C483  1  0.825400  0.459000  0.974300  1.0  0.1706
  C  C484  1  0.186600  0.891600  0.417700  1.0  -0.1524
  C  C485  1  0.473200  0.147600  0.883400  1.0  0.1703
  C  C486  1  0.704400  0.388800  0.914500  1.0  -0.1698
  C  C487  1  0.001600  0.074600  0.406600  1.0  -0.1576
  C  C488  1  0.305200  0.993800  0.741700  1.0  0.1729
  C  C489  1  0.306500  0.821000  0.478100  1.0  0.1757
  C  C490  1  0.210900  0.051800  0.739200  1.0  0.1699
  C  C491  1  0.277100  0.982400  0.682600  1.0  -0.1928
  C  C492  1  0.943500  0.118100  0.378900  1.0  0.1731
  C  C493  1  0.715000  0.213200  0.176700  1.0  -0.1707
  C  C494  1  0.801100  0.303500  0.184300  1.0  -0.1841
  C  C495  1  0.826700  0.294300  0.243100  1.0  0.1833
  C  C496  1  0.745300  0.206500  0.236100  1.0  0.1687
  N  N497  1  0.295800  0.030800  0.417300  1.0  -0.3641
  N  N498  1  0.939400  0.383400  0.410900  1.0  -0.3171
  N  N499  1  0.300200  0.250900  0.770200  1.0  -0.3499
  N  N500  1  0.148000  0.211000  0.471700  1.0  -0.5088
  N  N501  1  0.152700  0.266900  0.558200  1.0  -0.4855
  N  N502  1  0.237700  0.177100  0.562100  1.0  -0.5139
  N  N503  1  0.779400  0.685700  0.921600  1.0  -0.3239
  N  N504  1  0.413400  0.342000  0.906800  1.0  -0.3614
  N  N505  1  0.774600  0.472500  0.270400  1.0  -0.3572
  N  N506  1  0.625200  0.511600  0.972300  1.0  -0.4291
  N  N507  1  0.622400  0.462600  0.057800  1.0  -0.4716
  N  N508  1  0.710400  0.549200  0.063700  1.0  -0.5003
  N  N509  1  0.795800  0.530800  0.417300  1.0  -0.3641
  N  N510  1  0.439400  0.883400  0.410900  1.0  -0.3171
  N  N511  1  0.800200  0.750900  0.770200  1.0  -0.3499
  N  N512  1  0.648000  0.711000  0.471700  1.0  -0.5088
  N  N513  1  0.652700  0.766900  0.558200  1.0  -0.4855
  N  N514  1  0.737700  0.677100  0.562100  1.0  -0.5139
  N  N515  1  0.279400  0.185700  0.921600  1.0  -0.3239
  N  N516  1  0.913400  0.842000  0.906800  1.0  -0.3614
  N  N517  1  0.274600  0.972500  0.270400  1.0  -0.3572
  N  N518  1  0.125200  0.011600  0.972300  1.0  -0.4291
  N  N519  1  0.122400  0.962600  0.057800  1.0  -0.4716
  N  N520  1  0.210400  0.049200  0.063700  1.0  -0.5003
  N  N521  1  0.704200  0.030800  0.082700  1.0  -0.3609
  N  N522  1  0.060600  0.383400  0.089100  1.0  -0.3179
  N  N523  1  0.699800  0.250900  0.729800  1.0  -0.3477
  N  N524  1  0.852000  0.211000  0.028300  1.0  -0.5099
  N  N525  1  0.847300  0.266900  0.941800  1.0  -0.4845
  N  N526  1  0.762300  0.177100  0.937900  1.0  -0.5171
  N  N527  1  0.220600  0.685700  0.578400  1.0  -0.3245
  N  N528  1  0.586600  0.342000  0.593200  1.0  -0.3585
  N  N529  1  0.225400  0.472500  0.229600  1.0  -0.3576
  N  N530  1  0.374800  0.511600  0.527700  1.0  -0.4279
  N  N531  1  0.377600  0.462600  0.442200  1.0  -0.4703
  N  N532  1  0.289600  0.549200  0.436300  1.0  -0.5003
  N  N533  1  0.204200  0.530800  0.082700  1.0  -0.3609
  N  N534  1  0.560600  0.883400  0.089100  1.0  -0.3179
  N  N535  1  0.199800  0.750900  0.729800  1.0  -0.3477
  N  N536  1  0.352000  0.711000  0.028300  1.0  -0.5099
  N  N537  1  0.347300  0.766900  0.941800  1.0  -0.4845
  N  N538  1  0.262300  0.677100  0.937900  1.0  -0.5171
  N  N539  1  0.720600  0.185700  0.578400  1.0  -0.3245
  N  N540  1  0.086600  0.842000  0.593200  1.0  -0.3585
  N  N541  1  0.725400  0.972500  0.229600  1.0  -0.3576
  N  N542  1  0.874800  0.011600  0.527700  1.0  -0.4279
  N  N543  1  0.877600  0.962600  0.442200  1.0  -0.4703
  N  N544  1  0.789600  0.049200  0.436300  1.0  -0.5003
  N  N545  1  0.704200  0.969200  0.582700  1.0  -0.3625
  N  N546  1  0.060600  0.616600  0.589100  1.0  -0.3185
  N  N547  1  0.699800  0.749100  0.229800  1.0  -0.348
  N  N548  1  0.852000  0.789000  0.528300  1.0  -0.5096
  N  N549  1  0.847300  0.733100  0.441800  1.0  -0.485
  N  N550  1  0.762300  0.822900  0.437900  1.0  -0.5159
  N  N551  1  0.220600  0.314300  0.078400  1.0  -0.3247
  N  N552  1  0.586600  0.658000  0.093200  1.0  -0.3606
  N  N553  1  0.225400  0.527500  0.729600  1.0  -0.3567
  N  N554  1  0.374800  0.488400  0.027700  1.0  -0.4269
  N  N555  1  0.377600  0.537400  0.942200  1.0  -0.4704
  N  N556  1  0.289600  0.450800  0.936300  1.0  -0.5018
  N  N557  1  0.204200  0.469200  0.582700  1.0  -0.3625
  N  N558  1  0.560600  0.116600  0.589100  1.0  -0.3185
  N  N559  1  0.199800  0.249100  0.229800  1.0  -0.348
  N  N560  1  0.352000  0.289000  0.528300  1.0  -0.5096
  N  N561  1  0.347300  0.233100  0.441800  1.0  -0.485
  N  N562  1  0.262300  0.322900  0.437900  1.0  -0.5159
  N  N563  1  0.720600  0.814300  0.078400  1.0  -0.3247
  N  N564  1  0.086600  0.158000  0.093200  1.0  -0.3606
  N  N565  1  0.725400  0.027500  0.729600  1.0  -0.3567
  N  N566  1  0.874800  0.988400  0.027700  1.0  -0.4269
  N  N567  1  0.877600  0.037400  0.942200  1.0  -0.4704
  N  N568  1  0.789600  0.950800  0.936300  1.0  -0.5018
  N  N569  1  0.295800  0.969200  0.917300  1.0  -0.3634
  N  N570  1  0.939400  0.616600  0.910900  1.0  -0.321
  N  N571  1  0.300200  0.749100  0.270200  1.0  -0.3493
  N  N572  1  0.148000  0.789000  0.971700  1.0  -0.5086
  N  N573  1  0.152700  0.733100  0.058200  1.0  -0.485
  N  N574  1  0.237700  0.822900  0.062100  1.0  -0.5142
  N  N575  1  0.779400  0.314300  0.421600  1.0  -0.3247
  N  N576  1  0.413400  0.658000  0.406800  1.0  -0.3608
  N  N577  1  0.774600  0.527500  0.770400  1.0  -0.3574
  N  N578  1  0.625200  0.488400  0.472300  1.0  -0.429
  N  N579  1  0.622400  0.537400  0.557800  1.0  -0.4722
  N  N580  1  0.710400  0.450800  0.563700  1.0  -0.4998
  N  N581  1  0.795800  0.469200  0.917300  1.0  -0.3634
  N  N582  1  0.439400  0.116600  0.910900  1.0  -0.321
  N  N583  1  0.800200  0.249100  0.270200  1.0  -0.3493
  N  N584  1  0.648000  0.289000  0.971700  1.0  -0.5086
  N  N585  1  0.652700  0.233100  0.058200  1.0  -0.485
  N  N586  1  0.737700  0.322900  0.062100  1.0  -0.5142
  N  N587  1  0.279400  0.814300  0.421600  1.0  -0.3247
  N  N588  1  0.913400  0.158000  0.406800  1.0  -0.3608
  N  N589  1  0.274600  0.027500  0.770400  1.0  -0.3574
  N  N590  1  0.125200  0.988400  0.472300  1.0  -0.429
  N  N591  1  0.122400  0.037400  0.557800  1.0  -0.4722
  N  N592  1  0.210400  0.950800  0.563700  1.0  -0.4998
