# generated using pymatgen
data_CuH4C8(NO)2
_symmetry_space_group_name_H-M   'P 1'
_cell_length_a   14.33190000
_cell_length_b   14.33190000
_cell_length_c   14.33190000
_cell_angle_alpha   108.95400000
_cell_angle_beta   108.95400000
_cell_angle_gamma   110.51000000
_symmetry_Int_Tables_number   1
_chemical_formula_structural   CuH4C8(NO)2
_chemical_formula_sum   'Cu8 H32 C64 N16 O16'
_cell_volume   2265.61306143
_cell_formula_units_Z   8
loop_
 _symmetry_equiv_pos_site_id
 _symmetry_equiv_pos_as_xyz
  1  'x, y, z'
loop_
 _atom_site_type_symbol
 _atom_site_label
 _atom_site_symmetry_multiplicity
 _atom_site_fract_x
 _atom_site_fract_y
 _atom_site_fract_z
 _atom_site_occupancy
 _atom_site_charge
  Cu  Cu1  1  0.048510  0.564800  0.411970  1.0  0.9048
  Cu  Cu2  1  0.863460  0.451490  0.016290  1.0  0.9036
  Cu  Cu3  1  0.136540  0.548510  0.983710  1.0  0.9043
  Cu  Cu4  1  0.935200  0.847170  0.483710  1.0  0.9068
  Cu  Cu5  1  0.347170  0.363460  0.911970  1.0  0.9067
  Cu  Cu6  1  0.951490  0.435200  0.588030  1.0  0.9053
  Cu  Cu7  1  0.064800  0.152830  0.516290  1.0  0.9045
  Cu  Cu8  1  0.652830  0.636540  0.088030  1.0  0.9052
  H  H9  1  0.732600  0.798200  0.552000  1.0  0.1251
  H  H10  1  0.135200  0.036800  0.118600  1.0  0.0976
  H  H11  1  0.680600  0.232600  0.434400  1.0  0.1268
  H  H12  1  0.536800  0.918200  0.901600  1.0  0.0993
  H  H13  1  0.746200  0.180600  0.948000  1.0  0.1256
  H  H14  1  0.700300  0.124400  0.599700  1.0  0.1239
  H  H15  1  0.701800  0.753800  0.934400  1.0  0.1265
  H  H16  1  0.975300  0.899400  0.099700  1.0  0.1242
  H  H17  1  0.024700  0.100600  0.900300  1.0  0.1242
  H  H18  1  0.399400  0.799700  0.924100  1.0  0.1235
  H  H19  1  0.483400  0.364800  0.401600  1.0  0.0982
  H  H20  1  0.273300  0.996300  0.096400  1.0  0.096
  H  H21  1  0.864800  0.963200  0.881400  1.0  0.098
  H  H22  1  0.624400  0.524700  0.424100  1.0  0.1239
  H  H23  1  0.399900  0.176900  0.403600  1.0  0.0953
  H  H24  1  0.463200  0.081800  0.098400  1.0  0.0981
  H  H25  1  0.299700  0.875600  0.400300  1.0  0.1229
  H  H26  1  0.418200  0.016600  0.381400  1.0  0.0974
  H  H27  1  0.323100  0.226700  0.223000  1.0  0.0941
  H  H28  1  0.298200  0.246200  0.065600  1.0  0.1256
  H  H29  1  0.516600  0.635200  0.598400  1.0  0.0967
  H  H30  1  0.267400  0.201800  0.448000  1.0  0.1257
  H  H31  1  0.600600  0.200300  0.075900  1.0  0.124
  H  H32  1  0.726700  0.003700  0.903600  1.0  0.0963
  H  H33  1  0.676900  0.773300  0.777000  1.0  0.0949
  H  H34  1  0.496300  0.899900  0.723000  1.0  0.0952
  H  H35  1  0.375600  0.475300  0.575900  1.0  0.1239
  H  H36  1  0.319400  0.767400  0.565600  1.0  0.1263
  H  H37  1  0.600100  0.823100  0.596400  1.0  0.0947
  H  H38  1  0.503700  0.100100  0.277000  1.0  0.0949
  H  H39  1  0.253800  0.819400  0.052000  1.0  0.1264
  H  H40  1  0.581800  0.983400  0.618600  1.0  0.0991
  C  C41  1  0.864300  0.421100  0.196200  1.0  0.7231
  C  C42  1  0.476500  0.375000  0.339300  1.0  -0.1005
  C  C43  1  0.621500  0.708800  0.769700  1.0  -0.1044
  C  C44  1  0.921100  0.224900  0.556800  1.0  0.7235
  C  C45  1  0.135700  0.578900  0.803800  1.0  0.7258
  C  C46  1  0.273100  0.709700  0.756800  1.0  -0.058
  C  C47  1  0.464300  0.862800  0.839300  1.0  -0.1041
  C  C48  1  0.547100  0.483700  0.256800  1.0  -0.0591
  C  C49  1  0.099500  0.749100  0.047800  1.0  0.1301
  C  C50  1  0.378500  0.291200  0.230300  1.0  -0.1016
  C  C51  1  0.387900  0.436400  0.764700  1.0  0.0719
  C  C52  1  0.726900  0.290300  0.243200  1.0  -0.06
  C  C53  1  0.030000  0.883100  0.090100  1.0  -0.0849
  C  C54  1  0.063600  0.328300  0.951500  1.0  0.0713
  C  C55  1  0.016300  0.773100  0.063400  1.0  -0.0601
  C  C56  1  0.612100  0.563600  0.235300  1.0  0.073
  C  C57  1  0.560900  0.148200  0.269700  1.0  -0.1019
  C  C58  1  0.936400  0.671700  0.048500  1.0  0.0705
  C  C59  1  0.875000  0.035700  0.898500  1.0  -0.1042
  C  C60  1  0.452900  0.516300  0.743200  1.0  -0.0601
  C  C61  1  0.726700  0.862900  0.561000  1.0  -0.1747
  C  C62  1  0.551700  0.599500  0.850400  1.0  0.129
  C  C63  1  0.791200  0.060900  0.912700  1.0  -0.1042
  C  C64  1  0.125000  0.964300  0.101500  1.0  -0.1056
  C  C65  1  0.831900  0.635700  0.056800  1.0  0.7225
  C  C66  1  0.168100  0.364300  0.943200  1.0  0.7223
  C  C67  1  0.208800  0.939100  0.087300  1.0  -0.1029
  C  C68  1  0.750900  0.298700  0.350400  1.0  0.1302
  C  C69  1  0.637200  0.976500  0.601500  1.0  -0.1056
  C  C70  1  0.665700  0.226700  0.363800  1.0  -0.17
  C  C71  1  0.293000  0.939900  0.409900  1.0  -0.0835
  C  C72  1  0.362900  0.301900  0.136200  1.0  -0.1734
  C  C73  1  0.439900  0.530000  0.646900  1.0  -0.0843
  C  C74  1  0.275100  0.331900  0.696200  1.0  0.7235
  C  C75  1  0.798700  0.948300  0.547800  1.0  0.1307
  C  C76  1  0.523500  0.625000  0.660700  1.0  -0.0997
  C  C77  1  0.351800  0.121500  0.412700  1.0  -0.102
  C  C78  1  0.983700  0.226900  0.936600  1.0  -0.0607
  C  C79  1  0.334300  0.773300  0.636200  1.0  -0.1704
  C  C80  1  0.078900  0.775100  0.443200  1.0  0.7243
  C  C81  1  0.273300  0.137100  0.439000  1.0  -0.1747
  C  C82  1  0.198100  0.834300  0.061000  1.0  -0.1744
  C  C83  1  0.362800  0.023500  0.398500  1.0  -0.1046
  C  C84  1  0.637100  0.698100  0.863800  1.0  -0.174
  C  C85  1  0.648200  0.878500  0.587300  1.0  -0.1026
  C  C86  1  0.209700  0.952900  0.436600  1.0  -0.0606
  C  C87  1  0.724900  0.668100  0.303800  1.0  0.7221
  C  C88  1  0.535700  0.137200  0.160700  1.0  -0.1037
  C  C89  1  0.828300  0.376800  0.264700  1.0  0.0702
  C  C90  1  0.249100  0.701300  0.649600  1.0  0.1304
  C  C91  1  0.560100  0.470000  0.353100  1.0  -0.0849
  C  C92  1  0.801900  0.165700  0.939000  1.0  -0.1737
  C  C93  1  0.790300  0.047100  0.563400  1.0  -0.0569
  C  C94  1  0.876800  0.112100  0.548500  1.0  0.0702
  C  C95  1  0.616900  0.207000  0.146900  1.0  -0.0857
  C  C96  1  0.201300  0.051700  0.452200  1.0  0.1302
  C  C97  1  0.171700  0.623200  0.735300  1.0  0.0705
  C  C98  1  0.448300  0.400500  0.149600  1.0  0.1298
  C  C99  1  0.707000  0.060100  0.590100  1.0  -0.0839
  C  C100  1  0.383100  0.793000  0.853100  1.0  -0.0847
  C  C101  1  0.970000  0.116900  0.909900  1.0  -0.0842
  C  C102  1  0.900500  0.250900  0.952200  1.0  0.1302
  C  C103  1  0.439100  0.851800  0.730300  1.0  -0.1013
  C  C104  1  0.123200  0.887900  0.451500  1.0  0.0739
  N  N105  1  0.930100  0.056600  0.523500  1.0  -0.2829
  N  N106  1  0.556600  0.533100  0.126500  1.0  -0.2844
  N  N107  1  0.069900  0.943400  0.476500  1.0  -0.2828
  N  N108  1  0.138000  0.615700  0.570700  1.0  -0.2649
  N  N109  1  0.932700  0.362000  0.977700  1.0  -0.2663
  N  N110  1  0.966900  0.593400  0.023500  1.0  -0.2833
  N  N111  1  0.093400  0.569900  0.626500  1.0  -0.2845
  N  N112  1  0.115700  0.045000  0.477700  1.0  -0.2649
  N  N113  1  0.067300  0.638000  0.022300  1.0  -0.2636
  N  N114  1  0.884300  0.955000  0.522300  1.0  -0.2645
  N  N115  1  0.862000  0.384300  0.429300  1.0  -0.262
  N  N116  1  0.455000  0.432700  0.070700  1.0  -0.2638
  N  N117  1  0.545000  0.567300  0.929300  1.0  -0.2595
  N  N118  1  0.033100  0.406600  0.976500  1.0  -0.2824
  N  N119  1  0.443400  0.466900  0.873500  1.0  -0.2849
  N  N120  1  0.906600  0.430100  0.373500  1.0  -0.2845
  O  O121  1  0.129620  0.720670  0.428670  1.0  -0.5833
  O  O122  1  0.870380  0.279330  0.571330  1.0  -0.583
  O  O123  1  0.990590  0.738620  0.452830  1.0  -0.6207
  O  O124  1  0.238620  0.285790  0.748030  1.0  -0.62
  O  O125  1  0.779330  0.708000  0.408950  1.0  -0.5824
  O  O126  1  0.792000  0.700950  0.071330  1.0  -0.5824
  O  O127  1  0.208000  0.299050  0.928670  1.0  -0.5827
  O  O128  1  0.785790  0.537760  0.047170  1.0  -0.6203
  O  O129  1  0.200950  0.629620  0.908950  1.0  -0.5832
  O  O130  1  0.220670  0.292000  0.591050  1.0  -0.5817
  O  O131  1  0.761380  0.714210  0.251970  1.0  -0.6206
  O  O132  1  0.009410  0.261380  0.547170  1.0  -0.6177
  O  O133  1  0.037760  0.490590  0.751970  1.0  -0.62
  O  O134  1  0.799050  0.370380  0.091050  1.0  -0.5834
  O  O135  1  0.214210  0.462240  0.952830  1.0  -0.6192
  O  O136  1  0.962240  0.509410  0.248030  1.0  -0.6192
