# generated using pymatgen
data_CuH2C4(NO)2
_symmetry_space_group_name_H-M   'P 1'
_cell_length_a   15.72110000
_cell_length_b   15.72110000
_cell_length_c   15.72110000
_cell_angle_alpha   70.10620000
_cell_angle_beta   71.37060000
_cell_angle_gamma   109.89400000
_symmetry_Int_Tables_number   1
_chemical_formula_structural   CuH2C4(NO)2
_chemical_formula_sum   'Cu8 H16 C32 N16 O16'
_cell_volume   2990.57867766
_cell_formula_units_Z   8
loop_
 _symmetry_equiv_pos_site_id
 _symmetry_equiv_pos_as_xyz
  1  'x, y, z'
loop_
 _atom_site_type_symbol
 _atom_site_label
 _atom_site_symmetry_multiplicity
 _atom_site_fract_x
 _atom_site_fract_y
 _atom_site_fract_z
 _atom_site_occupancy
 _atom_site_charge
  Cu  Cu1  1  0.900790  0.049400  0.535770  1.0  0.8001
  Cu  Cu2  1  0.964230  0.563440  0.585170  1.0  0.8004
  Cu  Cu3  1  0.351390  0.936560  0.599210  1.0  0.7998
  Cu  Cu4  1  0.914830  0.450600  0.148610  1.0  0.7994
  Cu  Cu5  1  0.085170  0.549400  0.851390  1.0  0.8012
  Cu  Cu6  1  0.648610  0.063440  0.400790  1.0  0.7995
  Cu  Cu7  1  0.035770  0.436560  0.414830  1.0  0.8018
  Cu  Cu8  1  0.099210  0.950600  0.464230  1.0  0.8003
  H  H9  1  0.714700  0.394400  0.118300  1.0  0.1133
  H  H10  1  0.381700  0.167000  0.512700  1.0  0.1147
  H  H11  1  0.987300  0.105600  0.679700  1.0  0.1141
  H  H12  1  0.618300  0.833000  0.487300  1.0  0.1123
  H  H13  1  0.277300  0.565500  0.051800  1.0  0.1285
  H  H14  1  0.211800  0.829100  0.222700  1.0  0.1318
  H  H15  1  0.012700  0.894400  0.320300  1.0  0.1127
  H  H16  1  0.820300  0.333000  0.785300  1.0  0.1146
  H  H17  1  0.448200  0.670900  0.617300  1.0  0.1309
  H  H18  1  0.285300  0.605600  0.881700  1.0  0.1113
  H  H19  1  0.117300  0.065500  0.711800  1.0  0.1246
  H  H20  1  0.722700  0.434500  0.948200  1.0  0.1278
  H  H21  1  0.882700  0.934500  0.288200  1.0  0.1282
  H  H22  1  0.179700  0.667000  0.214700  1.0  0.1145
  H  H23  1  0.551800  0.329100  0.382700  1.0  0.132
  H  H24  1  0.788200  0.170900  0.777300  1.0  0.133
  C  C25  1  0.279900  0.723600  0.690300  1.0  0.7274
  C  C26  1  0.092300  0.054300  0.668200  1.0  -0.1661
  C  C27  1  0.190300  0.970200  0.586100  1.0  0.7284
  C  C28  1  0.556000  0.830400  0.520400  1.0  -0.0024
  C  C29  1  0.607800  0.225400  0.381200  1.0  1e-04
  C  C30  1  0.893400  0.274600  0.617600  1.0  -0.0003
  C  C31  1  0.444000  0.169600  0.479600  1.0  -0.0022
  C  C32  1  0.777500  0.445700  0.962000  1.0  -0.1663
  C  C33  1  0.907700  0.945700  0.331800  1.0  -0.1669
  C  C34  1  0.850800  0.330400  0.725600  1.0  -0.0046
  C  C35  1  0.979600  0.923600  0.350800  1.0  -0.0024
  C  C36  1  0.118800  0.011000  0.606600  1.0  0.0021
  C  C37  1  0.222500  0.554300  0.038000  1.0  -0.1674
  C  C38  1  0.106600  0.725400  0.382400  1.0  -0.0015
  C  C39  1  0.117600  0.511000  0.107800  1.0  -0.0002
  C  C40  1  0.168200  0.760500  0.277500  1.0  -0.167
  C  C41  1  0.538000  0.260500  0.407700  1.0  -0.1673
  C  C42  1  0.913900  0.223600  0.556300  1.0  0.7309
  C  C43  1  0.086100  0.776400  0.443700  1.0  0.7304
  C  C44  1  0.462000  0.739500  0.592300  1.0  -0.1687
  C  C45  1  0.809700  0.029800  0.413900  1.0  0.7263
  C  C46  1  0.020400  0.076400  0.649200  1.0  -0.0012
  C  C47  1  0.943700  0.529800  0.779900  1.0  0.73
  C  C48  1  0.831800  0.239500  0.722500  1.0  -0.1691
  C  C49  1  0.225600  0.576400  0.944000  1.0  -0.0019
  C  C50  1  0.774400  0.423600  0.056000  1.0  -0.001
  C  C51  1  0.882400  0.489000  0.892200  1.0  -0.0017
  C  C52  1  0.720100  0.276400  0.309700  1.0  0.7285
  C  C53  1  0.881200  0.989000  0.393400  1.0  0.0003
  C  C54  1  0.056300  0.470200  0.220100  1.0  0.7308
  C  C55  1  0.392200  0.774600  0.618800  1.0  -0.0004
  C  C56  1  0.149200  0.669600  0.274400  1.0  -0.0038
  N  N57  1  0.129400  0.549600  0.955200  1.0  -0.2066
  N  N58  1  0.556300  0.119000  0.434900  1.0  -0.276
  N  N59  1  0.053900  0.619000  0.437300  1.0  -0.2775
  N  N60  1  0.004800  0.049600  0.579800  1.0  -0.208
  N  N61  1  0.937300  0.491200  0.943700  1.0  -0.2768
  N  N62  1  0.544800  0.915400  0.504800  1.0  -0.2079
  N  N63  1  0.065100  0.008800  0.553900  1.0  -0.2775
  N  N64  1  0.995200  0.950400  0.420200  1.0  -0.2072
  N  N65  1  0.870600  0.450400  0.044800  1.0  -0.2073
  N  N66  1  0.079800  0.584600  0.370600  1.0  -0.2094
  N  N67  1  0.062700  0.508800  0.056300  1.0  -0.2768
  N  N68  1  0.455200  0.084600  0.495200  1.0  -0.2112
  N  N69  1  0.934900  0.991200  0.446100  1.0  -0.2778
  N  N70  1  0.946100  0.381000  0.562700  1.0  -0.2784
  N  N71  1  0.920200  0.415400  0.629400  1.0  -0.2112
  N  N72  1  0.443700  0.881000  0.565100  1.0  -0.2769
  O  O73  1  0.242270  0.971700  0.632530  1.0  -0.5669
  O  O74  1  0.804460  0.059900  0.478640  1.0  -0.5475
  O  O75  1  0.104230  0.471700  0.270570  1.0  -0.5681
  O  O76  1  0.757730  0.028300  0.367470  1.0  -0.5674
  O  O77  1  0.021360  0.716900  0.538540  1.0  -0.5509
  O  O78  1  0.195540  0.940100  0.521360  1.0  -0.5492
  O  O79  1  0.961460  0.440100  0.255440  1.0  -0.5499
  O  O80  1  0.132530  0.874800  0.395770  1.0  -0.567
  O  O81  1  0.244560  0.783100  0.695540  1.0  -0.5493
  O  O82  1  0.038540  0.559900  0.744560  1.0  -0.5488
  O  O83  1  0.755440  0.216900  0.304460  1.0  -0.55
  O  O84  1  0.978640  0.283100  0.461460  1.0  -0.5497
  O  O85  1  0.770570  0.374800  0.257730  1.0  -0.5679
  O  O86  1  0.229430  0.625200  0.742270  1.0  -0.5654
  O  O87  1  0.895770  0.528300  0.729430  1.0  -0.5681
  O  O88  1  0.867470  0.125200  0.604230  1.0  -0.5668
