# generated using pymatgen
data_U5(PO4)4
_symmetry_space_group_name_H-M   'P 1'
_cell_length_a   9.51520000
_cell_length_b   33.14400000
_cell_length_c   9.65690000
_cell_angle_alpha   90.00000000
_cell_angle_beta   93.21100000
_cell_angle_gamma   90.00000000
_symmetry_Int_Tables_number   1
_chemical_formula_structural   U5(PO4)4
_chemical_formula_sum   'U20 P16 O64'
_cell_volume   3040.73245833
_cell_formula_units_Z   4
loop_
 _symmetry_equiv_pos_site_id
 _symmetry_equiv_pos_as_xyz
  1  'x, y, z'
loop_
 _atom_site_type_symbol
 _atom_site_label
 _atom_site_symmetry_multiplicity
 _atom_site_fract_x
 _atom_site_fract_y
 _atom_site_fract_z
 _atom_site_occupancy
 _atom_site_charge
  U  U1  1  0.080500  0.240210  0.663360  1.0  1.7844
  U  U2  1  0.181490  0.240600  0.266700  1.0  1.6406
  U  U3  1  0.549400  0.007360  0.799800  1.0  1.6935
  U  U4  1  0.949240  0.007630  0.695370  1.0  1.6816
  U  U5  1  0.644020  0.130480  0.442880  1.0  1.3777
  U  U6  1  0.419500  0.740210  0.836640  1.0  1.7855
  U  U7  1  0.318510  0.740600  0.233300  1.0  1.6405
  U  U8  1  0.950600  0.507360  0.700200  1.0  1.6926
  U  U9  1  0.550760  0.507630  0.804630  1.0  1.6813
  U  U10  1  0.855980  0.630480  0.057120  1.0  1.3776
  U  U11  1  0.919500  0.759790  0.336640  1.0  1.7857
  U  U12  1  0.818510  0.759400  0.733300  1.0  1.6404
  U  U13  1  0.450600  0.992640  0.200200  1.0  1.6921
  U  U14  1  0.050760  0.992370  0.304630  1.0  1.6813
  U  U15  1  0.355980  0.869520  0.557120  1.0  1.3793
  U  U16  1  0.580500  0.259790  0.163360  1.0  1.7844
  U  U17  1  0.681490  0.259400  0.766700  1.0  1.6407
  U  U18  1  0.049400  0.492640  0.299800  1.0  1.693
  U  U19  1  0.449240  0.492370  0.195370  1.0  1.6816
  U  U20  1  0.144020  0.369520  0.942880  1.0  1.3794
  P  P21  1  0.711600  0.020240  0.458700  1.0  1.5977
  P  P22  1  0.428200  0.221730  0.494900  1.0  1.4527
  P  P23  1  0.785000  0.021180  0.038700  1.0  1.5373
  P  P24  1  0.831900  0.230740  0.432900  1.0  1.4698
  P  P25  1  0.788400  0.520240  0.041300  1.0  1.598
  P  P26  1  0.071800  0.721730  0.005100  1.0  1.4519
  P  P27  1  0.715000  0.521180  0.461300  1.0  1.537
  P  P28  1  0.668100  0.730740  0.067100  1.0  1.4705
  P  P29  1  0.288400  0.979760  0.541300  1.0  1.5979
  P  P30  1  0.571800  0.778270  0.505100  1.0  1.4515
  P  P31  1  0.215000  0.978820  0.961300  1.0  1.5375
  P  P32  1  0.168100  0.769260  0.567100  1.0  1.4703
  P  P33  1  0.211600  0.479760  0.958700  1.0  1.5976
  P  P34  1  0.928200  0.278270  0.994900  1.0  1.4522
  P  P35  1  0.285000  0.478820  0.538700  1.0  1.5377
  P  P36  1  0.331900  0.269260  0.932900  1.0  1.4697
  O  O37  1  0.759000  0.259200  0.331300  1.0  -0.8152
  O  O38  1  0.616100  0.989800  0.384400  1.0  -0.873
  O  O39  1  0.699100  0.017800  0.617900  1.0  -0.9539
  O  O40  1  0.883000  0.994800  0.126600  1.0  -0.8668
  O  O41  1  0.435800  0.236900  0.344900  1.0  -0.9446
  O  O42  1  0.802000  0.016900  0.882800  1.0  -0.9272
  O  O43  1  0.828100  0.247000  0.583900  1.0  -0.9576
  O  O44  1  0.994400  0.230300  0.415000  1.0  -0.9273
  O  O45  1  0.503100  0.251000  0.593900  1.0  -0.8968
  O  O46  1  0.265400  0.223800  0.512600  1.0  -0.9121
  O  O47  1  0.868100  0.007500  0.448400  1.0  -0.9357
  O  O48  1  0.480300  0.179600  0.512100  1.0  -0.8637
  O  O49  1  0.631700  0.008800  0.052000  1.0  -0.9481
  O  O50  1  0.685400  0.061400  0.405000  1.0  -0.8796
  O  O51  1  0.808000  0.065900  0.080400  1.0  -0.594
  O  O52  1  0.770800  0.189400  0.421200  1.0  -0.9388
  O  O53  1  0.741000  0.759200  0.168700  1.0  -0.8159
  O  O54  1  0.883900  0.489800  0.115600  1.0  -0.8738
  O  O55  1  0.800900  0.517800  0.882100  1.0  -0.9525
  O  O56  1  0.617000  0.494800  0.373400  1.0  -0.8661
  O  O57  1  0.064200  0.736900  0.155100  1.0  -0.9451
  O  O58  1  0.698000  0.516900  0.617200  1.0  -0.9282
  O  O59  1  0.671900  0.747000  0.916100  1.0  -0.956
  O  O60  1  0.505600  0.730300  0.085000  1.0  -0.9282
  O  O61  1  0.996900  0.751000  0.906100  1.0  -0.898
  O  O62  1  0.234600  0.723800  0.987400  1.0  -0.9127
  O  O63  1  0.631900  0.507500  0.051600  1.0  -0.9348
  O  O64  1  0.019700  0.679600  0.987900  1.0  -0.864
  O  O65  1  0.868300  0.508800  0.448000  1.0  -0.9489
  O  O66  1  0.814600  0.561400  0.095000  1.0  -0.8787
  O  O67  1  0.692000  0.565900  0.419600  1.0  -0.5942
  O  O68  1  0.729200  0.689400  0.078800  1.0  -0.9381
  O  O69  1  0.241000  0.740800  0.668700  1.0  -0.8159
  O  O70  1  0.383900  0.010200  0.615600  1.0  -0.8733
  O  O71  1  0.300900  0.982200  0.382100  1.0  -0.9524
  O  O72  1  0.117000  0.005200  0.873400  1.0  -0.8689
  O  O73  1  0.564200  0.763100  0.655100  1.0  -0.9448
  O  O74  1  0.198000  0.983100  0.117200  1.0  -0.9284
  O  O75  1  0.171900  0.753000  0.416100  1.0  -0.9565
  O  O76  1  0.005600  0.769700  0.585000  1.0  -0.9277
  O  O77  1  0.496900  0.749000  0.406100  1.0  -0.8963
  O  O78  1  0.734600  0.776200  0.487400  1.0  -0.9134
  O  O79  1  0.131900  0.992500  0.551600  1.0  -0.9346
  O  O80  1  0.519700  0.820400  0.487900  1.0  -0.868
  O  O81  1  0.368300  0.991200  0.948000  1.0  -0.949
  O  O82  1  0.314600  0.938600  0.595000  1.0  -0.8778
  O  O83  1  0.192000  0.934100  0.919600  1.0  -0.5929
  O  O84  1  0.229200  0.810600  0.578800  1.0  -0.938
  O  O85  1  0.259000  0.240800  0.831300  1.0  -0.8151
  O  O86  1  0.116100  0.510200  0.884400  1.0  -0.8736
  O  O87  1  0.199100  0.482200  0.117900  1.0  -0.9537
  O  O88  1  0.383000  0.505200  0.626600  1.0  -0.8685
  O  O89  1  0.935800  0.263100  0.844900  1.0  -0.9446
  O  O90  1  0.302000  0.483100  0.382800  1.0  -0.9274
  O  O91  1  0.328100  0.253000  0.083900  1.0  -0.9576
  O  O92  1  0.494400  0.269700  0.915000  1.0  -0.9269
  O  O93  1  0.003100  0.249000  0.093900  1.0  -0.8961
  O  O94  1  0.765400  0.276200  0.012600  1.0  -0.9127
  O  O95  1  0.368100  0.492500  0.948400  1.0  -0.9357
  O  O96  1  0.980300  0.320400  0.012100  1.0  -0.8666
  O  O97  1  0.131700  0.491200  0.552000  1.0  -0.9486
  O  O98  1  0.185400  0.438600  0.905000  1.0  -0.8767
  O  O99  1  0.308000  0.434100  0.580400  1.0  -0.5927
  O  O100  1  0.270800  0.310600  0.921200  1.0  -0.9383
