# generated using pymatgen
data_Ga4P7(HO3)7
_symmetry_space_group_name_H-M   'P 1'
_cell_length_a   13.35000000
_cell_length_b   13.35000000
_cell_length_c   17.84300000
_cell_angle_alpha   90.00000000
_cell_angle_beta   90.00000000
_cell_angle_gamma   120.00000000
_symmetry_Int_Tables_number   1
_chemical_formula_structural   Ga4P7(HO3)7
_chemical_formula_sum   'Ga16 P28 H28 O84'
_cell_volume   2753.98162710
_cell_formula_units_Z   4
loop_
 _symmetry_equiv_pos_site_id
 _symmetry_equiv_pos_as_xyz
  1  'x, y, z'
loop_
 _atom_site_type_symbol
 _atom_site_label
 _atom_site_symmetry_multiplicity
 _atom_site_fract_x
 _atom_site_fract_y
 _atom_site_fract_z
 _atom_site_occupancy
 _atom_site_charge
  Ga  Ga1  1  0.858860  0.292490  0.039830  1.0  1.6546
  Ga  Ga2  1  0.707510  0.566370  0.039830  1.0  1.6543
  Ga  Ga3  1  0.433630  0.141140  0.039830  1.0  1.6552
  Ga  Ga4  1  0.292490  0.858860  0.460170  1.0  1.6532
  Ga  Ga5  1  0.566370  0.707510  0.460170  1.0  1.6519
  Ga  Ga6  1  0.141140  0.433630  0.460170  1.0  1.6509
  Ga  Ga7  1  0.141140  0.707510  0.960170  1.0  1.6535
  Ga  Ga8  1  0.292490  0.433630  0.960170  1.0  1.6512
  Ga  Ga9  1  0.566370  0.858860  0.960170  1.0  1.6516
  Ga  Ga10  1  0.707510  0.141140  0.539830  1.0  1.6537
  Ga  Ga11  1  0.433630  0.292490  0.539830  1.0  1.6562
  Ga  Ga12  1  0.858860  0.566370  0.539830  1.0  1.6547
  Ga  Ga13  1  0.000000  0.000000  0.250000  1.0  1.5451
  Ga  Ga14  1  0.000000  0.000000  0.750000  1.0  1.5451
  Ga  Ga15  1  0.000000  0.000000  0.000000  1.0  1.5252
  Ga  Ga16  1  0.000000  0.000000  0.500000  1.0  1.5252
  P  P17  1  0.631630  0.127180  0.946230  1.0  1.5652
  P  P18  1  0.974450  0.161390  0.129230  1.0  1.6407
  P  P19  1  0.872820  0.504450  0.946230  1.0  1.5655
  P  P20  1  0.838610  0.813060  0.129230  1.0  1.6309
  P  P21  1  0.495550  0.368370  0.946230  1.0  1.566
  P  P22  1  0.186940  0.025550  0.129230  1.0  1.6365
  P  P23  1  0.127180  0.631630  0.553770  1.0  1.5676
  P  P24  1  0.161390  0.974450  0.370770  1.0  1.6351
  P  P25  1  0.504450  0.872820  0.553770  1.0  1.564
  P  P26  1  0.813060  0.838610  0.370770  1.0  1.6414
  P  P27  1  0.368370  0.495550  0.553770  1.0  1.5626
  P  P28  1  0.025550  0.186940  0.370770  1.0  1.6288
  P  P29  1  0.368370  0.872820  0.053770  1.0  1.5649
  P  P30  1  0.025550  0.838610  0.870770  1.0  1.6422
  P  P31  1  0.127180  0.495550  0.053770  1.0  1.5645
  P  P32  1  0.161390  0.186940  0.870770  1.0  1.6359
  P  P33  1  0.504450  0.631630  0.053770  1.0  1.5646
  P  P34  1  0.813060  0.974450  0.870770  1.0  1.6264
  P  P35  1  0.872820  0.368370  0.446230  1.0  1.5673
  P  P36  1  0.838610  0.025550  0.629230  1.0  1.6288
  P  P37  1  0.495550  0.127180  0.446230  1.0  1.5654
  P  P38  1  0.186940  0.161390  0.629230  1.0  1.641
  P  P39  1  0.631630  0.504450  0.446230  1.0  1.5629
  P  P40  1  0.974450  0.813060  0.629230  1.0  1.6373
  P  P41  1  0.666667  0.333333  0.137700  1.0  1.5953
  P  P42  1  0.333333  0.666667  0.362300  1.0  1.5946
  P  P43  1  0.333333  0.666667  0.862300  1.0  1.5946
  P  P44  1  0.666667  0.333333  0.637700  1.0  1.5953
  H  H45  1  0.688000  0.180000  0.884300  1.0  -0.0792
  H  H46  1  0.054000  0.258000  0.160000  1.0  -0.0954
  H  H47  1  0.820000  0.508000  0.884300  1.0  -0.0797
  H  H48  1  0.742000  0.796000  0.160000  1.0  -0.0975
  H  H49  1  0.492000  0.312000  0.884300  1.0  -0.0794
  H  H50  1  0.204000  0.946000  0.160000  1.0  -0.0949
  H  H51  1  0.180000  0.688000  0.615700  1.0  -0.0814
  H  H52  1  0.258000  0.054000  0.340000  1.0  -0.0942
  H  H53  1  0.508000  0.820000  0.615700  1.0  -0.0816
  H  H54  1  0.796000  0.742000  0.340000  1.0  -0.0963
  H  H55  1  0.312000  0.492000  0.615700  1.0  -0.0819
  H  H56  1  0.946000  0.204000  0.340000  1.0  -0.0981
  H  H57  1  0.312000  0.820000  0.115700  1.0  -0.082
  H  H58  1  0.946000  0.742000  0.840000  1.0  -0.0955
  H  H59  1  0.180000  0.492000  0.115700  1.0  -0.0805
  H  H60  1  0.258000  0.204000  0.840000  1.0  -0.0959
  H  H61  1  0.508000  0.688000  0.115700  1.0  -0.0822
  H  H62  1  0.796000  0.054000  0.840000  1.0  -0.097
  H  H63  1  0.820000  0.312000  0.384300  1.0  -0.0793
  H  H64  1  0.742000  0.946000  0.660000  1.0  -0.0964
  H  H65  1  0.492000  0.180000  0.384300  1.0  -0.0795
  H  H66  1  0.204000  0.258000  0.660000  1.0  -0.0953
  H  H67  1  0.688000  0.508000  0.384300  1.0  -0.0768
  H  H68  1  0.054000  0.796000  0.660000  1.0  -0.0966
  H  H69  1  0.666667  0.333333  0.211000  1.0  -0.0434
  H  H70  1  0.333333  0.666667  0.289000  1.0  -0.044
  H  H71  1  0.333333  0.666667  0.789000  1.0  -0.044
  H  H72  1  0.666667  0.333333  0.711000  1.0  -0.0434
  O  O73  1  0.571400  0.999500  0.926900  1.0  -0.8332
  O  O74  1  0.028000  0.135200  0.060800  1.0  -0.8325
  O  O75  1  0.719000  0.152300  0.008200  1.0  -0.7883
  O  O76  1  0.881900  0.190500  0.107600  1.0  -0.7886
  O  O77  1  0.925600  0.066800  0.188100  1.0  -0.7784
  O  O78  1  0.548400  0.170300  0.963800  1.0  -0.825
  O  O79  1  0.774600  0.324600  0.117300  1.0  -0.8592
  O  O80  1  0.000500  0.571900  0.926900  1.0  -0.8315
  O  O81  1  0.864800  0.892800  0.060800  1.0  -0.8333
  O  O82  1  0.847700  0.566700  0.008200  1.0  -0.7875
  O  O83  1  0.809500  0.691400  0.107600  1.0  -0.7884
  O  O84  1  0.933200  0.858800  0.188100  1.0  -0.7789
  O  O85  1  0.829700  0.378100  0.963800  1.0  -0.8253
  O  O86  1  0.675400  0.450000  0.117300  1.0  -0.8616
  O  O87  1  0.428100  0.428600  0.926900  1.0  -0.8323
  O  O88  1  0.107200  0.972000  0.060800  1.0  -0.834
  O  O89  1  0.433300  0.281000  0.008200  1.0  -0.788
  O  O90  1  0.308600  0.118100  0.107600  1.0  -0.7901
  O  O91  1  0.141200  0.074400  0.188100  1.0  -0.7785
  O  O92  1  0.621900  0.451600  0.963800  1.0  -0.8254
  O  O93  1  0.550000  0.225400  0.117300  1.0  -0.8613
  O  O94  1  0.999500  0.571400  0.573100  1.0  -0.8315
  O  O95  1  0.135200  0.028000  0.439200  1.0  -0.8334
  O  O96  1  0.152300  0.719000  0.491800  1.0  -0.7867
  O  O97  1  0.190500  0.881900  0.392400  1.0  -0.7902
  O  O98  1  0.066800  0.925600  0.311900  1.0  -0.7806
  O  O99  1  0.170300  0.548400  0.536200  1.0  -0.8242
  O  O100  1  0.324600  0.774600  0.382700  1.0  -0.8611
  O  O101  1  0.571900  0.000500  0.573100  1.0  -0.8315
  O  O102  1  0.892800  0.864800  0.439200  1.0  -0.8333
  O  O103  1  0.566700  0.847700  0.491800  1.0  -0.787
  O  O104  1  0.691400  0.809500  0.392400  1.0  -0.7895
  O  O105  1  0.858800  0.933200  0.311900  1.0  -0.7797
  O  O106  1  0.378100  0.829700  0.536200  1.0  -0.8241
  O  O107  1  0.450000  0.675400  0.382700  1.0  -0.8591
  O  O108  1  0.428600  0.428100  0.573100  1.0  -0.8308
  O  O109  1  0.972000  0.107200  0.439200  1.0  -0.8333
  O  O110  1  0.281000  0.433300  0.491800  1.0  -0.7874
  O  O111  1  0.118100  0.308600  0.392400  1.0  -0.7896
  O  O112  1  0.074400  0.141200  0.311900  1.0  -0.7793
  O  O113  1  0.451600  0.621900  0.536200  1.0  -0.824
  O  O114  1  0.225400  0.550000  0.382700  1.0  -0.8602
  O  O115  1  0.428600  0.000500  0.073100  1.0  -0.8306
  O  O116  1  0.972000  0.864800  0.939200  1.0  -0.8352
  O  O117  1  0.281000  0.847700  0.991800  1.0  -0.7865
  O  O118  1  0.118100  0.809500  0.892400  1.0  -0.7902
  O  O119  1  0.074400  0.933200  0.811900  1.0  -0.78
  O  O120  1  0.451600  0.829700  0.036200  1.0  -0.8241
  O  O121  1  0.225400  0.675400  0.882700  1.0  -0.8592
  O  O122  1  0.999500  0.428100  0.073100  1.0  -0.8315
  O  O123  1  0.135200  0.107200  0.939200  1.0  -0.833
  O  O124  1  0.152300  0.433300  0.991800  1.0  -0.788
  O  O125  1  0.190500  0.308600  0.892400  1.0  -0.7901
  O  O126  1  0.066800  0.141200  0.811900  1.0  -0.7797
  O  O127  1  0.170300  0.621900  0.036200  1.0  -0.8242
  O  O128  1  0.324600  0.550000  0.882700  1.0  -0.86
  O  O129  1  0.571900  0.571400  0.073100  1.0  -0.832
  O  O130  1  0.892800  0.028000  0.939200  1.0  -0.8329
  O  O131  1  0.566700  0.719000  0.991800  1.0  -0.786
  O  O132  1  0.691400  0.881900  0.892400  1.0  -0.7906
  O  O133  1  0.858800  0.925600  0.811900  1.0  -0.7799
  O  O134  1  0.378100  0.548400  0.036200  1.0  -0.8235
  O  O135  1  0.450000  0.774600  0.882700  1.0  -0.8605
  O  O136  1  0.000500  0.428600  0.426900  1.0  -0.8325
  O  O137  1  0.864800  0.972000  0.560800  1.0  -0.8335
  O  O138  1  0.847700  0.281000  0.508200  1.0  -0.7881
  O  O139  1  0.809500  0.118100  0.607600  1.0  -0.7905
  O  O140  1  0.933200  0.074400  0.688100  1.0  -0.778
  O  O141  1  0.829700  0.451600  0.463800  1.0  -0.8252
  O  O142  1  0.675400  0.225400  0.617300  1.0  -0.8603
  O  O143  1  0.428100  0.999500  0.426900  1.0  -0.8325
  O  O144  1  0.107200  0.135200  0.560800  1.0  -0.8341
  O  O145  1  0.433300  0.152300  0.508200  1.0  -0.7879
  O  O146  1  0.308600  0.190500  0.607600  1.0  -0.7892
  O  O147  1  0.141200  0.066800  0.688100  1.0  -0.779
  O  O148  1  0.621900  0.170300  0.463800  1.0  -0.8249
  O  O149  1  0.550000  0.324600  0.617300  1.0  -0.8597
  O  O150  1  0.571400  0.571900  0.426900  1.0  -0.8322
  O  O151  1  0.028000  0.892800  0.560800  1.0  -0.8326
  O  O152  1  0.719000  0.566700  0.508200  1.0  -0.7872
  O  O153  1  0.881900  0.691400  0.607600  1.0  -0.7884
  O  O154  1  0.925600  0.858800  0.688100  1.0  -0.7785
  O  O155  1  0.548400  0.378100  0.463800  1.0  -0.8255
  O  O156  1  0.774600  0.450000  0.617300  1.0  -0.8605
