# generated using pymatgen
data_CoH14C18(NO2)2
_symmetry_space_group_name_H-M   'P 1'
_cell_length_a   9.40440000
_cell_length_b   13.12570000
_cell_length_c   19.88990000
_cell_angle_alpha   109.26600000
_cell_angle_beta   102.46600000
_cell_angle_gamma   90.00000000
_symmetry_Int_Tables_number   1
_chemical_formula_structural   CoH14C18(NO2)2
_chemical_formula_sum   'Co4 H56 C72 N8 O16'
_cell_volume   2256.28976969
_cell_formula_units_Z   4
loop_
 _symmetry_equiv_pos_site_id
 _symmetry_equiv_pos_as_xyz
  1  'x, y, z'
loop_
 _atom_site_type_symbol
 _atom_site_label
 _atom_site_symmetry_multiplicity
 _atom_site_fract_x
 _atom_site_fract_y
 _atom_site_fract_z
 _atom_site_occupancy
 _atom_site_charge
  Co  Co1  1  0.175720  0.142900  0.725020  1.0  0.8504
  Co  Co2  1  0.324280  0.417880  0.274980  1.0  0.8717
  Co  Co3  1  0.824280  0.857100  0.274980  1.0  0.8582
  Co  Co4  1  0.675720  0.582120  0.725020  1.0  0.8677
  H  H5  1  0.859300  0.175400  0.742400  1.0  0.0902
  H  H6  1  0.623500  0.132200  0.675800  1.0  0.1199
  H  H7  1  0.779800  0.979500  0.497800  1.0  0.1193
  H  H8  1  0.010300  0.026800  0.569600  1.0  0.0806
  H  H9  1  0.150400  0.230300  0.887000  1.0  0.0871
  H  H10  1  0.087600  0.173900  0.974600  1.0  0.126
  H  H11  1  0.021300  0.872300  0.831800  1.0  0.1269
  H  H12  1  0.078600  0.937300  0.746800  1.0  0.0763
  H  H13  1  0.446800  0.043700  0.561800  1.0  0.0956
  H  H14  1  0.980900  0.896900  0.950800  1.0  0.1015
  H  H15  1  0.441500  0.309700  0.581600  1.0  0.1017
  H  H16  1  0.160600  0.212000  0.520800  1.0  0.093
  H  H17  1  0.059800  0.212200  0.394600  1.0  0.1053
  H  H18  1  0.345900  0.297800  0.453000  1.0  0.0845
  H  H19  1  0.640700  0.433000  0.257600  1.0  0.0914
  H  H20  1  0.876500  0.456400  0.324200  1.0  0.1216
  H  H21  1  0.720200  0.481700  0.502200  1.0  0.1202
  H  H22  1  0.489700  0.457200  0.430400  1.0  0.0806
  H  H23  1  0.349600  0.343300  0.113000  1.0  0.086
  H  H24  1  0.412400  0.199300  0.025400  1.0  0.1271
  H  H25  1  0.478700  0.040500  0.168200  1.0  0.1264
  H  H26  1  0.421400  0.190500  0.253200  1.0  0.0776
  H  H27  1  0.053200  0.481900  0.438200  1.0  0.0956
  H  H28  1  0.519100  0.946100  0.049200  1.0  0.1019
  H  H29  1  0.058500  0.728100  0.418400  1.0  0.1023
  H  H30  1  0.339400  0.691200  0.479200  1.0  0.0933
  H  H31  1  0.440200  0.817600  0.605400  1.0  0.1045
  H  H32  1  0.154100  0.844800  0.547000  1.0  0.0845
  H  H33  1  0.140700  0.824600  0.257600  1.0  0.0896
  H  H34  1  0.376500  0.867800  0.324200  1.0  0.1214
  H  H35  1  0.220200  0.020500  0.502200  1.0  0.1185
  H  H36  1  0.989700  0.973200  0.430400  1.0  0.0808
  H  H37  1  0.849600  0.769700  0.113000  1.0  0.0873
  H  H38  1  0.912400  0.826100  0.025400  1.0  0.1259
  H  H39  1  0.978700  0.127700  0.168200  1.0  0.1266
  H  H40  1  0.921400  0.062700  0.253200  1.0  0.0764
  H  H41  1  0.553200  0.956300  0.438200  1.0  0.0955
  H  H42  1  0.019100  0.103100  0.049200  1.0  0.1019
  H  H43  1  0.558500  0.690300  0.418400  1.0  0.1018
  H  H44  1  0.839400  0.788000  0.479200  1.0  0.0933
  H  H45  1  0.940200  0.787800  0.605400  1.0  0.1049
  H  H46  1  0.654100  0.702200  0.547000  1.0  0.0847
  H  H47  1  0.359300  0.567000  0.742400  1.0  0.0907
  H  H48  1  0.123500  0.543600  0.675800  1.0  0.1199
  H  H49  1  0.279800  0.518300  0.497800  1.0  0.1204
  H  H50  1  0.510300  0.542800  0.569600  1.0  0.0798
  H  H51  1  0.650400  0.656700  0.887000  1.0  0.0868
  H  H52  1  0.587600  0.800700  0.974600  1.0  0.1278
  H  H53  1  0.521300  0.959500  0.831800  1.0  0.1266
  H  H54  1  0.578600  0.809500  0.746800  1.0  0.078
  H  H55  1  0.946800  0.518100  0.561800  1.0  0.0956
  H  H56  1  0.480900  0.053900  0.950800  1.0  0.1017
  H  H57  1  0.941500  0.271900  0.581600  1.0  0.1017
  H  H58  1  0.660600  0.308800  0.520800  1.0  0.0935
  H  H59  1  0.559800  0.182400  0.394600  1.0  0.1051
  H  H60  1  0.845900  0.155200  0.453000  1.0  0.0844
  C  C61  1  0.842400  0.135340  0.692280  1.0  0.1764
  C  C62  1  0.700800  0.109730  0.652660  1.0  -0.2105
  C  C63  1  0.671200  0.050400  0.578140  1.0  0.1259
  C  C64  1  0.793100  0.019660  0.547720  1.0  -0.1929
  C  C65  1  0.930600  0.048460  0.591120  1.0  0.1679
  C  C66  1  0.122600  0.156510  0.875220  1.0  0.1539
  C  C67  1  0.085700  0.123230  0.928260  1.0  -0.2165
  C  C68  1  0.045900  0.015620  0.913640  1.0  0.1088
  C  C69  1  0.046000  0.946650  0.844500  1.0  -0.229
  C  C70  1  0.081900  0.986160  0.793920  1.0  0.1757
  C  C71  1  0.520800  0.024340  0.535880  1.0  -0.1334
  C  C72  1  0.004100  0.972080  0.966560  1.0  -0.1323
  C  C73  1  0.339200  0.252810  0.648060  1.0  0.7344
  C  C74  1  0.353800  0.274920  0.581120  1.0  -0.1945
  C  C75  1  0.247300  0.247380  0.520520  1.0  -0.0931
  C  C76  1  0.156500  0.282920  0.332840  1.0  0.7113
  C  C77  1  0.146800  0.248970  0.396140  1.0  -0.1741
  C  C78  1  0.256200  0.268280  0.454600  1.0  -0.0734
  C  C79  1  0.657600  0.443060  0.307720  1.0  0.1775
  C  C80  1  0.799200  0.457070  0.347340  1.0  -0.2061
  C  C81  1  0.828800  0.472260  0.421860  1.0  0.1256
  C  C82  1  0.706900  0.471940  0.452280  1.0  -0.1932
  C  C83  1  0.569400  0.457340  0.408880  1.0  0.1686
  C  C84  1  0.377400  0.281290  0.124780  1.0  0.1522
  C  C85  1  0.414300  0.194970  0.071740  1.0  -0.2166
  C  C86  1  0.454100  0.101980  0.086360  1.0  0.1084
  C  C87  1  0.454000  0.102150  0.155500  1.0  -0.2269
  C  C88  1  0.418100  0.192240  0.206080  1.0  0.1742
  C  C89  1  0.979200  0.488460  0.464120  1.0  -0.1337
  C  C90  1  0.495900  0.005520  0.033440  1.0  -0.1287
  C  C91  1  0.160800  0.604750  0.351940  1.0  0.7326
  C  C92  1  0.146200  0.693800  0.418880  1.0  -0.1966
  C  C93  1  0.252700  0.726860  0.479480  1.0  -0.089
  C  C94  1  0.343500  0.950080  0.667160  1.0  0.71
  C  C95  1  0.353200  0.852830  0.603860  1.0  -0.1738
  C  C96  1  0.243800  0.813680  0.545400  1.0  -0.0778
  C  C97  1  0.157600  0.864660  0.307720  1.0  0.1764
  C  C98  1  0.299200  0.890270  0.347340  1.0  -0.2078
  C  C99  1  0.328800  0.949600  0.421860  1.0  0.1261
  C  C100  1  0.206900  0.980340  0.452280  1.0  -0.1937
  C  C101  1  0.069400  0.951540  0.408880  1.0  0.1682
  C  C102  1  0.877400  0.843490  0.124780  1.0  0.154
  C  C103  1  0.914300  0.876770  0.071740  1.0  -0.2164
  C  C104  1  0.954100  0.984380  0.086360  1.0  0.1075
  C  C105  1  0.954000  0.053350  0.155500  1.0  -0.2278
  C  C106  1  0.918100  0.013840  0.206080  1.0  0.1769
  C  C107  1  0.479200  0.975660  0.464120  1.0  -0.1302
  C  C108  1  0.995900  0.027920  0.033440  1.0  -0.1312
  C  C109  1  0.660800  0.747190  0.351940  1.0  0.7357
  C  C110  1  0.646200  0.725080  0.418880  1.0  -0.1965
  C  C111  1  0.752700  0.752620  0.479480  1.0  -0.0889
  C  C112  1  0.843500  0.717080  0.667160  1.0  0.7102
  C  C113  1  0.853200  0.751030  0.603860  1.0  -0.1726
  C  C114  1  0.743800  0.731720  0.545400  1.0  -0.0776
  C  C115  1  0.342400  0.556940  0.692280  1.0  0.1773
  C  C116  1  0.200800  0.542930  0.652660  1.0  -0.2114
  C  C117  1  0.171200  0.527740  0.578140  1.0  0.1264
  C  C118  1  0.293100  0.528060  0.547720  1.0  -0.1927
  C  C119  1  0.430600  0.542660  0.591120  1.0  0.1675
  C  C120  1  0.622600  0.718710  0.875220  1.0  0.1531
  C  C121  1  0.585700  0.805030  0.928260  1.0  -0.2174
  C  C122  1  0.545900  0.898020  0.913640  1.0  0.1088
  C  C123  1  0.546000  0.897850  0.844500  1.0  -0.2266
  C  C124  1  0.581900  0.807760  0.793920  1.0  0.1733
  C  C125  1  0.020800  0.511540  0.535880  1.0  -0.1303
  C  C126  1  0.504100  0.994480  0.966560  1.0  -0.1313
  C  C127  1  0.839200  0.395250  0.648060  1.0  0.7334
  C  C128  1  0.853800  0.306200  0.581120  1.0  -0.1945
  C  C129  1  0.747300  0.273140  0.520520  1.0  -0.0927
  C  C130  1  0.656500  0.049920  0.332840  1.0  0.7105
  C  C131  1  0.646800  0.147170  0.396140  1.0  -0.1744
  C  C132  1  0.756200  0.186320  0.454600  1.0  -0.0743
  N  N133  1  0.958200  0.105920  0.662760  1.0  -0.3267
  N  N134  1  0.121100  0.090060  0.808100  1.0  -0.3194
  N  N135  1  0.541800  0.443160  0.337240  1.0  -0.3271
  N  N136  1  0.378900  0.281960  0.191900  1.0  -0.3174
  N  N137  1  0.041800  0.894080  0.337240  1.0  -0.328
  N  N138  1  0.878900  0.909940  0.191900  1.0  -0.3226
  N  N139  1  0.458200  0.556840  0.662760  1.0  -0.327
  N  N140  1  0.621100  0.718040  0.808100  1.0  -0.3183
  O  O141  1  0.231200  0.192410  0.643740  1.0  -0.5986
  O  O142  1  0.438500  0.294660  0.705200  1.0  -0.5442
  O  O143  1  0.279400  0.321410  0.332640  1.0  -0.5953
  O  O144  1  0.040200  0.275100  0.285260  1.0  -0.5915
  O  O145  1  0.268800  0.548670  0.356260  1.0  -0.599
  O  O146  1  0.061500  0.589460  0.294800  1.0  -0.5504
  O  O147  1  0.220600  0.988770  0.667360  1.0  -0.5954
  O  O148  1  0.459800  0.989840  0.714740  1.0  -0.59
  O  O149  1  0.768800  0.807590  0.356260  1.0  -0.6009
  O  O150  1  0.561500  0.705340  0.294800  1.0  -0.5492
  O  O151  1  0.720600  0.678590  0.667360  1.0  -0.5954
  O  O152  1  0.959800  0.724900  0.714740  1.0  -0.5905
  O  O153  1  0.731200  0.451330  0.643740  1.0  -0.5983
  O  O154  1  0.938500  0.410540  0.705200  1.0  -0.5468
  O  O155  1  0.779400  0.011230  0.332640  1.0  -0.5955
  O  O156  1  0.540200  0.010160  0.285260  1.0  -0.5903
