# generated using pymatgen
data_CoH14C18(NO2)2
_symmetry_space_group_name_H-M   'P 1'
_cell_length_a   13.71700000
_cell_length_b   14.78780000
_cell_length_c   21.02820000
_cell_angle_alpha   90.00000000
_cell_angle_beta   90.00000000
_cell_angle_gamma   90.00000000
_symmetry_Int_Tables_number   1
_chemical_formula_structural   CoH14C18(NO2)2
_chemical_formula_sum   'Co8 H112 C144 N16 O32'
_cell_volume   4265.44951252
_cell_formula_units_Z   8
loop_
 _symmetry_equiv_pos_site_id
 _symmetry_equiv_pos_as_xyz
  1  'x, y, z'
loop_
 _atom_site_type_symbol
 _atom_site_label
 _atom_site_symmetry_multiplicity
 _atom_site_fract_x
 _atom_site_fract_y
 _atom_site_fract_z
 _atom_site_occupancy
 _atom_site_charge
  Co  Co1  1  0.530920  0.900240  0.561940  1.0  0.9357
  Co  Co2  1  0.469080  0.400240  0.938060  1.0  0.936
  Co  Co3  1  0.469080  0.099760  0.438060  1.0  0.9362
  Co  Co4  1  0.530920  0.599760  0.061940  1.0  0.9358
  Co  Co5  1  0.969080  0.099760  0.061940  1.0  0.9359
  Co  Co6  1  0.030920  0.599760  0.438060  1.0  0.9361
  Co  Co7  1  0.030920  0.900240  0.938060  1.0  0.9359
  Co  Co8  1  0.969080  0.400240  0.561940  1.0  0.9359
  H  H9  1  0.348900  0.967700  0.633800  1.0  0.0771
  H  H10  1  0.182800  0.970700  0.629200  1.0  0.1221
  H  H11  1  0.197200  0.825000  0.467700  1.0  0.1222
  H  H12  1  0.363200  0.825100  0.477700  1.0  0.0652
  H  H13  1  0.693000  0.971600  0.648800  1.0  0.0836
  H  H14  1  0.858800  0.982100  0.658600  1.0  0.1202
  H  H15  1  0.884000  0.858300  0.489100  1.0  0.1245
  H  H16  1  0.717600  0.852200  0.484200  1.0  0.0729
  H  H17  1  0.038900  0.867500  0.503400  1.0  0.0924
  H  H18  1  0.022100  0.955600  0.618500  1.0  0.098
  H  H19  1  0.517100  0.637700  0.677400  1.0  0.0921
  H  H20  1  0.530300  0.777100  0.764900  1.0  0.0952
  H  H21  1  0.529500  0.730700  0.875100  1.0  0.0989
  H  H22  1  0.507900  0.588800  0.791000  1.0  0.0864
  H  H23  1  0.651100  0.467700  0.866200  1.0  0.0775
  H  H24  1  0.817200  0.470700  0.870800  1.0  0.1215
  H  H25  1  0.802800  0.325000  0.032300  1.0  0.1217
  H  H26  1  0.636800  0.325100  0.022300  1.0  0.0657
  H  H27  1  0.307000  0.471600  0.851200  1.0  0.0833
  H  H28  1  0.141200  0.482100  0.841400  1.0  0.1204
  H  H29  1  0.116000  0.358300  0.010900  1.0  0.1246
  H  H30  1  0.282400  0.352200  0.015800  1.0  0.0729
  H  H31  1  0.961100  0.367500  0.996600  1.0  0.0927
  H  H32  1  0.977900  0.455600  0.881500  1.0  0.0975
  H  H33  1  0.482900  0.137700  0.822600  1.0  0.0908
  H  H34  1  0.469700  0.277100  0.735100  1.0  0.0954
  H  H35  1  0.470500  0.230700  0.624900  1.0  0.0983
  H  H36  1  0.492100  0.088800  0.709000  1.0  0.0865
  H  H37  1  0.651100  0.032300  0.366200  1.0  0.0775
  H  H38  1  0.817200  0.029300  0.370800  1.0  0.1217
  H  H39  1  0.802800  0.175000  0.532300  1.0  0.1215
  H  H40  1  0.636800  0.174900  0.522300  1.0  0.0655
  H  H41  1  0.307000  0.028400  0.351200  1.0  0.0837
  H  H42  1  0.141200  0.017900  0.341400  1.0  0.1208
  H  H43  1  0.116000  0.141700  0.510900  1.0  0.1244
  H  H44  1  0.282400  0.147800  0.515800  1.0  0.0726
  H  H45  1  0.961100  0.132500  0.496600  1.0  0.0924
  H  H46  1  0.977900  0.044400  0.381500  1.0  0.0976
  H  H47  1  0.482900  0.362300  0.322600  1.0  0.0892
  H  H48  1  0.469700  0.222900  0.235100  1.0  0.0958
  H  H49  1  0.470500  0.269300  0.124900  1.0  0.0993
  H  H50  1  0.492100  0.411200  0.209000  1.0  0.0859
  H  H51  1  0.348900  0.532300  0.133800  1.0  0.0773
  H  H52  1  0.182800  0.529300  0.129200  1.0  0.1217
  H  H53  1  0.197200  0.675000  0.967700  1.0  0.1222
  H  H54  1  0.363200  0.674900  0.977700  1.0  0.0654
  H  H55  1  0.693000  0.528400  0.148800  1.0  0.0839
  H  H56  1  0.858800  0.517900  0.158600  1.0  0.1206
  H  H57  1  0.884000  0.641700  0.989100  1.0  0.1244
  H  H58  1  0.717600  0.647800  0.984200  1.0  0.073
  H  H59  1  0.038900  0.632500  0.003400  1.0  0.0925
  H  H60  1  0.022100  0.544400  0.118500  1.0  0.0981
  H  H61  1  0.517100  0.862300  0.177400  1.0  0.0904
  H  H62  1  0.530300  0.722900  0.264900  1.0  0.0956
  H  H63  1  0.529500  0.769300  0.375100  1.0  0.1002
  H  H64  1  0.507900  0.911200  0.291000  1.0  0.0853
  H  H65  1  0.151100  0.032300  0.133800  1.0  0.0773
  H  H66  1  0.317200  0.029300  0.129200  1.0  0.1219
  H  H67  1  0.302800  0.175000  0.967700  1.0  0.1223
  H  H68  1  0.136800  0.174900  0.977700  1.0  0.0654
  H  H69  1  0.807000  0.028400  0.148800  1.0  0.0841
  H  H70  1  0.641200  0.017900  0.158600  1.0  0.1204
  H  H71  1  0.616000  0.141700  0.989100  1.0  0.1248
  H  H72  1  0.782400  0.147800  0.984200  1.0  0.073
  H  H73  1  0.461100  0.132500  0.003400  1.0  0.092
  H  H74  1  0.477900  0.044400  0.118500  1.0  0.098
  H  H75  1  0.982900  0.362300  0.177400  1.0  0.0904
  H  H76  1  0.969700  0.222900  0.264900  1.0  0.0958
  H  H77  1  0.970500  0.269300  0.375100  1.0  0.1005
  H  H78  1  0.992100  0.411200  0.291000  1.0  0.0855
  H  H79  1  0.848900  0.532300  0.366200  1.0  0.0774
  H  H80  1  0.682800  0.529300  0.370800  1.0  0.1219
  H  H81  1  0.697200  0.675000  0.532300  1.0  0.1214
  H  H82  1  0.863200  0.674900  0.522300  1.0  0.0655
  H  H83  1  0.193000  0.528400  0.351200  1.0  0.0836
  H  H84  1  0.358800  0.517900  0.341400  1.0  0.121
  H  H85  1  0.384000  0.641700  0.510900  1.0  0.124
  H  H86  1  0.217600  0.647800  0.515800  1.0  0.0726
  H  H87  1  0.538900  0.632500  0.496600  1.0  0.0926
  H  H88  1  0.522100  0.544400  0.381500  1.0  0.0976
  H  H89  1  0.017100  0.862300  0.322600  1.0  0.0892
  H  H90  1  0.030300  0.722900  0.235100  1.0  0.0957
  H  H91  1  0.029500  0.769300  0.124900  1.0  0.0993
  H  H92  1  0.007900  0.911200  0.209000  1.0  0.0857
  H  H93  1  0.848900  0.967700  0.866200  1.0  0.0772
  H  H94  1  0.682800  0.970700  0.870800  1.0  0.1219
  H  H95  1  0.697200  0.825000  0.032300  1.0  0.1215
  H  H96  1  0.863200  0.825100  0.022300  1.0  0.0659
  H  H97  1  0.193000  0.971600  0.851200  1.0  0.0834
  H  H98  1  0.358800  0.982100  0.841400  1.0  0.1204
  H  H99  1  0.384000  0.858300  0.010900  1.0  0.1244
  H  H100  1  0.217600  0.852200  0.015800  1.0  0.0729
  H  H101  1  0.538900  0.867500  0.996600  1.0  0.0929
  H  H102  1  0.522100  0.955600  0.881500  1.0  0.0973
  H  H103  1  0.017100  0.637700  0.822600  1.0  0.0911
  H  H104  1  0.030300  0.777100  0.735100  1.0  0.0953
  H  H105  1  0.029500  0.730700  0.624900  1.0  0.0983
  H  H106  1  0.007900  0.588800  0.709000  1.0  0.0864
  H  H107  1  0.151100  0.467700  0.633800  1.0  0.0772
  H  H108  1  0.317200  0.470700  0.629200  1.0  0.122
  H  H109  1  0.302800  0.325000  0.467700  1.0  0.1224
  H  H110  1  0.136800  0.325100  0.477700  1.0  0.0651
  H  H111  1  0.807000  0.471600  0.648800  1.0  0.0837
  H  H112  1  0.641200  0.482100  0.658600  1.0  0.1202
  H  H113  1  0.616000  0.358300  0.489100  1.0  0.1249
  H  H114  1  0.782400  0.352200  0.484200  1.0  0.0729
  H  H115  1  0.461100  0.367500  0.503400  1.0  0.0921
  H  H116  1  0.477900  0.455600  0.618500  1.0  0.0981
  H  H117  1  0.982900  0.137700  0.677400  1.0  0.0919
  H  H118  1  0.969700  0.277100  0.764900  1.0  0.0954
  H  H119  1  0.970500  0.230700  0.875100  1.0  0.0991
  H  H120  1  0.992100  0.088800  0.791000  1.0  0.0867
  C  C121  1  0.317900  0.938600  0.599600  1.0  0.1636
  C  C122  1  0.218200  0.940600  0.597300  1.0  -0.2217
  C  C123  1  0.169100  0.897800  0.547500  1.0  0.1502
  C  C124  1  0.226400  0.854700  0.502300  1.0  -0.2205
  C  C125  1  0.326200  0.855700  0.508600  1.0  0.1786
  C  C126  1  0.732200  0.947900  0.616100  1.0  0.1644
  C  C127  1  0.831700  0.954700  0.622300  1.0  -0.2262
  C  C128  1  0.892400  0.921100  0.574800  1.0  0.1567
  C  C129  1  0.846700  0.882100  0.522700  1.0  -0.2202
  C  C130  1  0.746600  0.878300  0.520300  1.0  0.1691
  C  C131  1  0.063400  0.894700  0.540500  1.0  -0.1115
  C  C132  1  0.998100  0.926900  0.581900  1.0  -0.1164
  C  C133  1  0.526400  0.769400  0.641200  1.0  0.6903
  C  C134  1  0.521700  0.698300  0.690400  1.0  -0.2274
  C  C135  1  0.523600  0.716300  0.752700  1.0  -0.0405
  C  C136  1  0.511800  0.602000  0.915900  1.0  0.6779
  C  C137  1  0.520500  0.669800  0.863700  1.0  -0.2026
  C  C138  1  0.516200  0.649700  0.802600  1.0  -0.0351
  C  C139  1  0.682100  0.438600  0.900400  1.0  0.163
  C  C140  1  0.781800  0.440600  0.902700  1.0  -0.22
  C  C141  1  0.830900  0.397800  0.952500  1.0  0.1501
  C  C142  1  0.773600  0.354700  0.997700  1.0  -0.2178
  C  C143  1  0.673800  0.355700  0.991400  1.0  0.1789
  C  C144  1  0.267800  0.447900  0.883900  1.0  0.1648
  C  C145  1  0.168300  0.454700  0.877700  1.0  -0.2255
  C  C146  1  0.107600  0.421100  0.925200  1.0  0.1557
  C  C147  1  0.153300  0.382100  0.977300  1.0  -0.2214
  C  C148  1  0.253400  0.378300  0.979700  1.0  0.17
  C  C149  1  0.936600  0.394700  0.959500  1.0  -0.1122
  C  C150  1  0.001900  0.426900  0.918100  1.0  -0.1166
  C  C151  1  0.473600  0.269400  0.858800  1.0  0.6917
  C  C152  1  0.478300  0.198300  0.809600  1.0  -0.2284
  C  C153  1  0.476400  0.216300  0.747300  1.0  -0.0411
  C  C154  1  0.488200  0.102000  0.584100  1.0  0.6784
  C  C155  1  0.479500  0.169800  0.636300  1.0  -0.2022
  C  C156  1  0.483800  0.149700  0.697400  1.0  -0.0361
  C  C157  1  0.682100  0.061400  0.400400  1.0  0.163
  C  C158  1  0.781800  0.059400  0.402700  1.0  -0.2203
  C  C159  1  0.830900  0.102200  0.452500  1.0  0.15
  C  C160  1  0.773600  0.145300  0.497700  1.0  -0.218
  C  C161  1  0.673800  0.144300  0.491400  1.0  0.1784
  C  C162  1  0.267800  0.052100  0.383900  1.0  0.1649
  C  C163  1  0.168300  0.045300  0.377700  1.0  -0.2258
  C  C164  1  0.107600  0.078900  0.425200  1.0  0.1559
  C  C165  1  0.153300  0.117900  0.477300  1.0  -0.2215
  C  C166  1  0.253400  0.121700  0.479700  1.0  0.1693
  C  C167  1  0.936600  0.105300  0.459500  1.0  -0.1122
  C  C168  1  0.001900  0.073100  0.418100  1.0  -0.1167
  C  C169  1  0.473600  0.230600  0.358800  1.0  0.6914
  C  C170  1  0.478300  0.301700  0.309600  1.0  -0.2291
  C  C171  1  0.476400  0.283700  0.247300  1.0  -0.0408
  C  C172  1  0.488200  0.398000  0.084100  1.0  0.6784
  C  C173  1  0.479500  0.330200  0.136300  1.0  -0.2
  C  C174  1  0.483800  0.350300  0.197400  1.0  -0.0341
  C  C175  1  0.317900  0.561400  0.099600  1.0  0.1638
  C  C176  1  0.218200  0.559400  0.097300  1.0  -0.2227
  C  C177  1  0.169100  0.602200  0.047500  1.0  0.1506
  C  C178  1  0.226400  0.645300  0.002300  1.0  -0.2202
  C  C179  1  0.326200  0.644300  0.008600  1.0  0.1784
  C  C180  1  0.732200  0.552100  0.116100  1.0  0.1647
  C  C181  1  0.831700  0.545300  0.122300  1.0  -0.226
  C  C182  1  0.892400  0.578900  0.074800  1.0  0.1569
  C  C183  1  0.846700  0.617900  0.022700  1.0  -0.2202
  C  C184  1  0.746600  0.621700  0.020300  1.0  0.1686
  C  C185  1  0.063400  0.605300  0.040500  1.0  -0.1116
  C  C186  1  0.998100  0.573100  0.081900  1.0  -0.1165
  C  C187  1  0.526400  0.730600  0.141200  1.0  0.6898
  C  C188  1  0.521700  0.801700  0.190400  1.0  -0.227
  C  C189  1  0.523600  0.783700  0.252700  1.0  -0.0401
  C  C190  1  0.511800  0.898000  0.415900  1.0  0.6784
  C  C191  1  0.520500  0.830200  0.363700  1.0  -0.2002
  C  C192  1  0.516200  0.850300  0.302600  1.0  -0.033
  C  C193  1  0.182100  0.061400  0.099600  1.0  0.1628
  C  C194  1  0.281800  0.059400  0.097300  1.0  -0.2216
  C  C195  1  0.330900  0.102200  0.047500  1.0  0.1506
  C  C196  1  0.273600  0.145300  0.002300  1.0  -0.2184
  C  C197  1  0.173800  0.144300  0.008600  1.0  0.1781
  C  C198  1  0.767800  0.052100  0.116100  1.0  0.1657
  C  C199  1  0.668300  0.045300  0.122300  1.0  -0.2279
  C  C200  1  0.607600  0.078900  0.074800  1.0  0.1573
  C  C201  1  0.653300  0.117900  0.022700  1.0  -0.221
  C  C202  1  0.753400  0.121700  0.020300  1.0  0.1692
  C  C203  1  0.436600  0.105300  0.040500  1.0  -0.112
  C  C204  1  0.501900  0.073100  0.081900  1.0  -0.1172
  C  C205  1  0.973600  0.230600  0.141200  1.0  0.6899
  C  C206  1  0.978300  0.301700  0.190400  1.0  -0.2278
  C  C207  1  0.976400  0.283700  0.252700  1.0  -0.0408
  C  C208  1  0.988200  0.398000  0.415900  1.0  0.6783
  C  C209  1  0.979500  0.330200  0.363700  1.0  -0.1999
  C  C210  1  0.983800  0.350300  0.302600  1.0  -0.0332
  C  C211  1  0.817900  0.561400  0.400400  1.0  0.1637
  C  C212  1  0.718200  0.559400  0.402700  1.0  -0.2206
  C  C213  1  0.669100  0.602200  0.452500  1.0  0.1501
  C  C214  1  0.726400  0.645300  0.497700  1.0  -0.2197
  C  C215  1  0.826200  0.644300  0.491400  1.0  0.1786
  C  C216  1  0.232200  0.552100  0.383900  1.0  0.1648
  C  C217  1  0.331700  0.545300  0.377700  1.0  -0.2247
  C  C218  1  0.392400  0.578900  0.425200  1.0  0.1557
  C  C219  1  0.346700  0.617900  0.477300  1.0  -0.2207
  C  C220  1  0.246600  0.621700  0.479700  1.0  0.1685
  C  C221  1  0.563400  0.605300  0.459500  1.0  -0.1117
  C  C222  1  0.498100  0.573100  0.418100  1.0  -0.1161
  C  C223  1  0.026400  0.730600  0.358800  1.0  0.6913
  C  C224  1  0.021700  0.801700  0.309600  1.0  -0.2282
  C  C225  1  0.023600  0.783700  0.247300  1.0  -0.0402
  C  C226  1  0.011800  0.898000  0.084100  1.0  0.6785
  C  C227  1  0.020500  0.830200  0.136300  1.0  -0.2002
  C  C228  1  0.016200  0.850300  0.197400  1.0  -0.0339
  C  C229  1  0.817900  0.938600  0.900400  1.0  0.1637
  C  C230  1  0.718200  0.940600  0.902700  1.0  -0.2198
  C  C231  1  0.669100  0.897800  0.952500  1.0  0.15
  C  C232  1  0.726400  0.854700  0.997700  1.0  -0.2197
  C  C233  1  0.826200  0.855700  0.991400  1.0  0.1791
  C  C234  1  0.232200  0.947900  0.883900  1.0  0.1647
  C  C235  1  0.331700  0.954700  0.877700  1.0  -0.2244
  C  C236  1  0.392400  0.921100  0.925200  1.0  0.1557
  C  C237  1  0.346700  0.882100  0.977300  1.0  -0.2205
  C  C238  1  0.246600  0.878300  0.979700  1.0  0.1692
  C  C239  1  0.563400  0.894700  0.959500  1.0  -0.1116
  C  C240  1  0.498100  0.926900  0.918100  1.0  -0.116
  C  C241  1  0.026400  0.769400  0.858800  1.0  0.6916
  C  C242  1  0.021700  0.698300  0.809600  1.0  -0.2276
  C  C243  1  0.023600  0.716300  0.747300  1.0  -0.0405
  C  C244  1  0.011800  0.602000  0.584100  1.0  0.6784
  C  C245  1  0.020500  0.669800  0.636300  1.0  -0.2023
  C  C246  1  0.016200  0.649700  0.697400  1.0  -0.036
  C  C247  1  0.182100  0.438600  0.599600  1.0  0.1625
  C  C248  1  0.281800  0.440600  0.597300  1.0  -0.2209
  C  C249  1  0.330900  0.397800  0.547500  1.0  0.1502
  C  C250  1  0.273600  0.354700  0.502300  1.0  -0.2185
  C  C251  1  0.173800  0.355700  0.508600  1.0  0.1783
  C  C252  1  0.767800  0.447900  0.616100  1.0  0.1653
  C  C253  1  0.668300  0.454700  0.622300  1.0  -0.2279
  C  C254  1  0.607600  0.421100  0.574800  1.0  0.1571
  C  C255  1  0.653300  0.382100  0.522700  1.0  -0.2211
  C  C256  1  0.753400  0.378300  0.520300  1.0  0.1698
  C  C257  1  0.436600  0.394700  0.540500  1.0  -0.112
  C  C258  1  0.501900  0.426900  0.581900  1.0  -0.1171
  C  C259  1  0.973600  0.269400  0.641200  1.0  0.6903
  C  C260  1  0.978300  0.198300  0.690400  1.0  -0.2282
  C  C261  1  0.976400  0.216300  0.752700  1.0  -0.0412
  C  C262  1  0.988200  0.102000  0.915900  1.0  0.6776
  C  C263  1  0.979500  0.169800  0.863700  1.0  -0.2024
  C  C264  1  0.983800  0.149700  0.802600  1.0  -0.0351
  N  N265  1  0.374300  0.897500  0.555770  1.0  -0.3051
  N  N266  1  0.687900  0.909600  0.566120  1.0  -0.3403
  N  N267  1  0.625700  0.397500  0.944230  1.0  -0.3063
  N  N268  1  0.312100  0.409600  0.933880  1.0  -0.3399
  N  N269  1  0.625700  0.102500  0.444230  1.0  -0.3067
  N  N270  1  0.312100  0.090400  0.433880  1.0  -0.3407
  N  N271  1  0.374300  0.602500  0.055770  1.0  -0.3054
  N  N272  1  0.687900  0.590400  0.066120  1.0  -0.3406
  N  N273  1  0.125700  0.102500  0.055770  1.0  -0.3067
  N  N274  1  0.812100  0.090400  0.066120  1.0  -0.3391
  N  N275  1  0.874300  0.602500  0.444230  1.0  -0.3063
  N  N276  1  0.187900  0.590400  0.433880  1.0  -0.3419
  N  N277  1  0.874300  0.897500  0.944230  1.0  -0.3059
  N  N278  1  0.187900  0.909600  0.933880  1.0  -0.3412
  N  N279  1  0.125700  0.397500  0.555770  1.0  -0.3065
  N  N280  1  0.812100  0.409600  0.566120  1.0  -0.3389
  O  O281  1  0.525900  0.852300  0.657600  1.0  -0.5843
  O  O282  1  0.529500  0.748900  0.583520  1.0  -0.5821
  O  O283  1  0.544400  0.627100  0.968850  1.0  -0.606
  O  O284  1  0.473500  0.527900  0.903120  1.0  -0.5982
  O  O285  1  0.474100  0.352300  0.842400  1.0  -0.5837
  O  O286  1  0.470500  0.248900  0.916480  1.0  -0.5834
  O  O287  1  0.455600  0.127100  0.531150  1.0  -0.6052
  O  O288  1  0.526500  0.027900  0.596880  1.0  -0.5998
  O  O289  1  0.474100  0.147700  0.342400  1.0  -0.5825
  O  O290  1  0.470500  0.251100  0.416480  1.0  -0.583
  O  O291  1  0.455600  0.372900  0.031150  1.0  -0.6055
  O  O292  1  0.526500  0.472100  0.096880  1.0  -0.5998
  O  O293  1  0.525900  0.647700  0.157600  1.0  -0.5835
  O  O294  1  0.529500  0.751100  0.083520  1.0  -0.5819
  O  O295  1  0.544400  0.872900  0.468850  1.0  -0.6063
  O  O296  1  0.473500  0.972100  0.403120  1.0  -0.5984
  O  O297  1  0.974100  0.147700  0.157600  1.0  -0.5832
  O  O298  1  0.970500  0.251100  0.083520  1.0  -0.582
  O  O299  1  0.955600  0.372900  0.468850  1.0  -0.6056
  O  O300  1  0.026500  0.472100  0.403120  1.0  -0.5988
  O  O301  1  0.025900  0.647700  0.342400  1.0  -0.5828
  O  O302  1  0.029500  0.751100  0.416480  1.0  -0.583
  O  O303  1  0.044400  0.872900  0.031150  1.0  -0.6064
  O  O304  1  0.973500  0.972100  0.096880  1.0  -0.5993
  O  O305  1  0.025900  0.852300  0.842400  1.0  -0.5838
  O  O306  1  0.029500  0.748900  0.916480  1.0  -0.5833
  O  O307  1  0.044400  0.627100  0.531150  1.0  -0.6058
  O  O308  1  0.973500  0.527900  0.596880  1.0  -0.5992
  O  O309  1  0.974100  0.352300  0.657600  1.0  -0.5843
  O  O310  1  0.970500  0.248900  0.583520  1.0  -0.5822
  O  O311  1  0.955600  0.127100  0.968850  1.0  -0.6055
  O  O312  1  0.026500  0.027900  0.903120  1.0  -0.5983
