# generated using pymatgen
data_Ce2H20C36O13
_symmetry_space_group_name_H-M   'P 1'
_cell_length_a   12.48180000
_cell_length_b   21.76300000
_cell_length_c   16.50900000
_cell_angle_alpha   90.00000000
_cell_angle_beta   103.57700000
_cell_angle_gamma   90.00000000
_symmetry_Int_Tables_number   1
_chemical_formula_structural   Ce2H20C36O13
_chemical_formula_sum   'Ce8 H80 C144 O52'
_cell_volume   4359.20936599
_cell_formula_units_Z   4
loop_
 _symmetry_equiv_pos_site_id
 _symmetry_equiv_pos_as_xyz
  1  'x, y, z'
loop_
 _atom_site_type_symbol
 _atom_site_label
 _atom_site_symmetry_multiplicity
 _atom_site_fract_x
 _atom_site_fract_y
 _atom_site_fract_z
 _atom_site_occupancy
 _atom_site_charge
  Ce  Ce1  1  0.971060  0.952620  0.099790  1.0  2.2662
  Ce  Ce2  1  0.471060  0.452620  0.099790  1.0  2.2662
  Ce  Ce3  1  0.028940  0.952620  0.400210  1.0  2.2642
  Ce  Ce4  1  0.528940  0.452620  0.400210  1.0  2.2642
  Ce  Ce5  1  0.028940  0.047380  0.900210  1.0  2.2615
  Ce  Ce6  1  0.528940  0.547380  0.900210  1.0  2.2615
  Ce  Ce7  1  0.971060  0.047380  0.599790  1.0  2.2642
  Ce  Ce8  1  0.471060  0.547380  0.599790  1.0  2.2642
  H  H9  1  0.942500  0.026200  0.234200  1.0  0.4554
  H  H10  1  0.618200  0.950700  0.958600  1.0  0.1225
  H  H11  1  0.435800  0.950000  0.889600  1.0  0.1098
  H  H12  1  0.708500  0.952800  0.742300  1.0  0.0999
  H  H13  1  0.863200  0.165700  0.941900  1.0  0.1019
  H  H14  1  0.669600  0.234100  0.132300  1.0  0.1142
  H  H15  1  0.746200  0.137700  0.146000  1.0  0.1162
  H  H16  1  0.695700  0.892000  0.350900  1.0  0.0923
  H  H17  1  0.653900  0.898000  0.105000  1.0  0.1192
  H  H18  1  0.467600  0.890900  0.088600  1.0  0.1125
  H  H19  1  0.442500  0.526200  0.234200  1.0  0.4554
  H  H20  1  0.118200  0.450700  0.958600  1.0  0.1225
  H  H21  1  0.935800  0.450000  0.889600  1.0  0.1098
  H  H22  1  0.208500  0.452800  0.742300  1.0  0.0999
  H  H23  1  0.363200  0.665700  0.941900  1.0  0.1019
  H  H24  1  0.169600  0.734100  0.132300  1.0  0.1142
  H  H25  1  0.246200  0.637700  0.146000  1.0  0.1162
  H  H26  1  0.195700  0.392000  0.350900  1.0  0.0923
  H  H27  1  0.153900  0.398000  0.105000  1.0  0.1192
  H  H28  1  0.967600  0.390900  0.088600  1.0  0.1125
  H  H29  1  0.057500  0.026200  0.265800  1.0  0.4569
  H  H30  1  0.381800  0.950700  0.541400  1.0  0.1227
  H  H31  1  0.564200  0.950000  0.610400  1.0  0.1104
  H  H32  1  0.291500  0.952800  0.757700  1.0  0.0999
  H  H33  1  0.136800  0.165700  0.558100  1.0  0.102
  H  H34  1  0.330400  0.234100  0.367700  1.0  0.1146
  H  H35  1  0.253800  0.137700  0.354000  1.0  0.1162
  H  H36  1  0.304300  0.892000  0.149100  1.0  0.0919
  H  H37  1  0.346100  0.898000  0.395000  1.0  0.1199
  H  H38  1  0.532400  0.890900  0.411400  1.0  0.1125
  H  H39  1  0.557500  0.526200  0.265800  1.0  0.4569
  H  H40  1  0.881800  0.450700  0.541400  1.0  0.1227
  H  H41  1  0.064200  0.450000  0.610400  1.0  0.1104
  H  H42  1  0.791500  0.452800  0.757700  1.0  0.0999
  H  H43  1  0.636800  0.665700  0.558100  1.0  0.102
  H  H44  1  0.830400  0.734100  0.367700  1.0  0.1146
  H  H45  1  0.753800  0.637700  0.354000  1.0  0.1162
  H  H46  1  0.804300  0.392000  0.149100  1.0  0.0919
  H  H47  1  0.846100  0.398000  0.395000  1.0  0.1199
  H  H48  1  0.032400  0.390900  0.411400  1.0  0.1125
  H  H49  1  0.057500  0.973800  0.765800  1.0  0.4572
  H  H50  1  0.381800  0.049300  0.041400  1.0  0.1226
  H  H51  1  0.564200  0.050000  0.110400  1.0  0.1105
  H  H52  1  0.291500  0.047200  0.257700  1.0  0.0977
  H  H53  1  0.136800  0.834300  0.058100  1.0  0.1023
  H  H54  1  0.330400  0.765900  0.867700  1.0  0.1145
  H  H55  1  0.253800  0.862300  0.854000  1.0  0.1157
  H  H56  1  0.304300  0.108000  0.649100  1.0  0.0921
  H  H57  1  0.346100  0.102000  0.895000  1.0  0.1201
  H  H58  1  0.532400  0.109100  0.911400  1.0  0.1123
  H  H59  1  0.557500  0.473800  0.765800  1.0  0.4572
  H  H60  1  0.881800  0.549300  0.041400  1.0  0.1226
  H  H61  1  0.064200  0.550000  0.110400  1.0  0.1105
  H  H62  1  0.791500  0.547200  0.257700  1.0  0.0977
  H  H63  1  0.636800  0.334300  0.058100  1.0  0.1023
  H  H64  1  0.830400  0.265900  0.867700  1.0  0.1145
  H  H65  1  0.753800  0.362300  0.854000  1.0  0.1157
  H  H66  1  0.804300  0.608000  0.649100  1.0  0.0921
  H  H67  1  0.846100  0.602000  0.895000  1.0  0.1201
  H  H68  1  0.032400  0.609100  0.911400  1.0  0.1123
  H  H69  1  0.942500  0.973800  0.734200  1.0  0.4551
  H  H70  1  0.618200  0.049300  0.458600  1.0  0.1225
  H  H71  1  0.435800  0.050000  0.389600  1.0  0.1101
  H  H72  1  0.708500  0.047200  0.242300  1.0  0.1003
  H  H73  1  0.863200  0.834300  0.441900  1.0  0.102
  H  H74  1  0.669600  0.765900  0.632300  1.0  0.1144
  H  H75  1  0.746200  0.862300  0.646000  1.0  0.1158
  H  H76  1  0.695700  0.108000  0.850900  1.0  0.0925
  H  H77  1  0.653900  0.102000  0.605000  1.0  0.1192
  H  H78  1  0.467600  0.109100  0.588600  1.0  0.1127
  H  H79  1  0.442500  0.473800  0.734200  1.0  0.4551
  H  H80  1  0.118200  0.549300  0.458600  1.0  0.1225
  H  H81  1  0.935800  0.550000  0.389600  1.0  0.1101
  H  H82  1  0.208500  0.547200  0.242300  1.0  0.1003
  H  H83  1  0.363200  0.334300  0.441900  1.0  0.102
  H  H84  1  0.169600  0.265900  0.632300  1.0  0.1144
  H  H85  1  0.246200  0.362300  0.646000  1.0  0.1158
  H  H86  1  0.195700  0.608000  0.850900  1.0  0.0925
  H  H87  1  0.153900  0.602000  0.605000  1.0  0.1192
  H  H88  1  0.967600  0.609100  0.588600  1.0  0.1127
  C  C89  1  0.799800  0.956700  0.901900  1.0  0.762
  C  C90  1  0.680900  0.953500  0.854900  1.0  -0.1337
  C  C91  1  0.598600  0.951500  0.900700  1.0  -0.0383
  C  C92  1  0.489800  0.950800  0.859300  1.0  -0.1192
  C  C93  1  0.458700  0.951200  0.772700  1.0  0.0201
  C  C94  1  0.653300  0.952600  0.771700  1.0  -0.0759
  C  C95  1  0.863700  0.079000  0.055600  1.0  0.6989
  C  C96  1  0.813800  0.142500  0.043500  1.0  -0.1431
  C  C97  1  0.824400  0.179800  0.979900  1.0  -0.1174
  C  C98  1  0.778800  0.238700  0.970100  1.0  0.0233
  C  C99  1  0.709300  0.221000  0.094300  1.0  -0.1293
  C  C100  1  0.754300  0.163100  0.102600  1.0  -0.0696
  C  C101  1  0.816100  0.900600  0.240800  1.0  0.7282
  C  C102  1  0.649400  0.893000  0.297800  1.0  -0.1173
  C  C103  1  0.693800  0.894900  0.231100  1.0  -0.1568
  C  C104  1  0.624300  0.895600  0.151500  1.0  -0.042
  C  C105  1  0.513100  0.892700  0.141900  1.0  -0.1338
  C  C106  1  0.465900  0.892500  0.210600  1.0  0.0597
  C  C107  1  0.299800  0.456700  0.901900  1.0  0.762
  C  C108  1  0.180900  0.453500  0.854900  1.0  -0.1337
  C  C109  1  0.098600  0.451500  0.900700  1.0  -0.0383
  C  C110  1  0.989800  0.450800  0.859300  1.0  -0.1192
  C  C111  1  0.958700  0.451200  0.772700  1.0  0.0201
  C  C112  1  0.153300  0.452600  0.771700  1.0  -0.0759
  C  C113  1  0.363700  0.579000  0.055600  1.0  0.6989
  C  C114  1  0.313800  0.642500  0.043500  1.0  -0.1431
  C  C115  1  0.324400  0.679800  0.979900  1.0  -0.1174
  C  C116  1  0.278800  0.738700  0.970100  1.0  0.0233
  C  C117  1  0.209300  0.721000  0.094300  1.0  -0.1293
  C  C118  1  0.254300  0.663100  0.102600  1.0  -0.0696
  C  C119  1  0.316100  0.400600  0.240800  1.0  0.7282
  C  C120  1  0.149400  0.393000  0.297800  1.0  -0.1173
  C  C121  1  0.193800  0.394900  0.231100  1.0  -0.1568
  C  C122  1  0.124300  0.395600  0.151500  1.0  -0.042
  C  C123  1  0.013100  0.392700  0.141900  1.0  -0.1338
  C  C124  1  0.965900  0.392500  0.210600  1.0  0.0597
  C  C125  1  0.200200  0.956700  0.598100  1.0  0.7601
  C  C126  1  0.319100  0.953500  0.645100  1.0  -0.1352
  C  C127  1  0.401400  0.951500  0.599300  1.0  -0.0379
  C  C128  1  0.510200  0.950800  0.640700  1.0  -0.1206
  C  C129  1  0.541300  0.951200  0.727300  1.0  0.0208
  C  C130  1  0.346700  0.952600  0.728300  1.0  -0.0745
  C  C131  1  0.136300  0.079000  0.444400  1.0  0.6985
  C  C132  1  0.186200  0.142500  0.456500  1.0  -0.1434
  C  C133  1  0.175600  0.179800  0.520100  1.0  -0.1174
  C  C134  1  0.221200  0.238700  0.529900  1.0  0.0232
  C  C135  1  0.290700  0.221000  0.405700  1.0  -0.1292
  C  C136  1  0.245700  0.163100  0.397400  1.0  -0.0685
  C  C137  1  0.183900  0.900600  0.259200  1.0  0.7265
  C  C138  1  0.350600  0.893000  0.202200  1.0  -0.1183
  C  C139  1  0.306200  0.894900  0.268900  1.0  -0.1556
  C  C140  1  0.375700  0.895600  0.348500  1.0  -0.0421
  C  C141  1  0.486900  0.892700  0.358100  1.0  -0.1334
  C  C142  1  0.534100  0.892500  0.289400  1.0  0.0599
  C  C143  1  0.700200  0.456700  0.598100  1.0  0.7601
  C  C144  1  0.819100  0.453500  0.645100  1.0  -0.1352
  C  C145  1  0.901400  0.451500  0.599300  1.0  -0.0379
  C  C146  1  0.010200  0.450800  0.640700  1.0  -0.1206
  C  C147  1  0.041300  0.451200  0.727300  1.0  0.0208
  C  C148  1  0.846700  0.452600  0.728300  1.0  -0.0745
  C  C149  1  0.636300  0.579000  0.444400  1.0  0.6985
  C  C150  1  0.686200  0.642500  0.456500  1.0  -0.1434
  C  C151  1  0.675600  0.679800  0.520100  1.0  -0.1174
  C  C152  1  0.721200  0.738700  0.529900  1.0  0.0232
  C  C153  1  0.790700  0.721000  0.405700  1.0  -0.1292
  C  C154  1  0.745700  0.663100  0.397400  1.0  -0.0685
  C  C155  1  0.683900  0.400600  0.259200  1.0  0.7265
  C  C156  1  0.850600  0.393000  0.202200  1.0  -0.1183
  C  C157  1  0.806200  0.394900  0.268900  1.0  -0.1556
  C  C158  1  0.875700  0.395600  0.348500  1.0  -0.0421
  C  C159  1  0.986900  0.392700  0.358100  1.0  -0.1334
  C  C160  1  0.034100  0.392500  0.289400  1.0  0.0599
  C  C161  1  0.200200  0.043300  0.098100  1.0  0.7601
  C  C162  1  0.319100  0.046500  0.145100  1.0  -0.1354
  C  C163  1  0.401400  0.048500  0.099300  1.0  -0.0389
  C  C164  1  0.510200  0.049200  0.140700  1.0  -0.119
  C  C165  1  0.541300  0.048800  0.227300  1.0  0.0214
  C  C166  1  0.346700  0.047400  0.228300  1.0  -0.0728
  C  C167  1  0.136300  0.921000  0.944400  1.0  0.6984
  C  C168  1  0.186200  0.857500  0.956500  1.0  -0.1432
  C  C169  1  0.175600  0.820200  0.020100  1.0  -0.1178
  C  C170  1  0.221200  0.761300  0.029900  1.0  0.0233
  C  C171  1  0.290700  0.779000  0.905700  1.0  -0.1258
  C  C172  1  0.245700  0.836900  0.897400  1.0  -0.0681
  C  C173  1  0.183900  0.099400  0.759200  1.0  0.7261
  C  C174  1  0.350600  0.107000  0.702200  1.0  -0.1176
  C  C175  1  0.306200  0.105100  0.768900  1.0  -0.1556
  C  C176  1  0.375700  0.104400  0.848500  1.0  -0.04
  C  C177  1  0.486900  0.107300  0.858100  1.0  -0.1341
  C  C178  1  0.534100  0.107500  0.789400  1.0  0.0593
  C  C179  1  0.700200  0.543300  0.098100  1.0  0.7601
  C  C180  1  0.819100  0.546500  0.145100  1.0  -0.1354
  C  C181  1  0.901400  0.548500  0.099300  1.0  -0.0389
  C  C182  1  0.010200  0.549200  0.140700  1.0  -0.119
  C  C183  1  0.041300  0.548800  0.227300  1.0  0.0214
  C  C184  1  0.846700  0.547400  0.228300  1.0  -0.0728
  C  C185  1  0.636300  0.421000  0.944400  1.0  0.6984
  C  C186  1  0.686200  0.357500  0.956500  1.0  -0.1432
  C  C187  1  0.675600  0.320200  0.020100  1.0  -0.1178
  C  C188  1  0.721200  0.261300  0.029900  1.0  0.0233
  C  C189  1  0.790700  0.279000  0.905700  1.0  -0.1258
  C  C190  1  0.745700  0.336900  0.897400  1.0  -0.0681
  C  C191  1  0.683900  0.599400  0.759200  1.0  0.7261
  C  C192  1  0.850600  0.607000  0.702200  1.0  -0.1176
  C  C193  1  0.806200  0.605100  0.768900  1.0  -0.1556
  C  C194  1  0.875700  0.604400  0.848500  1.0  -0.04
  C  C195  1  0.986900  0.607300  0.858100  1.0  -0.1341
  C  C196  1  0.034100  0.607500  0.789400  1.0  0.0593
  C  C197  1  0.799800  0.043300  0.401900  1.0  0.7616
  C  C198  1  0.680900  0.046500  0.354900  1.0  -0.1334
  C  C199  1  0.598600  0.048500  0.400700  1.0  -0.0368
  C  C200  1  0.489800  0.049200  0.359300  1.0  -0.119
  C  C201  1  0.458700  0.048800  0.272700  1.0  0.0207
  C  C202  1  0.653300  0.047400  0.271700  1.0  -0.0742
  C  C203  1  0.863700  0.921000  0.555600  1.0  0.6989
  C  C204  1  0.813800  0.857500  0.543500  1.0  -0.1434
  C  C205  1  0.824400  0.820200  0.479900  1.0  -0.1176
  C  C206  1  0.778800  0.761300  0.470100  1.0  0.0234
  C  C207  1  0.709300  0.779000  0.594300  1.0  -0.1262
  C  C208  1  0.754300  0.836900  0.602600  1.0  -0.0691
  C  C209  1  0.816100  0.099400  0.740800  1.0  0.7272
  C  C210  1  0.649400  0.107000  0.797800  1.0  -0.1176
  C  C211  1  0.693800  0.105100  0.731100  1.0  -0.1567
  C  C212  1  0.624300  0.104400  0.651500  1.0  -0.0423
  C  C213  1  0.513100  0.107300  0.641900  1.0  -0.1342
  C  C214  1  0.465900  0.107500  0.710600  1.0  0.0595
  C  C215  1  0.299800  0.543300  0.401900  1.0  0.7616
  C  C216  1  0.180900  0.546500  0.354900  1.0  -0.1334
  C  C217  1  0.098600  0.548500  0.400700  1.0  -0.0368
  C  C218  1  0.989800  0.549200  0.359300  1.0  -0.119
  C  C219  1  0.958700  0.548800  0.272700  1.0  0.0207
  C  C220  1  0.153300  0.547400  0.271700  1.0  -0.0742
  C  C221  1  0.363700  0.421000  0.555600  1.0  0.6989
  C  C222  1  0.313800  0.357500  0.543500  1.0  -0.1434
  C  C223  1  0.324400  0.320200  0.479900  1.0  -0.1176
  C  C224  1  0.278800  0.261300  0.470100  1.0  0.0234
  C  C225  1  0.209300  0.279000  0.594300  1.0  -0.1262
  C  C226  1  0.254300  0.336900  0.602600  1.0  -0.0691
  C  C227  1  0.316100  0.599400  0.740800  1.0  0.7272
  C  C228  1  0.149400  0.607000  0.797800  1.0  -0.1176
  C  C229  1  0.193800  0.605100  0.731100  1.0  -0.1567
  C  C230  1  0.124300  0.604400  0.651500  1.0  -0.0423
  C  C231  1  0.013100  0.607300  0.641900  1.0  -0.1342
  C  C232  1  0.965900  0.607500  0.710600  1.0  0.0595
  O  O233  1  0.821800  0.941600  0.977000  1.0  -0.722
  O  O234  1  0.869300  0.976600  0.862500  1.0  -0.6935
  O  O235  1  0.843100  0.044500  0.108900  1.0  -0.6132
  O  O236  1  0.925500  0.062100  0.008200  1.0  -0.8567
  O  O237  1  0.846700  0.912100  0.175300  1.0  -0.7421
  O  O238  1  0.879100  0.893400  0.310300  1.0  -0.7212
  O  O239  1  0.321800  0.441600  0.977000  1.0  -0.722
  O  O240  1  0.369300  0.476600  0.862500  1.0  -0.6935
  O  O241  1  0.343100  0.544500  0.108900  1.0  -0.6132
  O  O242  1  0.425500  0.562100  0.008200  1.0  -0.8567
  O  O243  1  0.346700  0.412100  0.175300  1.0  -0.7421
  O  O244  1  0.379100  0.393400  0.310300  1.0  -0.7212
  O  O245  1  0.178200  0.941600  0.523000  1.0  -0.7209
  O  O246  1  0.130700  0.976600  0.637500  1.0  -0.6931
  O  O247  1  0.156900  0.044500  0.391100  1.0  -0.6129
  O  O248  1  0.074500  0.062100  0.491800  1.0  -0.8575
  O  O249  1  0.153300  0.912100  0.324700  1.0  -0.7423
  O  O250  1  0.120900  0.893400  0.189700  1.0  -0.7208
  O  O251  1  0.678200  0.441600  0.523000  1.0  -0.7209
  O  O252  1  0.630700  0.476600  0.637500  1.0  -0.6931
  O  O253  1  0.656900  0.544500  0.391100  1.0  -0.6129
  O  O254  1  0.574500  0.562100  0.491800  1.0  -0.8575
  O  O255  1  0.653300  0.412100  0.324700  1.0  -0.7423
  O  O256  1  0.620900  0.393400  0.189700  1.0  -0.7208
  O  O257  1  0.178200  0.058400  0.023000  1.0  -0.7209
  O  O258  1  0.130700  0.023400  0.137500  1.0  -0.6937
  O  O259  1  0.156900  0.955500  0.891100  1.0  -0.6135
  O  O260  1  0.074500  0.937900  0.991800  1.0  -0.8577
  O  O261  1  0.153300  0.087900  0.824700  1.0  -0.7414
  O  O262  1  0.120900  0.106600  0.689700  1.0  -0.7195
  O  O263  1  0.678200  0.558400  0.023000  1.0  -0.7209
  O  O264  1  0.630700  0.523400  0.137500  1.0  -0.6937
  O  O265  1  0.656900  0.455500  0.891100  1.0  -0.6135
  O  O266  1  0.574500  0.437900  0.991800  1.0  -0.8577
  O  O267  1  0.653300  0.587900  0.824700  1.0  -0.7414
  O  O268  1  0.620900  0.606600  0.689700  1.0  -0.7195
  O  O269  1  0.821800  0.058400  0.477000  1.0  -0.7227
  O  O270  1  0.869300  0.023400  0.362500  1.0  -0.6937
  O  O271  1  0.843100  0.955500  0.608900  1.0  -0.6138
  O  O272  1  0.925500  0.937900  0.508200  1.0  -0.8569
  O  O273  1  0.846700  0.087900  0.675300  1.0  -0.7424
  O  O274  1  0.879100  0.106600  0.810300  1.0  -0.7202
  O  O275  1  0.321800  0.558400  0.477000  1.0  -0.7227
  O  O276  1  0.369300  0.523400  0.362500  1.0  -0.6937
  O  O277  1  0.343100  0.455500  0.608900  1.0  -0.6138
  O  O278  1  0.425500  0.437900  0.508200  1.0  -0.8569
  O  O279  1  0.346700  0.587900  0.675300  1.0  -0.7424
  O  O280  1  0.379100  0.606600  0.810300  1.0  -0.7202
  O  O281  1  0.000000  0.004300  0.250000  1.0  -0.7578
  O  O282  1  0.500000  0.504300  0.250000  1.0  -0.7578
  O  O283  1  0.000000  0.995700  0.750000  1.0  -0.7565
  O  O284  1  0.500000  0.495700  0.750000  1.0  -0.7565
