# generated using pymatgen
data_Zn(CO3)2
_symmetry_space_group_name_H-M   'P 1'
_cell_length_a   9.09310000
_cell_length_b   9.09310000
_cell_length_c   38.33300000
_cell_angle_alpha   90.00000000
_cell_angle_beta   90.00000000
_cell_angle_gamma   90.00000000
_symmetry_Int_Tables_number   1
_chemical_formula_structural   Zn(CO3)2
_chemical_formula_sum   'Zn12 C24 O72'
_cell_volume   3169.54369689
_cell_formula_units_Z   12
loop_
 _symmetry_equiv_pos_site_id
 _symmetry_equiv_pos_as_xyz
  1  'x, y, z'
loop_
 _atom_site_type_symbol
 _atom_site_label
 _atom_site_symmetry_multiplicity
 _atom_site_fract_x
 _atom_site_fract_y
 _atom_site_fract_z
 _atom_site_occupancy
 _atom_site_charge
  Zn  Zn1  1  0.750850  0.251630  0.916270  1.0  1.0506
  Zn  Zn2  1  0.249150  0.748370  0.416270  1.0  1.0508
  Zn  Zn3  1  0.248370  0.250850  0.166270  1.0  1.0499
  Zn  Zn4  1  0.751630  0.749150  0.666270  1.0  1.0505
  Zn  Zn5  1  0.749150  0.751630  0.333730  1.0  1.0503
  Zn  Zn6  1  0.250850  0.248370  0.833730  1.0  1.0503
  Zn  Zn7  1  0.251630  0.750850  0.083730  1.0  1.0499
  Zn  Zn8  1  0.748370  0.249150  0.583730  1.0  1.0495
  Zn  Zn9  1  0.738050  0.738050  0.000000  1.0  1.0241
  Zn  Zn10  1  0.261950  0.261950  0.500000  1.0  1.0239
  Zn  Zn11  1  0.761950  0.238050  0.250000  1.0  1.024
  Zn  Zn12  1  0.238050  0.761950  0.750000  1.0  1.024
  C  C13  1  0.519730  0.182080  0.868740  1.0  0.9387
  C  C14  1  0.750070  0.006060  0.963900  1.0  0.9395
  C  C15  1  0.703080  0.508020  0.952880  1.0  0.8975
  C  C16  1  0.480270  0.817920  0.368740  1.0  0.9387
  C  C17  1  0.249930  0.993940  0.463900  1.0  0.9393
  C  C18  1  0.296920  0.491980  0.452880  1.0  0.8966
  C  C19  1  0.317920  0.019730  0.118740  1.0  0.9391
  C  C20  1  0.493940  0.250070  0.213900  1.0  0.9386
  C  C21  1  0.991980  0.203080  0.202880  1.0  0.8955
  C  C22  1  0.682080  0.980270  0.618740  1.0  0.9384
  C  C23  1  0.506060  0.749930  0.713900  1.0  0.9389
  C  C24  1  0.008020  0.796920  0.702880  1.0  0.8962
  C  C25  1  0.980270  0.682080  0.381260  1.0  0.9386
  C  C26  1  0.749930  0.506060  0.286100  1.0  0.939
  C  C27  1  0.796920  0.008020  0.297120  1.0  0.8967
  C  C28  1  0.019730  0.317920  0.881260  1.0  0.9388
  C  C29  1  0.250070  0.493940  0.786100  1.0  0.9398
  C  C30  1  0.203080  0.991980  0.797120  1.0  0.897
  C  C31  1  0.182080  0.519730  0.131260  1.0  0.9386
  C  C32  1  0.006060  0.750070  0.036100  1.0  0.9391
  C  C33  1  0.508020  0.703080  0.047120  1.0  0.896
  C  C34  1  0.817920  0.480270  0.631260  1.0  0.9392
  C  C35  1  0.993940  0.249930  0.536100  1.0  0.9389
  C  C36  1  0.491980  0.296920  0.547120  1.0  0.8955
  O  O37  1  0.652210  0.442840  0.924890  1.0  -0.5069
  O  O38  1  0.661440  0.198560  0.871680  1.0  -0.5064
  O  O39  1  0.462370  0.231840  0.840050  1.0  -0.5139
  O  O40  1  0.696610  0.135090  0.956780  1.0  -0.5254
  O  O41  1  0.648510  0.638300  0.959460  1.0  -0.4925
  O  O42  1  0.695960  0.945010  0.991540  1.0  -0.5281
  O  O43  1  0.444480  0.119580  0.891670  1.0  -0.4072
  O  O44  1  0.848570  0.946390  0.945730  1.0  -0.4085
  O  O45  1  0.796500  0.448780  0.971910  1.0  -0.4427
  O  O46  1  0.347790  0.557160  0.424890  1.0  -0.5081
  O  O47  1  0.338560  0.801440  0.371680  1.0  -0.5085
  O  O48  1  0.537630  0.768160  0.340050  1.0  -0.5148
  O  O49  1  0.303390  0.864910  0.456780  1.0  -0.5274
  O  O50  1  0.351490  0.361700  0.459460  1.0  -0.4945
  O  O51  1  0.304040  0.054990  0.491540  1.0  -0.5273
  O  O52  1  0.555520  0.880420  0.391670  1.0  -0.4105
  O  O53  1  0.151430  0.053610  0.445730  1.0  -0.4099
  O  O54  1  0.203500  0.551220  0.471910  1.0  -0.4439
  O  O55  1  0.057160  0.152210  0.174890  1.0  -0.5107
  O  O56  1  0.301440  0.161440  0.121680  1.0  -0.507
  O  O57  1  0.268160  0.962370  0.090050  1.0  -0.5121
  O  O58  1  0.364910  0.196610  0.206780  1.0  -0.5257
  O  O59  1  0.861700  0.148510  0.209460  1.0  -0.4936
  O  O60  1  0.554990  0.195960  0.241540  1.0  -0.5284
  O  O61  1  0.380420  0.944480  0.141670  1.0  -0.4102
  O  O62  1  0.553610  0.348570  0.195730  1.0  -0.4084
  O  O63  1  0.051220  0.296500  0.221910  1.0  -0.4411
  O  O64  1  0.942840  0.847790  0.674890  1.0  -0.5109
  O  O65  1  0.698560  0.838560  0.621680  1.0  -0.5076
  O  O66  1  0.731840  0.037630  0.590050  1.0  -0.5126
  O  O67  1  0.635090  0.803390  0.706780  1.0  -0.5243
  O  O68  1  0.138300  0.851490  0.709460  1.0  -0.4936
  O  O69  1  0.445010  0.804040  0.741540  1.0  -0.5307
  O  O70  1  0.619580  0.055520  0.641670  1.0  -0.4083
  O  O71  1  0.446390  0.651430  0.695730  1.0  -0.4098
  O  O72  1  0.948780  0.703500  0.721910  1.0  -0.4414
  O  O73  1  0.847790  0.942840  0.325110  1.0  -0.5077
  O  O74  1  0.838560  0.698560  0.378320  1.0  -0.5081
  O  O75  1  0.037630  0.731840  0.409950  1.0  -0.5127
  O  O76  1  0.803390  0.635090  0.293220  1.0  -0.5266
  O  O77  1  0.851490  0.138300  0.290540  1.0  -0.4918
  O  O78  1  0.804040  0.445010  0.258460  1.0  -0.5277
  O  O79  1  0.055520  0.619580  0.358330  1.0  -0.4072
  O  O80  1  0.651430  0.446390  0.304270  1.0  -0.4097
  O  O81  1  0.703500  0.948780  0.278090  1.0  -0.444
  O  O82  1  0.152210  0.057160  0.825110  1.0  -0.5055
  O  O83  1  0.161440  0.301440  0.878320  1.0  -0.509
  O  O84  1  0.962370  0.268160  0.909950  1.0  -0.5122
  O  O85  1  0.196610  0.364910  0.793220  1.0  -0.528
  O  O86  1  0.148510  0.861700  0.790540  1.0  -0.4922
  O  O87  1  0.195960  0.554990  0.758460  1.0  -0.5277
  O  O88  1  0.944480  0.380420  0.858330  1.0  -0.4064
  O  O89  1  0.348570  0.553610  0.804270  1.0  -0.4095
  O  O90  1  0.296500  0.051220  0.778090  1.0  -0.4425
  O  O91  1  0.442840  0.652210  0.075110  1.0  -0.5096
  O  O92  1  0.198560  0.661440  0.128320  1.0  -0.5099
  O  O93  1  0.231840  0.462370  0.159950  1.0  -0.5113
  O  O94  1  0.135090  0.696610  0.043220  1.0  -0.5257
  O  O95  1  0.638300  0.648510  0.040540  1.0  -0.4917
  O  O96  1  0.945010  0.695960  0.008460  1.0  -0.5289
  O  O97  1  0.119580  0.444480  0.108330  1.0  -0.4074
  O  O98  1  0.946390  0.848570  0.054270  1.0  -0.4089
  O  O99  1  0.448780  0.796500  0.028090  1.0  -0.4423
  O  O100  1  0.557160  0.347790  0.575110  1.0  -0.5099
  O  O101  1  0.801440  0.338560  0.628320  1.0  -0.5077
  O  O102  1  0.768160  0.537630  0.659950  1.0  -0.5106
  O  O103  1  0.864910  0.303390  0.543220  1.0  -0.5266
  O  O104  1  0.361700  0.351490  0.540540  1.0  -0.4929
  O  O105  1  0.054990  0.304040  0.508460  1.0  -0.5303
  O  O106  1  0.880420  0.555520  0.608330  1.0  -0.4065
  O  O107  1  0.053610  0.151430  0.554270  1.0  -0.409
  O  O108  1  0.551220  0.203500  0.528090  1.0  -0.4412
