# generated using pymatgen
data_CuH7C10IN2
_symmetry_space_group_name_H-M   'P 1'
_cell_length_a   14.08100000
_cell_length_b   14.41300000
_cell_length_c   16.42000000
_cell_angle_alpha   90.00000000
_cell_angle_beta   97.81400000
_cell_angle_gamma   90.00000000
_symmetry_Int_Tables_number   1
_chemical_formula_structural   CuH7C10IN2
_chemical_formula_sum   'Cu8 H56 C80 I8 N16'
_cell_volume   3301.48723694
_cell_formula_units_Z   8
loop_
 _symmetry_equiv_pos_site_id
 _symmetry_equiv_pos_as_xyz
  1  'x, y, z'
loop_
 _atom_site_type_symbol
 _atom_site_label
 _atom_site_symmetry_multiplicity
 _atom_site_fract_x
 _atom_site_fract_y
 _atom_site_fract_z
 _atom_site_occupancy
 _atom_site_charge
  Cu  Cu1  1  0.247710  0.161150  0.480690  1.0  0.243
  Cu  Cu2  1  0.747710  0.661150  0.480690  1.0  0.243
  Cu  Cu3  1  0.752290  0.161150  0.019310  1.0  0.2427
  Cu  Cu4  1  0.252290  0.661150  0.019310  1.0  0.2427
  Cu  Cu5  1  0.752290  0.838850  0.519310  1.0  0.2412
  Cu  Cu6  1  0.252290  0.338850  0.519310  1.0  0.2412
  Cu  Cu7  1  0.247710  0.838850  0.980690  1.0  0.2416
  Cu  Cu8  1  0.747710  0.338850  0.980690  1.0  0.2416
  H  H9  1  0.311900  0.095800  0.326600  1.0  0.0657
  H  H10  1  0.085800  0.064900  0.149000  1.0  0.1109
  H  H11  1  0.053200  0.142100  0.378800  1.0  0.0775
  H  H12  1  0.184000  0.953700  0.111000  1.0  0.0818
  H  H13  1  0.394200  0.124700  0.210700  1.0  0.1036
  H  H14  1  0.490900  0.064100  0.118200  1.0  0.0973
  H  H15  1  0.432300  0.948900  0.028000  1.0  0.064
  H  H16  1  0.811900  0.595800  0.326600  1.0  0.0657
  H  H17  1  0.585800  0.564900  0.149000  1.0  0.1109
  H  H18  1  0.553200  0.642100  0.378800  1.0  0.0775
  H  H19  1  0.684000  0.453700  0.111000  1.0  0.0818
  H  H20  1  0.894200  0.624700  0.210700  1.0  0.1036
  H  H21  1  0.990900  0.564100  0.118200  1.0  0.0973
  H  H22  1  0.932300  0.448900  0.028000  1.0  0.064
  H  H23  1  0.688100  0.095800  0.173400  1.0  0.066
  H  H24  1  0.914200  0.064900  0.351000  1.0  0.1107
  H  H25  1  0.946800  0.142100  0.121200  1.0  0.0776
  H  H26  1  0.816000  0.953700  0.389000  1.0  0.0822
  H  H27  1  0.605800  0.124700  0.289300  1.0  0.1037
  H  H28  1  0.509100  0.064100  0.381800  1.0  0.0957
  H  H29  1  0.567700  0.948900  0.472000  1.0  0.0641
  H  H30  1  0.188100  0.595800  0.173400  1.0  0.066
  H  H31  1  0.414200  0.564900  0.351000  1.0  0.1107
  H  H32  1  0.446800  0.642100  0.121200  1.0  0.0776
  H  H33  1  0.316000  0.453700  0.389000  1.0  0.0822
  H  H34  1  0.105800  0.624700  0.289300  1.0  0.1037
  H  H35  1  0.009100  0.564100  0.381800  1.0  0.0957
  H  H36  1  0.067700  0.448900  0.472000  1.0  0.0641
  H  H37  1  0.688100  0.904200  0.673400  1.0  0.0661
  H  H38  1  0.914200  0.935100  0.851000  1.0  0.1106
  H  H39  1  0.946800  0.857900  0.621200  1.0  0.0777
  H  H40  1  0.816000  0.046300  0.889000  1.0  0.0823
  H  H41  1  0.605800  0.875300  0.789300  1.0  0.103
  H  H42  1  0.509100  0.935900  0.881800  1.0  0.0974
  H  H43  1  0.567700  0.051100  0.972000  1.0  0.0633
  H  H44  1  0.188100  0.404200  0.673400  1.0  0.0661
  H  H45  1  0.414200  0.435100  0.851000  1.0  0.1106
  H  H46  1  0.446800  0.357900  0.621200  1.0  0.0777
  H  H47  1  0.316000  0.546300  0.889000  1.0  0.0823
  H  H48  1  0.105800  0.375300  0.789300  1.0  0.103
  H  H49  1  0.009100  0.435900  0.881800  1.0  0.0974
  H  H50  1  0.067700  0.551100  0.972000  1.0  0.0633
  H  H51  1  0.311900  0.904200  0.826600  1.0  0.0658
  H  H52  1  0.085800  0.935100  0.649000  1.0  0.1109
  H  H53  1  0.053200  0.857900  0.878800  1.0  0.0779
  H  H54  1  0.184000  0.046300  0.611000  1.0  0.0819
  H  H55  1  0.394200  0.875300  0.710700  1.0  0.1034
  H  H56  1  0.490900  0.935900  0.618200  1.0  0.0968
  H  H57  1  0.432300  0.051100  0.528000  1.0  0.0637
  H  H58  1  0.811900  0.404200  0.826600  1.0  0.0658
  H  H59  1  0.585800  0.435100  0.649000  1.0  0.1109
  H  H60  1  0.553200  0.357900  0.878800  1.0  0.0779
  H  H61  1  0.684000  0.546300  0.611000  1.0  0.0819
  H  H62  1  0.894200  0.375300  0.710700  1.0  0.1034
  H  H63  1  0.990900  0.435900  0.618200  1.0  0.0968
  H  H64  1  0.932300  0.551100  0.528000  1.0  0.0637
  C  C65  1  0.244700  0.097400  0.309600  1.0  0.1751
  C  C66  1  0.211700  0.075100  0.228500  1.0  0.0112
  C  C67  1  0.112200  0.078300  0.204100  1.0  -0.1581
  C  C68  1  0.053600  0.101400  0.261600  1.0  0.0164
  C  C69  1  0.094300  0.123800  0.340300  1.0  0.1556
  C  C70  1  0.247600  0.976200  0.113000  1.0  0.1569
  C  C71  1  0.278900  0.044400  0.170400  1.0  0.007
  C  C72  1  0.370500  0.077900  0.172600  1.0  -0.0945
  C  C73  1  0.427400  0.041900  0.118300  1.0  -0.139
  C  C74  1  0.391400  0.973600  0.064200  1.0  0.1471
  C  C75  1  0.744700  0.597400  0.309600  1.0  0.1751
  C  C76  1  0.711700  0.575100  0.228500  1.0  0.0112
  C  C77  1  0.612200  0.578300  0.204100  1.0  -0.1581
  C  C78  1  0.553600  0.601400  0.261600  1.0  0.0164
  C  C79  1  0.594300  0.623800  0.340300  1.0  0.1556
  C  C80  1  0.747600  0.476200  0.113000  1.0  0.1569
  C  C81  1  0.778900  0.544400  0.170400  1.0  0.007
  C  C82  1  0.870500  0.577900  0.172600  1.0  -0.0945
  C  C83  1  0.927400  0.541900  0.118300  1.0  -0.139
  C  C84  1  0.891400  0.473600  0.064200  1.0  0.1471
  C  C85  1  0.755300  0.097400  0.190400  1.0  0.1743
  C  C86  1  0.788300  0.075100  0.271500  1.0  0.0105
  C  C87  1  0.887800  0.078300  0.295900  1.0  -0.1553
  C  C88  1  0.946400  0.101400  0.238400  1.0  0.0166
  C  C89  1  0.905700  0.123800  0.159700  1.0  0.1569
  C  C90  1  0.752400  0.976200  0.387000  1.0  0.1573
  C  C91  1  0.721100  0.044400  0.329600  1.0  0.007
  C  C92  1  0.629500  0.077900  0.327400  1.0  -0.0939
  C  C93  1  0.572600  0.041900  0.381700  1.0  -0.1414
  C  C94  1  0.608600  0.973600  0.435800  1.0  0.1499
  C  C95  1  0.255300  0.597400  0.190400  1.0  0.1743
  C  C96  1  0.288300  0.575100  0.271500  1.0  0.0105
  C  C97  1  0.387800  0.578300  0.295900  1.0  -0.1553
  C  C98  1  0.446400  0.601400  0.238400  1.0  0.0166
  C  C99  1  0.405700  0.623800  0.159700  1.0  0.1569
  C  C100  1  0.252400  0.476200  0.387000  1.0  0.1573
  C  C101  1  0.221100  0.544400  0.329600  1.0  0.007
  C  C102  1  0.129500  0.577900  0.327400  1.0  -0.0939
  C  C103  1  0.072600  0.541900  0.381700  1.0  -0.1414
  C  C104  1  0.108600  0.473600  0.435800  1.0  0.1499
  C  C105  1  0.755300  0.902600  0.690400  1.0  0.1744
  C  C106  1  0.788300  0.924900  0.771500  1.0  0.0105
  C  C107  1  0.887800  0.921700  0.795900  1.0  -0.1558
  C  C108  1  0.946400  0.898600  0.738400  1.0  0.0166
  C  C109  1  0.905700  0.876200  0.659700  1.0  0.1566
  C  C110  1  0.752400  0.023800  0.887000  1.0  0.1559
  C  C111  1  0.721100  0.955600  0.829600  1.0  0.0066
  C  C112  1  0.629500  0.922100  0.827400  1.0  -0.0944
  C  C113  1  0.572600  0.958100  0.881700  1.0  -0.1411
  C  C114  1  0.608600  0.026400  0.935800  1.0  0.1492
  C  C115  1  0.255300  0.402600  0.690400  1.0  0.1744
  C  C116  1  0.288300  0.424900  0.771500  1.0  0.0105
  C  C117  1  0.387800  0.421700  0.795900  1.0  -0.1558
  C  C118  1  0.446400  0.398600  0.738400  1.0  0.0166
  C  C119  1  0.405700  0.376200  0.659700  1.0  0.1566
  C  C120  1  0.252400  0.523800  0.887000  1.0  0.1559
  C  C121  1  0.221100  0.455600  0.829600  1.0  0.0066
  C  C122  1  0.129500  0.422100  0.827400  1.0  -0.0944
  C  C123  1  0.072600  0.458100  0.881700  1.0  -0.1411
  C  C124  1  0.108600  0.526400  0.935800  1.0  0.1492
  C  C125  1  0.244700  0.902600  0.809600  1.0  0.1752
  C  C126  1  0.211700  0.924900  0.728500  1.0  0.0112
  C  C127  1  0.112200  0.921700  0.704100  1.0  -0.1577
  C  C128  1  0.053600  0.898600  0.761600  1.0  0.0164
  C  C129  1  0.094300  0.876200  0.840300  1.0  0.1561
  C  C130  1  0.247600  0.023800  0.613000  1.0  0.1556
  C  C131  1  0.278900  0.955600  0.670400  1.0  0.0063
  C  C132  1  0.370500  0.922100  0.672600  1.0  -0.0948
  C  C133  1  0.427400  0.958100  0.618300  1.0  -0.1387
  C  C134  1  0.391400  0.026400  0.564200  1.0  0.1472
  C  C135  1  0.744700  0.402600  0.809600  1.0  0.1752
  C  C136  1  0.711700  0.424900  0.728500  1.0  0.0112
  C  C137  1  0.612200  0.421700  0.704100  1.0  -0.1577
  C  C138  1  0.553600  0.398600  0.761600  1.0  0.0164
  C  C139  1  0.594300  0.376200  0.840300  1.0  0.1561
  C  C140  1  0.747600  0.523800  0.613000  1.0  0.1556
  C  C141  1  0.778900  0.455600  0.670400  1.0  0.0063
  C  C142  1  0.870500  0.422100  0.672600  1.0  -0.0948
  C  C143  1  0.927400  0.458100  0.618300  1.0  -0.1387
  C  C144  1  0.891400  0.526400  0.564200  1.0  0.1472
  I  I145  1  0.103630  0.238490  0.548640  1.0  -0.4431
  I  I146  1  0.603630  0.738490  0.548640  1.0  -0.4431
  I  I147  1  0.896370  0.238490  0.951360  1.0  -0.444
  I  I148  1  0.396370  0.738490  0.951360  1.0  -0.444
  I  I149  1  0.896370  0.761510  0.451360  1.0  -0.4441
  I  I150  1  0.396370  0.261510  0.451360  1.0  -0.4441
  I  I151  1  0.103630  0.761510  0.048640  1.0  -0.4429
  I  I152  1  0.603630  0.261510  0.048640  1.0  -0.4429
  N  N153  1  0.188500  0.120900  0.365100  1.0  -0.34
  N  N154  1  0.303400  0.940100  0.059500  1.0  -0.3386
  N  N155  1  0.688500  0.620900  0.365100  1.0  -0.34
  N  N156  1  0.803400  0.440100  0.059500  1.0  -0.3386
  N  N157  1  0.811500  0.120900  0.134900  1.0  -0.3391
  N  N158  1  0.696600  0.940100  0.440500  1.0  -0.337
  N  N159  1  0.311500  0.620900  0.134900  1.0  -0.3391
  N  N160  1  0.196600  0.440100  0.440500  1.0  -0.337
  N  N161  1  0.811500  0.879100  0.634900  1.0  -0.3403
  N  N162  1  0.696600  0.059900  0.940500  1.0  -0.3379
  N  N163  1  0.311500  0.379100  0.634900  1.0  -0.3403
  N  N164  1  0.196600  0.559900  0.940500  1.0  -0.3379
  N  N165  1  0.188500  0.879100  0.865100  1.0  -0.3398
  N  N166  1  0.303400  0.059900  0.559500  1.0  -0.3378
  N  N167  1  0.688500  0.379100  0.865100  1.0  -0.3398
  N  N168  1  0.803400  0.559900  0.559500  1.0  -0.3378
