# generated using pymatgen
data_CuH7C10IN2
_symmetry_space_group_name_H-M   'P 1'
_cell_length_a   10.09160000
_cell_length_b   10.09160000
_cell_length_c   16.43730000
_cell_angle_alpha   95.92630000
_cell_angle_beta   95.92630000
_cell_angle_gamma   92.36160000
_symmetry_Int_Tables_number   1
_chemical_formula_structural   CuH7C10IN2
_chemical_formula_sum   'Cu4 H28 C40 I4 N8'
_cell_volume   1653.85834181
_cell_formula_units_Z   4
loop_
 _symmetry_equiv_pos_site_id
 _symmetry_equiv_pos_as_xyz
  1  'x, y, z'
loop_
 _atom_site_type_symbol
 _atom_site_label
 _atom_site_symmetry_multiplicity
 _atom_site_fract_x
 _atom_site_fract_y
 _atom_site_fract_z
 _atom_site_occupancy
 _atom_site_charge
  Cu  Cu1  1  0.739910  0.064510  0.827880  1.0  0.2381
  Cu  Cu2  1  0.560850  0.237010  0.791300  1.0  0.2311
  Cu  Cu3  1  0.064510  0.739910  0.327880  1.0  0.2378
  Cu  Cu4  1  0.237010  0.560850  0.291300  1.0  0.2309
  H  H5  1  0.900800  0.018600  0.691200  1.0  0.0929
  H  H6  1  0.876400  0.629800  0.597200  1.0  0.1037
  H  H7  1  0.726300  0.581500  0.690700  1.0  0.0977
  H  H8  1  0.663400  0.751600  0.784600  1.0  0.0919
  H  H9  1  0.921800  0.746200  0.475100  1.0  0.0917
  H  H10  1  0.112200  0.008200  0.657500  1.0  0.1122
  H  H11  1  0.244900  0.970100  0.432200  1.0  0.0976
  H  H12  1  0.342800  0.071200  0.691000  1.0  0.0968
  H  H13  1  0.285700  0.187300  0.461700  1.0  0.1122
  H  H14  1  0.570600  0.378400  0.629900  1.0  0.0983
  H  H15  1  0.274300  0.382300  0.429300  1.0  0.0971
  H  H16  1  0.661800  0.430800  0.525300  1.0  0.1086
  H  H17  1  0.698900  0.590300  0.435200  1.0  0.1014
  H  H18  1  0.523700  0.645700  0.342200  1.0  0.0875
  H  H19  1  0.018600  0.900800  0.191200  1.0  0.0927
  H  H20  1  0.629800  0.876400  0.097200  1.0  0.104
  H  H21  1  0.581500  0.726300  0.190700  1.0  0.0968
  H  H22  1  0.751600  0.663400  0.284600  1.0  0.0915
  H  H23  1  0.746200  0.921800  0.975100  1.0  0.0915
  H  H24  1  0.008200  0.112200  0.157500  1.0  0.1126
  H  H25  1  0.970100  0.244900  0.932200  1.0  0.0971
  H  H26  1  0.071200  0.342800  0.191000  1.0  0.0972
  H  H27  1  0.187300  0.285700  0.961700  1.0  0.1118
  H  H28  1  0.378400  0.570600  0.129900  1.0  0.0983
  H  H29  1  0.382300  0.274300  0.929300  1.0  0.098
  H  H30  1  0.430800  0.661800  0.025300  1.0  0.1092
  H  H31  1  0.590300  0.698900  0.935200  1.0  0.1021
  H  H32  1  0.645700  0.523700  0.842200  1.0  0.0872
  C  C33  1  0.865400  0.929800  0.691100  1.0  0.1175
  C  C34  1  0.902700  0.828700  0.635400  1.0  -0.02
  C  C35  1  0.850900  0.698900  0.635300  1.0  -0.0846
  C  C36  1  0.761700  0.670300  0.690800  1.0  -0.1366
  C  C37  1  0.724300  0.771300  0.746600  1.0  0.1175
  C  C38  1  0.991300  0.811900  0.494000  1.0  0.1027
  C  C39  1  0.002800  0.871400  0.574800  1.0  -0.0076
  C  C40  1  0.104400  0.967600  0.602400  1.0  -0.1286
  C  C41  1  0.194600  0.004400  0.549300  1.0  0.006
  C  C42  1  0.183200  0.945000  0.468500  1.0  0.0996
  C  C43  1  0.365900  0.128500  0.651700  1.0  0.1064
  C  C44  1  0.298200  0.113600  0.573000  1.0  0.0057
  C  C45  1  0.332000  0.197400  0.515500  1.0  -0.1237
  C  C46  1  0.433500  0.296100  0.536700  1.0  0.0137
  C  C47  1  0.501200  0.311000  0.615400  1.0  0.0817
  C  C48  1  0.360500  0.424500  0.430500  1.0  0.0938
  C  C49  1  0.464600  0.391600  0.485700  1.0  0.0015
  C  C50  1  0.590700  0.453300  0.487500  1.0  -0.0835
  C  C51  1  0.612700  0.548100  0.434000  1.0  -0.1452
  C  C52  1  0.508600  0.581000  0.378800  1.0  0.122
  C  C53  1  0.929800  0.865400  0.191100  1.0  0.1175
  C  C54  1  0.828700  0.902700  0.135400  1.0  -0.0186
  C  C55  1  0.698900  0.850900  0.135300  1.0  -0.0846
  C  C56  1  0.670300  0.761700  0.190800  1.0  -0.1369
  C  C57  1  0.771300  0.724300  0.246600  1.0  0.1184
  C  C58  1  0.811900  0.991300  0.994000  1.0  0.1028
  C  C59  1  0.871400  0.002800  0.074800  1.0  -0.0082
  C  C60  1  0.967600  0.104400  0.102400  1.0  -0.1287
  C  C61  1  0.004400  0.194600  0.049300  1.0  0.0058
  C  C62  1  0.945000  0.183200  0.968500  1.0  0.1009
  C  C63  1  0.128500  0.365900  0.151700  1.0  0.1059
  C  C64  1  0.113600  0.298200  0.073000  1.0  0.0054
  C  C65  1  0.197400  0.332000  0.015500  1.0  -0.1228
  C  C66  1  0.296100  0.433500  0.036700  1.0  0.0144
  C  C67  1  0.311000  0.501200  0.115400  1.0  0.0818
  C  C68  1  0.424500  0.360500  0.930500  1.0  0.0965
  C  C69  1  0.391600  0.464600  0.985700  1.0  0.0018
  C  C70  1  0.453300  0.590700  0.987500  1.0  -0.0858
  C  C71  1  0.548100  0.612700  0.934000  1.0  -0.145
  C  C72  1  0.581000  0.508600  0.878800  1.0  0.1199
  I  I73  1  0.810570  0.290110  0.764200  1.0  -0.4697
  I  I74  1  0.490950  0.010510  0.854740  1.0  -0.4732
  I  I75  1  0.290110  0.810570  0.264200  1.0  -0.4701
  I  I76  1  0.010510  0.490950  0.354740  1.0  -0.4735
  N  N77  1  0.776200  0.901200  0.746700  1.0  -0.2794
  N  N78  1  0.081500  0.848700  0.440900  1.0  -0.2571
  N  N79  1  0.467400  0.227200  0.672900  1.0  -0.2548
  N  N80  1  0.382600  0.519200  0.377000  1.0  -0.2622
  N  N81  1  0.901200  0.776200  0.246700  1.0  -0.2836
  N  N82  1  0.848700  0.081500  0.940900  1.0  -0.2553
  N  N83  1  0.227200  0.467400  0.172900  1.0  -0.2559
  N  N84  1  0.519200  0.382600  0.877000  1.0  -0.2611
