# generated using pymatgen
data_Zn2H12C21(NO2)3
_symmetry_space_group_name_H-M   'P 1'
_cell_length_a   7.51060000
_cell_length_b   31.19590000
_cell_length_c   10.55370000
_cell_angle_alpha   90.00000000
_cell_angle_beta   118.65800000
_cell_angle_gamma   90.00000000
_symmetry_Int_Tables_number   1
_chemical_formula_structural   Zn2H12C21(NO2)3
_chemical_formula_sum   'Zn8 H48 C84 N12 O24'
_cell_volume   2169.81650216
_cell_formula_units_Z   4
loop_
 _symmetry_equiv_pos_site_id
 _symmetry_equiv_pos_as_xyz
  1  'x, y, z'
loop_
 _atom_site_type_symbol
 _atom_site_label
 _atom_site_symmetry_multiplicity
 _atom_site_fract_x
 _atom_site_fract_y
 _atom_site_fract_z
 _atom_site_occupancy
 _atom_site_charge
  Zn  Zn1  1  0.780980  0.974940  0.650100  1.0  0.9009
  Zn  Zn2  1  0.195960  0.737850  0.409210  1.0  0.9141
  Zn  Zn3  1  0.219020  0.474940  0.849900  1.0  0.9012
  Zn  Zn4  1  0.804040  0.237850  0.090790  1.0  0.9138
  Zn  Zn5  1  0.219020  0.025060  0.349900  1.0  0.9022
  Zn  Zn6  1  0.804040  0.262150  0.590790  1.0  0.9124
  Zn  Zn7  1  0.780980  0.525060  0.150100  1.0  0.9016
  Zn  Zn8  1  0.195960  0.762150  0.909210  1.0  0.9141
  H  H9  1  0.731200  0.043000  0.411200  1.0  0.0866
  H  H10  1  0.227000  0.005900  0.899800  1.0  0.1029
  H  H11  1  0.476800  0.054100  0.040300  1.0  0.086
  H  H12  1  0.490800  0.121500  0.950600  1.0  0.0809
  H  H13  1  0.263300  0.140800  0.718000  1.0  0.1048
  H  H14  1  0.205200  0.962000  0.095500  1.0  0.0991
  H  H15  1  0.935900  0.845600  0.017000  1.0  0.0954
  H  H16  1  0.411300  0.871800  0.410800  1.0  0.1014
  H  H17  1  0.143400  0.195100  0.332300  1.0  0.0727
  H  H18  1  0.214200  0.138900  0.489700  1.0  0.1008
  H  H19  1  0.607300  0.119200  0.322800  1.0  0.1149
  H  H20  1  0.554500  0.174900  0.163200  1.0  0.0663
  H  H21  1  0.268800  0.543000  0.088800  1.0  0.0873
  H  H22  1  0.773000  0.505900  0.600200  1.0  0.1025
  H  H23  1  0.523200  0.554100  0.459700  1.0  0.086
  H  H24  1  0.509200  0.621500  0.549400  1.0  0.0813
  H  H25  1  0.736700  0.640800  0.782000  1.0  0.1048
  H  H26  1  0.794800  0.462000  0.404500  1.0  0.0985
  H  H27  1  0.064100  0.345600  0.483000  1.0  0.0963
  H  H28  1  0.588700  0.371800  0.089200  1.0  0.1008
  H  H29  1  0.856600  0.695100  0.167700  1.0  0.0729
  H  H30  1  0.785800  0.638900  0.010300  1.0  0.1009
  H  H31  1  0.392700  0.619200  0.177200  1.0  0.115
  H  H32  1  0.445500  0.674900  0.336800  1.0  0.0665
  H  H33  1  0.268800  0.957000  0.588800  1.0  0.0873
  H  H34  1  0.773000  0.994100  0.100200  1.0  0.1027
  H  H35  1  0.523200  0.945900  0.959700  1.0  0.0861
  H  H36  1  0.509200  0.878500  0.049400  1.0  0.081
  H  H37  1  0.736700  0.859200  0.282000  1.0  0.1046
  H  H38  1  0.794800  0.038000  0.904500  1.0  0.0986
  H  H39  1  0.064100  0.154400  0.983000  1.0  0.0954
  H  H40  1  0.588700  0.128200  0.589200  1.0  0.1017
  H  H41  1  0.856600  0.804900  0.667700  1.0  0.0724
  H  H42  1  0.785800  0.861100  0.510300  1.0  0.1009
  H  H43  1  0.392700  0.880800  0.677200  1.0  0.1149
  H  H44  1  0.445500  0.825100  0.836800  1.0  0.0665
  H  H45  1  0.731200  0.457000  0.911200  1.0  0.0867
  H  H46  1  0.227000  0.494100  0.399800  1.0  0.1028
  H  H47  1  0.476800  0.445900  0.540300  1.0  0.0858
  H  H48  1  0.490800  0.378500  0.450600  1.0  0.0813
  H  H49  1  0.263300  0.359200  0.218000  1.0  0.1041
  H  H50  1  0.205200  0.538000  0.595500  1.0  0.0985
  H  H51  1  0.935900  0.654400  0.517000  1.0  0.095
  H  H52  1  0.411300  0.628200  0.910800  1.0  0.1012
  H  H53  1  0.143400  0.304900  0.832300  1.0  0.072
  H  H54  1  0.214200  0.361100  0.989700  1.0  0.1006
  H  H55  1  0.607300  0.380800  0.822800  1.0  0.1151
  H  H56  1  0.554500  0.325100  0.663200  1.0  0.0665
  C  C57  1  0.953600  0.087030  0.524800  1.0  0.0414
  C  C58  1  0.848400  0.049760  0.499700  1.0  0.0801
  C  C59  1  0.093200  0.044610  0.719300  1.0  0.2394
  C  C60  1  0.234200  0.033100  0.862200  1.0  -0.0947
  C  C61  1  0.379700  0.061570  0.944400  1.0  -0.0965
  C  C62  1  0.389000  0.101780  0.890100  1.0  -0.1068
  C  C63  1  0.256500  0.113230  0.753600  1.0  0.062
  C  C64  1  0.327400  0.922050  0.269500  1.0  -0.1405
  C  C65  1  0.195800  0.934040  0.127500  1.0  -0.0445
  C  C66  1  0.050600  0.905560  0.032000  1.0  -0.1564
  C  C67  1  0.036700  0.864960  0.080600  1.0  -0.0259
  C  C68  1  0.169600  0.852370  0.222300  1.0  -0.1361
  C  C69  1  0.317400  0.880640  0.315700  1.0  -0.0514
  C  C70  1  0.478800  0.953270  0.371000  1.0  0.6558
  C  C71  1  0.153800  0.808540  0.274900  1.0  0.6401
  C  C72  1  0.034100  0.179140  0.329800  1.0  0.1249
  C  C73  1  0.077200  0.146180  0.425100  1.0  -0.2146
  C  C74  1  0.919100  0.123160  0.427200  1.0  0.0539
  C  C75  1  0.719400  0.134260  0.326100  1.0  -0.22
  C  C76  1  0.689800  0.167550  0.231700  1.0  0.1432
  C  C77  1  0.906100  0.918750  0.879700  1.0  0.6584
  C  C78  1  0.046400  0.587030  0.975200  1.0  0.0407
  C  C79  1  0.151600  0.549760  0.000300  1.0  0.0794
  C  C80  1  0.906800  0.544610  0.780700  1.0  0.2406
  C  C81  1  0.765800  0.533100  0.637800  1.0  -0.0952
  C  C82  1  0.620300  0.561570  0.555600  1.0  -0.0961
  C  C83  1  0.611000  0.601780  0.609900  1.0  -0.1096
  C  C84  1  0.743500  0.613230  0.746400  1.0  0.0609
  C  C85  1  0.672600  0.422050  0.230500  1.0  -0.1403
  C  C86  1  0.804200  0.434040  0.372500  1.0  -0.0449
  C  C87  1  0.949400  0.405560  0.468000  1.0  -0.1572
  C  C88  1  0.963300  0.364960  0.419400  1.0  -0.0258
  C  C89  1  0.830400  0.352370  0.277700  1.0  -0.1361
  C  C90  1  0.682600  0.380640  0.184300  1.0  -0.0513
  C  C91  1  0.521200  0.453270  0.129000  1.0  0.656
  C  C92  1  0.846200  0.308540  0.225100  1.0  0.6396
  C  C93  1  0.965900  0.679140  0.170200  1.0  0.125
  C  C94  1  0.922800  0.646180  0.074900  1.0  -0.2137
  C  C95  1  0.080900  0.623160  0.072800  1.0  0.0541
  C  C96  1  0.280600  0.634260  0.173900  1.0  -0.2201
  C  C97  1  0.310200  0.667550  0.268300  1.0  0.1434
  C  C98  1  0.093900  0.418750  0.620300  1.0  0.6587
  C  C99  1  0.046400  0.912970  0.475200  1.0  0.0411
  C  C100  1  0.151600  0.950240  0.500300  1.0  0.0783
  C  C101  1  0.906800  0.955390  0.280700  1.0  0.2409
  C  C102  1  0.765800  0.966900  0.137800  1.0  -0.0945
  C  C103  1  0.620300  0.938430  0.055600  1.0  -0.0965
  C  C104  1  0.611000  0.898220  0.109900  1.0  -0.1087
  C  C105  1  0.743500  0.886770  0.246400  1.0  0.0617
  C  C106  1  0.672600  0.077950  0.730500  1.0  -0.1402
  C  C107  1  0.804200  0.065960  0.872500  1.0  -0.0459
  C  C108  1  0.949400  0.094440  0.968000  1.0  -0.1572
  C  C109  1  0.963300  0.135040  0.919400  1.0  -0.0274
  C  C110  1  0.830400  0.147630  0.777700  1.0  -0.1369
  C  C111  1  0.682600  0.119360  0.684300  1.0  -0.0522
  C  C112  1  0.521200  0.046730  0.629000  1.0  0.6565
  C  C113  1  0.846200  0.191460  0.725100  1.0  0.6407
  C  C114  1  0.965900  0.820860  0.670200  1.0  0.1268
  C  C115  1  0.922800  0.853820  0.574900  1.0  -0.2139
  C  C116  1  0.080900  0.876840  0.572800  1.0  0.0534
  C  C117  1  0.280600  0.865740  0.673900  1.0  -0.2197
  C  C118  1  0.310200  0.832450  0.768300  1.0  0.1445
  C  C119  1  0.093900  0.081250  0.120300  1.0  0.6583
  C  C120  1  0.953600  0.412970  0.024800  1.0  0.0411
  C  C121  1  0.848400  0.450240  0.999700  1.0  0.0799
  C  C122  1  0.093200  0.455390  0.219300  1.0  0.24
  C  C123  1  0.234200  0.466900  0.362200  1.0  -0.0941
  C  C124  1  0.379700  0.438430  0.444400  1.0  -0.0968
  C  C125  1  0.389000  0.398220  0.390100  1.0  -0.1069
  C  C126  1  0.256500  0.386770  0.253600  1.0  0.0625
  C  C127  1  0.327400  0.577950  0.769500  1.0  -0.1404
  C  C128  1  0.195800  0.565960  0.627500  1.0  -0.0444
  C  C129  1  0.050600  0.594440  0.532000  1.0  -0.1567
  C  C130  1  0.036700  0.635040  0.580600  1.0  -0.028
  C  C131  1  0.169600  0.647630  0.722300  1.0  -0.1364
  C  C132  1  0.317400  0.619360  0.815700  1.0  -0.0515
  C  C133  1  0.478800  0.546730  0.871000  1.0  0.6561
  C  C134  1  0.153800  0.691460  0.774900  1.0  0.6415
  C  C135  1  0.034100  0.320860  0.829800  1.0  0.1243
  C  C136  1  0.077200  0.353820  0.925100  1.0  -0.2152
  C  C137  1  0.919100  0.376840  0.927200  1.0  0.0535
  C  C138  1  0.719400  0.365740  0.826100  1.0  -0.2196
  C  C139  1  0.689800  0.332450  0.731700  1.0  0.1448
  C  C140  1  0.906100  0.581250  0.379700  1.0  0.6588
  N  N141  1  0.930500  0.023270  0.615900  1.0  -0.4454
  N  N142  1  0.110300  0.083980  0.666200  1.0  0.0351
  N  N143  1  0.841800  0.190060  0.231600  1.0  -0.3211
  N  N144  1  0.069500  0.523270  0.884100  1.0  -0.4457
  N  N145  1  0.889700  0.583980  0.833800  1.0  0.0359
  N  N146  1  0.158200  0.690060  0.268400  1.0  -0.324
  N  N147  1  0.069500  0.976730  0.384100  1.0  -0.4437
  N  N148  1  0.889700  0.916020  0.333800  1.0  0.0349
  N  N149  1  0.158200  0.809940  0.768400  1.0  -0.3234
  N  N150  1  0.930500  0.476730  0.115900  1.0  -0.4439
  N  N151  1  0.110300  0.416020  0.166200  1.0  0.0339
  N  N152  1  0.841800  0.309940  0.731600  1.0  -0.3237
  O  O153  1  0.629300  0.937860  0.481900  1.0  -0.5928
  O  O154  1  0.449100  0.992940  0.344700  1.0  -0.6111
  O  O155  1  0.964400  0.951800  0.836400  1.0  -0.6126
  O  O156  1  0.748900  0.898700  0.806600  1.0  -0.5674
  O  O157  1  0.283000  0.797570  0.402400  1.0  -0.5989
  O  O158  1  0.013900  0.783530  0.194300  1.0  -0.6216
  O  O159  1  0.370700  0.437860  0.018100  1.0  -0.5939
  O  O160  1  0.550900  0.492940  0.155300  1.0  -0.6118
  O  O161  1  0.035600  0.451800  0.663600  1.0  -0.6135
  O  O162  1  0.251100  0.398700  0.693400  1.0  -0.5669
  O  O163  1  0.717000  0.297570  0.097600  1.0  -0.5993
  O  O164  1  0.986100  0.283530  0.305700  1.0  -0.6202
  O  O165  1  0.370700  0.062140  0.518100  1.0  -0.5934
  O  O166  1  0.550900  0.007060  0.655300  1.0  -0.6098
  O  O167  1  0.035600  0.048200  0.163600  1.0  -0.613
  O  O168  1  0.251100  0.101300  0.193400  1.0  -0.5674
  O  O169  1  0.717000  0.202430  0.597600  1.0  -0.6001
  O  O170  1  0.986100  0.216470  0.805700  1.0  -0.6197
  O  O171  1  0.629300  0.562140  0.981900  1.0  -0.5928
  O  O172  1  0.449100  0.507060  0.844700  1.0  -0.6102
  O  O173  1  0.964400  0.548200  0.336400  1.0  -0.6127
  O  O174  1  0.748900  0.601300  0.306600  1.0  -0.5671
  O  O175  1  0.283000  0.702430  0.902400  1.0  -0.6004
  O  O176  1  0.013900  0.716470  0.694300  1.0  -0.6208
