# generated using pymatgen
data_ZnH7C12O5
_symmetry_space_group_name_H-M   'P 1'
_cell_length_a   7.62380000
_cell_length_b   12.34160000
_cell_length_c   12.34160000
_cell_angle_alpha   96.33890000
_cell_angle_beta   94.16000000
_cell_angle_gamma   85.84000000
_symmetry_Int_Tables_number   1
_chemical_formula_structural   ZnH7C12O5
_chemical_formula_sum   'Zn4 H28 C48 O20'
_cell_volume   1148.63784587
_cell_formula_units_Z   4
loop_
 _symmetry_equiv_pos_site_id
 _symmetry_equiv_pos_as_xyz
  1  'x, y, z'
loop_
 _atom_site_type_symbol
 _atom_site_label
 _atom_site_symmetry_multiplicity
 _atom_site_fract_x
 _atom_site_fract_y
 _atom_site_fract_z
 _atom_site_occupancy
 _atom_site_charge
  Zn  Zn1  1  0.436820  0.297220  0.765220  1.0  1.0793
  Zn  Zn2  1  0.063180  0.765220  0.297220  1.0  1.0799
  Zn  Zn3  1  0.563180  0.702780  0.234780  1.0  1.0803
  Zn  Zn4  1  0.936820  0.234780  0.702780  1.0  1.0796
  H  H5  1  0.710800  0.457100  0.052900  1.0  0.1116
  H  H6  1  0.196100  0.434900  0.203500  1.0  0.1255
  H  H7  1  0.066500  0.216800  0.946200  1.0  0.1241
  H  H8  1  0.484000  0.364200  0.140400  1.0  0.0814
  H  H9  1  0.413800  0.299000  0.229400  1.0  0.0654
  H  H10  1  0.512700  0.120900  0.004500  1.0  0.0976
  H  H11  1  0.789200  0.052900  0.457100  1.0  0.1108
  H  H12  1  0.303900  0.203500  0.434900  1.0  0.1248
  H  H13  1  0.433500  0.946200  0.216800  1.0  0.1234
  H  H14  1  0.016000  0.140400  0.364200  1.0  0.081
  H  H15  1  0.086200  0.229400  0.299000  1.0  0.0682
  H  H16  1  0.987300  0.004500  0.120900  1.0  0.0977
  H  H17  1  0.289200  0.542900  0.947100  1.0  0.1112
  H  H18  1  0.803900  0.565100  0.796500  1.0  0.1254
  H  H19  1  0.933500  0.783200  0.053800  1.0  0.1239
  H  H20  1  0.516000  0.635800  0.859600  1.0  0.0818
  H  H21  1  0.586200  0.701000  0.770600  1.0  0.0659
  H  H22  1  0.487300  0.879100  0.995500  1.0  0.0981
  H  H23  1  0.210800  0.947100  0.542900  1.0  0.1104
  H  H24  1  0.696100  0.796500  0.565100  1.0  0.1247
  H  H25  1  0.566500  0.053800  0.783200  1.0  0.1236
  H  H26  1  0.984000  0.859600  0.635800  1.0  0.0809
  H  H27  1  0.913800  0.770600  0.701000  1.0  0.0687
  H  H28  1  0.012700  0.995500  0.879100  1.0  0.0978
  H  H29  1  0.750000  0.991200  0.991200  1.0  0.0994
  H  H30  1  0.750000  0.273300  0.273300  1.0  0.1148
  H  H31  1  0.250000  0.008800  0.008800  1.0  0.0999
  H  H32  1  0.250000  0.726700  0.726700  1.0  0.1162
  C  C33  1  0.870800  0.332300  0.984300  1.0  -0.1362
  C  C34  1  0.823200  0.422700  0.058100  1.0  -0.04
  C  C35  1  0.946100  0.459000  0.138000  1.0  -0.1075
  C  C36  1  0.114500  0.408300  0.149100  1.0  -0.1913
  C  C37  1  0.158100  0.317500  0.077300  1.0  0.2535
  C  C38  1  0.036800  0.278000  0.994000  1.0  -0.1436
  C  C39  1  0.743500  0.293700  0.893100  1.0  0.6782
  C  C40  1  0.451000  0.293100  0.155300  1.0  0.0812
  C  C41  1  0.605500  0.208800  0.141400  1.0  0.0313
  C  C42  1  0.607400  0.125300  0.056300  1.0  -0.1272
  C  C43  1  0.896300  0.558800  0.215000  1.0  0.713
  C  C44  1  0.629200  0.984300  0.332300  1.0  -0.1354
  C  C45  1  0.676800  0.058100  0.422700  1.0  -0.0431
  C  C46  1  0.553900  0.138000  0.459000  1.0  -0.1078
  C  C47  1  0.385500  0.149100  0.408300  1.0  -0.1959
  C  C48  1  0.341900  0.077300  0.317500  1.0  0.2537
  C  C49  1  0.463200  0.994000  0.278000  1.0  -0.1448
  C  C50  1  0.756500  0.893100  0.293700  1.0  0.679
  C  C51  1  0.049000  0.155300  0.293100  1.0  0.0808
  C  C52  1  0.894500  0.141400  0.208800  1.0  0.0328
  C  C53  1  0.892600  0.056300  0.125300  1.0  -0.1265
  C  C54  1  0.603700  0.215000  0.558800  1.0  0.7128
  C  C55  1  0.129200  0.667700  0.015700  1.0  -0.1351
  C  C56  1  0.176800  0.577300  0.941900  1.0  -0.0424
  C  C57  1  0.053900  0.541000  0.862000  1.0  -0.1094
  C  C58  1  0.885500  0.591700  0.850900  1.0  -0.1931
  C  C59  1  0.841900  0.682500  0.922700  1.0  0.2534
  C  C60  1  0.963200  0.722000  0.006000  1.0  -0.1447
  C  C61  1  0.256500  0.706300  0.106900  1.0  0.6783
  C  C62  1  0.549000  0.706900  0.844700  1.0  0.0787
  C  C63  1  0.394500  0.791200  0.858600  1.0  0.0312
  C  C64  1  0.392600  0.874700  0.943700  1.0  -0.1274
  C  C65  1  0.103700  0.441200  0.785000  1.0  0.718
  C  C66  1  0.370800  0.015700  0.667700  1.0  -0.1353
  C  C67  1  0.323200  0.941900  0.577300  1.0  -0.0405
  C  C68  1  0.446100  0.862000  0.541000  1.0  -0.108
  C  C69  1  0.614500  0.850900  0.591700  1.0  -0.195
  C  C70  1  0.658100  0.922700  0.682500  1.0  0.2536
  C  C71  1  0.536800  0.006000  0.722000  1.0  -0.144
  C  C72  1  0.243500  0.106900  0.706300  1.0  0.6777
  C  C73  1  0.951000  0.844700  0.706900  1.0  0.08
  C  C74  1  0.105500  0.858600  0.791200  1.0  0.0327
  C  C75  1  0.107400  0.943700  0.874700  1.0  -0.1261
  C  C76  1  0.396300  0.785000  0.441200  1.0  0.7126
  C  C77  1  0.750000  0.047700  0.047700  1.0  -0.0601
  C  C78  1  0.750000  0.216800  0.216800  1.0  -0.1661
  C  C79  1  0.250000  0.952300  0.952300  1.0  -0.0593
  C  C80  1  0.250000  0.783200  0.783200  1.0  -0.1644
  O  O81  1  0.590300  0.341340  0.891060  1.0  -0.5778
  O  O82  1  0.787200  0.218120  0.821760  1.0  -0.6258
  O  O83  1  0.736300  0.579000  0.226200  1.0  -0.617
  O  O84  1  0.019800  0.612300  0.261280  1.0  -0.6318
  O  O85  1  0.313200  0.256440  0.079720  1.0  -0.236
  O  O86  1  0.909700  0.891060  0.341340  1.0  -0.5779
  O  O87  1  0.712800  0.821760  0.218120  1.0  -0.627
  O  O88  1  0.763700  0.226200  0.579000  1.0  -0.618
  O  O89  1  0.480200  0.261280  0.612300  1.0  -0.6318
  O  O90  1  0.186800  0.079720  0.256440  1.0  -0.2351
  O  O91  1  0.409700  0.658660  0.108940  1.0  -0.578
  O  O92  1  0.212800  0.781880  0.178240  1.0  -0.6252
  O  O93  1  0.263700  0.421000  0.773800  1.0  -0.6167
  O  O94  1  0.980200  0.387700  0.738720  1.0  -0.6327
  O  O95  1  0.686800  0.743560  0.920280  1.0  -0.2347
  O  O96  1  0.090300  0.108940  0.658660  1.0  -0.5781
  O  O97  1  0.287200  0.178240  0.781880  1.0  -0.6261
  O  O98  1  0.236300  0.773800  0.421000  1.0  -0.6215
  O  O99  1  0.519800  0.738720  0.387700  1.0  -0.6295
  O  O100  1  0.813200  0.920280  0.743560  1.0  -0.235
