# generated using pymatgen
data_Yb2HC11NO12
_symmetry_space_group_name_H-M   'P 1'
_cell_length_a   8.66970000
_cell_length_b   10.15500000
_cell_length_c   13.45500000
_cell_angle_alpha   85.39000000
_cell_angle_beta   89.00000000
_cell_angle_gamma   77.26000000
_symmetry_Int_Tables_number   1
_chemical_formula_structural   Yb2HC11NO12
_chemical_formula_sum   'Yb4 H2 C22 N2 O24'
_cell_volume   1151.68740530
_cell_formula_units_Z   2
loop_
 _symmetry_equiv_pos_site_id
 _symmetry_equiv_pos_as_xyz
  1  'x, y, z'
loop_
 _atom_site_type_symbol
 _atom_site_label
 _atom_site_symmetry_multiplicity
 _atom_site_fract_x
 _atom_site_fract_y
 _atom_site_fract_z
 _atom_site_occupancy
 _atom_site_charge
  Yb  Yb1  1  0.081020  0.193300  0.502640  1.0  1.5251
  Yb  Yb2  1  0.466990  0.232440  0.922840  1.0  1.5734
  Yb  Yb3  1  0.918980  0.806700  0.497360  1.0  1.5258
  Yb  Yb4  1  0.533010  0.767560  0.077160  1.0  1.5745
  H  H5  1  0.709800  0.110300  0.275500  1.0  0.1462
  H  H6  1  0.290200  0.889700  0.724500  1.0  0.147
  C  C7  1  0.177000  0.122700  0.273500  1.0  0.6658
  C  C8  1  0.333100  0.136300  0.314400  1.0  0.1642
  C  C9  1  0.474000  0.117300  0.260400  1.0  -0.0414
  C  C10  1  0.613800  0.123600  0.309300  1.0  -0.0737
  C  C11  1  0.605800  0.150100  0.409300  1.0  -0.0045
  C  C12  1  0.460400  0.169200  0.457100  1.0  0.1347
  C  C13  1  0.438400  0.191600  0.566700  1.0  0.6416
  C  C14  1  0.489000  0.088100  0.152800  1.0  0.7388
  C  C15  1  0.759600  0.149200  0.459700  1.0  0.7338
  C  C16  1  0.982100  0.493700  0.556300  1.0  0.5971
  C  C17  1  0.410700  0.525500  0.995500  1.0  0.5797
  C  C18  1  0.823000  0.877300  0.726500  1.0  0.6658
  C  C19  1  0.666900  0.863700  0.685600  1.0  0.1643
  C  C20  1  0.526000  0.882700  0.739600  1.0  -0.0399
  C  C21  1  0.386200  0.876400  0.690700  1.0  -0.0759
  C  C22  1  0.394200  0.849900  0.590700  1.0  -0.0053
  C  C23  1  0.539600  0.830800  0.542900  1.0  0.1364
  C  C24  1  0.561600  0.808400  0.433300  1.0  0.6429
  C  C25  1  0.511000  0.911900  0.847200  1.0  0.7407
  C  C26  1  0.240400  0.850800  0.540300  1.0  0.7326
  C  C27  1  0.017900  0.506300  0.443700  1.0  0.5972
  C  C28  1  0.589300  0.474500  0.004500  1.0  0.5785
  N  N29  1  0.328100  0.162200  0.410300  1.0  -0.3662
  N  N30  1  0.671900  0.837800  0.589700  1.0  -0.3661
  O  O31  1  0.063200  0.138200  0.335800  1.0  -0.6333
  O  O32  1  0.169900  0.093300  0.187400  1.0  -0.4347
  O  O33  1  0.461500  0.185900  0.090100  1.0  -0.5959
  O  O34  1  0.538100  0.966400  0.134500  1.0  -0.6818
  O  O35  1  0.841200  0.037300  0.492500  1.0  -0.7336
  O  O36  1  0.807400  0.257600  0.460200  1.0  -0.6146
  O  O37  1  0.560700  0.190700  0.613900  1.0  -0.4912
  O  O38  1  0.298200  0.207100  0.598800  1.0  -0.6519
  O  O39  1  0.993400  0.379400  0.596800  1.0  -0.5377
  O  O40  1  0.940300  0.604400  0.595800  1.0  -0.5403
  O  O41  1  0.333600  0.449400  0.957600  1.0  -0.5712
  O  O42  1  0.354600  0.639900  0.024800  1.0  -0.5301
  O  O43  1  0.936800  0.861800  0.664200  1.0  -0.6377
  O  O44  1  0.830100  0.906700  0.812600  1.0  -0.4375
  O  O45  1  0.538500  0.814100  0.909900  1.0  -0.5966
  O  O46  1  0.461900  0.033600  0.865500  1.0  -0.6805
  O  O47  1  0.158800  0.962700  0.507500  1.0  -0.7343
  O  O48  1  0.192600  0.742400  0.539800  1.0  -0.6143
  O  O49  1  0.439300  0.809300  0.386100  1.0  -0.4898
  O  O50  1  0.701800  0.792900  0.401200  1.0  -0.6523
  O  O51  1  0.006600  0.620600  0.403200  1.0  -0.5372
  O  O52  1  0.059700  0.395600  0.404200  1.0  -0.5391
  O  O53  1  0.666400  0.550600  0.042400  1.0  -0.5711
  O  O54  1  0.645400  0.360100  0.975200  1.0  -0.5264
