# generated using pymatgen
data_AlPO4
_symmetry_space_group_name_H-M   'P 1'
_cell_length_a   8.23670000
_cell_length_b   9.16640000
_cell_length_c   17.55000000
_cell_angle_alpha   90.00000000
_cell_angle_beta   90.00000000
_cell_angle_gamma   90.00000000
_symmetry_Int_Tables_number   1
_chemical_formula_structural   AlPO4
_chemical_formula_sum   'Al12 P12 O48'
_cell_volume   1325.04056474
_cell_formula_units_Z   12
loop_
 _symmetry_equiv_pos_site_id
 _symmetry_equiv_pos_as_xyz
  1  'x, y, z'
loop_
 _atom_site_type_symbol
 _atom_site_label
 _atom_site_symmetry_multiplicity
 _atom_site_fract_x
 _atom_site_fract_y
 _atom_site_fract_z
 _atom_site_occupancy
 _atom_site_charge
  Al  Al1  1  0.860750  0.130910  0.934030  1.0  1.9403
  Al  Al2  1  0.942240  0.084370  0.166590  1.0  1.9888
  Al  Al3  1  0.939680  0.585750  0.031640  1.0  1.9934
  Al  Al4  1  0.639250  0.869090  0.434030  1.0  1.9355
  Al  Al5  1  0.557760  0.915630  0.666590  1.0  1.9874
  Al  Al6  1  0.560320  0.414250  0.531640  1.0  1.9921
  Al  Al7  1  0.139250  0.630910  0.565970  1.0  1.936
  Al  Al8  1  0.057760  0.584370  0.333410  1.0  1.9868
  Al  Al9  1  0.060320  0.085750  0.468360  1.0  1.9919
  Al  Al10  1  0.360750  0.369090  0.065970  1.0  1.9362
  Al  Al11  1  0.442240  0.415630  0.833410  1.0  1.9891
  Al  Al12  1  0.439680  0.914250  0.968360  1.0  1.9937
  P  P13  1  0.064170  0.414400  0.173250  1.0  2.0937
  P  P14  1  0.069850  0.907930  0.026270  1.0  2.1104
  P  P15  1  0.133460  0.367230  0.928800  1.0  1.9318
  P  P16  1  0.435830  0.585600  0.673250  1.0  2.0944
  P  P17  1  0.430150  0.092070  0.526270  1.0  2.1223
  P  P18  1  0.366540  0.632770  0.428800  1.0  1.9283
  P  P19  1  0.935830  0.914400  0.326750  1.0  2.0871
  P  P20  1  0.930150  0.407930  0.473730  1.0  2.1223
  P  P21  1  0.866540  0.867230  0.571200  1.0  1.9707
  P  P22  1  0.564170  0.085600  0.826750  1.0  2.0866
  P  P23  1  0.569850  0.592070  0.973730  1.0  2.12
  P  P24  1  0.633460  0.132770  0.071200  1.0  1.9437
  O  O25  1  0.004100  0.263600  0.899100  1.0  -0.9866
  O  O26  1  0.238900  0.420800  0.147600  1.0  -0.9828
  O  O27  1  0.961300  0.966200  0.963900  1.0  -1.021
  O  O28  1  0.238400  0.295400  0.989300  1.0  -0.9278
  O  O29  1  0.009000  0.258100  0.182200  1.0  -1.0336
  O  O30  1  0.046200  0.488500  0.249000  1.0  -0.9857
  O  O31  1  0.063900  0.004900  0.097400  1.0  -1.0345
  O  O32  1  0.235600  0.413200  0.860200  1.0  -0.962
  O  O33  1  0.054600  0.505100  0.960400  1.0  -1.0479
  O  O34  1  0.015300  0.758100  0.050600  1.0  -1.0511
  O  O35  1  0.243600  0.900700  0.997800  1.0  -1.0073
  O  O36  1  0.952200  0.485800  0.115300  1.0  -1.0282
  O  O37  1  0.495900  0.736400  0.399100  1.0  -0.9866
  O  O38  1  0.261100  0.579200  0.647600  1.0  -0.9812
  O  O39  1  0.538700  0.033800  0.463900  1.0  -1.021
  O  O40  1  0.261600  0.704600  0.489300  1.0  -0.9274
  O  O41  1  0.491000  0.741900  0.682200  1.0  -1.0348
  O  O42  1  0.453800  0.511500  0.749000  1.0  -0.9839
  O  O43  1  0.436100  0.995100  0.597400  1.0  -1.0334
  O  O44  1  0.264400  0.586800  0.360200  1.0  -0.9634
  O  O45  1  0.445400  0.494900  0.460400  1.0  -1.0479
  O  O46  1  0.484700  0.241900  0.550600  1.0  -1.0519
  O  O47  1  0.256400  0.099300  0.497800  1.0  -1.0078
  O  O48  1  0.547800  0.514200  0.615300  1.0  -1.0291
  O  O49  1  0.995900  0.763600  0.600900  1.0  -0.9885
  O  O50  1  0.761100  0.920800  0.352400  1.0  -0.9807
  O  O51  1  0.038700  0.466200  0.536100  1.0  -1.0217
  O  O52  1  0.761600  0.795400  0.510700  1.0  -0.9281
  O  O53  1  0.991000  0.758100  0.317800  1.0  -1.0322
  O  O54  1  0.953800  0.988500  0.251000  1.0  -0.9857
  O  O55  1  0.936100  0.504900  0.402600  1.0  -1.0342
  O  O56  1  0.764400  0.913200  0.639800  1.0  -0.9647
  O  O57  1  0.945400  0.005100  0.539600  1.0  -1.0499
  O  O58  1  0.984700  0.258100  0.449400  1.0  -1.0511
  O  O59  1  0.756400  0.400700  0.502200  1.0  -1.0083
  O  O60  1  0.047800  0.985800  0.384700  1.0  -1.0279
  O  O61  1  0.504100  0.236400  0.100900  1.0  -0.9879
  O  O62  1  0.738900  0.079200  0.852400  1.0  -0.982
  O  O63  1  0.461300  0.533800  0.036100  1.0  -1.0226
  O  O64  1  0.738400  0.204600  0.010700  1.0  -0.9273
  O  O65  1  0.509000  0.241900  0.817800  1.0  -1.0337
  O  O66  1  0.546200  0.011500  0.751000  1.0  -0.9857
  O  O67  1  0.563900  0.495100  0.902600  1.0  -1.0337
  O  O68  1  0.735600  0.086800  0.139800  1.0  -0.9645
  O  O69  1  0.554600  0.994900  0.039600  1.0  -1.0484
  O  O70  1  0.515300  0.741900  0.949400  1.0  -1.0511
  O  O71  1  0.743600  0.599300  0.002200  1.0  -1.007
  O  O72  1  0.452200  0.014200  0.884700  1.0  -1.0284
