# generated using pymatgen
data_Zn5H10(C8O9)2
_symmetry_space_group_name_H-M   'P 1'
_cell_length_a   9.15860000
_cell_length_b   9.79690000
_cell_length_c   9.87300000
_cell_angle_alpha   77.59800000
_cell_angle_beta   89.94700000
_cell_angle_gamma   88.06000000
_symmetry_Int_Tables_number   1
_chemical_formula_structural   Zn5H10(C8O9)2
_chemical_formula_sum   'Zn5 H10 C16 O18'
_cell_volume   864.67769556
_cell_formula_units_Z   1
loop_
 _symmetry_equiv_pos_site_id
 _symmetry_equiv_pos_as_xyz
  1  'x, y, z'
loop_
 _atom_site_type_symbol
 _atom_site_label
 _atom_site_symmetry_multiplicity
 _atom_site_fract_x
 _atom_site_fract_y
 _atom_site_fract_z
 _atom_site_occupancy
 _atom_site_charge
  Zn  Zn1  1  0.779800  0.713240  0.808900  1.0  1.1492
  Zn  Zn2  1  0.697200  0.370240  0.910580  1.0  1.0907
  Zn  Zn3  1  0.220200  0.286760  0.191100  1.0  1.1459
  Zn  Zn4  1  0.302800  0.629760  0.089420  1.0  1.091
  Zn  Zn5  1  0.000000  0.500000  0.000000  1.0  1.1234
  H  H6  1  0.728600  0.548300  0.050400  1.0  0.4412
  H  H7  1  0.900700  0.601400  0.428700  1.0  0.1119
  H  H8  1  0.896500  0.976800  0.905100  1.0  0.1057
  H  H9  1  0.489700  0.645200  0.467700  1.0  0.1239
  H  H10  1  0.386100  0.922500  0.069800  1.0  0.1106
  H  H11  1  0.271400  0.451700  0.949600  1.0  0.4406
  H  H12  1  0.099300  0.398600  0.571300  1.0  0.109
  H  H13  1  0.103500  0.023200  0.094900  1.0  0.105
  H  H14  1  0.510300  0.354800  0.532300  1.0  0.1232
  H  H15  1  0.613900  0.077500  0.930200  1.0  0.1109
  C  C16  1  0.015200  0.474300  0.310700  1.0  0.7229
  C  C17  1  0.971600  0.526900  0.437800  1.0  -0.1808
  C  C18  1  0.050100  0.810900  0.984800  1.0  0.7407
  C  C19  1  0.977500  0.953400  0.966700  1.0  -0.1941
  C  C20  1  0.593800  0.547400  0.658100  1.0  0.723
  C  C21  1  0.516200  0.555700  0.522600  1.0  -0.1878
  C  C22  1  0.548100  0.811800  0.980700  1.0  0.7428
  C  C23  1  0.474000  0.935300  0.018100  1.0  -0.1588
  C  C24  1  0.984800  0.525700  0.689300  1.0  0.7238
  C  C25  1  0.028400  0.473100  0.562200  1.0  -0.1782
  C  C26  1  0.949900  0.189100  0.015200  1.0  0.742
  C  C27  1  0.022500  0.046600  0.033300  1.0  -0.1924
  C  C28  1  0.406200  0.452600  0.341900  1.0  0.7223
  C  C29  1  0.483800  0.444300  0.477400  1.0  -0.1851
  C  C30  1  0.451900  0.188200  0.019300  1.0  0.7425
  C  C31  1  0.526000  0.064700  0.981900  1.0  -0.1553
  O  O32  1  0.778700  0.529800  0.965700  1.0  -0.9865
  O  O33  1  0.967000  0.542900  0.196300  1.0  -0.604
  O  O34  1  0.097000  0.366400  0.328200  1.0  -0.6257
  O  O35  1  0.994700  0.724200  0.924000  1.0  -0.6457
  O  O36  1  0.165000  0.789100  0.058500  1.0  -0.5989
  O  O37  1  0.601500  0.658200  0.700800  1.0  -0.6232
  O  O38  1  0.645500  0.427200  0.716000  1.0  -0.6124
  O  O39  1  0.671400  0.829200  0.924900  1.0  -0.6016
  O  O40  1  0.486000  0.695500  0.002900  1.0  -0.6088
  O  O41  1  0.221300  0.470200  0.034300  1.0  -0.9854
  O  O42  1  0.033000  0.457100  0.803700  1.0  -0.6046
  O  O43  1  0.903000  0.633600  0.671800  1.0  -0.624
  O  O44  1  0.005300  0.275800  0.076000  1.0  -0.6436
  O  O45  1  0.835000  0.210900  0.941500  1.0  -0.5985
  O  O46  1  0.398500  0.341800  0.299200  1.0  -0.6244
  O  O47  1  0.354500  0.572800  0.284000  1.0  -0.6128
  O  O48  1  0.328600  0.170800  0.075100  1.0  -0.601
  O  O49  1  0.514000  0.304500  0.997100  1.0  -0.6085
