# generated using pymatgen
data_ZnH9C11NO5
_symmetry_space_group_name_H-M   'P 1'
_cell_length_a   8.79940000
_cell_length_b   8.80390000
_cell_length_c   53.88800000
_cell_angle_alpha   90.00000000
_cell_angle_beta   90.00000000
_cell_angle_gamma   90.11100000
_symmetry_Int_Tables_number   1
_chemical_formula_structural   ZnH9C11NO5
_chemical_formula_sum   'Zn8 H72 C88 N8 O40'
_cell_volume   4174.64366729
_cell_formula_units_Z   8
loop_
 _symmetry_equiv_pos_site_id
 _symmetry_equiv_pos_as_xyz
  1  'x, y, z'
loop_
 _atom_site_type_symbol
 _atom_site_label
 _atom_site_symmetry_multiplicity
 _atom_site_fract_x
 _atom_site_fract_y
 _atom_site_fract_z
 _atom_site_occupancy
 _atom_site_charge
  Zn  Zn1  1  0.734350  0.823030  0.746490  1.0  0.9327
  Zn  Zn2  1  0.772440  0.788120  0.802120  1.0  0.9439
  Zn  Zn3  1  0.431610  0.662860  0.548480  1.0  0.9487
  Zn  Zn4  1  0.603780  0.370880  0.994070  1.0  0.9439
  Zn  Zn5  1  0.265650  0.176970  0.246490  1.0  0.9324
  Zn  Zn6  1  0.227560  0.211880  0.302120  1.0  0.9435
  Zn  Zn7  1  0.568390  0.337140  0.048480  1.0  0.9484
  Zn  Zn8  1  0.396220  0.629120  0.494070  1.0  0.9438
  H  H9  1  0.873000  0.061900  0.706900  1.0  0.11
  H  H10  1  0.722900  0.102000  0.721000  1.0  0.1005
  H  H11  1  0.651600  0.282400  0.691500  1.0  0.094
  H  H12  1  0.828000  0.309100  0.693600  1.0  0.0894
  H  H13  1  0.868900  0.152900  0.659700  1.0  0.0791
  H  H14  1  0.668900  0.056100  0.635800  1.0  0.087
  H  H15  1  0.544200  0.588200  0.670900  1.0  0.1167
  H  H16  1  0.612700  0.618900  0.711700  1.0  0.0875
  H  H17  1  0.615000  0.535600  0.589700  1.0  0.0936
  H  H18  1  0.681000  0.587100  0.629900  1.0  0.1143
  H  H19  1  0.399300  0.945300  0.628200  1.0  0.1183
  H  H20  1  0.350700  0.891700  0.587400  1.0  0.0895
  H  H21  1  0.770100  0.317200  0.633700  1.0  0.365
  H  H22  1  0.495000  0.225300  0.646100  1.0  0.4106
  H  H23  1  0.997000  0.929200  0.850600  1.0  0.1114
  H  H24  1  0.022500  0.814400  0.828700  1.0  0.0949
  H  H25  1  0.192900  0.658000  0.855400  1.0  0.1
  H  H26  1  0.257100  0.825900  0.855700  1.0  0.1047
  H  H27  1  0.094900  0.876000  0.892200  1.0  0.0916
  H  H28  1  0.991100  0.647200  0.911200  1.0  0.1062
  H  H29  1  0.529600  0.556000  0.874500  1.0  0.1215
  H  H30  1  0.580800  0.617800  0.832700  1.0  0.0908
  H  H31  1  0.530100  0.620500  0.960700  1.0  0.0933
  H  H32  1  0.513800  0.663800  0.917100  1.0  0.113
  H  H33  1  0.859800  0.365400  0.911600  1.0  0.1183
  H  H34  1  0.766200  0.258700  0.948500  1.0  0.0997
  H  H35  1  0.255500  0.735700  0.914400  1.0  0.3437
  H  H36  1  0.137100  0.465200  0.895600  1.0  0.3781
  H  H37  1  0.259700  0.790900  0.797700  1.0  0.0985
  H  H38  1  0.242200  0.813600  0.746700  1.0  0.1151
  H  H39  1  0.738500  0.298000  0.801900  1.0  0.1068
  H  H40  1  0.765300  0.309900  0.750800  1.0  0.0809
  H  H41  1  0.914700  0.646100  0.546300  1.0  0.105
  H  H42  1  0.912300  0.633100  0.496200  1.0  0.0992
  H  H43  1  0.418100  0.143500  0.496300  1.0  0.1091
  H  H44  1  0.418500  0.147600  0.547100  1.0  0.1097
  H  H45  1  0.127000  0.938100  0.206900  1.0  0.1155
  H  H46  1  0.277100  0.898000  0.221000  1.0  0.1004
  H  H47  1  0.348400  0.717600  0.191500  1.0  0.0901
  H  H48  1  0.172000  0.690900  0.193600  1.0  0.091
  H  H49  1  0.131100  0.847100  0.159700  1.0  0.0813
  H  H50  1  0.331100  0.943900  0.135800  1.0  0.0872
  H  H51  1  0.455800  0.411800  0.170900  1.0  0.1172
  H  H52  1  0.387300  0.381100  0.211700  1.0  0.0875
  H  H53  1  0.385000  0.464400  0.089700  1.0  0.0936
  H  H54  1  0.319000  0.412900  0.129900  1.0  0.1138
  H  H55  1  0.600700  0.054700  0.128200  1.0  0.1186
  H  H56  1  0.649300  0.108300  0.087400  1.0  0.0895
  H  H57  1  0.229900  0.682800  0.133700  1.0  0.3628
  H  H58  1  0.505000  0.774700  0.146100  1.0  0.4074
  H  H59  1  0.003000  0.070800  0.350600  1.0  0.1109
  H  H60  1  0.977500  0.185600  0.328700  1.0  0.095
  H  H61  1  0.807100  0.342000  0.355400  1.0  0.1019
  H  H62  1  0.742900  0.174100  0.355700  1.0  0.1041
  H  H63  1  0.905100  0.124000  0.392200  1.0  0.0903
  H  H64  1  0.008900  0.352800  0.411200  1.0  0.1056
  H  H65  1  0.470400  0.444000  0.374500  1.0  0.1219
  H  H66  1  0.419200  0.382200  0.332700  1.0  0.0913
  H  H67  1  0.469900  0.379500  0.460700  1.0  0.0922
  H  H68  1  0.486200  0.336200  0.417100  1.0  0.1129
  H  H69  1  0.140200  0.634600  0.411600  1.0  0.1188
  H  H70  1  0.233800  0.741300  0.448500  1.0  0.1008
  H  H71  1  0.744500  0.264300  0.414400  1.0  0.3445
  H  H72  1  0.862900  0.534800  0.395600  1.0  0.3796
  H  H73  1  0.740300  0.209100  0.297700  1.0  0.0984
  H  H74  1  0.757800  0.186400  0.246700  1.0  0.1148
  H  H75  1  0.261500  0.702000  0.301900  1.0  0.1066
  H  H76  1  0.234700  0.690100  0.250800  1.0  0.081
  H  H77  1  0.085300  0.353900  0.046300  1.0  0.1051
  H  H78  1  0.087700  0.366900  0.996200  1.0  0.0988
  H  H79  1  0.581900  0.856500  0.996300  1.0  0.1089
  H  H80  1  0.581500  0.852400  0.047100  1.0  0.1092
  C  C81  1  0.691500  0.952500  0.693680  1.0  0.2131
  C  C82  1  0.766000  0.084500  0.704720  1.0  -0.3228
  C  C83  1  0.750400  0.236800  0.688720  1.0  -0.1399
  C  C84  1  0.768200  0.197800  0.662140  1.0  0.1942
  C  C85  1  0.647300  0.084100  0.653070  1.0  0.0773
  C  C86  1  0.645200  0.941700  0.669020  1.0  0.0031
  C  C87  1  0.589100  0.804500  0.659940  1.0  0.0448
  C  C88  1  0.580200  0.681700  0.676380  1.0  -0.2045
  C  C89  1  0.625000  0.699600  0.700710  1.0  0.1669
  C  C90  1  0.572500  0.619500  0.597510  1.0  0.1773
  C  C91  1  0.612000  0.649200  0.621680  1.0  -0.1979
  C  C92  1  0.546800  0.775200  0.633960  1.0  0.0818
  C  C93  1  0.446400  0.862800  0.620690  1.0  -0.1954
  C  C94  1  0.415500  0.828000  0.596240  1.0  0.1779
  C  C95  1  0.887400  0.734100  0.855060  1.0  0.2805
  C  C96  1  0.013300  0.823000  0.846500  1.0  -0.2922
  C  C97  1  0.170900  0.762200  0.860000  1.0  -0.1667
  C  C98  1  0.131500  0.775300  0.887300  1.0  0.1215
  C  C99  1  0.017100  0.641700  0.893600  1.0  0.0369
  C  C100  1  0.873700  0.672700  0.878470  1.0  -0.0031
  C  C101  1  0.744000  0.600400  0.885840  1.0  0.0096
  C  C102  1  0.624200  0.592500  0.869500  1.0  -0.1857
  C  C103  1  0.650700  0.642000  0.845000  1.0  0.1513
  C  C104  1  0.581000  0.557900  0.949600  1.0  0.1481
  C  C105  1  0.586300  0.602100  0.924600  1.0  -0.119
  C  C106  1  0.717000  0.541200  0.911700  1.0  0.0236
  C  C107  1  0.783300  0.413600  0.920570  1.0  -0.1381
  C  C108  1  0.734200  0.354800  0.943630  1.0  0.1498
  C  C109  1  0.461000  0.801900  0.778400  1.0  0.705
  C  C110  1  0.298700  0.799100  0.781800  1.0  -0.1251
  C  C111  1  0.202300  0.808100  0.762630  1.0  -0.183
  C  C112  1  0.036500  0.809600  0.765600  1.0  0.701
  C  C113  1  0.755400  0.088200  0.783970  1.0  0.7099
  C  C114  1  0.748800  0.256100  0.786170  1.0  -0.1614
  C  C115  1  0.756800  0.350800  0.766700  1.0  -0.1449
  C  C116  1  0.752700  0.514600  0.769510  1.0  0.7278
  C  C117  1  0.133400  0.641800  0.527950  1.0  0.6835
  C  C118  1  0.957100  0.643000  0.530510  1.0  -0.168
  C  C119  1  0.869400  0.639900  0.511890  1.0  -0.1883
  C  C120  1  0.701700  0.646500  0.513930  1.0  0.7296
  C  C121  1  0.403400  0.930500  0.514260  1.0  0.7228
  C  C122  1  0.413500  0.100600  0.512090  1.0  -0.2211
  C  C123  1  0.416000  0.190500  0.531360  1.0  -0.1982
  C  C124  1  0.415100  0.357600  0.529060  1.0  0.7237
  C  C125  1  0.308500  0.047500  0.193680  1.0  0.2145
  C  C126  1  0.234000  0.915500  0.204720  1.0  -0.3253
  C  C127  1  0.249600  0.763200  0.188720  1.0  -0.1356
  C  C128  1  0.231800  0.802200  0.162140  1.0  0.1946
  C  C129  1  0.352700  0.915900  0.153070  1.0  0.0781
  C  C130  1  0.354800  0.058300  0.169020  1.0  0.0031
  C  C131  1  0.410900  0.195500  0.159940  1.0  0.046
  C  C132  1  0.419800  0.318300  0.176380  1.0  -0.2049
  C  C133  1  0.375000  0.300400  0.200710  1.0  0.1667
  C  C134  1  0.427500  0.380500  0.097510  1.0  0.1776
  C  C135  1  0.388000  0.350800  0.121680  1.0  -0.2
  C  C136  1  0.453200  0.224800  0.133960  1.0  0.0818
  C  C137  1  0.553600  0.137200  0.120690  1.0  -0.1939
  C  C138  1  0.584500  0.172000  0.096240  1.0  0.1766
  C  C139  1  0.112600  0.265900  0.355060  1.0  0.2799
  C  C140  1  0.986700  0.177000  0.346500  1.0  -0.2958
  C  C141  1  0.829100  0.237800  0.360000  1.0  -0.1644
  C  C142  1  0.868500  0.224700  0.387300  1.0  0.1244
  C  C143  1  0.982900  0.358300  0.393600  1.0  0.0373
  C  C144  1  0.126300  0.327300  0.378470  1.0  -0.0027
  C  C145  1  0.256000  0.399600  0.385840  1.0  0.0096
  C  C146  1  0.375800  0.407500  0.369500  1.0  -0.1879
  C  C147  1  0.349300  0.358000  0.345000  1.0  0.1507
  C  C148  1  0.419000  0.442100  0.449600  1.0  0.1473
  C  C149  1  0.413700  0.397900  0.424600  1.0  -0.1174
  C  C150  1  0.283000  0.458800  0.411700  1.0  0.0242
  C  C151  1  0.216700  0.586400  0.420570  1.0  -0.1356
  C  C152  1  0.265800  0.645200  0.443630  1.0  0.1497
  C  C153  1  0.539000  0.198100  0.278400  1.0  0.7053
  C  C154  1  0.701300  0.200900  0.281800  1.0  -0.1255
  C  C155  1  0.797700  0.191900  0.262630  1.0  -0.1838
  C  C156  1  0.963500  0.190400  0.265600  1.0  0.7002
  C  C157  1  0.244600  0.911800  0.283970  1.0  0.7095
  C  C158  1  0.251200  0.743900  0.286170  1.0  -0.1612
  C  C159  1  0.243200  0.649200  0.266700  1.0  -0.1449
  C  C160  1  0.247300  0.485400  0.269510  1.0  0.7275
  C  C161  1  0.866600  0.358200  0.027950  1.0  0.6875
  C  C162  1  0.042900  0.357000  0.030510  1.0  -0.1659
  C  C163  1  0.130600  0.360100  0.011890  1.0  -0.1886
  C  C164  1  0.298300  0.353500  0.013930  1.0  0.7292
  C  C165  1  0.596600  0.069500  0.014260  1.0  0.7225
  C  C166  1  0.586500  0.899400  0.012090  1.0  -0.2209
  C  C167  1  0.584000  0.809500  0.031360  1.0  -0.1982
  C  C168  1  0.584900  0.642400  0.029060  1.0  0.7245
  N  N169  1  0.685800  0.829300  0.709120  1.0  -0.3394
  N  N170  1  0.473900  0.707700  0.584560  1.0  -0.3027
  N  N171  1  0.772800  0.722700  0.839160  1.0  -0.3667
  N  N172  1  0.644300  0.432800  0.958350  1.0  -0.3225
  N  N173  1  0.314200  0.170700  0.209120  1.0  -0.3403
  N  N174  1  0.526100  0.292300  0.084560  1.0  -0.3016
  N  N175  1  0.227200  0.277300  0.339160  1.0  -0.3674
  N  N176  1  0.355700  0.567200  0.458350  1.0  -0.3218
  O  O177  1  0.760500  0.335400  0.648510  1.0  -0.5284
  O  O178  1  0.498700  0.147800  0.654570  1.0  -0.5273
  O  O179  1  0.267200  0.731300  0.899300  1.0  -0.5227
  O  O180  1  0.060200  0.487400  0.887800  1.0  -0.5417
  O  O181  1  0.517600  0.793000  0.756360  1.0  -0.5999
  O  O182  1  0.539100  0.807000  0.798060  1.0  -0.5927
  O  O183  1  0.958000  0.843000  0.745820  1.0  -0.589
  O  O184  1  0.977300  0.787000  0.786290  1.0  -0.6065
  O  O185  1  0.724100  0.031300  0.763390  1.0  -0.6004
  O  O186  1  0.779200  0.015500  0.803740  1.0  -0.5766
  O  O187  1  0.757300  0.592400  0.750270  1.0  -0.5907
  O  O188  1  0.752900  0.568900  0.790530  1.0  -0.5725
  O  O189  1  0.203200  0.652600  0.547020  1.0  -0.5526
  O  O190  1  0.180500  0.635900  0.506740  1.0  -0.5964
  O  O191  1  0.648100  0.653100  0.535260  1.0  -0.624
  O  O192  1  0.626200  0.640600  0.494520  1.0  -0.597
  O  O193  1  0.418200  0.877100  0.535220  1.0  -0.6083
  O  O194  1  0.397000  0.858400  0.494620  1.0  -0.5787
  O  O195  1  0.435200  0.433300  0.548880  1.0  -0.5765
  O  O196  1  0.411000  0.415800  0.507300  1.0  -0.6128
  O  O197  1  0.239500  0.664600  0.148510  1.0  -0.5312
  O  O198  1  0.501300  0.852200  0.154570  1.0  -0.5274
  O  O199  1  0.732800  0.268700  0.399300  1.0  -0.5235
  O  O200  1  0.939800  0.512600  0.387800  1.0  -0.5394
  O  O201  1  0.482400  0.207000  0.256360  1.0  -0.5999
  O  O202  1  0.460900  0.193000  0.298060  1.0  -0.5938
  O  O203  1  0.042000  0.157000  0.245820  1.0  -0.5915
  O  O204  1  0.022700  0.213000  0.286290  1.0  -0.607
  O  O205  1  0.275900  0.968700  0.263390  1.0  -0.6008
  O  O206  1  0.220800  0.984500  0.303740  1.0  -0.5758
  O  O207  1  0.242700  0.407600  0.250270  1.0  -0.5905
  O  O208  1  0.247100  0.431100  0.290530  1.0  -0.5729
  O  O209  1  0.796800  0.347400  0.047020  1.0  -0.5522
  O  O210  1  0.819500  0.364100  0.006740  1.0  -0.5959
  O  O211  1  0.351900  0.346900  0.035260  1.0  -0.6245
  O  O212  1  0.373800  0.359400  0.994520  1.0  -0.5963
  O  O213  1  0.581800  0.122900  0.035220  1.0  -0.6082
  O  O214  1  0.603000  0.141600  0.994620  1.0  -0.5788
  O  O215  1  0.564800  0.566700  0.048880  1.0  -0.575
  O  O216  1  0.589000  0.584200  0.007300  1.0  -0.6126
