# generated using pymatgen
data_Cu3H16(C12N13)2
_symmetry_space_group_name_H-M   'P 1'
_cell_length_a   13.24400000
_cell_length_b   14.52100000
_cell_length_c   15.69500000
_cell_angle_alpha   90.00000000
_cell_angle_beta   92.74600000
_cell_angle_gamma   90.00000000
_symmetry_Int_Tables_number   1
_chemical_formula_structural   Cu3H16(C12N13)2
_chemical_formula_sum   'Cu6 H32 C48 N52'
_cell_volume   3014.93563695
_cell_formula_units_Z   2
loop_
 _symmetry_equiv_pos_site_id
 _symmetry_equiv_pos_as_xyz
  1  'x, y, z'
loop_
 _atom_site_type_symbol
 _atom_site_label
 _atom_site_symmetry_multiplicity
 _atom_site_fract_x
 _atom_site_fract_y
 _atom_site_fract_z
 _atom_site_occupancy
 _atom_site_charge
  Cu  Cu1  1  0.529730  0.200300  0.390050  1.0  0.7616
  Cu  Cu2  1  0.970270  0.700300  0.109950  1.0  0.7625
  Cu  Cu3  1  0.470270  0.799700  0.609950  1.0  0.7626
  Cu  Cu4  1  0.029730  0.299700  0.890050  1.0  0.7623
  Cu  Cu5  1  0.500000  0.000000  0.500000  1.0  0.6444
  Cu  Cu6  1  0.000000  0.500000  0.000000  1.0  0.6444
  H  H7  1  0.846400  0.869800  0.073400  1.0  0.0786
  H  H8  1  0.737800  0.965300  0.139700  1.0  0.1296
  H  H9  1  0.736900  0.782700  0.330800  1.0  0.1232
  H  H10  1  0.849100  0.694800  0.259500  1.0  0.0839
  H  H11  1  0.058100  0.870500  0.181600  1.0  0.0774
  H  H12  1  0.184500  0.918700  0.276400  1.0  0.1185
  H  H13  1  0.198800  0.665900  0.365900  1.0  0.1171
  H  H14  1  0.087100  0.621700  0.256700  1.0  0.0838
  H  H15  1  0.653600  0.369800  0.426600  1.0  0.0787
  H  H16  1  0.762200  0.465300  0.360300  1.0  0.1295
  H  H17  1  0.763100  0.282700  0.169200  1.0  0.1229
  H  H18  1  0.650900  0.194800  0.240500  1.0  0.0833
  H  H19  1  0.441900  0.370500  0.318400  1.0  0.0772
  H  H20  1  0.315500  0.418700  0.223600  1.0  0.1182
  H  H21  1  0.301200  0.165900  0.134100  1.0  0.1168
  H  H22  1  0.412900  0.121700  0.243300  1.0  0.0837
  H  H23  1  0.153600  0.130200  0.926600  1.0  0.0787
  H  H24  1  0.262200  0.034700  0.860300  1.0  0.1295
  H  H25  1  0.263100  0.217300  0.669200  1.0  0.1229
  H  H26  1  0.150900  0.305200  0.740500  1.0  0.0837
  H  H27  1  0.941900  0.129500  0.818400  1.0  0.078
  H  H28  1  0.815500  0.081300  0.723600  1.0  0.1186
  H  H29  1  0.801200  0.334100  0.634100  1.0  0.1171
  H  H30  1  0.912900  0.378300  0.743300  1.0  0.0838
  H  H31  1  0.346400  0.630200  0.573400  1.0  0.0788
  H  H32  1  0.237800  0.534700  0.639700  1.0  0.1295
  H  H33  1  0.236900  0.717300  0.830800  1.0  0.123
  H  H34  1  0.349100  0.805200  0.759500  1.0  0.0844
  H  H35  1  0.558100  0.629500  0.681600  1.0  0.0772
  H  H36  1  0.684500  0.581300  0.776400  1.0  0.1186
  H  H37  1  0.698800  0.834100  0.865900  1.0  0.1173
  H  H38  1  0.587100  0.878300  0.756700  1.0  0.083
  C  C39  1  0.824700  0.852700  0.126600  1.0  0.1744
  C  C40  1  0.758400  0.910200  0.165300  1.0  -0.157
  C  C41  1  0.723500  0.884600  0.242500  1.0  -0.0524
  C  C42  1  0.758700  0.802100  0.278300  1.0  -0.1158
  C  C43  1  0.826000  0.749700  0.235300  1.0  0.1536
  C  C44  1  0.655800  0.943200  0.290600  1.0  0.3455
  C  C45  1  0.091000  0.826700  0.216100  1.0  0.1713
  C  C46  1  0.164300  0.857300  0.275800  1.0  -0.1246
  C  C47  1  0.205300  0.798100  0.332200  1.0  -0.03
  C  C48  1  0.174200  0.709200  0.326400  1.0  -0.1166
  C  C49  1  0.105700  0.683300  0.261300  1.0  0.1295
  C  C50  1  0.283200  0.828200  0.397000  1.0  0.3497
  C  C51  1  0.675300  0.352700  0.373400  1.0  0.1727
  C  C52  1  0.741600  0.410200  0.334700  1.0  -0.1551
  C  C53  1  0.776500  0.384600  0.257500  1.0  -0.0528
  C  C54  1  0.741300  0.302100  0.221700  1.0  -0.1172
  C  C55  1  0.674000  0.249700  0.264700  1.0  0.1533
  C  C56  1  0.844200  0.443200  0.209400  1.0  0.3453
  C  C57  1  0.409000  0.326700  0.283900  1.0  0.1715
  C  C58  1  0.335700  0.357300  0.224200  1.0  -0.1247
  C  C59  1  0.294700  0.298100  0.167800  1.0  -0.0299
  C  C60  1  0.325800  0.209200  0.173600  1.0  -0.117
  C  C61  1  0.394300  0.183300  0.238700  1.0  0.1314
  C  C62  1  0.216800  0.328200  0.103000  1.0  0.3494
  C  C63  1  0.175300  0.147300  0.873400  1.0  0.1725
  C  C64  1  0.241600  0.089800  0.834700  1.0  -0.1569
  C  C65  1  0.276500  0.115400  0.757500  1.0  -0.0515
  C  C66  1  0.241300  0.197900  0.721700  1.0  -0.1176
  C  C67  1  0.174000  0.250300  0.764700  1.0  0.1535
  C  C68  1  0.344200  0.056800  0.709400  1.0  0.345
  C  C69  1  0.909000  0.173300  0.783900  1.0  0.1708
  C  C70  1  0.835700  0.142700  0.724200  1.0  -0.1236
  C  C71  1  0.794700  0.201900  0.667800  1.0  -0.0302
  C  C72  1  0.825800  0.290800  0.673600  1.0  -0.1176
  C  C73  1  0.894300  0.316700  0.738700  1.0  0.132
  C  C74  1  0.716800  0.171800  0.603000  1.0  0.3492
  C  C75  1  0.324700  0.647300  0.626600  1.0  0.1737
  C  C76  1  0.258400  0.589800  0.665300  1.0  -0.157
  C  C77  1  0.223500  0.615400  0.742500  1.0  -0.0517
  C  C78  1  0.258700  0.697900  0.778300  1.0  -0.1167
  C  C79  1  0.326000  0.750300  0.735300  1.0  0.1538
  C  C80  1  0.155800  0.556800  0.790600  1.0  0.3453
  C  C81  1  0.591000  0.673300  0.716100  1.0  0.1701
  C  C82  1  0.664300  0.642700  0.775800  1.0  -0.1241
  C  C83  1  0.705300  0.701900  0.832200  1.0  -0.0298
  C  C84  1  0.674200  0.790800  0.826400  1.0  -0.1185
  C  C85  1  0.605700  0.816700  0.761300  1.0  0.1295
  C  C86  1  0.783200  0.671800  0.897000  1.0  0.3495
  N  N87  1  0.859400  0.775200  0.159500  1.0  -0.3021
  N  N88  1  0.633400  0.031000  0.270800  1.0  -0.3027
  N  N89  1  0.576300  0.058700  0.334200  1.0  -0.0562
  N  N90  1  0.565600  0.989500  0.387000  1.0  0.0052
  N  N91  1  0.614300  0.915900  0.362000  1.0  -0.3249
  N  N92  1  0.065800  0.742700  0.205500  1.0  -0.2823
  N  N93  1  0.331400  0.907800  0.393900  1.0  -0.3232
  N  N94  1  0.394200  0.905400  0.462000  1.0  -0.0112
  N  N95  1  0.383600  0.828400  0.504000  1.0  -0.0341
  N  N96  1  0.312700  0.776300  0.464100  1.0  -0.3691
  N  N97  1  0.420000  0.131300  0.441900  1.0  -0.4403
  N  N98  1  0.339800  0.153100  0.443700  1.0  0.2172
  N  N99  1  0.250900  0.162900  0.433400  1.0  -0.4001
  N  N100  1  0.640600  0.275200  0.340500  1.0  -0.3018
  N  N101  1  0.866600  0.531000  0.229200  1.0  -0.3049
  N  N102  1  0.923700  0.558700  0.165800  1.0  -0.0567
  N  N103  1  0.934400  0.489500  0.113000  1.0  0.0052
  N  N104  1  0.885700  0.415900  0.138000  1.0  -0.3255
  N  N105  1  0.434200  0.242700  0.294500  1.0  -0.2762
  N  N106  1  0.168600  0.407800  0.106100  1.0  -0.3215
  N  N107  1  0.105800  0.405400  0.038000  1.0  -0.0114
  N  N108  1  0.116400  0.328400  0.996000  1.0  -0.0345
  N  N109  1  0.187300  0.276300  0.035900  1.0  -0.3695
  N  N110  1  0.080000  0.631300  0.058100  1.0  -0.4411
  N  N111  1  0.160200  0.653100  0.056300  1.0  0.2177
  N  N112  1  0.249100  0.662900  0.066600  1.0  -0.3986
  N  N113  1  0.140600  0.224800  0.840500  1.0  -0.3021
  N  N114  1  0.366600  0.969000  0.729200  1.0  -0.305
  N  N115  1  0.423700  0.941300  0.665800  1.0  -0.0569
  N  N116  1  0.434400  0.010500  0.613000  1.0  0.0066
  N  N117  1  0.385700  0.084100  0.638000  1.0  -0.3261
  N  N118  1  0.934200  0.257300  0.794500  1.0  -0.2763
  N  N119  1  0.668600  0.092200  0.606100  1.0  -0.3217
  N  N120  1  0.605800  0.094600  0.538000  1.0  -0.0113
  N  N121  1  0.616400  0.171600  0.496000  1.0  -0.0336
  N  N122  1  0.687300  0.223700  0.535900  1.0  -0.3709
  N  N123  1  0.580000  0.868700  0.558100  1.0  -0.4411
  N  N124  1  0.660200  0.846900  0.556300  1.0  0.2166
  N  N125  1  0.749100  0.837100  0.566600  1.0  -0.3995
  N  N126  1  0.359400  0.724800  0.659500  1.0  -0.3024
  N  N127  1  0.133400  0.469000  0.770800  1.0  -0.3042
  N  N128  1  0.076300  0.441300  0.834200  1.0  -0.0563
  N  N129  1  0.065600  0.510500  0.887000  1.0  0.0069
  N  N130  1  0.114300  0.584100  0.862000  1.0  -0.3241
  N  N131  1  0.565800  0.757300  0.705500  1.0  -0.2816
  N  N132  1  0.831400  0.592200  0.893900  1.0  -0.3224
  N  N133  1  0.894200  0.594600  0.962000  1.0  -0.0111
  N  N134  1  0.883600  0.671600  0.004000  1.0  -0.0334
  N  N135  1  0.812700  0.723700  0.964100  1.0  -0.3716
  N  N136  1  0.920000  0.368700  0.941900  1.0  -0.4401
  N  N137  1  0.839800  0.346900  0.943700  1.0  0.2168
  N  N138  1  0.750900  0.337100  0.933400  1.0  -0.401
