# generated using pymatgen
data_Cu3H16(C12N13)2
_symmetry_space_group_name_H-M   'P 1'
_cell_length_a   13.59800000
_cell_length_b   15.09500000
_cell_length_c   15.25100000
_cell_angle_alpha   90.00000000
_cell_angle_beta   93.61300000
_cell_angle_gamma   90.00000000
_symmetry_Int_Tables_number   1
_chemical_formula_structural   Cu3H16(C12N13)2
_chemical_formula_sum   'Cu6 H32 C48 N52'
_cell_volume   3124.22596151
_cell_formula_units_Z   2
loop_
 _symmetry_equiv_pos_site_id
 _symmetry_equiv_pos_as_xyz
  1  'x, y, z'
loop_
 _atom_site_type_symbol
 _atom_site_label
 _atom_site_symmetry_multiplicity
 _atom_site_fract_x
 _atom_site_fract_y
 _atom_site_fract_z
 _atom_site_occupancy
 _atom_site_charge
  Cu  Cu1  1  0.054540  0.813850  0.395890  1.0  0.6919
  Cu  Cu2  1  0.445460  0.313850  0.104110  1.0  0.6925
  Cu  Cu3  1  0.945460  0.186150  0.604110  1.0  0.6926
  Cu  Cu4  1  0.554540  0.686150  0.895890  1.0  0.6916
  Cu  Cu5  1  0.000000  0.000000  0.500000  1.0  0.7981
  Cu  Cu6  1  0.500000  0.500000  0.000000  1.0  0.7981
  H  H7  1  0.339100  0.142900  0.067700  1.0  0.0739
  H  H8  1  0.241400  0.045600  0.138100  1.0  0.1168
  H  H9  1  0.229500  0.220200  0.333333  1.0  0.1126
  H  H10  1  0.329300  0.311100  0.260100  1.0  0.0769
  H  H11  1  0.556300  0.150000  0.147600  1.0  0.0717
  H  H12  1  0.674900  0.096800  0.247100  1.0  0.1176
  H  H13  1  0.664800  0.325800  0.373300  1.0  0.109
  H  H14  1  0.554100  0.376200  0.267400  1.0  0.0834
  H  H15  1  0.160900  0.642900  0.432300  1.0  0.0739
  H  H16  1  0.258600  0.545600  0.361900  1.0  0.1167
  H  H17  1  0.270500  0.720200  0.166700  1.0  0.1133
  H  H18  1  0.170700  0.811100  0.239900  1.0  0.077
  H  H19  1  0.943700  0.650000  0.352400  1.0  0.0717
  H  H20  1  0.825100  0.596800  0.252900  1.0  0.1179
  H  H21  1  0.835200  0.825800  0.126700  1.0  0.1096
  H  H22  1  0.945900  0.876200  0.232600  1.0  0.0831
  H  H23  1  0.660900  0.857100  0.932300  1.0  0.0734
  H  H24  1  0.758600  0.954400  0.861900  1.0  0.1167
  H  H25  1  0.770500  0.779800  0.666667  1.0  0.1126
  H  H26  1  0.670700  0.688900  0.739900  1.0  0.0765
  H  H27  1  0.443700  0.850000  0.852400  1.0  0.0709
  H  H28  1  0.325100  0.903200  0.752900  1.0  0.1175
  H  H29  1  0.335200  0.674200  0.626700  1.0  0.1093
  H  H30  1  0.445900  0.623800  0.732600  1.0  0.0841
  H  H31  1  0.839100  0.357100  0.567700  1.0  0.0736
  H  H32  1  0.741400  0.454400  0.638100  1.0  0.1167
  H  H33  1  0.729500  0.279800  0.833300  1.0  0.1132
  H  H34  1  0.829300  0.188900  0.760100  1.0  0.0764
  H  H35  1  0.056300  0.350000  0.647600  1.0  0.071
  H  H36  1  0.174900  0.403200  0.747100  1.0  0.1176
  H  H37  1  0.164800  0.174200  0.873300  1.0  0.1088
  H  H38  1  0.054100  0.123800  0.767400  1.0  0.0836
  C  C39  1  0.317000  0.158500  0.122100  1.0  0.157
  C  C40  1  0.258100  0.099800  0.163900  1.0  -0.1525
  C  C41  1  0.224100  0.122100  0.244300  1.0  -0.0437
  C  C42  1  0.251400  0.202700  0.279400  1.0  -0.157
  C  C43  1  0.310700  0.257100  0.234900  1.0  0.161
  C  C44  1  0.162800  0.061900  0.293500  1.0  0.3478
  C  C45  1  0.580200  0.186700  0.193000  1.0  0.1422
  C  C46  1  0.650400  0.153900  0.253000  1.0  -0.1717
  C  C47  1  0.683600  0.206600  0.321800  1.0  -0.0722
  C  C48  1  0.645100  0.289100  0.326500  1.0  -0.1287
  C  C49  1  0.578000  0.318600  0.263500  1.0  0.1375
  C  C50  1  0.761100  0.172700  0.386500  1.0  0.3432
  C  C51  1  0.183000  0.658500  0.377900  1.0  0.1562
  C  C52  1  0.241900  0.599800  0.336100  1.0  -0.1538
  C  C53  1  0.275900  0.622100  0.255700  1.0  -0.043
  C  C54  1  0.248600  0.702700  0.220600  1.0  -0.1563
  C  C55  1  0.189300  0.757100  0.265100  1.0  0.1605
  C  C56  1  0.337200  0.561900  0.206500  1.0  0.348
  C  C57  1  0.919800  0.686700  0.307000  1.0  0.1436
  C  C58  1  0.849600  0.653900  0.247000  1.0  -0.1709
  C  C59  1  0.816400  0.706600  0.178200  1.0  -0.072
  C  C60  1  0.854900  0.789100  0.173500  1.0  -0.1282
  C  C61  1  0.922000  0.818600  0.236500  1.0  0.14
  C  C62  1  0.738900  0.672700  0.113500  1.0  0.3435
  C  C63  1  0.683000  0.841500  0.877900  1.0  0.1565
  C  C64  1  0.741900  0.900200  0.836100  1.0  -0.1527
  C  C65  1  0.775900  0.877900  0.755700  1.0  -0.0436
  C  C66  1  0.748600  0.797300  0.720600  1.0  -0.1571
  C  C67  1  0.689300  0.742900  0.765100  1.0  0.1615
  C  C68  1  0.837200  0.938100  0.706500  1.0  0.3479
  C  C69  1  0.419800  0.813300  0.807000  1.0  0.1426
  C  C70  1  0.349600  0.846100  0.747000  1.0  -0.1708
  C  C71  1  0.316400  0.793400  0.678200  1.0  -0.0717
  C  C72  1  0.354900  0.710900  0.673500  1.0  -0.1277
  C  C73  1  0.422000  0.681400  0.736500  1.0  0.1387
  C  C74  1  0.238900  0.827300  0.613500  1.0  0.3436
  C  C75  1  0.817000  0.341500  0.622100  1.0  0.1578
  C  C76  1  0.758100  0.400200  0.663900  1.0  -0.1541
  C  C77  1  0.724100  0.377900  0.744300  1.0  -0.0436
  C  C78  1  0.751400  0.297300  0.779400  1.0  -0.155
  C  C79  1  0.810700  0.242900  0.734900  1.0  0.162
  C  C80  1  0.662800  0.438100  0.793500  1.0  0.3474
  C  C81  1  0.080200  0.313300  0.693000  1.0  0.1431
  C  C82  1  0.150400  0.346100  0.753000  1.0  -0.1718
  C  C83  1  0.183600  0.293400  0.821800  1.0  -0.0729
  C  C84  1  0.145100  0.210900  0.826500  1.0  -0.1287
  C  C85  1  0.078000  0.181400  0.763500  1.0  0.1376
  C  C86  1  0.261100  0.327300  0.886500  1.0  0.3432
  N  N87  1  0.343600  0.236400  0.156000  1.0  -0.3357
  N  N88  1  0.149900  0.976400  0.275300  1.0  -0.3414
  N  N89  1  0.092200  0.947900  0.337500  1.0  -0.0099
  N  N90  1  0.073100  0.014100  0.389800  1.0  0.0019
  N  N91  1  0.116500  0.086900  0.364300  1.0  -0.3345
  N  N92  1  0.545200  0.268000  0.196700  1.0  -0.324
  N  N93  1  0.807900  0.096200  0.377800  1.0  -0.3207
  N  N94  1  0.869600  0.091700  0.448200  1.0  -0.0099
  N  N95  1  0.860600  0.164800  0.495000  1.0  -0.0316
  N  N96  1  0.790900  0.217100  0.458000  1.0  -0.3626
  N  N97  1  0.948000  0.882900  0.450300  1.0  -0.4474
  N  N98  1  0.864200  0.863700  0.444900  1.0  0.5389
  N  N99  1  0.782000  0.843300  0.439100  1.0  -0.4415
  N  N100  1  0.156400  0.736400  0.344000  1.0  -0.3348
  N  N101  1  0.350100  0.476400  0.224700  1.0  -0.3402
  N  N102  1  0.407800  0.447900  0.162500  1.0  -0.0128
  N  N103  1  0.426900  0.514100  0.110200  1.0  0.0006
  N  N104  1  0.383500  0.586900  0.135700  1.0  -0.3352
  N  N105  1  0.954800  0.768000  0.303300  1.0  -0.3257
  N  N106  1  0.692100  0.596200  0.122200  1.0  -0.3186
  N  N107  1  0.630400  0.591700  0.051800  1.0  -0.0118
  N  N108  1  0.639400  0.664800  0.005000  1.0  -0.0317
  N  N109  1  0.709100  0.717100  0.042000  1.0  -0.3627
  N  N110  1  0.552000  0.382900  0.049700  1.0  -0.4472
  N  N111  1  0.635800  0.363700  0.055100  1.0  0.5392
  N  N112  1  0.718000  0.343300  0.060900  1.0  -0.4372
  N  N113  1  0.656400  0.763600  0.844000  1.0  -0.3346
  N  N114  1  0.850100  0.023600  0.724700  1.0  -0.3417
  N  N115  1  0.907800  0.052100  0.662500  1.0  -0.0123
  N  N116  1  0.926900  0.985900  0.610200  1.0  0.0003
  N  N117  1  0.883500  0.913100  0.635700  1.0  -0.3349
  N  N118  1  0.454800  0.732000  0.803300  1.0  -0.3257
  N  N119  1  0.192100  0.903800  0.622200  1.0  -0.3182
  N  N120  1  0.130400  0.908300  0.551800  1.0  -0.0122
  N  N121  1  0.139400  0.835200  0.505000  1.0  -0.0319
  N  N122  1  0.209100  0.782900  0.542000  1.0  -0.362
  N  N123  1  0.052000  0.117100  0.549700  1.0  -0.4477
  N  N124  1  0.135800  0.136300  0.555100  1.0  0.5394
  N  N125  1  0.218000  0.156700  0.560900  1.0  -0.4372
  N  N126  1  0.843600  0.263600  0.656000  1.0  -0.336
  N  N127  1  0.649900  0.523600  0.775300  1.0  -0.3403
  N  N128  1  0.592200  0.552100  0.837500  1.0  -0.0102
  N  N129  1  0.573100  0.485900  0.889800  1.0  0.0014
  N  N130  1  0.616500  0.413100  0.864300  1.0  -0.335
  N  N131  1  0.045200  0.232000  0.696700  1.0  -0.3244
  N  N132  1  0.307900  0.403800  0.877800  1.0  -0.3208
  N  N133  1  0.369600  0.408300  0.948200  1.0  -0.0105
  N  N134  1  0.360600  0.335200  0.995000  1.0  -0.0316
  N  N135  1  0.290900  0.282900  0.958000  1.0  -0.3612
  N  N136  1  0.448000  0.617100  0.950300  1.0  -0.4475
  N  N137  1  0.364200  0.636300  0.944900  1.0  0.5393
  N  N138  1  0.282000  0.656700  0.939100  1.0  -0.4422
