# generated using pymatgen
data_Cu3H16(C12N13)2
_symmetry_space_group_name_H-M   'P 1'
_cell_length_a   13.09000000
_cell_length_b   14.74400000
_cell_length_c   15.57500000
_cell_angle_alpha   90.00000000
_cell_angle_beta   91.64100000
_cell_angle_gamma   90.00000000
_symmetry_Int_Tables_number   1
_chemical_formula_structural   Cu3H16(C12N13)2
_chemical_formula_sum   'Cu6 H32 C48 N52'
_cell_volume   3004.72599458
_cell_formula_units_Z   2
loop_
 _symmetry_equiv_pos_site_id
 _symmetry_equiv_pos_as_xyz
  1  'x, y, z'
loop_
 _atom_site_type_symbol
 _atom_site_label
 _atom_site_symmetry_multiplicity
 _atom_site_fract_x
 _atom_site_fract_y
 _atom_site_fract_z
 _atom_site_occupancy
 _atom_site_charge
  Cu  Cu1  1  0.978530  0.204450  0.101060  1.0  0.7473
  Cu  Cu2  1  0.521470  0.704450  0.398940  1.0  0.7474
  Cu  Cu3  1  0.021470  0.795550  0.898940  1.0  0.747
  Cu  Cu4  1  0.478530  0.295550  0.601060  1.0  0.7465
  Cu  Cu5  1  0.000000  0.000000  0.000000  1.0  0.71
  Cu  Cu6  1  0.500000  0.500000  0.500000  1.0  0.7098
  H  H7  1  0.583900  0.370100  0.754400  1.0  0.0623
  H  H8  1  0.695200  0.331100  0.862900  1.0  0.1216
  H  H9  1  0.709900  0.085200  0.755600  1.0  0.1139
  H  H10  1  0.602000  0.134600  0.649300  1.0  0.0781
  H  H11  1  0.367100  0.288300  0.757900  1.0  0.0736
  H  H12  1  0.258800  0.200700  0.832300  1.0  0.1104
  H  H13  1  0.240200  0.033100  0.630400  1.0  0.1158
  H  H14  1  0.352600  0.126300  0.562100  1.0  0.0687
  H  H15  1  0.916100  0.870100  0.745600  1.0  0.0626
  H  H16  1  0.804800  0.831100  0.637100  1.0  0.1212
  H  H17  1  0.790100  0.585200  0.744400  1.0  0.1143
  H  H18  1  0.898000  0.634600  0.850700  1.0  0.0784
  H  H19  1  0.132900  0.788300  0.742100  1.0  0.0733
  H  H20  1  0.241200  0.700700  0.667700  1.0  0.1105
  H  H21  1  0.259800  0.533100  0.869600  1.0  0.1157
  H  H22  1  0.147400  0.626300  0.937900  1.0  0.0687
  H  H23  1  0.416100  0.629900  0.245600  1.0  0.064
  H  H24  1  0.304800  0.668900  0.137100  1.0  0.1212
  H  H25  1  0.290100  0.914800  0.244400  1.0  0.1141
  H  H26  1  0.398000  0.865400  0.350700  1.0  0.0786
  H  H27  1  0.632900  0.711700  0.242100  1.0  0.0726
  H  H28  1  0.741200  0.799300  0.167700  1.0  0.1104
  H  H29  1  0.759800  0.966900  0.369600  1.0  0.1161
  H  H30  1  0.647400  0.873700  0.437900  1.0  0.068
  H  H31  1  0.083900  0.129900  0.254400  1.0  0.0635
  H  H32  1  0.195200  0.168900  0.362900  1.0  0.1216
  H  H33  1  0.209900  0.414800  0.255600  1.0  0.1142
  H  H34  1  0.102000  0.365400  0.149300  1.0  0.0785
  H  H35  1  0.867100  0.211700  0.257900  1.0  0.0731
  H  H36  1  0.758800  0.299300  0.332300  1.0  0.1106
  H  H37  1  0.740200  0.466900  0.130400  1.0  0.1164
  H  H38  1  0.852600  0.373700  0.062100  1.0  0.0684
  C  C39  1  0.609100  0.311200  0.755400  1.0  0.1739
  C  C40  1  0.677000  0.289000  0.820700  1.0  -0.1667
  C  C41  1  0.717600  0.203300  0.822500  1.0  -0.0553
  C  C42  1  0.685600  0.144400  0.756600  1.0  -0.1225
  C  C43  1  0.619300  0.173600  0.694400  1.0  0.137
  C  C44  1  0.791900  0.173500  0.888000  1.0  0.3519
  C  C45  1  0.341100  0.236100  0.731800  1.0  0.1777
  C  C46  1  0.275900  0.184000  0.777000  1.0  -0.1532
  C  C47  1  0.235200  0.106200  0.740500  1.0  -0.0147
  C  C48  1  0.265200  0.084900  0.657800  1.0  -0.1513
  C  C49  1  0.332600  0.141700  0.617000  1.0  0.1523
  C  C50  1  0.166600  0.047200  0.787500  1.0  0.3011
  C  C51  1  0.890900  0.811200  0.744600  1.0  0.1748
  C  C52  1  0.823000  0.789000  0.679300  1.0  -0.167
  C  C53  1  0.782400  0.703300  0.677500  1.0  -0.0548
  C  C54  1  0.814400  0.644400  0.743400  1.0  -0.1211
  C  C55  1  0.880700  0.673600  0.805600  1.0  0.1387
  C  C56  1  0.708100  0.673500  0.612000  1.0  0.3513
  C  C57  1  0.158900  0.736100  0.768200  1.0  0.1778
  C  C58  1  0.224100  0.684000  0.723000  1.0  -0.1539
  C  C59  1  0.264800  0.606200  0.759500  1.0  -0.0135
  C  C60  1  0.234800  0.584900  0.842200  1.0  -0.1513
  C  C61  1  0.167400  0.641700  0.883000  1.0  0.1509
  C  C62  1  0.333400  0.547200  0.712500  1.0  0.3003
  C  C63  1  0.390900  0.688800  0.244600  1.0  0.173
  C  C64  1  0.323000  0.711000  0.179300  1.0  -0.1666
  C  C65  1  0.282400  0.796700  0.177500  1.0  -0.0542
  C  C66  1  0.314400  0.855600  0.243400  1.0  -0.1219
  C  C67  1  0.380700  0.826400  0.305600  1.0  0.1377
  C  C68  1  0.208100  0.826500  0.112000  1.0  0.3518
  C  C69  1  0.658900  0.763900  0.268200  1.0  0.178
  C  C70  1  0.724100  0.816000  0.223000  1.0  -0.1531
  C  C71  1  0.764800  0.893800  0.259500  1.0  -0.013
  C  C72  1  0.734800  0.915100  0.342200  1.0  -0.1512
  C  C73  1  0.667400  0.858300  0.383000  1.0  0.1519
  C  C74  1  0.833400  0.952800  0.212500  1.0  0.3005
  C  C75  1  0.109100  0.188800  0.255400  1.0  0.1733
  C  C76  1  0.177000  0.211000  0.320700  1.0  -0.1669
  C  C77  1  0.217600  0.296700  0.322500  1.0  -0.0558
  C  C78  1  0.185600  0.355600  0.256600  1.0  -0.1217
  C  C79  1  0.119300  0.326400  0.194400  1.0  0.1366
  C  C80  1  0.291900  0.326500  0.388000  1.0  0.3521
  C  C81  1  0.841100  0.263900  0.231800  1.0  0.1772
  C  C82  1  0.775900  0.316000  0.277000  1.0  -0.1524
  C  C83  1  0.735200  0.393800  0.240500  1.0  -0.0127
  C  C84  1  0.765200  0.415100  0.157800  1.0  -0.1535
  C  C85  1  0.832600  0.358300  0.117000  1.0  0.1535
  C  C86  1  0.666667  0.452800  0.287500  1.0  0.301
  N  N87  1  0.577300  0.257200  0.695400  1.0  -0.3114
  N  N88  1  0.838100  0.093300  0.887500  1.0  -0.3296
  N  N89  1  0.898700  0.094500  0.957900  1.0  0.025
  N  N90  1  0.888000  0.171700  0.998100  1.0  -0.0309
  N  N91  1  0.820500  0.223200  0.956400  1.0  -0.3499
  N  N92  1  0.370100  0.217200  0.652700  1.0  -0.3474
  N  N93  1  0.124400  0.076000  0.860900  1.0  -0.3303
  N  N94  1  0.071500  0.005300  0.886200  1.0  0.0079
  N  N95  1  0.082100  0.936600  0.833000  1.0  -0.1429
  N  N96  1  0.141800  0.962800  0.768900  1.0  -0.3163
  N  N97  1  0.083700  0.124000  0.052600  1.0  -0.4114
  N  N98  1  0.169600  0.138400  0.056100  1.0  0.4687
  N  N99  1  0.255700  0.153300  0.059300  1.0  -0.4069
  N  N100  1  0.922700  0.757200  0.804600  1.0  -0.3102
  N  N101  1  0.661900  0.593300  0.612500  1.0  -0.3277
  N  N102  1  0.601300  0.594500  0.542100  1.0  0.0239
  N  N103  1  0.612000  0.671700  0.501900  1.0  -0.0324
  N  N104  1  0.679500  0.723200  0.543600  1.0  -0.3488
  N  N105  1  0.129900  0.717200  0.847300  1.0  -0.3459
  N  N106  1  0.375600  0.576000  0.639100  1.0  -0.3321
  N  N107  1  0.428500  0.505300  0.613800  1.0  0.0067
  N  N108  1  0.417900  0.436600  0.667000  1.0  -0.1434
  N  N109  1  0.358200  0.462800  0.731100  1.0  -0.316
  N  N110  1  0.416300  0.624000  0.447400  1.0  -0.4115
  N  N111  1  0.330400  0.638400  0.443900  1.0  0.4692
  N  N112  1  0.244300  0.653300  0.440700  1.0  -0.4091
  N  N113  1  0.422700  0.742800  0.304600  1.0  -0.3099
  N  N114  1  0.161900  0.906700  0.112500  1.0  -0.3281
  N  N115  1  0.101300  0.905500  0.042100  1.0  0.0234
  N  N116  1  0.112000  0.828300  0.001900  1.0  -0.033
  N  N117  1  0.179500  0.776800  0.043600  1.0  -0.3495
  N  N118  1  0.629900  0.782800  0.347300  1.0  -0.3456
  N  N119  1  0.875600  0.924000  0.139100  1.0  -0.3319
  N  N120  1  0.928500  0.994700  0.113800  1.0  0.0066
  N  N121  1  0.917900  0.063400  0.167000  1.0  -0.1429
  N  N122  1  0.858200  0.037200  0.231100  1.0  -0.317
  N  N123  1  0.916300  0.876000  0.947400  1.0  -0.4118
  N  N124  1  0.830400  0.861600  0.943900  1.0  0.4687
  N  N125  1  0.744300  0.846700  0.940700  1.0  -0.4097
  N  N126  1  0.077300  0.242800  0.195400  1.0  -0.3114
  N  N127  1  0.338100  0.406700  0.387500  1.0  -0.3308
  N  N128  1  0.398700  0.405500  0.457900  1.0  0.0243
  N  N129  1  0.388000  0.328300  0.498100  1.0  -0.0318
  N  N130  1  0.320500  0.276800  0.456400  1.0  -0.3502
  N  N131  1  0.870100  0.282800  0.152700  1.0  -0.3476
  N  N132  1  0.624400  0.424000  0.360900  1.0  -0.3318
  N  N133  1  0.571500  0.494700  0.386200  1.0  0.0076
  N  N134  1  0.582100  0.563400  0.333000  1.0  -0.1417
  N  N135  1  0.641800  0.537200  0.268900  1.0  -0.3165
  N  N136  1  0.583700  0.376000  0.552600  1.0  -0.412
  N  N137  1  0.669600  0.361600  0.556100  1.0  0.4689
  N  N138  1  0.755700  0.346700  0.559300  1.0  -0.4079
