# generated using pymatgen
data_ZnH6C17S2(NO3)2
_symmetry_space_group_name_H-M   'P 1'
_cell_length_a   8.38000000
_cell_length_b   20.96620000
_cell_length_c   13.09990000
_cell_angle_alpha   90.00000000
_cell_angle_beta   95.03800000
_cell_angle_gamma   90.00000000
_symmetry_Int_Tables_number   1
_chemical_formula_structural   ZnH6C17S2(NO3)2
_chemical_formula_sum   'Zn4 H24 C68 S8 N8 O24'
_cell_volume   2292.71806701
_cell_formula_units_Z   4
loop_
 _symmetry_equiv_pos_site_id
 _symmetry_equiv_pos_as_xyz
  1  'x, y, z'
loop_
 _atom_site_type_symbol
 _atom_site_label
 _atom_site_symmetry_multiplicity
 _atom_site_fract_x
 _atom_site_fract_y
 _atom_site_fract_z
 _atom_site_occupancy
 _atom_site_charge
  Zn  Zn1  1  0.637700  0.291060  0.855560  1.0  0.8893
  Zn  Zn2  1  0.362300  0.791060  0.644440  1.0  0.8885
  Zn  Zn3  1  0.362300  0.708940  0.144440  1.0  0.888
  Zn  Zn4  1  0.637700  0.208940  0.355560  1.0  0.8891
  H  H5  1  0.736900  0.600000  0.369500  1.0  0.1279
  H  H6  1  0.726500  0.635400  0.536600  1.0  0.1177
  H  H7  1  0.732000  0.354900  0.220700  1.0  0.1407
  H  H8  1  0.447700  0.402200  0.915100  1.0  0.0949
  H  H9  1  0.777400  0.303000  0.072300  1.0  0.0976
  H  H10  1  0.391400  0.457900  0.060300  1.0  0.1416
  H  H11  1  0.263100  0.100000  0.130500  1.0  0.1287
  H  H12  1  0.273500  0.135400  0.963400  1.0  0.1188
  H  H13  1  0.268000  0.854900  0.279300  1.0  0.1408
  H  H14  1  0.552300  0.902200  0.584900  1.0  0.0937
  H  H15  1  0.222600  0.803000  0.427700  1.0  0.0965
  H  H16  1  0.608600  0.957900  0.439700  1.0  0.1408
  H  H17  1  0.263100  0.400000  0.630500  1.0  0.1288
  H  H18  1  0.273500  0.364600  0.463400  1.0  0.1176
  H  H19  1  0.268000  0.645100  0.779300  1.0  0.1408
  H  H20  1  0.552300  0.597800  0.084900  1.0  0.0933
  H  H21  1  0.222600  0.697000  0.927700  1.0  0.0971
  H  H22  1  0.608600  0.542100  0.939700  1.0  0.1421
  H  H23  1  0.736900  0.900000  0.869500  1.0  0.1287
  H  H24  1  0.726500  0.864600  0.036600  1.0  0.1174
  H  H25  1  0.732000  0.145100  0.720700  1.0  0.1407
  H  H26  1  0.447700  0.097800  0.415100  1.0  0.0949
  H  H27  1  0.777400  0.197000  0.572300  1.0  0.0976
  H  H28  1  0.391400  0.042100  0.560300  1.0  0.142
  C  C29  1  0.501200  0.489200  0.448700  1.0  0.0524
  C  C30  1  0.555400  0.411800  0.155600  1.0  0.2213
  C  C31  1  0.610400  0.498100  0.276200  1.0  0.4721
  C  C32  1  0.795300  0.105400  0.115600  1.0  -0.1402
  C  C33  1  0.422600  0.409100  0.313400  1.0  0.4549
  C  C34  1  0.598900  0.522900  0.382800  1.0  -0.1215
  C  C35  1  0.678500  0.577300  0.414600  1.0  -0.0409
  C  C36  1  0.414700  0.433900  0.416800  1.0  -0.1479
  C  C37  1  0.671600  0.598500  0.515200  1.0  -0.0653
  C  C38  1  0.722800  0.129300  0.211700  1.0  0.729
  C  C39  1  0.672900  0.365000  0.159400  1.0  -0.2531
  C  C40  1  0.504900  0.392700  0.977300  1.0  0.1759
  C  C41  1  0.699000  0.334400  0.070200  1.0  0.1857
  C  C42  1  0.470000  0.426400  0.064000  1.0  -0.2395
  C  C43  1  0.791100  0.129100  0.020600  1.0  -0.1093
  C  C44  1  0.960000  0.025600  0.014500  1.0  -0.0083
  C  C45  1  0.696000  0.186300  0.979400  1.0  0.6735
  C  C46  1  0.498800  0.989200  0.051300  1.0  0.0521
  C  C47  1  0.444600  0.911800  0.344400  1.0  0.2217
  C  C48  1  0.389600  0.998100  0.223800  1.0  0.4723
  C  C49  1  0.204700  0.605400  0.384400  1.0  -0.1387
  C  C50  1  0.577400  0.909100  0.186600  1.0  0.4525
  C  C51  1  0.401100  0.022900  0.117200  1.0  -0.12
  C  C52  1  0.321500  0.077300  0.085400  1.0  -0.0399
  C  C53  1  0.585300  0.933900  0.083200  1.0  -0.1485
  C  C54  1  0.328400  0.098500  0.984800  1.0  -0.0658
  C  C55  1  0.277200  0.629300  0.288300  1.0  0.7281
  C  C56  1  0.327100  0.865000  0.340600  1.0  -0.2547
  C  C57  1  0.495100  0.892700  0.522700  1.0  0.1769
  C  C58  1  0.301000  0.834400  0.429800  1.0  0.1856
  C  C59  1  0.530000  0.926400  0.436000  1.0  -0.2389
  C  C60  1  0.208900  0.629100  0.479400  1.0  -0.1087
  C  C61  1  0.040000  0.525600  0.485500  1.0  -0.0081
  C  C62  1  0.304000  0.686300  0.520600  1.0  0.6748
  C  C63  1  0.498800  0.510800  0.551300  1.0  0.0522
  C  C64  1  0.444600  0.588200  0.844400  1.0  0.2217
  C  C65  1  0.389600  0.501900  0.723800  1.0  0.4728
  C  C66  1  0.204700  0.894600  0.884400  1.0  -0.1385
  C  C67  1  0.577400  0.590900  0.686600  1.0  0.4526
  C  C68  1  0.401100  0.477100  0.617200  1.0  -0.1193
  C  C69  1  0.321500  0.422700  0.585400  1.0  -0.0395
  C  C70  1  0.585300  0.566100  0.583200  1.0  -0.148
  C  C71  1  0.328400  0.401500  0.484800  1.0  -0.0636
  C  C72  1  0.277200  0.870700  0.788300  1.0  0.7283
  C  C73  1  0.327100  0.635000  0.840600  1.0  -0.2551
  C  C74  1  0.495100  0.607300  0.022700  1.0  0.1766
  C  C75  1  0.301000  0.665600  0.929800  1.0  0.1855
  C  C76  1  0.530000  0.573600  0.936000  1.0  -0.239
  C  C77  1  0.208900  0.870900  0.979400  1.0  -0.1094
  C  C78  1  0.040000  0.974400  0.985500  1.0  -0.0078
  C  C79  1  0.304000  0.813700  0.020600  1.0  0.6748
  C  C80  1  0.501200  0.010800  0.948700  1.0  0.0526
  C  C81  1  0.555400  0.088200  0.655600  1.0  0.2212
  C  C82  1  0.610400  0.001900  0.776200  1.0  0.4723
  C  C83  1  0.795300  0.394600  0.615600  1.0  -0.1402
  C  C84  1  0.422600  0.090900  0.813400  1.0  0.456
  C  C85  1  0.598900  0.977100  0.882800  1.0  -0.1208
  C  C86  1  0.678500  0.922700  0.914600  1.0  -0.0416
  C  C87  1  0.414700  0.066100  0.916800  1.0  -0.1482
  C  C88  1  0.671600  0.901500  0.015200  1.0  -0.0634
  C  C89  1  0.722800  0.370700  0.711700  1.0  0.7292
  C  C90  1  0.672900  0.135000  0.659400  1.0  -0.2545
  C  C91  1  0.504900  0.107300  0.477300  1.0  0.1763
  C  C92  1  0.699000  0.165600  0.570200  1.0  0.1858
  C  C93  1  0.470000  0.073600  0.564000  1.0  -0.2389
  C  C94  1  0.791100  0.370900  0.520600  1.0  -0.1089
  C  C95  1  0.960000  0.474400  0.514500  1.0  -0.0078
  C  C96  1  0.696000  0.313700  0.479400  1.0  0.6731
  S  S97  1  0.899200  0.088770  0.930840  1.0  0.0629
  S  S98  1  0.905400  0.035280  0.140460  1.0  0.0764
  S  S99  1  0.100800  0.588770  0.569160  1.0  0.0639
  S  S100  1  0.094600  0.535280  0.359540  1.0  0.0766
  S  S101  1  0.100800  0.911230  0.069160  1.0  0.0632
  S  S102  1  0.094600  0.964720  0.859540  1.0  0.0767
  S  S103  1  0.899200  0.411230  0.430840  1.0  0.0623
  S  S104  1  0.905400  0.464720  0.640460  1.0  0.0764
  N  N105  1  0.521600  0.443000  0.249300  1.0  -0.2186
  N  N106  1  0.617100  0.347500  0.979700  1.0  -0.3141
  N  N107  1  0.478400  0.943000  0.250700  1.0  -0.219
  N  N108  1  0.382900  0.847500  0.520300  1.0  -0.3149
  N  N109  1  0.478400  0.557000  0.750700  1.0  -0.2188
  N  N110  1  0.382900  0.652500  0.020300  1.0  -0.3147
  N  N111  1  0.521600  0.057000  0.749300  1.0  -0.2187
  N  N112  1  0.617100  0.152500  0.479700  1.0  -0.3127
  O  O113  1  0.342500  0.365700  0.276900  1.0  -0.4373
  O  O114  1  0.690200  0.523600  0.215300  1.0  -0.4843
  O  O115  1  0.734700  0.188000  0.229000  1.0  -0.5491
  O  O116  1  0.664900  0.089500  0.266000  1.0  -0.5147
  O  O117  1  0.752400  0.212700  0.902200  1.0  -0.5861
  O  O118  1  0.575100  0.202800  0.018000  1.0  -0.4843
  O  O119  1  0.657500  0.865700  0.223100  1.0  -0.4381
  O  O120  1  0.309800  0.023600  0.284700  1.0  -0.4835
  O  O121  1  0.265300  0.688000  0.271000  1.0  -0.551
  O  O122  1  0.335100  0.589500  0.234000  1.0  -0.5152
  O  O123  1  0.247600  0.712700  0.597800  1.0  -0.5861
  O  O124  1  0.424900  0.702800  0.482000  1.0  -0.4839
  O  O125  1  0.657500  0.634300  0.723100  1.0  -0.4377
  O  O126  1  0.309800  0.476400  0.784700  1.0  -0.4836
  O  O127  1  0.265300  0.812000  0.771000  1.0  -0.5531
  O  O128  1  0.335100  0.910500  0.734000  1.0  -0.5149
  O  O129  1  0.247600  0.787300  0.097800  1.0  -0.5858
  O  O130  1  0.424900  0.797200  0.982000  1.0  -0.4842
  O  O131  1  0.342500  0.134300  0.776900  1.0  -0.4346
  O  O132  1  0.690200  0.976400  0.715300  1.0  -0.4847
  O  O133  1  0.734700  0.312000  0.729000  1.0  -0.5516
  O  O134  1  0.664900  0.410500  0.766000  1.0  -0.5146
  O  O135  1  0.752400  0.287300  0.402200  1.0  -0.5862
  O  O136  1  0.575100  0.297200  0.518000  1.0  -0.4839
