# generated using pymatgen
data_Cu3H16(C12N13)2
_symmetry_space_group_name_H-M   'P 1'
_cell_length_a   13.26100000
_cell_length_b   15.13400000
_cell_length_c   15.54700000
_cell_angle_alpha   90.00000000
_cell_angle_beta   93.44900000
_cell_angle_gamma   90.00000000
_symmetry_Int_Tables_number   1
_chemical_formula_structural   Cu3H16(C12N13)2
_chemical_formula_sum   'Cu6 H32 C48 N52'
_cell_volume   3114.50671278
_cell_formula_units_Z   2
loop_
 _symmetry_equiv_pos_site_id
 _symmetry_equiv_pos_as_xyz
  1  'x, y, z'
loop_
 _atom_site_type_symbol
 _atom_site_label
 _atom_site_symmetry_multiplicity
 _atom_site_fract_x
 _atom_site_fract_y
 _atom_site_fract_z
 _atom_site_occupancy
 _atom_site_charge
  Cu  Cu1  1  0.949710  0.188750  0.102400  1.0  0.7639
  Cu  Cu2  1  0.550290  0.688750  0.397600  1.0  0.7624
  Cu  Cu3  1  0.050290  0.811250  0.897600  1.0  0.7624
  Cu  Cu4  1  0.449710  0.311250  0.602400  1.0  0.7634
  Cu  Cu5  1  0.000000  0.000000  0.000000  1.0  0.7367
  Cu  Cu6  1  0.500000  0.500000  0.500000  1.0  0.7367
  H  H7  1  0.559700  0.380600  0.762500  1.0  0.084
  H  H8  1  0.674900  0.332800  0.867700  1.0  0.1112
  H  H9  1  0.677300  0.097800  0.750700  1.0  0.127
  H  H10  1  0.563300  0.153100  0.648900  1.0  0.0761
  H  H11  1  0.329100  0.312900  0.753400  1.0  0.0761
  H  H12  1  0.226500  0.224800  0.827700  1.0  0.1136
  H  H13  1  0.245100  0.042800  0.643300  1.0  0.1236
  H  H14  1  0.344500  0.138500  0.574000  1.0  0.0744
  H  H15  1  0.940300  0.880600  0.737500  1.0  0.0841
  H  H16  1  0.825100  0.832800  0.632300  1.0  0.1109
  H  H17  1  0.822700  0.597800  0.749300  1.0  0.1274
  H  H18  1  0.936700  0.653100  0.851100  1.0  0.0766
  H  H19  1  0.170900  0.812900  0.746600  1.0  0.0761
  H  H20  1  0.273500  0.724800  0.672300  1.0  0.1135
  H  H21  1  0.254900  0.542800  0.856700  1.0  0.1237
  H  H22  1  0.155500  0.638500  0.926000  1.0  0.0737
  H  H23  1  0.440300  0.619400  0.237500  1.0  0.0851
  H  H24  1  0.325100  0.667200  0.132300  1.0  0.1109
  H  H25  1  0.322700  0.902200  0.249300  1.0  0.1274
  H  H26  1  0.436700  0.846900  0.351100  1.0  0.0768
  H  H27  1  0.670900  0.687100  0.246600  1.0  0.0758
  H  H28  1  0.773500  0.775200  0.172300  1.0  0.1137
  H  H29  1  0.754900  0.957200  0.356700  1.0  0.1243
  H  H30  1  0.655500  0.861500  0.426000  1.0  0.0742
  H  H31  1  0.059700  0.119400  0.262500  1.0  0.0843
  H  H32  1  0.174900  0.167200  0.367700  1.0  0.111
  H  H33  1  0.177300  0.402200  0.250700  1.0  0.1269
  H  H34  1  0.063300  0.346900  0.148900  1.0  0.0764
  H  H35  1  0.829100  0.187100  0.253400  1.0  0.0759
  H  H36  1  0.726500  0.275200  0.327700  1.0  0.1136
  H  H37  1  0.745100  0.457200  0.143300  1.0  0.1244
  H  H38  1  0.844500  0.361500  0.074000  1.0  0.0747
  C  C39  1  0.583600  0.322900  0.760400  1.0  0.123
  C  C40  1  0.652700  0.294400  0.823800  1.0  -0.1075
  C  C41  1  0.688800  0.210100  0.822600  1.0  -0.0407
  C  C42  1  0.654400  0.155600  0.754700  1.0  -0.1303
  C  C43  1  0.585900  0.189600  0.694200  1.0  0.1655
  C  C44  1  0.763200  0.176800  0.886600  1.0  0.3344
  C  C45  1  0.311100  0.258000  0.730500  1.0  0.1665
  C  C46  1  0.250600  0.204700  0.776200  1.0  -0.1586
  C  C47  1  0.225200  0.122000  0.746600  1.0  -0.01
  C  C48  1  0.261100  0.097600  0.667500  1.0  -0.1476
  C  C49  1  0.320400  0.156200  0.626200  1.0  0.1695
  C  C50  1  0.163800  0.062500  0.794300  1.0  0.3411
  C  C51  1  0.916400  0.822900  0.739600  1.0  0.1264
  C  C52  1  0.847300  0.794400  0.676200  1.0  -0.1078
  C  C53  1  0.811200  0.710100  0.677400  1.0  -0.0425
  C  C54  1  0.845600  0.655600  0.745300  1.0  -0.1286
  C  C55  1  0.914100  0.689600  0.805800  1.0  0.1661
  C  C56  1  0.736800  0.676800  0.613400  1.0  0.3344
  C  C57  1  0.188900  0.758000  0.769500  1.0  0.1655
  C  C58  1  0.249400  0.704700  0.723800  1.0  -0.1582
  C  C59  1  0.274800  0.622000  0.753400  1.0  -0.0106
  C  C60  1  0.238900  0.597600  0.832500  1.0  -0.1477
  C  C61  1  0.179600  0.656200  0.873800  1.0  0.1694
  C  C62  1  0.336200  0.562500  0.705700  1.0  0.3409
  C  C63  1  0.416400  0.677100  0.239600  1.0  0.1261
  C  C64  1  0.347300  0.705600  0.176200  1.0  -0.1072
  C  C65  1  0.311200  0.789900  0.177400  1.0  -0.0415
  C  C66  1  0.345600  0.844400  0.245300  1.0  -0.128
  C  C67  1  0.414100  0.810400  0.305800  1.0  0.1662
  C  C68  1  0.236800  0.823200  0.113400  1.0  0.3346
  C  C69  1  0.688900  0.742000  0.269500  1.0  0.1663
  C  C70  1  0.749400  0.795300  0.223800  1.0  -0.1576
  C  C71  1  0.774800  0.878000  0.253400  1.0  -0.0104
  C  C72  1  0.738900  0.902400  0.332500  1.0  -0.147
  C  C73  1  0.679600  0.843800  0.373800  1.0  0.1693
  C  C74  1  0.836200  0.937500  0.205700  1.0  0.341
  C  C75  1  0.083600  0.177100  0.260400  1.0  0.1251
  C  C76  1  0.152700  0.205600  0.323800  1.0  -0.1074
  C  C77  1  0.188800  0.289900  0.322600  1.0  -0.0414
  C  C78  1  0.154400  0.344400  0.254700  1.0  -0.129
  C  C79  1  0.085900  0.310400  0.194200  1.0  0.1662
  C  C80  1  0.263200  0.323200  0.386600  1.0  0.3341
  C  C81  1  0.811100  0.242000  0.230500  1.0  0.1674
  C  C82  1  0.750600  0.295300  0.276200  1.0  -0.1576
  C  C83  1  0.725200  0.378000  0.246600  1.0  -0.0095
  C  C84  1  0.761100  0.402400  0.167500  1.0  -0.1492
  C  C85  1  0.820400  0.343800  0.126200  1.0  0.1699
  C  C86  1  0.663800  0.437500  0.294300  1.0  0.3411
  N  N87  1  0.549800  0.270900  0.696000  1.0  -0.3125
  N  N88  1  0.794300  0.221400  0.957900  1.0  -0.3607
  N  N89  1  0.860300  0.166700  0.995400  1.0  -0.1041
  N  N90  1  0.871400  0.093000  0.951300  1.0  -0.2007
  N  N91  1  0.808200  0.098000  0.880900  1.0  -0.3158
  N  N92  1  0.345800  0.235200  0.654600  1.0  -0.3328
  N  N93  1  0.116000  0.087300  0.864000  1.0  -0.3301
  N  N94  1  0.072500  0.014200  0.890400  1.0  0.0307
  N  N95  1  0.093200  0.946900  0.840100  1.0  -0.0512
  N  N96  1  0.151700  0.975800  0.778100  1.0  -0.3435
  N  N97  1  0.055000  0.117100  0.050100  1.0  -0.4399
  N  N98  1  0.142600  0.133700  0.057800  1.0  0.5364
  N  N99  1  0.225100  0.151700  0.064300  1.0  -0.4133
  N  N100  1  0.950200  0.770900  0.804000  1.0  -0.3117
  N  N101  1  0.705700  0.721400  0.542100  1.0  -0.3584
  N  N102  1  0.639700  0.666667  0.504600  1.0  -0.1034
  N  N103  1  0.628600  0.593000  0.548700  1.0  -0.1896
  N  N104  1  0.691800  0.598000  0.619100  1.0  -0.314
  N  N105  1  0.154200  0.735200  0.845400  1.0  -0.3313
  N  N106  1  0.384000  0.587300  0.636000  1.0  -0.3316
  N  N107  1  0.427500  0.514200  0.609600  1.0  0.0314
  N  N108  1  0.406800  0.446900  0.659900  1.0  -0.0526
  N  N109  1  0.348300  0.475800  0.721900  1.0  -0.34
  N  N110  1  0.445000  0.617100  0.449900  1.0  -0.4399
  N  N111  1  0.357400  0.633700  0.442200  1.0  0.538
  N  N112  1  0.274900  0.651700  0.435700  1.0  -0.4129
  N  N113  1  0.450200  0.729100  0.304000  1.0  -0.3121
  N  N114  1  0.205700  0.778600  0.042100  1.0  -0.3604
  N  N115  1  0.139700  0.833300  0.004600  1.0  -0.1046
  N  N116  1  0.128600  0.907000  0.048700  1.0  -0.2015
  N  N117  1  0.191800  0.902000  0.119100  1.0  -0.3135
  N  N118  1  0.654200  0.764800  0.345400  1.0  -0.3315
  N  N119  1  0.884000  0.912700  0.136000  1.0  -0.3293
  N  N120  1  0.927500  0.985800  0.109600  1.0  0.0309
  N  N121  1  0.906800  0.053100  0.159900  1.0  -0.0511
  N  N122  1  0.848300  0.024200  0.221900  1.0  -0.3416
  N  N123  1  0.945000  0.882900  0.949900  1.0  -0.4393
  N  N124  1  0.857400  0.866300  0.942200  1.0  0.5376
  N  N125  1  0.774900  0.848300  0.935700  1.0  -0.4128
  N  N126  1  0.049800  0.229100  0.196000  1.0  -0.3133
  N  N127  1  0.294300  0.278600  0.457900  1.0  -0.3603
  N  N128  1  0.360300  0.333333  0.495400  1.0  -0.1033
  N  N129  1  0.371400  0.407000  0.451300  1.0  -0.1897
  N  N130  1  0.308200  0.402000  0.380900  1.0  -0.3153
  N  N131  1  0.845800  0.264800  0.154600  1.0  -0.3329
  N  N132  1  0.616000  0.412700  0.364000  1.0  -0.3291
  N  N133  1  0.572500  0.485800  0.390400  1.0  0.0298
  N  N134  1  0.593200  0.553100  0.340100  1.0  -0.05
  N  N135  1  0.651700  0.524200  0.278100  1.0  -0.3431
  N  N136  1  0.555000  0.382900  0.550100  1.0  -0.4395
  N  N137  1  0.642600  0.366300  0.557800  1.0  0.5361
  N  N138  1  0.725100  0.348300  0.564300  1.0  -0.4131
