# generated using pymatgen
data_Cu3H16(C12N13)2
_symmetry_space_group_name_H-M   'P 1'
_cell_length_a   12.82500000
_cell_length_b   14.90300000
_cell_length_c   15.96300000
_cell_angle_alpha   90.00000000
_cell_angle_beta   92.84700000
_cell_angle_gamma   90.00000000
_symmetry_Int_Tables_number   1
_chemical_formula_structural   Cu3H16(C12N13)2
_chemical_formula_sum   'Cu6 H32 C48 N52'
_cell_volume   3047.25796561
_cell_formula_units_Z   2
loop_
 _symmetry_equiv_pos_site_id
 _symmetry_equiv_pos_as_xyz
  1  'x, y, z'
loop_
 _atom_site_type_symbol
 _atom_site_label
 _atom_site_symmetry_multiplicity
 _atom_site_fract_x
 _atom_site_fract_y
 _atom_site_fract_z
 _atom_site_occupancy
 _atom_site_charge
  Cu  Cu1  1  0.971220  0.196700  0.107490  1.0  0.6956
  Cu  Cu2  1  0.528780  0.696700  0.392510  1.0  0.696
  Cu  Cu3  1  0.028780  0.803300  0.892510  1.0  0.6958
  Cu  Cu4  1  0.471220  0.303300  0.607490  1.0  0.6953
  Cu  Cu5  1  0.000000  0.000000  0.000000  1.0  0.5699
  Cu  Cu6  1  0.500000  0.500000  0.500000  1.0  0.5699
  H  H7  1  0.572400  0.372600  0.766500  1.0  0.085
  H  H8  1  0.684900  0.325100  0.873500  1.0  0.1114
  H  H9  1  0.706200  0.089500  0.757200  1.0  0.126
  H  H10  1  0.592700  0.143300  0.654600  1.0  0.0732
  H  H11  1  0.345500  0.306600  0.754900  1.0  0.0751
  H  H12  1  0.234700  0.220500  0.826800  1.0  0.1181
  H  H13  1  0.231100  0.043700  0.638600  1.0  0.1225
  H  H14  1  0.343200  0.136500  0.571800  1.0  0.0759
  H  H15  1  0.927600  0.872600  0.733500  1.0  0.0848
  H  H16  1  0.815100  0.825100  0.626500  1.0  0.1113
  H  H17  1  0.793800  0.589500  0.742800  1.0  0.1264
  H  H18  1  0.907300  0.643300  0.845400  1.0  0.0735
  H  H19  1  0.154500  0.806600  0.745100  1.0  0.0748
  H  H20  1  0.265300  0.720500  0.673200  1.0  0.118
  H  H21  1  0.268900  0.543700  0.861400  1.0  0.1223
  H  H22  1  0.156800  0.636500  0.928200  1.0  0.0758
  H  H23  1  0.427600  0.627400  0.233500  1.0  0.0856
  H  H24  1  0.315100  0.674900  0.126500  1.0  0.1112
  H  H25  1  0.293800  0.910500  0.242800  1.0  0.1265
  H  H26  1  0.407300  0.856700  0.345400  1.0  0.0739
  H  H27  1  0.654500  0.693400  0.245100  1.0  0.0746
  H  H28  1  0.765300  0.779500  0.173200  1.0  0.1178
  H  H29  1  0.768900  0.956300  0.361400  1.0  0.1227
  H  H30  1  0.656800  0.863500  0.428200  1.0  0.0753
  H  H31  1  0.072400  0.127400  0.266500  1.0  0.0855
  H  H32  1  0.184900  0.174900  0.373500  1.0  0.1112
  H  H33  1  0.206200  0.410500  0.257200  1.0  0.1262
  H  H34  1  0.092700  0.356700  0.154600  1.0  0.0739
  H  H35  1  0.845500  0.193400  0.254900  1.0  0.075
  H  H36  1  0.734700  0.279500  0.326800  1.0  0.1179
  H  H37  1  0.731100  0.456300  0.138600  1.0  0.1224
  H  H38  1  0.843200  0.363500  0.071800  1.0  0.0752
  C  C39  1  0.598800  0.314600  0.765000  1.0  0.1293
  C  C40  1  0.667400  0.286500  0.829200  1.0  -0.1124
  C  C41  1  0.709600  0.202100  0.827900  1.0  -0.018
  C  C42  1  0.680000  0.147400  0.760800  1.0  -0.128
  C  C43  1  0.611200  0.180300  0.699900  1.0  0.1509
  C  C44  1  0.783000  0.170200  0.894200  1.0  0.3454
  C  C45  1  0.322500  0.252600  0.731300  1.0  0.167
  C  C46  1  0.256200  0.201200  0.775000  1.0  -0.1639
  C  C47  1  0.221100  0.120600  0.742300  1.0  -0.0116
  C  C48  1  0.254000  0.096800  0.664000  1.0  -0.1535
  C  C49  1  0.321200  0.153200  0.624200  1.0  0.1557
  C  C50  1  0.155500  0.060400  0.790000  1.0  0.3326
  C  C51  1  0.901200  0.814600  0.735000  1.0  0.1308
  C  C52  1  0.832600  0.786500  0.670800  1.0  -0.1125
  C  C53  1  0.790400  0.702100  0.672100  1.0  -0.0182
  C  C54  1  0.820000  0.647400  0.739200  1.0  -0.1269
  C  C55  1  0.888800  0.680300  0.800100  1.0  0.1518
  C  C56  1  0.717000  0.670200  0.605800  1.0  0.3456
  C  C57  1  0.177500  0.752600  0.768700  1.0  0.1672
  C  C58  1  0.243800  0.701200  0.725000  1.0  -0.1637
  C  C59  1  0.278900  0.620600  0.757700  1.0  -0.0106
  C  C60  1  0.246000  0.596800  0.836000  1.0  -0.154
  C  C61  1  0.178800  0.653200  0.875800  1.0  0.1552
  C  C62  1  0.344500  0.560400  0.710000  1.0  0.3327
  C  C63  1  0.401200  0.685400  0.235000  1.0  0.1298
  C  C64  1  0.332600  0.713500  0.170800  1.0  -0.1118
  C  C65  1  0.290400  0.797900  0.172100  1.0  -0.0178
  C  C66  1  0.320000  0.852600  0.239200  1.0  -0.1263
  C  C67  1  0.388800  0.819700  0.300100  1.0  0.1514
  C  C68  1  0.217000  0.829800  0.105800  1.0  0.3455
  C  C69  1  0.677500  0.747400  0.268700  1.0  0.1672
  C  C70  1  0.743800  0.798800  0.225000  1.0  -0.1629
  C  C71  1  0.778900  0.879400  0.257700  1.0  -0.0106
  C  C72  1  0.746000  0.903200  0.336000  1.0  -0.154
  C  C73  1  0.678800  0.846800  0.375800  1.0  0.156
  C  C74  1  0.844500  0.939600  0.210000  1.0  0.3329
  C  C75  1  0.098800  0.185400  0.265000  1.0  0.1294
  C  C76  1  0.167400  0.213500  0.329200  1.0  -0.112
  C  C77  1  0.209600  0.297900  0.327900  1.0  -0.0185
  C  C78  1  0.180000  0.352600  0.260800  1.0  -0.126
  C  C79  1  0.111200  0.319700  0.199900  1.0  0.1513
  C  C80  1  0.283000  0.329800  0.394200  1.0  0.3454
  C  C81  1  0.822500  0.247400  0.231300  1.0  0.1671
  C  C82  1  0.756200  0.298800  0.275000  1.0  -0.1624
  C  C83  1  0.721100  0.379400  0.242300  1.0  -0.0115
  C  C84  1  0.754000  0.403200  0.164000  1.0  -0.1559
  C  C85  1  0.821200  0.346800  0.124200  1.0  0.1568
  C  C86  1  0.655500  0.439600  0.290000  1.0  0.3327
  N  N87  1  0.569500  0.261600  0.701500  1.0  -0.3153
  N  N88  1  0.810600  0.218400  0.962900  1.0  -0.3583
  N  N89  1  0.879100  0.166100  0.004400  1.0  -0.0266
  N  N90  1  0.892700  0.091500  0.961600  1.0  0.0114
  N  N91  1  0.832700  0.092400  0.892200  1.0  -0.3168
  N  N92  1  0.355900  0.229900  0.657100  1.0  -0.3372
  N  N93  1  0.117500  0.084500  0.863100  1.0  -0.3304
  N  N94  1  0.069700  0.012100  0.888500  1.0  0.0273
  N  N95  1  0.079200  0.945600  0.833700  1.0  -0.1116
  N  N96  1  0.134400  0.975200  0.770500  1.0  -0.3263
  N  N97  1  0.084300  0.126100  0.057800  1.0  -0.4357
  N  N98  1  0.170100  0.137800  0.070900  1.0  0.4551
  N  N99  1  0.256000  0.145300  0.086800  1.0  -0.4021
  N  N100  1  0.930500  0.761600  0.798500  1.0  -0.3156
  N  N101  1  0.689400  0.718400  0.537100  1.0  -0.3587
  N  N102  1  0.620900  0.666100  0.495600  1.0  -0.0276
  N  N103  1  0.607300  0.591500  0.538400  1.0  0.0109
  N  N104  1  0.667300  0.592400  0.607800  1.0  -0.3165
  N  N105  1  0.144100  0.729900  0.842900  1.0  -0.3346
  N  N106  1  0.382500  0.584500  0.636900  1.0  -0.3317
  N  N107  1  0.430300  0.512100  0.611500  1.0  0.0266
  N  N108  1  0.420800  0.445600  0.666300  1.0  -0.111
  N  N109  1  0.365600  0.475200  0.729500  1.0  -0.325
  N  N110  1  0.415700  0.626100  0.442200  1.0  -0.4338
  N  N111  1  0.329900  0.637800  0.429100  1.0  0.4544
  N  N112  1  0.244000  0.645300  0.413200  1.0  -0.4013
  N  N113  1  0.430500  0.738400  0.298500  1.0  -0.3155
  N  N114  1  0.189400  0.781600  0.037100  1.0  -0.3587
  N  N115  1  0.120900  0.833900  0.995600  1.0  -0.028
  N  N116  1  0.107300  0.908500  0.038400  1.0  0.0102
  N  N117  1  0.167300  0.907600  0.107800  1.0  -0.3157
  N  N118  1  0.644100  0.770100  0.342900  1.0  -0.3347
  N  N119  1  0.882500  0.915500  0.136900  1.0  -0.3306
  N  N120  1  0.930300  0.987900  0.111500  1.0  0.0264
  N  N121  1  0.920800  0.054400  0.166300  1.0  -0.1109
  N  N122  1  0.865600  0.024800  0.229500  1.0  -0.3246
  N  N123  1  0.915700  0.873900  0.942200  1.0  -0.4335
  N  N124  1  0.829900  0.862200  0.929100  1.0  0.4542
  N  N125  1  0.744000  0.854700  0.913200  1.0  -0.4009
  N  N126  1  0.069500  0.238400  0.201500  1.0  -0.3151
  N  N127  1  0.310600  0.281600  0.462900  1.0  -0.3584
  N  N128  1  0.379100  0.333900  0.504400  1.0  -0.027
  N  N129  1  0.392700  0.408500  0.461600  1.0  0.0108
  N  N130  1  0.332700  0.407600  0.392200  1.0  -0.3169
  N  N131  1  0.855900  0.270100  0.157100  1.0  -0.337
  N  N132  1  0.617500  0.415500  0.363100  1.0  -0.3296
  N  N133  1  0.569700  0.487900  0.388500  1.0  0.027
  N  N134  1  0.579200  0.554400  0.333700  1.0  -0.1117
  N  N135  1  0.634400  0.524800  0.270500  1.0  -0.3247
  N  N136  1  0.584300  0.373900  0.557800  1.0  -0.4358
  N  N137  1  0.670100  0.362200  0.570900  1.0  0.4552
  N  N138  1  0.756000  0.354700  0.586800  1.0  -0.4022
