# generated using pymatgen
data_Cu3H16(C12N13)2
_symmetry_space_group_name_H-M   'P 1'
_cell_length_a   13.11100000
_cell_length_b   14.79100000
_cell_length_c   15.67100000
_cell_angle_alpha   90.00000000
_cell_angle_beta   92.62500000
_cell_angle_gamma   90.00000000
_symmetry_Int_Tables_number   1
_chemical_formula_structural   Cu3H16(C12N13)2
_chemical_formula_sum   'Cu6 H32 C48 N52'
_cell_volume   3035.80668178
_cell_formula_units_Z   2
loop_
 _symmetry_equiv_pos_site_id
 _symmetry_equiv_pos_as_xyz
  1  'x, y, z'
loop_
 _atom_site_type_symbol
 _atom_site_label
 _atom_site_symmetry_multiplicity
 _atom_site_fract_x
 _atom_site_fract_y
 _atom_site_fract_z
 _atom_site_occupancy
 _atom_site_charge
  Cu  Cu1  1  0.525860  0.198200  0.391800  1.0  0.7155
  Cu  Cu2  1  0.974140  0.698200  0.108200  1.0  0.7148
  Cu  Cu3  1  0.474140  0.801800  0.608200  1.0  0.7145
  Cu  Cu4  1  0.025860  0.301800  0.891800  1.0  0.7156
  Cu  Cu5  1  0.500000  0.000000  0.500000  1.0  0.7161
  Cu  Cu6  1  0.000000  0.500000  0.000000  1.0  0.7161
  H  H7  1  0.906300  0.141200  0.845500  1.0  0.0769
  H  H8  1  0.792300  0.089000  0.741600  1.0  0.1222
  H  H9  1  0.810600  0.328500  0.625500  1.0  0.108
  H  H10  1  0.926900  0.373000  0.730900  1.0  0.0769
  H  H11  1  0.147400  0.302700  0.741200  1.0  0.0719
  H  H12  1  0.257300  0.213700  0.668000  1.0  0.1171
  H  H13  1  0.253700  0.035800  0.859800  1.0  0.114
  H  H14  1  0.145000  0.129300  0.927600  1.0  0.0733
  H  H15  1  0.593700  0.641200  0.654500  1.0  0.0762
  H  H16  1  0.707700  0.589000  0.758400  1.0  0.1217
  H  H17  1  0.689400  0.828500  0.874500  1.0  0.1078
  H  H18  1  0.573100  0.873000  0.769100  1.0  0.0768
  H  H19  1  0.352600  0.802700  0.758800  1.0  0.0722
  H  H20  1  0.242700  0.713700  0.832000  1.0  0.1171
  H  H21  1  0.246300  0.535800  0.640200  1.0  0.1141
  H  H22  1  0.355000  0.629300  0.572400  1.0  0.0735
  H  H23  1  0.093700  0.858800  0.154500  1.0  0.0764
  H  H24  1  0.207700  0.911000  0.258400  1.0  0.1217
  H  H25  1  0.189400  0.671500  0.374500  1.0  0.1078
  H  H26  1  0.073100  0.627000  0.269100  1.0  0.0765
  H  H27  1  0.852600  0.697300  0.258800  1.0  0.0719
  H  H28  1  0.742700  0.786300  0.332000  1.0  0.1171
  H  H29  1  0.746300  0.964200  0.140200  1.0  0.1142
  H  H30  1  0.855000  0.870700  0.072400  1.0  0.0734
  H  H31  1  0.406300  0.358800  0.345500  1.0  0.0768
  H  H32  1  0.292300  0.411000  0.241600  1.0  0.1221
  H  H33  1  0.310600  0.171500  0.125500  1.0  0.1079
  H  H34  1  0.426900  0.127000  0.230900  1.0  0.0776
  H  H35  1  0.647400  0.197300  0.241200  1.0  0.0717
  H  H36  1  0.757300  0.286300  0.168000  1.0  0.117
  H  H37  1  0.753700  0.464200  0.359800  1.0  0.1143
  H  H38  1  0.645000  0.370700  0.427600  1.0  0.0728
  C  C39  1  0.887400  0.178900  0.799900  1.0  0.1423
  C  C40  1  0.818400  0.147200  0.738300  1.0  -0.1216
  C  C41  1  0.788600  0.203700  0.671100  1.0  -0.062
  C  C42  1  0.829600  0.288700  0.669400  1.0  -0.1227
  C  C43  1  0.899200  0.315200  0.732900  1.0  0.1318
  C  C44  1  0.713300  0.172800  0.606000  1.0  0.3375
  C  C45  1  0.169300  0.248100  0.765200  1.0  0.1478
  C  C46  1  0.235300  0.195100  0.720800  1.0  -0.1473
  C  C47  1  0.268400  0.113500  0.755900  1.0  -0.0438
  C  C48  1  0.233200  0.090000  0.834200  1.0  -0.1509
  C  C49  1  0.167700  0.146400  0.874500  1.0  0.1542
  C  C50  1  0.336000  0.055500  0.708610  1.0  0.3308
  C  C51  1  0.612600  0.678900  0.700100  1.0  0.1407
  C  C52  1  0.681600  0.647200  0.761700  1.0  -0.1232
  C  C53  1  0.711400  0.703700  0.828900  1.0  -0.0614
  C  C54  1  0.670400  0.788700  0.830600  1.0  -0.1222
  C  C55  1  0.600800  0.815200  0.767100  1.0  0.1302
  C  C56  1  0.786700  0.672800  0.894000  1.0  0.3382
  C  C57  1  0.330700  0.748100  0.734800  1.0  0.1479
  C  C58  1  0.264700  0.695100  0.779200  1.0  -0.1462
  C  C59  1  0.231600  0.613500  0.744100  1.0  -0.0453
  C  C60  1  0.266800  0.590000  0.665800  1.0  -0.1507
  C  C61  1  0.332300  0.646400  0.625500  1.0  0.154
  C  C62  1  0.164000  0.555500  0.791390  1.0  0.3312
  C  C63  1  0.112600  0.821100  0.200100  1.0  0.1409
  C  C64  1  0.181600  0.852800  0.261700  1.0  -0.1216
  C  C65  1  0.211400  0.796300  0.328900  1.0  -0.062
  C  C66  1  0.170400  0.711300  0.330600  1.0  -0.1223
  C  C67  1  0.100800  0.684800  0.267100  1.0  0.1301
  C  C68  1  0.286700  0.827200  0.394000  1.0  0.3383
  C  C69  1  0.830700  0.751900  0.234800  1.0  0.1476
  C  C70  1  0.764700  0.804900  0.279200  1.0  -0.145
  C  C71  1  0.731600  0.886500  0.244100  1.0  -0.0458
  C  C72  1  0.766800  0.910000  0.165800  1.0  -0.1513
  C  C73  1  0.832300  0.853600  0.125500  1.0  0.1542
  C  C74  1  0.664000  0.944500  0.291390  1.0  0.3313
  C  C75  1  0.387400  0.321100  0.299900  1.0  0.1415
  C  C76  1  0.318400  0.352800  0.238300  1.0  -0.1206
  C  C77  1  0.288600  0.296300  0.171100  1.0  -0.0615
  C  C78  1  0.329600  0.211300  0.169400  1.0  -0.1221
  C  C79  1  0.399200  0.184800  0.232900  1.0  0.1306
  C  C80  1  0.213300  0.327200  0.106000  1.0  0.3374
  C  C81  1  0.669300  0.251900  0.265200  1.0  0.1473
  C  C82  1  0.735300  0.304900  0.220800  1.0  -0.1465
  C  C83  1  0.768400  0.386500  0.255900  1.0  -0.0447
  C  C84  1  0.733200  0.410000  0.334200  1.0  -0.1503
  C  C85  1  0.667700  0.353600  0.374500  1.0  0.1542
  C  C86  1  0.836000  0.444500  0.208610  1.0  0.3307
  N  N87  1  0.928000  0.260720  0.797240  1.0  -0.3025
  N  N88  1  0.685400  0.221220  0.536080  1.0  -0.3548
  N  N89  1  0.616100  0.169570  0.496120  1.0  -0.0317
  N  N90  1  0.603000  0.093810  0.539720  1.0  0.0094
  N  N91  1  0.663900  0.093770  0.609680  1.0  -0.3328
  N  N92  1  0.135400  0.224340  0.840970  1.0  -0.3282
  N  N93  1  0.378500  0.081840  0.636260  1.0  -0.345
  N  N94  1  0.429600  0.009540  0.612460  1.0  0.0084
  N  N95  1  0.418800  0.942680  0.666980  1.0  -0.0757
  N  N96  1  0.360000  0.969760  0.729150  1.0  -0.3421
  N  N97  1  0.416900  0.125030  0.442350  1.0  -0.3981
  N  N98  1  0.330600  0.135600  0.428100  1.0  0.4694
  N  N99  1  0.245100  0.144900  0.414800  1.0  -0.4063
  N  N100  1  0.572000  0.760720  0.702760  1.0  -0.3043
  N  N101  1  0.814600  0.721220  0.963920  1.0  -0.3562
  N  N102  1  0.883900  0.669570  0.003880  1.0  -0.0302
  N  N103  1  0.897000  0.593810  0.960280  1.0  0.0102
  N  N104  1  0.836100  0.593770  0.890320  1.0  -0.334
  N  N105  1  0.364600  0.724340  0.659030  1.0  -0.3304
  N  N106  1  0.121500  0.581840  0.863740  1.0  -0.3429
  N  N107  1  0.070400  0.509540  0.887540  1.0  0.0094
  N  N108  1  0.081200  0.442680  0.833020  1.0  -0.075
  N  N109  1  0.140000  0.469760  0.770850  1.0  -0.3413
  N  N110  1  0.083100  0.625030  0.057650  1.0  -0.3968
  N  N111  1  0.169400  0.635600  0.071900  1.0  0.4699
  N  N112  1  0.254900  0.644900  0.085200  1.0  -0.4048
  N  N113  1  0.072000  0.739280  0.202760  1.0  -0.3047
  N  N114  1  0.314600  0.778780  0.463920  1.0  -0.3558
  N  N115  1  0.383900  0.830430  0.503880  1.0  -0.0305
  N  N116  1  0.397000  0.906190  0.460280  1.0  0.0094
  N  N117  1  0.336100  0.906230  0.390320  1.0  -0.3342
  N  N118  1  0.864600  0.775660  0.159030  1.0  -0.3303
  N  N119  1  0.621500  0.918160  0.363740  1.0  -0.3436
  N  N120  1  0.570400  0.990460  0.387540  1.0  0.0091
  N  N121  1  0.581200  0.057320  0.333020  1.0  -0.0754
  N  N122  1  0.640000  0.030240  0.270850  1.0  -0.3401
  N  N123  1  0.583100  0.874970  0.557650  1.0  -0.3965
  N  N124  1  0.669400  0.864400  0.571900  1.0  0.4703
  N  N125  1  0.754900  0.855100  0.585200  1.0  -0.4052
  N  N126  1  0.428000  0.239280  0.297240  1.0  -0.3029
  N  N127  1  0.185400  0.278780  0.036080  1.0  -0.3548
  N  N128  1  0.116100  0.330430  0.996120  1.0  -0.0314
  N  N129  1  0.103000  0.406190  0.039720  1.0  0.0087
  N  N130  1  0.163900  0.406230  0.109680  1.0  -0.3326
  N  N131  1  0.635400  0.275660  0.340970  1.0  -0.3277
  N  N132  1  0.878500  0.418160  0.136260  1.0  -0.3445
  N  N133  1  0.929600  0.490460  0.112460  1.0  0.0086
  N  N134  1  0.918800  0.557320  0.166980  1.0  -0.0757
  N  N135  1  0.860000  0.530240  0.229150  1.0  -0.3418
  N  N136  1  0.916900  0.374970  0.942350  1.0  -0.397
  N  N137  1  0.830600  0.364400  0.928100  1.0  0.4693
  N  N138  1  0.745100  0.355100  0.914800  1.0  -0.4056
