# generated using pymatgen
data_Cu3H16(C12N13)2
_symmetry_space_group_name_H-M   'P 1'
_cell_length_a   13.29900000
_cell_length_b   14.71000000
_cell_length_c   15.68900000
_cell_angle_alpha   90.00000000
_cell_angle_beta   93.37500000
_cell_angle_gamma   90.00000000
_symmetry_Int_Tables_number   1
_chemical_formula_structural   Cu3H16(C12N13)2
_chemical_formula_sum   'Cu6 H32 C48 N52'
_cell_volume   3063.88903136
_cell_formula_units_Z   2
loop_
 _symmetry_equiv_pos_site_id
 _symmetry_equiv_pos_as_xyz
  1  'x, y, z'
loop_
 _atom_site_type_symbol
 _atom_site_label
 _atom_site_symmetry_multiplicity
 _atom_site_fract_x
 _atom_site_fract_y
 _atom_site_fract_z
 _atom_site_occupancy
 _atom_site_charge
  Cu  Cu1  1  0.533540  0.806770  0.885970  1.0  0.7078
  Cu  Cu2  1  0.966460  0.306770  0.614030  1.0  0.7063
  Cu  Cu3  1  0.466460  0.193230  0.114030  1.0  0.7067
  Cu  Cu4  1  0.033540  0.693230  0.385970  1.0  0.7072
  Cu  Cu5  1  0.500000  0.000000  0.000000  1.0  0.7413
  Cu  Cu6  1  0.000000  0.500000  0.500000  1.0  0.7415
  H  H7  1  0.810200  0.670200  0.124500  1.0  0.1021
  H  H8  1  0.806400  0.911700  0.234500  1.0  0.1195
  H  H9  1  0.265700  0.778200  0.167300  1.0  0.1051
  H  H10  1  0.261600  0.956600  0.356900  1.0  0.1037
  H  H11  1  0.927900  0.625000  0.228000  1.0  0.078
  H  H12  1  0.920900  0.856600  0.337300  1.0  0.0664
  H  H13  1  0.157000  0.689500  0.236900  1.0  0.072
  H  H14  1  0.149400  0.864600  0.421400  1.0  0.0742
  H  H15  1  0.689800  0.170200  0.375500  1.0  0.1022
  H  H16  1  0.693600  0.411700  0.265500  1.0  0.1193
  H  H17  1  0.234300  0.278200  0.332700  1.0  0.1052
  H  H18  1  0.238400  0.456600  0.143100  1.0  0.1038
  H  H19  1  0.572100  0.125000  0.272000  1.0  0.0777
  H  H20  1  0.579100  0.356600  0.162700  1.0  0.0663
  H  H21  1  0.343000  0.189500  0.263100  1.0  0.0722
  H  H22  1  0.350600  0.364600  0.078600  1.0  0.0745
  H  H23  1  0.189800  0.329800  0.875500  1.0  0.1025
  H  H24  1  0.193600  0.088300  0.765500  1.0  0.1194
  H  H25  1  0.734300  0.221800  0.832700  1.0  0.1051
  H  H26  1  0.738400  0.043400  0.643100  1.0  0.1039
  H  H27  1  0.072100  0.375000  0.772000  1.0  0.0774
  H  H28  1  0.079100  0.143400  0.662700  1.0  0.0665
  H  H29  1  0.843000  0.310500  0.763100  1.0  0.0729
  H  H30  1  0.850600  0.135400  0.578600  1.0  0.075
  H  H31  1  0.310200  0.829800  0.624500  1.0  0.1026
  H  H32  1  0.306400  0.588300  0.734500  1.0  0.1196
  H  H33  1  0.765700  0.721800  0.667300  1.0  0.105
  H  H34  1  0.761600  0.543400  0.856900  1.0  0.1039
  H  H35  1  0.427900  0.875000  0.728000  1.0  0.0769
  H  H36  1  0.420900  0.643400  0.837300  1.0  0.0668
  H  H37  1  0.657000  0.810500  0.736900  1.0  0.0725
  H  H38  1  0.649400  0.635400  0.921400  1.0  0.0744
  C  C39  1  0.718000  0.827800  0.102600  1.0  0.3431
  C  C40  1  0.342400  0.938700  0.207400  1.0  0.3302
  C  C41  1  0.795000  0.795900  0.166700  1.0  -0.0733
  C  C42  1  0.275700  0.879600  0.253300  1.0  -0.0344
  C  C43  1  0.832200  0.711000  0.167000  1.0  -0.1275
  C  C44  1  0.829300  0.852100  0.231500  1.0  -0.156
  C  C45  1  0.243000  0.797500  0.219300  1.0  -0.162
  C  C46  1  0.240400  0.902700  0.330500  1.0  -0.1336
  C  C47  1  0.902800  0.683900  0.229800  1.0  0.1406
  C  C48  1  0.899300  0.818300  0.292800  1.0  0.1635
  C  C49  1  0.177700  0.744500  0.261300  1.0  0.1585
  C  C50  1  0.173400  0.846600  0.369500  1.0  0.1448
  C  C51  1  0.782000  0.327800  0.397400  1.0  0.3435
  C  C52  1  0.157600  0.438700  0.292600  1.0  0.3304
  C  C53  1  0.705000  0.295900  0.333333  1.0  -0.0752
  C  C54  1  0.224300  0.379600  0.246700  1.0  -0.035
  C  C55  1  0.667800  0.211000  0.333000  1.0  -0.1278
  C  C56  1  0.670700  0.352100  0.268500  1.0  -0.1559
  C  C57  1  0.257000  0.297500  0.280700  1.0  -0.161
  C  C58  1  0.259600  0.402700  0.169500  1.0  -0.1334
  C  C59  1  0.597200  0.183900  0.270200  1.0  0.1398
  C  C60  1  0.600700  0.318300  0.207200  1.0  0.163
  C  C61  1  0.322300  0.244500  0.238700  1.0  0.1592
  C  C62  1  0.326600  0.346600  0.130500  1.0  0.1441
  C  C63  1  0.282000  0.172200  0.897400  1.0  0.3431
  C  C64  1  0.657600  0.061300  0.792600  1.0  0.3303
  C  C65  1  0.205000  0.204100  0.833300  1.0  -0.0726
  C  C66  1  0.724300  0.120400  0.746700  1.0  -0.0353
  C  C67  1  0.167800  0.289000  0.833000  1.0  -0.1282
  C  C68  1  0.170700  0.147900  0.768500  1.0  -0.1594
  C  C69  1  0.757000  0.202500  0.780700  1.0  -0.1625
  C  C70  1  0.759600  0.097300  0.669500  1.0  -0.1314
  C  C71  1  0.097200  0.316100  0.770200  1.0  0.1405
  C  C72  1  0.100700  0.181700  0.707200  1.0  0.1617
  C  C73  1  0.822300  0.255500  0.738700  1.0  0.158
  C  C74  1  0.826600  0.153400  0.630500  1.0  0.1434
  C  C75  1  0.218000  0.672200  0.602600  1.0  0.3433
  C  C76  1  0.842400  0.561300  0.707400  1.0  0.3301
  C  C77  1  0.295000  0.704100  0.666667  1.0  -0.0758
  C  C78  1  0.775700  0.620400  0.753300  1.0  -0.0343
  C  C79  1  0.332200  0.789000  0.667000  1.0  -0.1282
  C  C80  1  0.329300  0.647900  0.731500  1.0  -0.1568
  C  C81  1  0.743000  0.702500  0.719300  1.0  -0.1628
  C  C82  1  0.740400  0.597300  0.830500  1.0  -0.1332
  C  C83  1  0.402800  0.816100  0.729800  1.0  0.1426
  C  C84  1  0.399300  0.681700  0.792800  1.0  0.1636
  C  C85  1  0.677700  0.755500  0.761300  1.0  0.1576
  C  C86  1  0.673400  0.653400  0.869500  1.0  0.1442
  N  N87  1  0.606800  0.906700  0.038600  1.0  0.0055
  N  N88  1  0.432200  0.986600  0.111600  1.0  -0.0093
  N  N89  1  0.424100  0.872900  0.940100  1.0  -0.3989
  N  N90  1  0.619000  0.830900  0.994200  1.0  -0.0316
  N  N91  1  0.668500  0.906600  0.107500  1.0  -0.3443
  N  N92  1  0.383700  0.913100  0.135600  1.0  -0.3412
  N  N93  1  0.420900  0.053500  0.166600  1.0  -0.0274
  N  N94  1  0.341500  0.853700  0.938500  1.0  0.4773
  N  N95  1  0.689000  0.779000  0.033000  1.0  -0.3642
  N  N96  1  0.364200  0.024800  0.227800  1.0  -0.3048
  N  N97  1  0.936100  0.737600  0.291900  1.0  -0.29
  N  N98  1  0.142300  0.768600  0.336100  1.0  -0.3338
  N  N99  1  0.258800  0.837200  0.938300  1.0  -0.4271
  N  N100  1  0.893200  0.406700  0.461400  1.0  0.0062
  N  N101  1  0.067800  0.486600  0.388400  1.0  -0.0079
  N  N102  1  0.075900  0.372900  0.559900  1.0  -0.3975
  N  N103  1  0.881000  0.330900  0.505800  1.0  -0.0298
  N  N104  1  0.831500  0.406600  0.392500  1.0  -0.3472
  N  N105  1  0.116300  0.413100  0.364400  1.0  -0.3401
  N  N106  1  0.079100  0.553500  0.333400  1.0  -0.0272
  N  N107  1  0.158500  0.353700  0.561500  1.0  0.4764
  N  N108  1  0.811000  0.279000  0.467000  1.0  -0.3648
  N  N109  1  0.135800  0.524800  0.272200  1.0  -0.3102
  N  N110  1  0.563900  0.237600  0.208100  1.0  -0.2924
  N  N111  1  0.357700  0.268600  0.163900  1.0  -0.3344
  N  N112  1  0.241200  0.337200  0.561700  1.0  -0.4242
  N  N113  1  0.393200  0.093300  0.961400  1.0  0.0066
  N  N114  1  0.567800  0.013400  0.888400  1.0  -0.0091
  N  N115  1  0.575900  0.127100  0.059900  1.0  -0.3977
  N  N116  1  0.381000  0.169100  0.005800  1.0  -0.0313
  N  N117  1  0.331500  0.093400  0.892500  1.0  -0.3458
  N  N118  1  0.616300  0.086900  0.864400  1.0  -0.3409
  N  N119  1  0.579100  0.946500  0.833400  1.0  -0.028
  N  N120  1  0.658500  0.146300  0.061500  1.0  0.4764
  N  N121  1  0.311000  0.221000  0.967000  1.0  -0.3654
  N  N122  1  0.635800  0.975200  0.772200  1.0  -0.3058
  N  N123  1  0.063900  0.262400  0.708100  1.0  -0.2915
  N  N124  1  0.857700  0.231400  0.663900  1.0  -0.334
  N  N125  1  0.741200  0.162800  0.061700  1.0  -0.4246
  N  N126  1  0.106800  0.593300  0.538600  1.0  0.0058
  N  N127  1  0.932200  0.513400  0.611600  1.0  -0.0089
  N  N128  1  0.924100  0.627100  0.440100  1.0  -0.3986
  N  N129  1  0.119000  0.669100  0.494200  1.0  -0.0318
  N  N130  1  0.168500  0.593400  0.607500  1.0  -0.3438
  N  N131  1  0.883700  0.586900  0.635600  1.0  -0.3426
  N  N132  1  0.920900  0.446500  0.666667  1.0  -0.0289
  N  N133  1  0.841500  0.646300  0.438500  1.0  0.4774
  N  N134  1  0.189000  0.721000  0.533000  1.0  -0.3637
  N  N135  1  0.864200  0.475200  0.727800  1.0  -0.3016
  N  N136  1  0.436100  0.762400  0.791900  1.0  -0.2896
  N  N137  1  0.642300  0.731400  0.836100  1.0  -0.3331
  N  N138  1  0.758800  0.662800  0.438300  1.0  -0.4278
