# generated using pymatgen
data_AlH5C8O5
_symmetry_space_group_name_H-M   'P 1'
_cell_length_a   6.65400000
_cell_length_b   16.44800000
_cell_length_c   13.37500000
_cell_angle_alpha   90.00000000
_cell_angle_beta   90.00000000
_cell_angle_gamma   90.00000000
_symmetry_Int_Tables_number   1
_chemical_formula_structural   AlH5C8O5
_chemical_formula_sum   'Al4 H20 C32 O20'
_cell_volume   1463.82676800
_cell_formula_units_Z   4
loop_
 _symmetry_equiv_pos_site_id
 _symmetry_equiv_pos_as_xyz
  1  'x, y, z'
loop_
 _atom_site_type_symbol
 _atom_site_label
 _atom_site_symmetry_multiplicity
 _atom_site_fract_x
 _atom_site_fract_y
 _atom_site_fract_z
 _atom_site_occupancy
 _atom_site_charge
  Al  Al1  1  0.246140  0.252620  0.750410  1.0  1.8459
  Al  Al2  1  0.746280  0.252630  0.750480  1.0  1.846
  Al  Al3  1  0.746030  0.752630  0.250410  1.0  1.8462
  Al  Al4  1  0.246110  0.752610  0.250490  1.0  1.8463
  H  H5  1  0.672910  0.061650  0.944640  1.0  0.1145
  H  H6  1  0.172980  0.561260  0.443980  1.0  0.1142
  H  H7  1  0.319800  0.443080  0.945630  1.0  0.1116
  H  H8  1  0.819680  0.942470  0.446410  1.0  0.1135
  H  H9  1  0.319660  0.562000  0.055920  1.0  0.1141
  H  H10  1  0.819780  0.061400  0.556670  1.0  0.1154
  H  H11  1  0.672960  0.942680  0.054830  1.0  0.1109
  H  H12  1  0.172890  0.442400  0.554360  1.0  0.1122
  H  H13  1  0.319760  0.942690  0.054780  1.0  0.1098
  H  H14  1  0.819690  0.442390  0.554420  1.0  0.1151
  H  H15  1  0.672900  0.561730  0.056190  1.0  0.113
  H  H16  1  0.173030  0.061660  0.556400  1.0  0.1142
  H  H17  1  0.673010  0.442810  0.945910  1.0  0.1086
  H  H18  1  0.172880  0.942730  0.446150  1.0  0.1102
  H  H19  1  0.319670  0.061670  0.944580  1.0  0.1156
  H  H20  1  0.819730  0.561250  0.444040  1.0  0.1129
  H  H21  1  0.496010  0.753080  0.132410  1.0  0.4788
  H  H22  1  0.496200  0.252990  0.868490  1.0  0.4804
  H  H23  1  0.996200  0.252780  0.632370  1.0  0.4775
  H  H24  1  0.996000  0.752840  0.368540  1.0  0.48
  C  C25  1  0.815410  0.036640  0.968250  1.0  -0.0727
  C  C26  1  0.315430  0.536260  0.467680  1.0  -0.0732
  C  C27  1  0.177300  0.468150  0.969110  1.0  -0.0747
  C  C28  1  0.677220  0.967670  0.469740  1.0  -0.0634
  C  C29  1  0.177220  0.536920  0.032340  1.0  -0.0748
  C  C30  1  0.677300  0.036430  0.532980  1.0  -0.0731
  C  C31  1  0.815420  0.967850  0.031450  1.0  -0.0738
  C  C32  1  0.315400  0.467540  0.530970  1.0  -0.0715
  C  C33  1  0.177260  0.967850  0.031430  1.0  -0.0691
  C  C34  1  0.677240  0.467540  0.531000  1.0  -0.0726
  C  C35  1  0.815380  0.536760  0.032490  1.0  -0.0717
  C  C36  1  0.315460  0.036570  0.532840  1.0  -0.0718
  C  C37  1  0.815460  0.468000  0.969260  1.0  -0.073
  C  C38  1  0.315380  0.967820  0.469610  1.0  -0.0726
  C  C39  1  0.177240  0.036640  0.968230  1.0  -0.0733
  C  C40  1  0.677260  0.536260  0.467700  1.0  -0.0754
  C  C41  1  0.996300  0.072590  0.935600  1.0  -0.1085
  C  C42  1  0.996250  0.145060  0.865730  1.0  0.7205
  C  C43  1  0.496350  0.572210  0.435040  1.0  -0.1052
  C  C44  1  0.496370  0.644750  0.365300  1.0  0.7222
  C  C45  1  0.996420  0.432330  0.936200  1.0  -0.1
  C  C46  1  0.996430  0.360160  0.865860  1.0  0.725
  C  C47  1  0.496250  0.932000  0.436670  1.0  -0.1028
  C  C48  1  0.496180  0.859940  0.366170  1.0  0.7241
  C  C49  1  0.996250  0.572730  0.065140  1.0  -0.104
  C  C50  1  0.996180  0.645110  0.135120  1.0  0.7201
  C  C51  1  0.496410  0.072450  0.565560  1.0  -0.1054
  C  C52  1  0.496430  0.144910  0.635410  1.0  0.72
  C  C53  1  0.996360  0.932100  0.064430  1.0  -0.0993
  C  C54  1  0.996360  0.860010  0.134870  1.0  0.7264
  C  C55  1  0.496310  0.431860  0.564080  1.0  -0.1006
  C  C56  1  0.496250  0.359890  0.634700  1.0  0.7251
  O  O57  1  0.167350  0.174170  0.836470  1.0  -0.6526
  O  O58  1  0.667430  0.673920  0.336140  1.0  -0.6511
  O  O59  1  0.825410  0.331090  0.836510  1.0  -0.6507
  O  O60  1  0.325100  0.831000  0.336670  1.0  -0.6526
  O  O61  1  0.825130  0.674200  0.164400  1.0  -0.652
  O  O62  1  0.325330  0.174110  0.664510  1.0  -0.6526
  O  O63  1  0.167410  0.831040  0.164360  1.0  -0.6516
  O  O64  1  0.667230  0.330950  0.664270  1.0  -0.6501
  O  O65  1  0.825330  0.831000  0.164300  1.0  -0.6496
  O  O66  1  0.325240  0.330930  0.664180  1.0  -0.6522
  O  O67  1  0.167200  0.674250  0.164370  1.0  -0.6522
  O  O68  1  0.667510  0.174020  0.664650  1.0  -0.6516
  O  O69  1  0.167440  0.331180  0.836380  1.0  -0.6519
  O  O70  1  0.667230  0.830940  0.336700  1.0  -0.6502
  O  O71  1  0.825120  0.174190  0.836560  1.0  -0.6511
  O  O72  1  0.325310  0.673960  0.336210  1.0  -0.6499
  O  O73  1  0.996210  0.252680  0.696820  1.0  -1.1232
  O  O74  1  0.496050  0.752810  0.196870  1.0  -1.1216
  O  O75  1  0.996040  0.752710  0.304090  1.0  -1.1202
  O  O76  1  0.496200  0.252780  0.804040  1.0  -1.1209
