# generated using pymatgen
data_AlC8O5
_symmetry_space_group_name_H-M   'P 1'
_cell_length_a   6.62300000
_cell_length_b   16.89300000
_cell_length_c   12.59200000
_cell_angle_alpha   90.00000000
_cell_angle_beta   90.00000000
_cell_angle_gamma   90.00000000
_symmetry_Int_Tables_number   1
_chemical_formula_structural   AlC8O5
_chemical_formula_sum   'Al4 C32 O20'
_cell_volume   1408.82241269
_cell_formula_units_Z   4
loop_
 _symmetry_equiv_pos_site_id
 _symmetry_equiv_pos_as_xyz
  1  'x, y, z'
loop_
 _atom_site_type_symbol
 _atom_site_label
 _atom_site_symmetry_multiplicity
 _atom_site_fract_x
 _atom_site_fract_y
 _atom_site_fract_z
 _atom_site_occupancy
 _atom_site_charge
  Al  Al1  1  0.250000  0.250000  0.750000  1.0  1.9153
  Al  Al2  1  0.750000  0.250000  0.750000  1.0  1.9153
  Al  Al3  1  0.750000  0.750000  0.250000  1.0  1.9153
  Al  Al4  1  0.250000  0.750000  0.250000  1.0  1.9153
  C  C5  1  0.804200  0.036100  0.974090  1.0  0.0317
  C  C6  1  0.304200  0.536100  0.474090  1.0  0.0317
  C  C7  1  0.195800  0.463900  0.974090  1.0  0.0354
  C  C8  1  0.695800  0.963900  0.474090  1.0  0.0354
  C  C9  1  0.195800  0.536100  0.025910  1.0  0.0346
  C  C10  1  0.695800  0.036100  0.525910  1.0  0.0346
  C  C11  1  0.804200  0.963900  0.025910  1.0  0.0312
  C  C12  1  0.304200  0.463900  0.525910  1.0  0.0312
  C  C13  1  0.195800  0.963900  0.025910  1.0  0.0354
  C  C14  1  0.695800  0.463900  0.525910  1.0  0.0354
  C  C15  1  0.804200  0.536100  0.025910  1.0  0.0317
  C  C16  1  0.304200  0.036100  0.525910  1.0  0.0317
  C  C17  1  0.804200  0.463900  0.974090  1.0  0.0315
  C  C18  1  0.304200  0.963900  0.474090  1.0  0.0315
  C  C19  1  0.195800  0.036100  0.974090  1.0  0.0346
  C  C20  1  0.695800  0.536100  0.474090  1.0  0.0346
  C  C21  1  0.000000  0.059870  0.957110  1.0  0.0482
  C  C22  1  0.000000  0.129110  0.883110  1.0  0.5166
  C  C23  1  0.500000  0.559870  0.457110  1.0  0.0482
  C  C24  1  0.500000  0.629110  0.383110  1.0  0.5166
  C  C25  1  0.000000  0.440130  0.957110  1.0  0.0478
  C  C26  1  0.000000  0.370890  0.883110  1.0  0.5169
  C  C27  1  0.500000  0.940130  0.457110  1.0  0.0478
  C  C28  1  0.500000  0.870890  0.383110  1.0  0.5169
  C  C29  1  0.000000  0.559870  0.042890  1.0  0.0483
  C  C30  1  0.000000  0.629110  0.116890  1.0  0.5166
  C  C31  1  0.500000  0.059870  0.542890  1.0  0.0483
  C  C32  1  0.500000  0.129110  0.616890  1.0  0.5166
  C  C33  1  0.000000  0.940130  0.042890  1.0  0.0482
  C  C34  1  0.000000  0.870890  0.116890  1.0  0.5164
  C  C35  1  0.500000  0.440130  0.542890  1.0  0.0482
  C  C36  1  0.500000  0.370890  0.616890  1.0  0.5164
  O  O37  1  0.155900  0.166900  0.841820  1.0  -0.5967
  O  O38  1  0.655900  0.666900  0.341820  1.0  -0.5967
  O  O39  1  0.844100  0.333100  0.841820  1.0  -0.5967
  O  O40  1  0.344100  0.833100  0.341820  1.0  -0.5967
  O  O41  1  0.844100  0.666900  0.158180  1.0  -0.5974
  O  O42  1  0.344100  0.166900  0.658180  1.0  -0.5974
  O  O43  1  0.155900  0.833100  0.158180  1.0  -0.5975
  O  O44  1  0.655900  0.333100  0.658180  1.0  -0.5975
  O  O45  1  0.844100  0.833100  0.158180  1.0  -0.5974
  O  O46  1  0.344100  0.333100  0.658180  1.0  -0.5974
  O  O47  1  0.155900  0.666900  0.158180  1.0  -0.5977
  O  O48  1  0.655900  0.166900  0.658180  1.0  -0.5977
  O  O49  1  0.155900  0.333100  0.841820  1.0  -0.5966
  O  O50  1  0.655900  0.833100  0.341820  1.0  -0.5966
  O  O51  1  0.844100  0.166900  0.841820  1.0  -0.5965
  O  O52  1  0.344100  0.666900  0.341820  1.0  -0.5965
  O  O53  1  0.000000  0.250000  0.692970  1.0  -0.79
  O  O54  1  0.500000  0.750000  0.192970  1.0  -0.79
  O  O55  1  0.000000  0.750000  0.307030  1.0  -0.7891
  O  O56  1  0.500000  0.250000  0.807030  1.0  -0.7891
