# generated using pymatgen
data_Mn5P4H8(CO3)8
_symmetry_space_group_name_H-M   'P 1'
_cell_length_a   5.62400000
_cell_length_b   10.30300000
_cell_length_c   13.26900000
_cell_angle_alpha   79.44500000
_cell_angle_beta   83.89300000
_cell_angle_gamma   76.48800000
_symmetry_Int_Tables_number   1
_chemical_formula_structural   Mn5P4H8(CO3)8
_chemical_formula_sum   'Mn5 P4 H8 C8 O24'
_cell_volume   733.30135773
_cell_formula_units_Z   1
loop_
 _symmetry_equiv_pos_site_id
 _symmetry_equiv_pos_as_xyz
  1  'x, y, z'
loop_
 _atom_site_type_symbol
 _atom_site_label
 _atom_site_symmetry_multiplicity
 _atom_site_fract_x
 _atom_site_fract_y
 _atom_site_fract_z
 _atom_site_occupancy
 _atom_site_charge
  Mn  Mn1  1  0.320400  0.077450  0.405490  1.0  1.1901
  Mn  Mn2  1  0.600200  0.617500  0.342440  1.0  1.1597
  Mn  Mn3  1  0.679600  0.922550  0.594510  1.0  1.1904
  Mn  Mn4  1  0.399800  0.382500  0.657560  1.0  1.1611
  Mn  Mn5  1  0.000000  0.000000  0.000000  1.0  1.1835
  P  P6  1  0.512700  0.853400  0.119200  1.0  1.6076
  P  P7  1  0.739500  0.224300  0.472400  1.0  1.5737
  P  P8  1  0.487300  0.146600  0.880800  1.0  1.6103
  P  P9  1  0.260500  0.775700  0.527600  1.0  1.5761
  H  H10  1  0.630400  0.927000  0.280800  1.0  0.4275
  H  H11  1  0.979100  0.386500  0.315200  1.0  0.4296
  H  H12  1  0.435100  0.083000  0.125900  1.0  0.1254
  H  H13  1  0.774200  0.241500  0.292100  1.0  0.1476
  H  H14  1  0.369600  0.073000  0.719200  1.0  0.426
  H  H15  1  0.020900  0.613500  0.684800  1.0  0.4294
  H  H16  1  0.564900  0.917000  0.874100  1.0  0.125
  H  H17  1  0.225800  0.758500  0.707900  1.0  0.1482
  C  C18  1  0.409000  0.007000  0.177200  1.0  -0.0511
  C  C19  1  0.140000  0.033500  0.214800  1.0  0.719
  C  C20  1  0.707000  0.307100  0.338400  1.0  -0.2615
  C  C21  1  0.437000  0.365200  0.322600  1.0  0.6668
  C  C22  1  0.591000  0.993000  0.822800  1.0  -0.0516
  C  C23  1  0.860000  0.966500  0.785200  1.0  0.7202
  C  C24  1  0.293000  0.692900  0.661600  1.0  -0.2626
  C  C25  1  0.563000  0.634800  0.677400  1.0  0.6667
  O  O26  1  0.330500  0.857000  0.041600  1.0  -0.7545
  O  O27  1  0.771200  0.853400  0.073000  1.0  -0.8631
  O  O28  1  0.514700  0.733300  0.203400  1.0  -0.8089
  O  O29  1  0.553100  0.004400  0.262700  1.0  -0.6256
  O  O30  1  0.982200  0.051600  0.152100  1.0  -0.5719
  O  O31  1  0.087400  0.031900  0.308000  1.0  -0.5533
  O  O32  1  0.617300  0.333400  0.535300  1.0  -0.811
  O  O33  1  0.008500  0.179000  0.487300  1.0  -0.7685
  O  O34  1  0.608600  0.107400  0.485800  1.0  -0.8854
  O  O35  1  0.830500  0.416700  0.316500  1.0  -0.5794
  O  O36  1  0.304600  0.285800  0.316900  1.0  -0.5614
  O  O37  1  0.363700  0.491200  0.314200  1.0  -0.543
  O  O38  1  0.669500  0.143000  0.958400  1.0  -0.7564
  O  O39  1  0.228800  0.146600  0.927000  1.0  -0.8641
  O  O40  1  0.485300  0.266700  0.796600  1.0  -0.8107
  O  O41  1  0.446900  0.995600  0.737300  1.0  -0.6256
  O  O42  1  0.017800  0.948400  0.847900  1.0  -0.5725
  O  O43  1  0.912600  0.968100  0.692000  1.0  -0.5531
  O  O44  1  0.382700  0.666667  0.464700  1.0  -0.8122
  O  O45  1  0.991500  0.821000  0.512700  1.0  -0.7699
  O  O46  1  0.391400  0.892600  0.514200  1.0  -0.8844
  O  O47  1  0.169500  0.583300  0.683500  1.0  -0.578
  O  O48  1  0.695400  0.714200  0.683100  1.0  -0.5611
  O  O49  1  0.636300  0.508800  0.685800  1.0  -0.5428
