# generated using pymatgen
data_ZnGa(PO4)2
_symmetry_space_group_name_H-M   'P 1'
_cell_length_a   14.31960000
_cell_length_b   16.25500000
_cell_length_c   8.85520000
_cell_angle_alpha   90.00000000
_cell_angle_beta   90.13400000
_cell_angle_gamma   90.00000000
_symmetry_Int_Tables_number   1
_chemical_formula_structural   ZnGa(PO4)2
_chemical_formula_sum   'Zn8 Ga8 P16 O64'
_cell_volume   2061.17585878
_cell_formula_units_Z   8
loop_
 _symmetry_equiv_pos_site_id
 _symmetry_equiv_pos_as_xyz
  1  'x, y, z'
loop_
 _atom_site_type_symbol
 _atom_site_label
 _atom_site_symmetry_multiplicity
 _atom_site_fract_x
 _atom_site_fract_y
 _atom_site_fract_z
 _atom_site_occupancy
 _atom_site_charge
  Zn  Zn1  1  0.131630  0.161460  0.190650  1.0  1.1437
  Zn  Zn2  1  0.364690  0.038200  0.421920  1.0  1.1447
  Zn  Zn3  1  0.868370  0.661460  0.309350  1.0  1.1436
  Zn  Zn4  1  0.635310  0.538200  0.078080  1.0  1.1433
  Zn  Zn5  1  0.868370  0.838540  0.809350  1.0  1.1424
  Zn  Zn6  1  0.635310  0.961800  0.578080  1.0  1.1433
  Zn  Zn7  1  0.131630  0.338540  0.690650  1.0  1.1428
  Zn  Zn8  1  0.364690  0.461800  0.921920  1.0  1.1445
  Ga  Ga9  1  0.973180  0.129120  0.586790  1.0  1.6269
  Ga  Ga10  1  0.463460  0.270240  0.365630  1.0  1.6758
  Ga  Ga11  1  0.026820  0.629120  0.913210  1.0  1.6267
  Ga  Ga12  1  0.536540  0.770240  0.134370  1.0  1.6758
  Ga  Ga13  1  0.026820  0.870880  0.413210  1.0  1.6319
  Ga  Ga14  1  0.536540  0.729760  0.634370  1.0  1.6766
  Ga  Ga15  1  0.973180  0.370880  0.086790  1.0  1.6312
  Ga  Ga16  1  0.463460  0.229760  0.865630  1.0  1.6766
  P  P17  1  0.137600  0.031310  0.447370  1.0  1.876
  P  P18  1  0.025290  0.212270  0.888040  1.0  1.829
  P  P19  1  0.527570  0.131430  0.588000  1.0  1.9544
  P  P20  1  0.354840  0.152970  0.146620  1.0  1.9571
  P  P21  1  0.862400  0.531310  0.052630  1.0  1.8745
  P  P22  1  0.974710  0.712270  0.611960  1.0  1.8297
  P  P23  1  0.472430  0.631430  0.912000  1.0  1.9483
  P  P24  1  0.645160  0.652970  0.353380  1.0  1.9571
  P  P25  1  0.862400  0.968690  0.552630  1.0  1.8702
  P  P26  1  0.974710  0.787730  0.111960  1.0  1.8297
  P  P27  1  0.472430  0.868570  0.412000  1.0  1.951
  P  P28  1  0.645160  0.847030  0.853380  1.0  1.9568
  P  P29  1  0.137600  0.468690  0.947370  1.0  1.8716
  P  P30  1  0.025290  0.287730  0.388040  1.0  1.8291
  P  P31  1  0.527570  0.368570  0.088000  1.0  1.9572
  P  P32  1  0.354840  0.347030  0.646620  1.0  1.9565
  O  O33  1  0.082300  0.066600  0.581400  1.0  -0.8188
  O  O34  1  0.097900  0.063200  0.298800  1.0  -0.7706
  O  O35  1  0.130600  0.936800  0.452400  1.0  -0.7734
  O  O36  1  0.238500  0.056700  0.473500  1.0  -0.8422
  O  O37  1  0.053200  0.153200  0.014100  1.0  -0.7798
  O  O38  1  0.958600  0.165500  0.783800  1.0  -0.788
  O  O39  1  0.112400  0.239800  0.801500  1.0  -0.7815
  O  O40  1  0.971600  0.285900  0.948500  1.0  -0.9066
  O  O41  1  0.430900  0.092800  0.580200  1.0  -0.8086
  O  O42  1  0.538200  0.198200  0.469000  1.0  -0.8757
  O  O43  1  0.605600  0.072000  0.559300  1.0  -0.8561
  O  O44  1  0.542400  0.167700  0.744900  1.0  -0.7882
  O  O45  1  0.253000  0.145700  0.107000  1.0  -0.8513
  O  O46  1  0.409900  0.156600  0.998200  1.0  -0.8982
  O  O47  1  0.392200  0.076200  0.226100  1.0  -0.7767
  O  O48  1  0.369000  0.228300  0.244700  1.0  -0.8855
  O  O49  1  0.917700  0.566600  0.918600  1.0  -0.8186
  O  O50  1  0.902100  0.563200  0.201200  1.0  -0.77
  O  O51  1  0.869400  0.436800  0.047600  1.0  -0.7734
  O  O52  1  0.761500  0.556700  0.026500  1.0  -0.8437
  O  O53  1  0.946800  0.653200  0.485900  1.0  -0.7793
  O  O54  1  0.041400  0.665500  0.716200  1.0  -0.7903
  O  O55  1  0.887600  0.739800  0.698500  1.0  -0.7811
  O  O56  1  0.028400  0.785900  0.551500  1.0  -0.9071
  O  O57  1  0.569100  0.592800  0.919800  1.0  -0.8105
  O  O58  1  0.461800  0.698200  0.031000  1.0  -0.8785
  O  O59  1  0.394400  0.572000  0.940700  1.0  -0.8558
  O  O60  1  0.457600  0.667700  0.755100  1.0  -0.7873
  O  O61  1  0.747000  0.645700  0.393000  1.0  -0.8516
  O  O62  1  0.590100  0.656600  0.501800  1.0  -0.8992
  O  O63  1  0.607800  0.576200  0.273900  1.0  -0.7765
  O  O64  1  0.631000  0.728300  0.255300  1.0  -0.885
  O  O65  1  0.917700  0.933400  0.418600  1.0  -0.8186
  O  O66  1  0.902100  0.936800  0.701200  1.0  -0.7702
  O  O67  1  0.869400  0.063200  0.547600  1.0  -0.7731
  O  O68  1  0.761500  0.943300  0.526500  1.0  -0.8441
  O  O69  1  0.946800  0.846800  0.985900  1.0  -0.7798
  O  O70  1  0.041400  0.834500  0.216200  1.0  -0.7901
  O  O71  1  0.887600  0.760200  0.198500  1.0  -0.7812
  O  O72  1  0.028400  0.714100  0.051500  1.0  -0.9078
  O  O73  1  0.569100  0.907200  0.419800  1.0  -0.8098
  O  O74  1  0.461800  0.801800  0.531000  1.0  -0.8782
  O  O75  1  0.394400  0.928000  0.440700  1.0  -0.8576
  O  O76  1  0.457600  0.832300  0.255100  1.0  -0.7876
  O  O77  1  0.747000  0.854300  0.893000  1.0  -0.8516
  O  O78  1  0.590100  0.843400  0.001800  1.0  -0.8982
  O  O79  1  0.607800  0.923800  0.773900  1.0  -0.7753
  O  O80  1  0.631000  0.771700  0.755300  1.0  -0.8842
  O  O81  1  0.082300  0.433400  0.081400  1.0  -0.819
  O  O82  1  0.097900  0.436800  0.798800  1.0  -0.7705
  O  O83  1  0.130600  0.563200  0.952400  1.0  -0.7727
  O  O84  1  0.238500  0.443300  0.973500  1.0  -0.8435
  O  O85  1  0.053200  0.346800  0.514100  1.0  -0.7801
  O  O86  1  0.958600  0.334500  0.283800  1.0  -0.7881
  O  O87  1  0.112400  0.260200  0.301500  1.0  -0.7816
  O  O88  1  0.971600  0.214100  0.448500  1.0  -0.9063
  O  O89  1  0.430900  0.407200  0.080200  1.0  -0.8091
  O  O90  1  0.538200  0.301800  0.969000  1.0  -0.8761
  O  O91  1  0.605600  0.428000  0.059300  1.0  -0.8574
  O  O92  1  0.542400  0.332300  0.244900  1.0  -0.7883
  O  O93  1  0.253000  0.354300  0.607000  1.0  -0.8514
  O  O94  1  0.409900  0.343400  0.498200  1.0  -0.8975
  O  O95  1  0.392200  0.423800  0.726100  1.0  -0.775
  O  O96  1  0.369000  0.271700  0.744700  1.0  -0.8845
