# generated using pymatgen
data_Co3H18(C4O7)2
_symmetry_space_group_name_H-M   'P 1'
_cell_length_a   6.46800000
_cell_length_b   9.93910000
_cell_length_c   9.93910000
_cell_angle_alpha   119.44800000
_cell_angle_beta   105.37600000
_cell_angle_gamma   74.62430000
_symmetry_Int_Tables_number   1
_chemical_formula_structural   Co3H18(C4O7)2
_chemical_formula_sum   'Co3 H18 C8 O14'
_cell_volume   529.52230505
_cell_formula_units_Z   1
loop_
 _symmetry_equiv_pos_site_id
 _symmetry_equiv_pos_as_xyz
  1  'x, y, z'
loop_
 _atom_site_type_symbol
 _atom_site_label
 _atom_site_symmetry_multiplicity
 _atom_site_fract_x
 _atom_site_fract_y
 _atom_site_fract_z
 _atom_site_occupancy
 _atom_site_charge
  Co  Co1  1  0.500000  0.000000  0.000000  1.0  1.1546
  Co  Co2  1  0.000000  0.847740  0.847740  1.0  1.0293
  Co  Co3  1  0.000000  0.152260  0.152260  1.0  1.0313
  H  H4  1  0.688200  0.577800  0.062400  1.0  0.1383
  H  H5  1  0.615500  0.455700  0.883900  1.0  0.1238
  H  H6  1  0.722500  0.676900  0.795300  1.0  0.4252
  H  H7  1  0.941600  0.673500  0.803300  1.0  0.3088
  H  H8  1  0.311800  0.062400  0.577800  1.0  0.1393
  H  H9  1  0.384500  0.883900  0.455700  1.0  0.121
  H  H10  1  0.277500  0.795300  0.676900  1.0  0.428
  H  H11  1  0.058400  0.803300  0.673500  1.0  0.3065
  H  H12  1  0.311800  0.422200  0.937600  1.0  0.1383
  H  H13  1  0.384500  0.544300  0.116100  1.0  0.1226
  H  H14  1  0.277500  0.323100  0.204700  1.0  0.4246
  H  H15  1  0.058400  0.326500  0.196700  1.0  0.3069
  H  H16  1  0.688200  0.937600  0.422200  1.0  0.1389
  H  H17  1  0.615500  0.116100  0.544300  1.0  0.1204
  H  H18  1  0.722500  0.204700  0.323100  1.0  0.4283
  H  H19  1  0.941600  0.196700  0.326500  1.0  0.3062
  H  H20  1  0.157300  0.082100  0.917900  1.0  0.4538
  H  H21  1  0.842700  0.917900  0.082100  1.0  0.4516
  C  C22  1  0.428000  0.681910  0.957890  1.0  0.7425
  C  C23  1  0.561000  0.545440  0.986960  1.0  -0.2961
  C  C24  1  0.572000  0.957890  0.681910  1.0  0.7463
  C  C25  1  0.439000  0.986960  0.545440  1.0  -0.2998
  C  C26  1  0.572000  0.318090  0.042110  1.0  0.7427
  C  C27  1  0.439000  0.454560  0.013040  1.0  -0.2966
  C  C28  1  0.428000  0.042110  0.318090  1.0  0.7452
  C  C29  1  0.561000  0.013040  0.454560  1.0  -0.298
  O  O30  1  0.225500  0.710370  0.953030  1.0  -0.6105
  O  O31  1  0.532900  0.758840  0.937740  1.0  -0.6484
  O  O32  1  0.821500  0.657890  0.739710  1.0  -0.7123
  O  O33  1  0.774500  0.953030  0.710370  1.0  -0.6132
  O  O34  1  0.467100  0.937740  0.758840  1.0  -0.6505
  O  O35  1  0.178500  0.739710  0.657890  1.0  -0.7056
  O  O36  1  0.774500  0.289630  0.046970  1.0  -0.6105
  O  O37  1  0.467100  0.241160  0.062260  1.0  -0.6484
  O  O38  1  0.178500  0.342110  0.260290  1.0  -0.7132
  O  O39  1  0.225500  0.046970  0.289630  1.0  -0.6138
  O  O40  1  0.532900  0.062260  0.241160  1.0  -0.6509
  O  O41  1  0.821500  0.260290  0.342110  1.0  -0.7042
  O  O42  1  0.168300  0.034580  0.965420  1.0  -0.9996
  O  O43  1  0.831700  0.965420  0.034580  1.0  -1.003
