# generated using pymatgen
data_Co3H16C30NO14
_symmetry_space_group_name_H-M   'P 1'
_cell_length_a   18.14800000
_cell_length_b   9.66500000
_cell_length_c   30.96900000
_cell_angle_alpha   90.00000000
_cell_angle_beta   90.39000000
_cell_angle_gamma   90.00000000
_symmetry_Int_Tables_number   1
_chemical_formula_structural   Co3H16C30NO14
_chemical_formula_sum   'Co12 H64 C120 N4 O56'
_cell_volume   5431.84976948
_cell_formula_units_Z   4
loop_
 _symmetry_equiv_pos_site_id
 _symmetry_equiv_pos_as_xyz
  1  'x, y, z'
loop_
 _atom_site_type_symbol
 _atom_site_label
 _atom_site_symmetry_multiplicity
 _atom_site_fract_x
 _atom_site_fract_y
 _atom_site_fract_z
 _atom_site_occupancy
 _atom_site_charge
  Co  Co1  1  0.248380  0.777830  0.358530  1.0  1.12
  Co  Co2  1  0.750780  0.402840  0.358360  1.0  1.0074
  Co  Co3  1  0.251450  0.831800  0.251260  1.0  1.1497
  Co  Co4  1  0.751620  0.277830  0.141470  1.0  1.12
  Co  Co5  1  0.249220  0.902840  0.141640  1.0  1.0104
  Co  Co6  1  0.748550  0.331800  0.248740  1.0  1.1503
  Co  Co7  1  0.751620  0.222170  0.641470  1.0  1.1205
  Co  Co8  1  0.249220  0.597160  0.641640  1.0  1.0093
  Co  Co9  1  0.748550  0.168200  0.748740  1.0  1.1501
  Co  Co10  1  0.248380  0.722170  0.858530  1.0  1.1201
  Co  Co11  1  0.750780  0.097160  0.858360  1.0  1.0062
  Co  Co12  1  0.251450  0.668200  0.751260  1.0  1.1496
  H  H13  1  0.331500  0.521300  0.244300  1.0  0.0983
  H  H14  1  0.160500  0.332100  0.302600  1.0  0.1247
  H  H15  1  0.416700  0.083000  0.256300  1.0  0.1014
  H  H16  1  0.912300  0.063500  0.255500  1.0  0.1006
  H  H17  1  0.362000  0.560000  0.570500  1.0  0.0945
  H  H18  1  0.177000  0.143500  0.259300  1.0  0.0933
  H  H19  1  0.027300  0.952500  0.252900  1.0  0.1145
  H  H20  1  0.344900  0.332500  0.199600  1.0  0.1179
  H  H21  1  0.526500  0.202200  0.252400  1.0  0.106
  H  H22  1  0.445100  0.038500  0.383200  1.0  0.1068
  H  H23  1  0.946300  0.154400  0.379700  1.0  0.1176
  H  H24  1  0.176400  0.741100  0.492400  1.0  0.1082
  H  H25  1  0.167400  0.715500  0.566100  1.0  0.1029
  H  H26  1  0.058800  0.042400  0.377900  1.0  0.1115
  H  H27  1  0.550400  0.164400  0.381200  1.0  0.1211
  H  H28  1  0.373700  0.584300  0.498300  1.0  0.1056
  H  H29  1  0.668500  0.021300  0.255700  1.0  0.0988
  H  H30  1  0.839500  0.832100  0.197400  1.0  0.1243
  H  H31  1  0.583300  0.583000  0.243700  1.0  0.1014
  H  H32  1  0.087700  0.563500  0.244500  1.0  0.1008
  H  H33  1  0.638000  0.060000  0.929500  1.0  0.0942
  H  H34  1  0.823000  0.643500  0.240700  1.0  0.0936
  H  H35  1  0.972700  0.452500  0.247100  1.0  0.1147
  H  H36  1  0.655100  0.832500  0.300400  1.0  0.1191
  H  H37  1  0.473500  0.702200  0.247600  1.0  0.1058
  H  H38  1  0.554900  0.538500  0.116800  1.0  0.1067
  H  H39  1  0.053700  0.654400  0.120300  1.0  0.117
  H  H40  1  0.823600  0.241100  0.007600  1.0  0.1078
  H  H41  1  0.832600  0.215500  0.933900  1.0  0.1035
  H  H42  1  0.941200  0.542400  0.122100  1.0  0.1115
  H  H43  1  0.449600  0.664400  0.118800  1.0  0.1212
  H  H44  1  0.626300  0.084300  0.001700  1.0  0.1066
  H  H45  1  0.668500  0.478700  0.755700  1.0  0.0988
  H  H46  1  0.839500  0.667900  0.697400  1.0  0.1241
  H  H47  1  0.583300  0.917000  0.743700  1.0  0.1013
  H  H48  1  0.087700  0.936500  0.744500  1.0  0.1007
  H  H49  1  0.638000  0.440000  0.429500  1.0  0.0944
  H  H50  1  0.823000  0.856500  0.740700  1.0  0.0933
  H  H51  1  0.972700  0.047500  0.747100  1.0  0.1144
  H  H52  1  0.655100  0.667500  0.800400  1.0  0.1188
  H  H53  1  0.473500  0.797800  0.747600  1.0  0.1058
  H  H54  1  0.554900  0.961500  0.616800  1.0  0.1067
  H  H55  1  0.053700  0.845600  0.620300  1.0  0.1171
  H  H56  1  0.823600  0.258900  0.507600  1.0  0.108
  H  H57  1  0.832600  0.284500  0.433900  1.0  0.1037
  H  H58  1  0.941200  0.957600  0.622100  1.0  0.1116
  H  H59  1  0.449600  0.835600  0.618800  1.0  0.1209
  H  H60  1  0.626300  0.415700  0.501700  1.0  0.1061
  H  H61  1  0.331500  0.978700  0.744300  1.0  0.099
  H  H62  1  0.160500  0.167900  0.802600  1.0  0.1248
  H  H63  1  0.416700  0.417000  0.756300  1.0  0.1013
  H  H64  1  0.912300  0.436500  0.755500  1.0  0.1008
  H  H65  1  0.362000  0.940000  0.070500  1.0  0.0946
  H  H66  1  0.177000  0.356500  0.759300  1.0  0.0934
  H  H67  1  0.027300  0.547500  0.752900  1.0  0.1141
  H  H68  1  0.344900  0.167500  0.699600  1.0  0.1179
  H  H69  1  0.526500  0.297800  0.752400  1.0  0.1059
  H  H70  1  0.445100  0.461500  0.883200  1.0  0.1068
  H  H71  1  0.946300  0.345600  0.879700  1.0  0.1177
  H  H72  1  0.176400  0.758900  0.992400  1.0  0.1083
  H  H73  1  0.167400  0.784500  0.066100  1.0  0.1033
  H  H74  1  0.058800  0.457600  0.877900  1.0  0.1116
  H  H75  1  0.550400  0.335600  0.881200  1.0  0.121
  H  H76  1  0.373700  0.915700  0.998300  1.0  0.1063
  C  C77  1  0.260700  0.218400  0.224200  1.0  -0.1529
  C  C78  1  0.348800  0.967400  0.321800  1.0  0.7226
  C  C79  1  0.553100  0.191800  0.315200  1.0  -0.1389
  C  C80  1  0.419600  0.047500  0.320600  1.0  -0.1391
  C  C81  1  0.844600  0.195000  0.318500  1.0  0.7316
  C  C82  1  0.300300  0.445700  0.247400  1.0  -0.0167
  C  C83  1  0.054900  0.987300  0.315600  1.0  -0.1447
  C  C84  1  0.918400  0.119400  0.317200  1.0  -0.1339
  C  C85  1  0.246500  0.447400  0.278900  1.0  -0.1172
  C  C86  1  0.237600  0.566100  0.308700  1.0  0.672
  C  C87  1  0.127100  0.913400  0.313900  1.0  0.7091
  C  C88  1  0.624900  0.265000  0.312700  1.0  0.7154
  C  C89  1  0.198100  0.331600  0.282400  1.0  -0.0807
  C  C90  1  0.444500  0.097500  0.281300  1.0  -0.0399
  C  C91  1  0.941900  0.060000  0.280100  1.0  -0.0239
  C  C92  1  0.322300  0.594900  0.554700  1.0  0.1816
  C  C93  1  0.207400  0.220200  0.255900  1.0  -0.0081
  C  C94  1  0.011200  0.992600  0.278400  1.0  -0.0311
  C  C95  1  0.308100  0.332800  0.220400  1.0  -0.0438
  C  C96  1  0.510600  0.169100  0.279000  1.0  -0.049
  C  C97  1  0.461300  0.072600  0.356800  1.0  -0.0317
  C  C98  1  0.962200  0.113700  0.354300  1.0  -0.0461
  C  C99  1  0.215500  0.702700  0.507800  1.0  -0.0698
  C  C100  1  0.209600  0.685000  0.552100  1.0  0.1342
  C  C101  1  0.029900  0.046900  0.353000  1.0  -0.0348
  C  C102  1  0.524900  0.145100  0.355700  1.0  -0.0753
  C  C103  1  0.266900  0.098900  0.194900  1.0  0.6911
  C  C104  1  0.276900  0.665400  0.486700  1.0  -0.0736
  C  C105  1  0.283900  0.689700  0.439100  1.0  0.6883
  C  C106  1  0.329900  0.611600  0.511200  1.0  -0.0641
  C  C107  1  0.739300  0.718400  0.275800  1.0  -0.1532
  C  C108  1  0.651200  0.467400  0.178200  1.0  0.723
  C  C109  1  0.446900  0.691800  0.184800  1.0  -0.1369
  C  C110  1  0.580400  0.547500  0.179400  1.0  -0.1393
  C  C111  1  0.155400  0.695000  0.181500  1.0  0.7311
  C  C112  1  0.699700  0.945700  0.252600  1.0  -0.0168
  C  C113  1  0.945100  0.487300  0.184400  1.0  -0.1454
  C  C114  1  0.081600  0.619400  0.182800  1.0  -0.1335
  C  C115  1  0.753500  0.947400  0.221100  1.0  -0.1161
  C  C116  1  0.762400  0.066100  0.191300  1.0  0.6698
  C  C117  1  0.872900  0.413400  0.186100  1.0  0.7112
  C  C118  1  0.375100  0.765000  0.187300  1.0  0.7159
  C  C119  1  0.801900  0.831600  0.217600  1.0  -0.0827
  C  C120  1  0.555500  0.597500  0.218700  1.0  -0.0421
  C  C121  1  0.058100  0.560000  0.219900  1.0  -0.0242
  C  C122  1  0.677700  0.094900  0.945300  1.0  0.1823
  C  C123  1  0.792600  0.720200  0.244100  1.0  -0.0089
  C  C124  1  0.988800  0.492600  0.221600  1.0  -0.0317
  C  C125  1  0.691900  0.832800  0.279600  1.0  -0.0416
  C  C126  1  0.489400  0.669100  0.221000  1.0  -0.0481
  C  C127  1  0.538700  0.572600  0.143200  1.0  -0.0314
  C  C128  1  0.037800  0.613700  0.145700  1.0  -0.0433
  C  C129  1  0.784500  0.202700  0.992200  1.0  -0.0683
  C  C130  1  0.790400  0.185000  0.947900  1.0  0.1352
  C  C131  1  0.970100  0.546900  0.147000  1.0  -0.0347
  C  C132  1  0.475100  0.645100  0.144300  1.0  -0.0758
  C  C133  1  0.733100  0.598900  0.305100  1.0  0.6917
  C  C134  1  0.723100  0.165400  0.013300  1.0  -0.0731
  C  C135  1  0.716100  0.189700  0.060900  1.0  0.688
  C  C136  1  0.670100  0.111600  0.988800  1.0  -0.0637
  C  C137  1  0.739300  0.781600  0.775800  1.0  -0.1537
  C  C138  1  0.651200  0.032600  0.678200  1.0  0.7232
  C  C139  1  0.446900  0.808200  0.684800  1.0  -0.1373
  C  C140  1  0.580400  0.952500  0.679400  1.0  -0.1387
  C  C141  1  0.155400  0.805000  0.681500  1.0  0.7311
  C  C142  1  0.699700  0.554300  0.752600  1.0  -0.0169
  C  C143  1  0.945100  0.012700  0.684400  1.0  -0.1445
  C  C144  1  0.081600  0.880600  0.682800  1.0  -0.1334
  C  C145  1  0.753500  0.552600  0.721100  1.0  -0.1168
  C  C146  1  0.762400  0.433900  0.691300  1.0  0.6701
  C  C147  1  0.872900  0.086600  0.686100  1.0  0.7113
  C  C148  1  0.375100  0.735000  0.687300  1.0  0.7155
  C  C149  1  0.801900  0.668400  0.717600  1.0  -0.083
  C  C150  1  0.555500  0.902500  0.718700  1.0  -0.0421
  C  C151  1  0.058100  0.940000  0.719900  1.0  -0.024
  C  C152  1  0.677700  0.405100  0.445300  1.0  0.1828
  C  C153  1  0.792600  0.779800  0.744100  1.0  -0.0084
  C  C154  1  0.988800  0.007400  0.721600  1.0  -0.0322
  C  C155  1  0.691900  0.667200  0.779600  1.0  -0.0415
  C  C156  1  0.489400  0.830900  0.721000  1.0  -0.0486
  C  C157  1  0.538700  0.927400  0.643200  1.0  -0.0313
  C  C158  1  0.037800  0.886300  0.645700  1.0  -0.0429
  C  C159  1  0.784500  0.297300  0.492200  1.0  -0.0684
  C  C160  1  0.790400  0.315000  0.447900  1.0  0.1352
  C  C161  1  0.970100  0.953100  0.647000  1.0  -0.0345
  C  C162  1  0.475100  0.854900  0.644300  1.0  -0.0752
  C  C163  1  0.733100  0.901100  0.805100  1.0  0.6927
  C  C164  1  0.723100  0.334600  0.513300  1.0  -0.0729
  C  C165  1  0.716100  0.310300  0.560900  1.0  0.6876
  C  C166  1  0.670100  0.388400  0.488800  1.0  -0.064
  C  C167  1  0.260700  0.281600  0.724200  1.0  -0.1523
  C  C168  1  0.348800  0.532600  0.821800  1.0  0.7226
  C  C169  1  0.553100  0.308200  0.815200  1.0  -0.1393
  C  C170  1  0.419600  0.452500  0.820600  1.0  -0.1394
  C  C171  1  0.844600  0.305000  0.818500  1.0  0.7314
  C  C172  1  0.300300  0.054300  0.747400  1.0  -0.0175
  C  C173  1  0.054900  0.512700  0.815600  1.0  -0.144
  C  C174  1  0.918400  0.380600  0.817200  1.0  -0.1333
  C  C175  1  0.246500  0.052600  0.778900  1.0  -0.1173
  C  C176  1  0.237600  0.933900  0.808700  1.0  0.6717
  C  C177  1  0.127100  0.586600  0.813900  1.0  0.7094
  C  C178  1  0.624900  0.235000  0.812700  1.0  0.7149
  C  C179  1  0.198100  0.168400  0.782400  1.0  -0.0806
  C  C180  1  0.444500  0.402500  0.781300  1.0  -0.0399
  C  C181  1  0.941900  0.440000  0.780100  1.0  -0.0238
  C  C182  1  0.322300  0.905100  0.054700  1.0  0.1817
  C  C183  1  0.207400  0.279800  0.755900  1.0  -0.0077
  C  C184  1  0.011200  0.507400  0.778400  1.0  -0.0308
  C  C185  1  0.308100  0.167200  0.720400  1.0  -0.0436
  C  C186  1  0.510600  0.330900  0.779000  1.0  -0.049
  C  C187  1  0.461300  0.427400  0.856800  1.0  -0.0322
  C  C188  1  0.962200  0.386300  0.854300  1.0  -0.0452
  C  C189  1  0.215500  0.797300  0.007800  1.0  -0.0699
  C  C190  1  0.209600  0.815000  0.052100  1.0  0.1341
  C  C191  1  0.029900  0.453100  0.853000  1.0  -0.0346
  C  C192  1  0.524900  0.354900  0.855700  1.0  -0.0751
  C  C193  1  0.266900  0.401100  0.694900  1.0  0.6913
  C  C194  1  0.276900  0.834600  0.986700  1.0  -0.0733
  C  C195  1  0.283900  0.810300  0.939100  1.0  0.6883
  C  C196  1  0.329900  0.888400  0.011200  1.0  -0.064
  N  N197  1  0.263000  0.625200  0.574750  1.0  -0.3496
  N  N198  1  0.737000  0.125200  0.925250  1.0  -0.3525
  N  N199  1  0.737000  0.374800  0.425250  1.0  -0.3522
  N  N200  1  0.263000  0.874800  0.074750  1.0  -0.35
  O  O201  1  0.309200  0.969000  0.289380  1.0  -0.6021
  O  O202  1  0.656000  0.297600  0.347860  1.0  -0.6128
  O  O203  1  0.150600  0.883000  0.277870  1.0  -0.6084
  O  O204  1  0.335500  0.902300  0.356320  1.0  -0.5902
  O  O205  1  0.807500  0.192200  0.284700  1.0  -0.608
  O  O206  1  0.648700  0.282500  0.275410  1.0  -0.6009
  O  O207  1  0.157600  0.886600  0.349950  1.0  -0.6067
  O  O208  1  0.827800  0.253100  0.352830  1.0  -0.5913
  O  O209  1  0.272000  0.677500  0.301460  1.0  -0.6668
  O  O210  1  0.233800  0.986700  0.203920  1.0  -0.7005
  O  O211  1  0.301900  0.108500  0.160670  1.0  -0.5806
  O  O212  1  0.198600  0.558100  0.340900  1.0  -0.5803
  O  O213  1  0.233200  0.752600  0.420960  1.0  -0.5736
  O  O214  1  0.335300  0.643900  0.419100  1.0  -0.466
  O  O215  1  0.690800  0.469000  0.210620  1.0  -0.6039
  O  O216  1  0.344000  0.797600  0.152140  1.0  -0.613
  O  O217  1  0.849400  0.383000  0.222130  1.0  -0.6081
  O  O218  1  0.664500  0.402300  0.143680  1.0  -0.5925
  O  O219  1  0.192500  0.692200  0.215300  1.0  -0.6095
  O  O220  1  0.351300  0.782500  0.224590  1.0  -0.5999
  O  O221  1  0.842400  0.386600  0.150050  1.0  -0.6062
  O  O222  1  0.172200  0.753100  0.147170  1.0  -0.5917
  O  O223  1  0.728000  0.177500  0.198540  1.0  -0.6686
  O  O224  1  0.766200  0.486700  0.296080  1.0  -0.6991
  O  O225  1  0.698100  0.608500  0.339330  1.0  -0.5779
  O  O226  1  0.801400  0.058100  0.159100  1.0  -0.58
  O  O227  1  0.766800  0.252600  0.079040  1.0  -0.5737
  O  O228  1  0.664700  0.143900  0.080900  1.0  -0.4647
  O  O229  1  0.690800  0.031000  0.710620  1.0  -0.6041
  O  O230  1  0.344000  0.702400  0.652140  1.0  -0.6125
  O  O231  1  0.849400  0.117000  0.722130  1.0  -0.6086
  O  O232  1  0.664500  0.097700  0.643680  1.0  -0.5922
  O  O233  1  0.192500  0.807800  0.715300  1.0  -0.6092
  O  O234  1  0.351300  0.717500  0.724590  1.0  -0.5996
  O  O235  1  0.842400  0.113400  0.650050  1.0  -0.6063
  O  O236  1  0.172200  0.746900  0.647170  1.0  -0.5924
  O  O237  1  0.728000  0.322500  0.698540  1.0  -0.6687
  O  O238  1  0.766200  0.013300  0.796080  1.0  -0.6989
  O  O239  1  0.698100  0.891500  0.839330  1.0  -0.5798
  O  O240  1  0.801400  0.441900  0.659100  1.0  -0.5813
  O  O241  1  0.766800  0.247400  0.579040  1.0  -0.5728
  O  O242  1  0.664700  0.356100  0.580900  1.0  -0.4646
  O  O243  1  0.309200  0.531000  0.789380  1.0  -0.6023
  O  O244  1  0.656000  0.202400  0.847860  1.0  -0.6129
  O  O245  1  0.150600  0.617000  0.777870  1.0  -0.6091
  O  O246  1  0.335500  0.597700  0.856320  1.0  -0.5905
  O  O247  1  0.807500  0.307800  0.784700  1.0  -0.6077
  O  O248  1  0.648700  0.217500  0.775410  1.0  -0.6009
  O  O249  1  0.157600  0.613400  0.849950  1.0  -0.6066
  O  O250  1  0.827800  0.246900  0.852830  1.0  -0.5916
  O  O251  1  0.272000  0.822500  0.801460  1.0  -0.6673
  O  O252  1  0.233800  0.513300  0.703920  1.0  -0.7004
  O  O253  1  0.301900  0.391500  0.660670  1.0  -0.5781
  O  O254  1  0.198600  0.941900  0.840900  1.0  -0.5801
  O  O255  1  0.233200  0.747400  0.920960  1.0  -0.5727
  O  O256  1  0.335300  0.856100  0.919100  1.0  -0.4647
