# generated using pymatgen
data_Cu3H8C16(N3O)4
_symmetry_space_group_name_H-M   'P 1'
_cell_length_a   11.16070000
_cell_length_b   11.16070000
_cell_length_c   21.97800000
_cell_angle_alpha   90.00000000
_cell_angle_beta   90.00000000
_cell_angle_gamma   90.00000000
_symmetry_Int_Tables_number   1
_chemical_formula_structural   Cu3H8C16(N3O)4
_chemical_formula_sum   'Cu12 H32 C64 N48 O16'
_cell_volume   2737.60659184
_cell_formula_units_Z   4
loop_
 _symmetry_equiv_pos_site_id
 _symmetry_equiv_pos_as_xyz
  1  'x, y, z'
loop_
 _atom_site_type_symbol
 _atom_site_label
 _atom_site_symmetry_multiplicity
 _atom_site_fract_x
 _atom_site_fract_y
 _atom_site_fract_z
 _atom_site_occupancy
 _atom_site_charge
  Cu  Cu1  1  0.500000  0.500000  0.388820  1.0  0.73
  Cu  Cu2  1  0.000000  0.000000  0.888820  1.0  0.73
  Cu  Cu3  1  0.500000  0.500000  0.611180  1.0  0.7303
  Cu  Cu4  1  0.000000  0.000000  0.111180  1.0  0.7303
  Cu  Cu5  1  0.000000  0.500000  0.361180  1.0  0.7303
  Cu  Cu6  1  0.500000  0.000000  0.861180  1.0  0.7303
  Cu  Cu7  1  0.000000  0.500000  0.138820  1.0  0.73
  Cu  Cu8  1  0.500000  0.000000  0.638820  1.0  0.73
  Cu  Cu9  1  0.500000  0.000000  0.250000  1.0  0.7868
  Cu  Cu10  1  0.000000  0.500000  0.750000  1.0  0.7868
  Cu  Cu11  1  0.000000  0.000000  0.500000  1.0  0.7868
  Cu  Cu12  1  0.500000  0.500000  0.000000  1.0  0.7868
  H  H13  1  0.717900  0.053200  0.180600  1.0  0.2996
  H  H14  1  0.805100  0.157100  0.172600  1.0  0.2926
  H  H15  1  0.217900  0.553200  0.680600  1.0  0.2996
  H  H16  1  0.305100  0.657100  0.672600  1.0  0.2926
  H  H17  1  0.282100  0.946800  0.180600  1.0  0.3012
  H  H18  1  0.194900  0.842900  0.172600  1.0  0.2935
  H  H19  1  0.782100  0.446800  0.680600  1.0  0.3012
  H  H20  1  0.694900  0.342900  0.672600  1.0  0.2935
  H  H21  1  0.053200  0.282100  0.819400  1.0  0.3003
  H  H22  1  0.157100  0.194900  0.827400  1.0  0.2926
  H  H23  1  0.553200  0.782100  0.319400  1.0  0.3003
  H  H24  1  0.657100  0.694900  0.327400  1.0  0.2926
  H  H25  1  0.946800  0.717900  0.819400  1.0  0.3013
  H  H26  1  0.842900  0.805100  0.827400  1.0  0.2918
  H  H27  1  0.446800  0.217900  0.319400  1.0  0.3013
  H  H28  1  0.342900  0.305100  0.327400  1.0  0.2918
  H  H29  1  0.782100  0.053200  0.569400  1.0  0.2988
  H  H30  1  0.694900  0.157100  0.577400  1.0  0.2927
  H  H31  1  0.282100  0.553200  0.069400  1.0  0.2988
  H  H32  1  0.194900  0.657100  0.077400  1.0  0.2927
  H  H33  1  0.217900  0.946800  0.569400  1.0  0.3
  H  H34  1  0.305100  0.842900  0.577400  1.0  0.2939
  H  H35  1  0.717900  0.446800  0.069400  1.0  0.3
  H  H36  1  0.805100  0.342900  0.077400  1.0  0.2939
  H  H37  1  0.446800  0.282100  0.930600  1.0  0.3015
  H  H38  1  0.342900  0.194900  0.922600  1.0  0.2918
  H  H39  1  0.946800  0.782100  0.430600  1.0  0.3015
  H  H40  1  0.842900  0.694900  0.422600  1.0  0.2918
  H  H41  1  0.553200  0.717900  0.930600  1.0  0.3016
  H  H42  1  0.657100  0.805100  0.922600  1.0  0.2916
  H  H43  1  0.053200  0.217900  0.430600  1.0  0.3016
  H  H44  1  0.157100  0.305100  0.422600  1.0  0.2916
  C  C45  1  0.723500  0.304800  0.249000  1.0  -0.1821
  C  C46  1  0.815300  0.362300  0.216960  1.0  0.4048
  C  C47  1  0.662800  0.367100  0.294900  1.0  0.3773
  C  C48  1  0.683700  0.187200  0.233100  1.0  0.5196
  C  C49  1  0.223500  0.804800  0.749000  1.0  -0.1821
  C  C50  1  0.315300  0.862300  0.716960  1.0  0.4048
  C  C51  1  0.162800  0.867100  0.794900  1.0  0.3773
  C  C52  1  0.183700  0.687200  0.733100  1.0  0.5196
  C  C53  1  0.276500  0.695200  0.249000  1.0  -0.1821
  C  C54  1  0.184700  0.637700  0.216960  1.0  0.4043
  C  C55  1  0.337200  0.632900  0.294900  1.0  0.3785
  C  C56  1  0.316300  0.812800  0.233100  1.0  0.5215
  C  C57  1  0.776500  0.195200  0.749000  1.0  -0.1821
  C  C58  1  0.684700  0.137700  0.716960  1.0  0.4043
  C  C59  1  0.837200  0.132900  0.794900  1.0  0.3785
  C  C60  1  0.816300  0.312800  0.733100  1.0  0.5215
  C  C61  1  0.304800  0.276500  0.751000  1.0  -0.1821
  C  C62  1  0.362300  0.184700  0.783040  1.0  0.4066
  C  C63  1  0.367100  0.337200  0.705100  1.0  0.3774
  C  C64  1  0.187200  0.316300  0.766900  1.0  0.5212
  C  C65  1  0.804800  0.776500  0.251000  1.0  -0.1821
  C  C66  1  0.862300  0.684700  0.283040  1.0  0.4066
  C  C67  1  0.867100  0.837200  0.205100  1.0  0.3774
  C  C68  1  0.687200  0.816300  0.266900  1.0  0.5212
  C  C69  1  0.695200  0.723500  0.751000  1.0  -0.1806
  C  C70  1  0.637700  0.815300  0.783040  1.0  0.4073
  C  C71  1  0.632900  0.662800  0.705100  1.0  0.3778
  C  C72  1  0.812800  0.683700  0.766900  1.0  0.5202
  C  C73  1  0.195200  0.223500  0.251000  1.0  -0.1806
  C  C74  1  0.137700  0.315300  0.283040  1.0  0.4073
  C  C75  1  0.132900  0.162800  0.205100  1.0  0.3778
  C  C76  1  0.312800  0.183700  0.266900  1.0  0.5202
  C  C77  1  0.776500  0.304800  0.501000  1.0  -0.1822
  C  C78  1  0.684700  0.362300  0.533040  1.0  0.4026
  C  C79  1  0.837200  0.367100  0.455100  1.0  0.3773
  C  C80  1  0.816300  0.187200  0.516900  1.0  0.523
  C  C81  1  0.276500  0.804800  0.001000  1.0  -0.1822
  C  C82  1  0.184700  0.862300  0.033040  1.0  0.4026
  C  C83  1  0.337200  0.867100  0.955100  1.0  0.3773
  C  C84  1  0.316300  0.687200  0.016900  1.0  0.523
  C  C85  1  0.223500  0.695200  0.501000  1.0  -0.1824
  C  C86  1  0.315300  0.637700  0.533040  1.0  0.4066
  C  C87  1  0.162800  0.632900  0.455100  1.0  0.3775
  C  C88  1  0.183700  0.812800  0.516900  1.0  0.5214
  C  C89  1  0.723500  0.195200  0.001000  1.0  -0.1824
  C  C90  1  0.815300  0.137700  0.033040  1.0  0.4066
  C  C91  1  0.662800  0.132900  0.955100  1.0  0.3775
  C  C92  1  0.683700  0.312800  0.016900  1.0  0.5214
  C  C93  1  0.195200  0.276500  0.999000  1.0  -0.1808
  C  C94  1  0.137700  0.184700  0.966960  1.0  0.4066
  C  C95  1  0.132900  0.337200  0.044900  1.0  0.3781
  C  C96  1  0.312800  0.316300  0.983100  1.0  0.519
  C  C97  1  0.695200  0.776500  0.499000  1.0  -0.1808
  C  C98  1  0.637700  0.684700  0.466960  1.0  0.4066
  C  C99  1  0.632900  0.837200  0.544900  1.0  0.3781
  C  C100  1  0.812800  0.816300  0.483100  1.0  0.519
  C  C101  1  0.804800  0.723500  0.999000  1.0  -0.1817
  C  C102  1  0.862300  0.815300  0.966960  1.0  0.4058
  C  C103  1  0.867100  0.662800  0.044900  1.0  0.3778
  C  C104  1  0.687200  0.683700  0.983100  1.0  0.5192
  C  C105  1  0.304800  0.223500  0.499000  1.0  -0.1817
  C  C106  1  0.362300  0.315300  0.466960  1.0  0.4058
  C  C107  1  0.367100  0.162800  0.544900  1.0  0.3778
  C  C108  1  0.187200  0.183700  0.483100  1.0  0.5192
  N  N109  1  0.742100  0.125500  0.190700  1.0  -0.7211
  N  N110  1  0.887900  0.407300  0.187970  1.0  -0.4414
  N  N111  1  0.610600  0.414900  0.333000  1.0  -0.4778
  N  N112  1  0.242100  0.625500  0.690700  1.0  -0.7211
  N  N113  1  0.387900  0.907300  0.687970  1.0  -0.4414
  N  N114  1  0.110600  0.914900  0.833000  1.0  -0.4778
  N  N115  1  0.257900  0.874500  0.190700  1.0  -0.7202
  N  N116  1  0.112100  0.592700  0.187970  1.0  -0.4387
  N  N117  1  0.389400  0.585100  0.333000  1.0  -0.4765
  N  N118  1  0.757900  0.374500  0.690700  1.0  -0.7202
  N  N119  1  0.612100  0.092700  0.687970  1.0  -0.4387
  N  N120  1  0.889400  0.085100  0.833000  1.0  -0.4765
  N  N121  1  0.125500  0.257900  0.809300  1.0  -0.7206
  N  N122  1  0.407300  0.112100  0.812030  1.0  -0.4406
  N  N123  1  0.414900  0.389400  0.667000  1.0  -0.477
  N  N124  1  0.625500  0.757900  0.309300  1.0  -0.7206
  N  N125  1  0.907300  0.612100  0.312030  1.0  -0.4406
  N  N126  1  0.914900  0.889400  0.167000  1.0  -0.477
  N  N127  1  0.874500  0.742100  0.809300  1.0  -0.7208
  N  N128  1  0.592700  0.887900  0.812030  1.0  -0.4413
  N  N129  1  0.585100  0.610600  0.667000  1.0  -0.4777
  N  N130  1  0.374500  0.242100  0.309300  1.0  -0.7208
  N  N131  1  0.092700  0.387900  0.312030  1.0  -0.4413
  N  N132  1  0.085100  0.110600  0.167000  1.0  -0.4777
  N  N133  1  0.757900  0.125500  0.559300  1.0  -0.7205
  N  N134  1  0.612100  0.407300  0.562030  1.0  -0.44
  N  N135  1  0.889400  0.414900  0.417000  1.0  -0.4788
  N  N136  1  0.257900  0.625500  0.059300  1.0  -0.7205
  N  N137  1  0.112100  0.907300  0.062030  1.0  -0.44
  N  N138  1  0.389400  0.914900  0.917000  1.0  -0.4788
  N  N139  1  0.242100  0.874500  0.559300  1.0  -0.7207
  N  N140  1  0.387900  0.592700  0.562030  1.0  -0.4394
  N  N141  1  0.110600  0.585100  0.417000  1.0  -0.4774
  N  N142  1  0.742100  0.374500  0.059300  1.0  -0.7207
  N  N143  1  0.887900  0.092700  0.062030  1.0  -0.4394
  N  N144  1  0.610600  0.085100  0.917000  1.0  -0.4774
  N  N145  1  0.374500  0.257900  0.940700  1.0  -0.7212
  N  N146  1  0.092700  0.112100  0.937970  1.0  -0.4396
  N  N147  1  0.085100  0.389400  0.083000  1.0  -0.4759
  N  N148  1  0.874500  0.757900  0.440700  1.0  -0.7212
  N  N149  1  0.592700  0.612100  0.437970  1.0  -0.4396
  N  N150  1  0.585100  0.889400  0.583000  1.0  -0.4759
  N  N151  1  0.625500  0.742100  0.940700  1.0  -0.7203
  N  N152  1  0.907300  0.887900  0.937970  1.0  -0.4425
  N  N153  1  0.914900  0.610600  0.083000  1.0  -0.4766
  N  N154  1  0.125500  0.242100  0.440700  1.0  -0.7203
  N  N155  1  0.407300  0.387900  0.437970  1.0  -0.4425
  N  N156  1  0.414900  0.110600  0.583000  1.0  -0.4766
  O  O157  1  0.592900  0.145400  0.260150  1.0  -0.6378
  O  O158  1  0.092900  0.645400  0.760150  1.0  -0.6378
  O  O159  1  0.407100  0.854600  0.260150  1.0  -0.6389
  O  O160  1  0.907100  0.354600  0.760150  1.0  -0.6389
  O  O161  1  0.145400  0.407100  0.739850  1.0  -0.6395
  O  O162  1  0.645400  0.907100  0.239850  1.0  -0.6395
  O  O163  1  0.854600  0.592900  0.739850  1.0  -0.6386
  O  O164  1  0.354600  0.092900  0.239850  1.0  -0.6386
  O  O165  1  0.907100  0.145400  0.489850  1.0  -0.6387
  O  O166  1  0.407100  0.645400  0.989850  1.0  -0.6387
  O  O167  1  0.092900  0.854600  0.489850  1.0  -0.6391
  O  O168  1  0.592900  0.354600  0.989850  1.0  -0.6391
  O  O169  1  0.354600  0.407100  0.010150  1.0  -0.6388
  O  O170  1  0.854600  0.907100  0.510150  1.0  -0.6388
  O  O171  1  0.645400  0.592900  0.010150  1.0  -0.6386
  O  O172  1  0.145400  0.092900  0.510150  1.0  -0.6386
