# generated using pymatgen
data_Zn4H18C27O13
_symmetry_space_group_name_H-M   'P 1'
_cell_length_a   16.21500000
_cell_length_b   17.17400000
_cell_length_c   18.10400000
_cell_angle_alpha   90.00000000
_cell_angle_beta   90.00000000
_cell_angle_gamma   90.00000000
_symmetry_Int_Tables_number   1
_chemical_formula_structural   Zn4H18C27O13
_chemical_formula_sum   'Zn16 H72 C108 O52'
_cell_volume   5041.53692664
_cell_formula_units_Z   4
loop_
 _symmetry_equiv_pos_site_id
 _symmetry_equiv_pos_as_xyz
  1  'x, y, z'
loop_
 _atom_site_type_symbol
 _atom_site_label
 _atom_site_symmetry_multiplicity
 _atom_site_fract_x
 _atom_site_fract_y
 _atom_site_fract_z
 _atom_site_occupancy
 _atom_site_charge
  Zn  Zn1  1  0.278550  0.756780  0.762330  1.0  1.0644
  Zn  Zn2  1  0.227010  0.143390  0.120290  1.0  1.0953
  Zn  Zn3  1  0.888360  0.269070  0.820700  1.0  1.0452
  Zn  Zn4  1  0.310720  0.079610  0.270900  1.0  1.0502
  Zn  Zn5  1  0.221450  0.243220  0.262330  1.0  1.0647
  Zn  Zn6  1  0.272990  0.856610  0.620290  1.0  1.0954
  Zn  Zn7  1  0.611640  0.730930  0.320700  1.0  1.0445
  Zn  Zn8  1  0.189280  0.920390  0.770900  1.0  1.0513
  Zn  Zn9  1  0.721450  0.256780  0.737670  1.0  1.0645
  Zn  Zn10  1  0.772990  0.643390  0.379710  1.0  1.0956
  Zn  Zn11  1  0.111640  0.769070  0.679300  1.0  1.0447
  Zn  Zn12  1  0.689280  0.579610  0.229100  1.0  1.0489
  Zn  Zn13  1  0.778550  0.743220  0.237670  1.0  1.064
  Zn  Zn14  1  0.727010  0.356610  0.879710  1.0  1.0961
  Zn  Zn15  1  0.388360  0.230930  0.179300  1.0  1.0445
  Zn  Zn16  1  0.810720  0.420390  0.729100  1.0  1.0474
  H  H17  1  0.222800  0.931100  0.995700  1.0  0.121
  H  H18  1  0.361000  0.737600  0.983100  1.0  0.1096
  H  H19  1  0.377100  0.873700  0.164500  1.0  0.1131
  H  H20  1  0.456600  0.758200  0.162000  1.0  0.1423
  H  H21  1  0.415000  0.687500  0.118000  1.0  0.1365
  H  H22  1  0.487700  0.736800  0.080600  1.0  0.1383
  H  H23  1  0.036000  0.526800  0.733700  1.0  0.119
  H  H24  1  0.285100  0.515100  0.752900  1.0  0.107
  H  H25  1  0.146600  0.321400  0.777900  1.0  0.1053
  H  H26  1  0.355300  0.398600  0.767500  1.0  0.1314
  H  H27  1  0.308700  0.339600  0.821700  1.0  0.1289
  H  H28  1  0.309800  0.323500  0.734600  1.0  0.1309
  H  H29  1  0.530600  0.707100  0.747700  1.0  0.1116
  H  H30  1  0.712100  0.656600  0.603600  1.0  0.1096
  H  H31  1  0.506000  0.767600  0.533500  1.0  0.1157
  H  H32  1  0.647700  0.645000  0.795000  1.0  0.1314
  H  H33  1  0.690800  0.586300  0.738200  1.0  0.1415
  H  H34  1  0.731300  0.669600  0.754200  1.0  0.1383
  H  H35  1  0.277200  0.068900  0.495700  1.0  0.1209
  H  H36  1  0.139000  0.262400  0.483100  1.0  0.1095
  H  H37  1  0.122900  0.126300  0.664500  1.0  0.1127
  H  H38  1  0.043400  0.241800  0.662000  1.0  0.1425
  H  H39  1  0.085000  0.312500  0.618000  1.0  0.1394
  H  H40  1  0.012300  0.263200  0.580600  1.0  0.1359
  H  H41  1  0.464000  0.473200  0.233700  1.0  0.119
  H  H42  1  0.214900  0.484900  0.252900  1.0  0.1072
  H  H43  1  0.353400  0.678600  0.277900  1.0  0.1051
  H  H44  1  0.144700  0.601400  0.267500  1.0  0.1304
  H  H45  1  0.191300  0.660400  0.321700  1.0  0.1297
  H  H46  1  0.190200  0.676500  0.234600  1.0  0.131
  H  H47  1  0.969400  0.292900  0.247700  1.0  0.1111
  H  H48  1  0.787900  0.343400  0.103600  1.0  0.1096
  H  H49  1  0.994000  0.232400  0.033500  1.0  0.1159
  H  H50  1  0.852300  0.355000  0.295000  1.0  0.131
  H  H51  1  0.809200  0.413700  0.238200  1.0  0.1444
  H  H52  1  0.768700  0.330400  0.254200  1.0  0.138
  H  H53  1  0.777200  0.431100  0.504300  1.0  0.1212
  H  H54  1  0.639000  0.237600  0.516900  1.0  0.1096
  H  H55  1  0.622900  0.373700  0.335500  1.0  0.1131
  H  H56  1  0.543400  0.258200  0.338000  1.0  0.1428
  H  H57  1  0.585000  0.187500  0.382000  1.0  0.1347
  H  H58  1  0.512300  0.236800  0.419400  1.0  0.1373
  H  H59  1  0.964000  0.026800  0.766300  1.0  0.1195
  H  H60  1  0.714900  0.015100  0.747100  1.0  0.107
  H  H61  1  0.853400  0.821400  0.722100  1.0  0.1052
  H  H62  1  0.644700  0.898600  0.732500  1.0  0.1293
  H  H63  1  0.691300  0.839600  0.678300  1.0  0.1289
  H  H64  1  0.690200  0.823500  0.765400  1.0  0.1321
  H  H65  1  0.469400  0.207100  0.752300  1.0  0.1114
  H  H66  1  0.287900  0.156600  0.896400  1.0  0.1099
  H  H67  1  0.494000  0.267600  0.966500  1.0  0.1159
  H  H68  1  0.352300  0.145000  0.705000  1.0  0.1309
  H  H69  1  0.309200  0.086300  0.761800  1.0  0.1413
  H  H70  1  0.268700  0.169600  0.745800  1.0  0.1363
  H  H71  1  0.722800  0.568900  0.004300  1.0  0.121
  H  H72  1  0.861000  0.762400  0.016900  1.0  0.1092
  H  H73  1  0.877100  0.626300  0.835500  1.0  0.1132
  H  H74  1  0.956600  0.741800  0.838000  1.0  0.1431
  H  H75  1  0.915000  0.812500  0.882000  1.0  0.1389
  H  H76  1  0.987700  0.763200  0.919400  1.0  0.1376
  H  H77  1  0.536000  0.973200  0.266300  1.0  0.1189
  H  H78  1  0.785100  0.984900  0.247100  1.0  0.1065
  H  H79  1  0.646600  0.178600  0.222100  1.0  0.1054
  H  H80  1  0.855300  0.101400  0.232500  1.0  0.1299
  H  H81  1  0.808700  0.160400  0.178300  1.0  0.1293
  H  H82  1  0.809800  0.176500  0.265400  1.0  0.1313
  H  H83  1  0.030600  0.792900  0.252300  1.0  0.1118
  H  H84  1  0.212100  0.843400  0.396400  1.0  0.1099
  H  H85  1  0.006000  0.732400  0.466500  1.0  0.116
  H  H86  1  0.147700  0.855000  0.205000  1.0  0.1299
  H  H87  1  0.190800  0.913700  0.261800  1.0  0.1432
  H  H88  1  0.231300  0.830400  0.245800  1.0  0.137
  C  C89  1  0.276700  0.988200  0.126000  1.0  0.7194
  C  C90  1  0.296200  0.913400  0.086500  1.0  -0.1513
  C  C91  1  0.262000  0.896800  0.017100  1.0  0.0228
  C  C92  1  0.285300  0.831200  0.981000  1.0  -0.1206
  C  C93  1  0.343300  0.781600  0.010800  1.0  -0.0904
  C  C94  1  0.376800  0.794700  0.081000  1.0  0.1049
  C  C95  1  0.353600  0.862100  0.117600  1.0  -0.0861
  C  C96  1  0.439500  0.739500  0.113200  1.0  -0.4154
  C  C97  1  0.997100  0.379000  0.761400  1.0  0.7291
  C  C98  1  0.079900  0.419500  0.758100  1.0  -0.1357
  C  C99  1  0.084600  0.497700  0.743400  1.0  0.0026
  C  C100  1  0.161200  0.534200  0.742800  1.0  -0.1462
  C  C101  1  0.233000  0.489800  0.753300  1.0  -0.0553
  C  C102  1  0.229800  0.410100  0.764200  1.0  0.1393
  C  C103  1  0.151100  0.375600  0.768200  1.0  -0.1197
  C  C104  1  0.307600  0.364000  0.772700  1.0  -0.3652
  C  C105  1  0.419600  0.771100  0.660400  1.0  0.6988
  C  C106  1  0.505400  0.741300  0.644000  1.0  -0.1412
  C  C107  1  0.552000  0.708200  0.698900  1.0  -0.1308
  C  C108  1  0.629300  0.676300  0.685900  1.0  0.0745
  C  C109  1  0.659500  0.678400  0.614100  1.0  -0.12
  C  C110  1  0.613800  0.712100  0.557100  1.0  -0.1391
  C  C111  1  0.537000  0.744000  0.572000  1.0  0.0106
  C  C112  1  0.679200  0.641200  0.749000  1.0  -0.4239
  C  C113  1  0.169500  0.621400  0.732700  1.0  0.7258
  C  C114  1  0.254800  0.816800  0.903300  1.0  0.6957
  C  C115  1  0.646300  0.710300  0.479000  1.0  0.7278
  C  C116  1  0.223300  0.011800  0.626000  1.0  0.7189
  C  C117  1  0.203800  0.086600  0.586500  1.0  -0.1516
  C  C118  1  0.238000  0.103200  0.517100  1.0  0.0223
  C  C119  1  0.214700  0.168800  0.481000  1.0  -0.1205
  C  C120  1  0.156700  0.218400  0.510800  1.0  -0.0903
  C  C121  1  0.123200  0.205300  0.581000  1.0  0.1043
  C  C122  1  0.146400  0.137900  0.617600  1.0  -0.0864
  C  C123  1  0.060500  0.260500  0.613200  1.0  -0.4132
  C  C124  1  0.502900  0.621000  0.261400  1.0  0.7302
  C  C125  1  0.420100  0.580500  0.258100  1.0  -0.137
  C  C126  1  0.415400  0.502300  0.243400  1.0  0.0046
  C  C127  1  0.338800  0.465800  0.242800  1.0  -0.1456
  C  C128  1  0.267000  0.510200  0.253300  1.0  -0.0564
  C  C129  1  0.270200  0.589900  0.264200  1.0  0.14
  C  C130  1  0.348900  0.624400  0.268200  1.0  -0.1185
  C  C131  1  0.192400  0.636000  0.272700  1.0  -0.3631
  C  C132  1  0.080400  0.228900  0.160400  1.0  0.698
  C  C133  1  0.994600  0.258700  0.144000  1.0  -0.1396
  C  C134  1  0.948000  0.291800  0.198900  1.0  -0.1338
  C  C135  1  0.870700  0.323700  0.185900  1.0  0.0767
  C  C136  1  0.840500  0.321600  0.114100  1.0  -0.1212
  C  C137  1  0.886200  0.287900  0.057100  1.0  -0.1397
  C  C138  1  0.963000  0.256000  0.072000  1.0  0.0105
  C  C139  1  0.820800  0.358800  0.249000  1.0  -0.4239
  C  C140  1  0.330500  0.378600  0.232700  1.0  0.7267
  C  C141  1  0.245200  0.183200  0.403300  1.0  0.6954
  C  C142  1  0.853700  0.289700  0.979000  1.0  0.7286
  C  C143  1  0.723300  0.488200  0.374000  1.0  0.7198
  C  C144  1  0.703800  0.413400  0.413500  1.0  -0.1508
  C  C145  1  0.738000  0.396800  0.482900  1.0  0.0216
  C  C146  1  0.714700  0.331200  0.519000  1.0  -0.1196
  C  C147  1  0.656700  0.281600  0.489200  1.0  -0.0909
  C  C148  1  0.623200  0.294700  0.419000  1.0  0.1048
  C  C149  1  0.646400  0.362100  0.382400  1.0  -0.0844
  C  C150  1  0.560500  0.239500  0.386800  1.0  -0.415
  C  C151  1  0.002900  0.879000  0.738600  1.0  0.7299
  C  C152  1  0.920100  0.919500  0.741900  1.0  -0.1352
  C  C153  1  0.915400  0.997700  0.756600  1.0  0.004
  C  C154  1  0.838800  0.034200  0.757200  1.0  -0.146
  C  C155  1  0.767000  0.989800  0.746700  1.0  -0.0574
  C  C156  1  0.770200  0.910100  0.735800  1.0  0.1399
  C  C157  1  0.848900  0.875600  0.731800  1.0  -0.1184
  C  C158  1  0.692400  0.864000  0.727300  1.0  -0.3635
  C  C159  1  0.580400  0.271100  0.839600  1.0  0.6973
  C  C160  1  0.494600  0.241300  0.856000  1.0  -0.14
  C  C161  1  0.448000  0.208200  0.801100  1.0  -0.1331
  C  C162  1  0.370700  0.176300  0.814100  1.0  0.0752
  C  C163  1  0.340500  0.178400  0.885900  1.0  -0.1207
  C  C164  1  0.386200  0.212100  0.942900  1.0  -0.1396
  C  C165  1  0.463000  0.244000  0.928000  1.0  0.0106
  C  C166  1  0.320800  0.141200  0.751000  1.0  -0.4243
  C  C167  1  0.830500  0.121400  0.767300  1.0  0.7257
  C  C168  1  0.745200  0.316800  0.596700  1.0  0.6955
  C  C169  1  0.353700  0.210300  0.021000  1.0  0.7285
  C  C170  1  0.776700  0.511800  0.874000  1.0  0.7182
  C  C171  1  0.796200  0.586600  0.913500  1.0  -0.1517
  C  C172  1  0.762000  0.603200  0.982900  1.0  0.0222
  C  C173  1  0.785300  0.668800  0.019000  1.0  -0.1192
  C  C174  1  0.843300  0.718400  0.989200  1.0  -0.0901
  C  C175  1  0.876800  0.705300  0.919000  1.0  0.105
  C  C176  1  0.853600  0.637900  0.882400  1.0  -0.0843
  C  C177  1  0.939500  0.760500  0.886800  1.0  -0.4158
  C  C178  1  0.497100  0.121000  0.238600  1.0  0.73
  C  C179  1  0.579900  0.080500  0.241900  1.0  -0.1357
  C  C180  1  0.584600  0.002300  0.256600  1.0  0.003
  C  C181  1  0.661200  0.965800  0.257200  1.0  -0.1461
  C  C182  1  0.733000  0.010200  0.246700  1.0  -0.0544
  C  C183  1  0.729800  0.089900  0.235800  1.0  0.1391
  C  C184  1  0.651100  0.124400  0.231800  1.0  -0.1201
  C  C185  1  0.807600  0.136000  0.227300  1.0  -0.3655
  C  C186  1  0.919600  0.728900  0.339600  1.0  0.6985
  C  C187  1  0.005400  0.758700  0.356000  1.0  -0.1413
  C  C188  1  0.052000  0.791800  0.301100  1.0  -0.1295
  C  C189  1  0.129300  0.823700  0.314100  1.0  0.0746
  C  C190  1  0.159500  0.821600  0.385900  1.0  -0.1193
  C  C191  1  0.113800  0.787900  0.442900  1.0  -0.1396
  C  C192  1  0.037000  0.756000  0.428000  1.0  0.0104
  C  C193  1  0.179200  0.858800  0.251000  1.0  -0.4224
  C  C194  1  0.669500  0.878600  0.267300  1.0  0.7268
  C  C195  1  0.754800  0.683200  0.096700  1.0  0.6948
  C  C196  1  0.146300  0.789700  0.521000  1.0  0.7294
  O  O197  1  0.223400  0.032700  0.097400  1.0  -0.5877
  O  O198  1  0.315400  0.002200  0.184700  1.0  -0.6275
  O  O199  1  0.938600  0.411900  0.729900  1.0  -0.6656
  O  O200  1  0.994300  0.316200  0.796600  1.0  -0.5814
  O  O201  1  0.384000  0.811700  0.611400  1.0  -0.6033
  O  O202  1  0.390500  0.751000  0.721100  1.0  -0.592
  O  O203  1  0.107600  0.659100  0.711800  1.0  -0.5819
  O  O204  1  0.238800  0.649100  0.746900  1.0  -0.6047
  O  O205  1  0.293700  0.764100  0.867200  1.0  -0.5857
  O  O206  1  0.198200  0.856600  0.877800  1.0  -0.6321
  O  O207  1  0.600000  0.737700  0.429700  1.0  -0.6047
  O  O208  1  0.716700  0.681500  0.469700  1.0  -0.6098
  O  O209  1  0.209700  0.825500  0.705800  1.0  -1.2256
  O  O210  1  0.276600  0.967300  0.597400  1.0  -0.5868
  O  O211  1  0.184600  0.997800  0.684700  1.0  -0.628
  O  O212  1  0.561400  0.588100  0.229900  1.0  -0.6643
  O  O213  1  0.505700  0.683800  0.296600  1.0  -0.5807
  O  O214  1  0.116000  0.188300  0.111400  1.0  -0.6029
  O  O215  1  0.109500  0.249000  0.221100  1.0  -0.593
  O  O216  1  0.392400  0.340900  0.211800  1.0  -0.583
  O  O217  1  0.261200  0.350900  0.246900  1.0  -0.6055
  O  O218  1  0.206300  0.235900  0.367200  1.0  -0.5852
  O  O219  1  0.301800  0.143400  0.377800  1.0  -0.6326
  O  O220  1  0.900000  0.262300  0.929700  1.0  -0.6048
  O  O221  1  0.783300  0.318500  0.969700  1.0  -0.6105
  O  O222  1  0.290300  0.174500  0.205800  1.0  -1.2252
  O  O223  1  0.776600  0.532700  0.402600  1.0  -0.5859
  O  O224  1  0.684600  0.502200  0.315300  1.0  -0.6236
  O  O225  1  0.061400  0.911900  0.770100  1.0  -0.6663
  O  O226  1  0.005700  0.816200  0.703400  1.0  -0.5812
  O  O227  1  0.616000  0.311700  0.888600  1.0  -0.6031
  O  O228  1  0.609500  0.251000  0.778900  1.0  -0.5917
  O  O229  1  0.892400  0.159100  0.788200  1.0  -0.5822
  O  O230  1  0.761200  0.149100  0.753100  1.0  -0.6052
  O  O231  1  0.706300  0.264100  0.632800  1.0  -0.5847
  O  O232  1  0.801800  0.356600  0.622200  1.0  -0.6319
  O  O233  1  0.400000  0.237700  0.070300  1.0  -0.6057
  O  O234  1  0.283300  0.181500  0.030300  1.0  -0.6106
  O  O235  1  0.790300  0.325500  0.794200  1.0  -1.2248
  O  O236  1  0.723400  0.467300  0.902600  1.0  -0.588
  O  O237  1  0.815400  0.497800  0.815300  1.0  -0.6244
  O  O238  1  0.438600  0.088100  0.270100  1.0  -0.6649
  O  O239  1  0.494300  0.183800  0.203400  1.0  -0.5802
  O  O240  1  0.884000  0.688300  0.388600  1.0  -0.6034
  O  O241  1  0.890500  0.749000  0.278900  1.0  -0.5917
  O  O242  1  0.607600  0.840900  0.288200  1.0  -0.5813
  O  O243  1  0.738800  0.850900  0.253100  1.0  -0.6047
  O  O244  1  0.793700  0.735900  0.132800  1.0  -0.5842
  O  O245  1  0.698200  0.643400  0.122200  1.0  -0.6328
  O  O246  1  0.100000  0.762300  0.570300  1.0  -0.6044
  O  O247  1  0.216700  0.818500  0.530300  1.0  -0.61
  O  O248  1  0.709700  0.674500  0.294200  1.0  -1.2257
