# generated using pymatgen
data_Co3H34C36(N5O9)2
_symmetry_space_group_name_H-M   'P 1'
_cell_length_a   10.50400000
_cell_length_b   12.10600000
_cell_length_c   12.41100000
_cell_angle_alpha   66.78000000
_cell_angle_beta   70.34000000
_cell_angle_gamma   65.04000000
_symmetry_Int_Tables_number   1
_chemical_formula_structural   Co3H34C36(N5O9)2
_chemical_formula_sum   'Co3 H34 C36 N10 O18'
_cell_volume   1287.21880329
_cell_formula_units_Z   1
loop_
 _symmetry_equiv_pos_site_id
 _symmetry_equiv_pos_as_xyz
  1  'x, y, z'
loop_
 _atom_site_type_symbol
 _atom_site_label
 _atom_site_symmetry_multiplicity
 _atom_site_fract_x
 _atom_site_fract_y
 _atom_site_fract_z
 _atom_site_occupancy
 _atom_site_charge
  Co  Co1  1  0.840960  0.409530  0.908880  1.0  0.9704
  Co  Co2  1  0.159040  0.590470  0.091120  1.0  0.9714
  Co  Co3  1  0.500000  0.500000  0.000000  1.0  1.0051
  H  H4  1  0.493900  0.189100  0.011100  1.0  0.1071
  H  H5  1  0.103900  0.511500  0.844800  1.0  0.1047
  H  H6  1  0.894300  0.090300  0.261200  1.0  0.1007
  H  H7  1  0.886600  0.222000  0.261700  1.0  0.0987
  H  H8  1  0.347600  0.374600  0.871700  1.0  0.1248
  H  H9  1  0.614100  0.346500  0.673800  1.0  0.1285
  H  H10  1  0.626900  0.221600  0.782200  1.0  0.0963
  H  H11  1  0.312400  0.997000  0.943300  1.0  0.1224
  H  H12  1  0.099400  0.161200  0.995400  1.0  0.1007
  H  H13  1  0.862000  0.284400  0.609000  1.0  0.088
  H  H14  1  0.882600  0.165600  0.723200  1.0  0.0952
  H  H15  1  0.648300  0.164300  0.270400  1.0  0.0964
  H  H16  1  0.632800  0.294300  0.282900  1.0  0.0951
  H  H17  1  0.617600  0.864900  0.762300  1.0  0.1023
  H  H18  1  0.634000  0.812500  0.659400  1.0  0.1126
  H  H19  1  0.876800  0.781500  0.731800  1.0  0.0904
  H  H20  1  0.876700  0.762300  0.614100  1.0  0.097
  H  H21  1  0.506100  0.810900  0.988900  1.0  0.1066
  H  H22  1  0.896100  0.488500  0.155200  1.0  0.1051
  H  H23  1  0.105700  0.909700  0.738800  1.0  0.1008
  H  H24  1  0.113400  0.778000  0.738300  1.0  0.0982
  H  H25  1  0.652400  0.625400  0.128300  1.0  0.124
  H  H26  1  0.385900  0.653500  0.326200  1.0  0.1289
  H  H27  1  0.373100  0.778400  0.217800  1.0  0.0967
  H  H28  1  0.687600  0.003000  0.056700  1.0  0.1232
  H  H29  1  0.900600  0.838800  0.004600  1.0  0.1014
  H  H30  1  0.138000  0.715600  0.391000  1.0  0.0876
  H  H31  1  0.117400  0.834400  0.276800  1.0  0.0959
  H  H32  1  0.351700  0.835700  0.729600  1.0  0.0947
  H  H33  1  0.367200  0.705700  0.717100  1.0  0.0964
  H  H34  1  0.382400  0.135100  0.237700  1.0  0.1022
  H  H35  1  0.366000  0.187500  0.340600  1.0  0.114
  H  H36  1  0.123200  0.218500  0.268200  1.0  0.0905
  H  H37  1  0.123300  0.237700  0.385900  1.0  0.0971
  C  C38  1  0.812500  0.019900  0.667700  1.0  0.6023
  C  C39  1  0.810900  0.195500  0.481400  1.0  0.6102
  C  C40  1  0.816800  0.991300  0.482200  1.0  0.6133
  C  C41  1  0.496300  0.113400  0.006600  1.0  -0.122
  C  C42  1  0.385500  0.110900  0.972900  1.0  0.1435
  C  C43  1  0.680800  0.352000  0.808400  1.0  0.7562
  C  C44  1  0.133900  0.423400  0.878600  1.0  0.0584
  C  C45  1  0.835500  0.161600  0.293300  1.0  0.0255
  C  C46  1  0.268800  0.348400  0.892700  1.0  -0.1262
  C  C47  1  0.672700  0.284900  0.731800  1.0  -0.3593
  C  C48  1  0.738600  0.275800  0.114300  1.0  0.7462
  C  C49  1  0.387600  0.998200  0.966000  1.0  -0.1535
  C  C50  1  0.130300  0.231400  0.960800  1.0  0.1663
  C  C51  1  0.820700  0.220000  0.666000  1.0  0.0463
  C  C52  1  0.696500  0.225300  0.248800  1.0  -0.2462
  C  C53  1  0.677900  0.799700  0.722700  1.0  -0.3595
  C  C54  1  0.685800  0.670100  0.812000  1.0  0.7382
  C  C55  1  0.824300  0.813900  0.668500  1.0  0.0264
  C  C56  1  0.187500  0.980100  0.332300  1.0  0.6026
  C  C57  1  0.189100  0.804500  0.518600  1.0  0.6158
  C  C58  1  0.183200  0.008700  0.517800  1.0  0.613
  C  C59  1  0.503700  0.886600  0.993400  1.0  -0.1191
  C  C60  1  0.614500  0.889100  0.027100  1.0  0.143
  C  C61  1  0.319200  0.648000  0.191600  1.0  0.7546
  C  C62  1  0.866100  0.576600  0.121400  1.0  0.0568
  C  C63  1  0.164500  0.838400  0.706700  1.0  0.0247
  C  C64  1  0.731200  0.651600  0.107300  1.0  -0.1288
  C  C65  1  0.327300  0.715100  0.268200  1.0  -0.3572
  C  C66  1  0.261400  0.724200  0.885700  1.0  0.7456
  C  C67  1  0.612400  0.001800  0.034000  1.0  -0.154
  C  C68  1  0.869700  0.768600  0.039200  1.0  0.1659
  C  C69  1  0.179300  0.780000  0.334000  1.0  0.0472
  C  C70  1  0.303500  0.774700  0.751200  1.0  -0.248
  C  C71  1  0.322100  0.200300  0.277300  1.0  -0.3611
  C  C72  1  0.314200  0.329900  0.188000  1.0  0.7387
  C  C73  1  0.175700  0.186100  0.331500  1.0  0.0252
  N  N74  1  0.266600  0.225300  0.944300  1.0  0.0379
  N  N75  1  0.047000  0.349200  0.922000  1.0  -0.3685
  N  N76  1  0.818000  0.947100  0.602800  1.0  -0.3302
  N  N77  1  0.814500  0.142500  0.601900  1.0  -0.3275
  N  N78  1  0.818900  0.114800  0.424400  1.0  -0.2908
  N  N79  1  0.733400  0.774700  0.055700  1.0  0.0393
  N  N80  1  0.953000  0.650800  0.078000  1.0  -0.3712
  N  N81  1  0.182000  0.052900  0.397200  1.0  -0.3285
  N  N82  1  0.185500  0.857500  0.398100  1.0  -0.3279
  N  N83  1  0.181100  0.885200  0.575600  1.0  -0.2898
  O  O84  1  0.810800  0.591000  0.823000  1.0  -0.5911
  O  O85  1  0.822000  0.204500  0.053800  1.0  -0.5903
  O  O86  1  0.697100  0.399000  0.064800  1.0  -0.6603
  O  O87  1  0.801900  0.358000  0.796500  1.0  -0.5795
  O  O88  1  0.568300  0.394800  0.878900  1.0  -0.5963
  O  O89  1  0.571400  0.647900  0.870200  1.0  -0.5929
  O  O90  1  0.820100  0.924300  0.429600  1.0  -0.5001
  O  O91  1  0.810200  0.979500  0.773700  1.0  -0.4788
  O  O92  1  0.805100  0.305500  0.427900  1.0  -0.5338
  O  O93  1  0.189200  0.409000  0.177000  1.0  -0.5901
  O  O94  1  0.178000  0.795500  0.946200  1.0  -0.5908
  O  O95  1  0.302900  0.601000  0.935200  1.0  -0.6609
  O  O96  1  0.198100  0.642000  0.203500  1.0  -0.5796
  O  O97  1  0.431700  0.605200  0.121100  1.0  -0.5959
  O  O98  1  0.428600  0.352100  0.129800  1.0  -0.594
  O  O99  1  0.179900  0.075700  0.570400  1.0  -0.4986
  O  O100  1  0.189800  0.020500  0.226300  1.0  -0.4795
  O  O101  1  0.194900  0.694500  0.572100  1.0  -0.5325
