# generated using pymatgen
data_MnH16C24(NO2)2
_symmetry_space_group_name_H-M   'P 1'
_cell_length_a   9.84570000
_cell_length_b   19.49370000
_cell_length_c   16.74550000
_cell_angle_alpha   90.00000000
_cell_angle_beta   94.34800000
_cell_angle_gamma   90.00000000
_symmetry_Int_Tables_number   1
_chemical_formula_structural   MnH16C24(NO2)2
_chemical_formula_sum   'Mn4 H64 C96 N8 O16'
_cell_volume   3204.69927061
_cell_formula_units_Z   4
loop_
 _symmetry_equiv_pos_site_id
 _symmetry_equiv_pos_as_xyz
  1  'x, y, z'
loop_
 _atom_site_type_symbol
 _atom_site_label
 _atom_site_symmetry_multiplicity
 _atom_site_fract_x
 _atom_site_fract_y
 _atom_site_fract_z
 _atom_site_occupancy
 _atom_site_charge
  Mn  Mn1  1  0.500000  0.000000  0.500000  1.0  0.9959
  Mn  Mn2  1  0.500000  0.500000  0.000000  1.0  0.9959
  Mn  Mn3  1  0.000000  0.500000  0.000000  1.0  0.9312
  Mn  Mn4  1  0.000000  0.000000  0.500000  1.0  0.9312
  H  H5  1  0.205600  0.293200  0.077900  1.0  0.1036
  H  H6  1  0.260900  0.202300  0.161100  1.0  0.113
  H  H7  1  0.441900  0.331500  0.321400  1.0  0.1154
  H  H8  1  0.402200  0.420300  0.233100  1.0  0.1051
  H  H9  1  0.433300  0.034900  0.315900  1.0  0.0793
  H  H10  1  0.387400  0.121900  0.226900  1.0  0.1183
  H  H11  1  0.395400  0.252100  0.411100  1.0  0.1195
  H  H12  1  0.447000  0.161400  0.494500  1.0  0.0686
  H  H13  1  0.603500  0.175800  0.641700  1.0  0.0912
  H  H14  1  0.654900  0.267500  0.725300  1.0  0.0997
  H  H15  1  0.042200  0.208500  0.748200  1.0  0.0995
  H  H16  1  0.992200  0.117200  0.663400  1.0  0.0975
  H  H17  1  0.748500  0.414500  0.918100  1.0  0.0609
  H  H18  1  0.695700  0.325300  0.833700  1.0  0.0931
  H  H19  1  0.089400  0.306500  0.800200  1.0  0.0967
  H  H20  1  0.132700  0.394000  0.889100  1.0  0.0622
  H  H21  1  0.794400  0.793200  0.422100  1.0  0.1035
  H  H22  1  0.739100  0.702300  0.338900  1.0  0.1142
  H  H23  1  0.558100  0.831500  0.178600  1.0  0.1144
  H  H24  1  0.597800  0.920300  0.266900  1.0  0.1052
  H  H25  1  0.566700  0.534900  0.184100  1.0  0.0798
  H  H26  1  0.612600  0.621900  0.273100  1.0  0.117
  H  H27  1  0.604600  0.752100  0.088900  1.0  0.1193
  H  H28  1  0.553000  0.661400  0.005500  1.0  0.0688
  H  H29  1  0.396500  0.675800  0.858300  1.0  0.0915
  H  H30  1  0.345100  0.767500  0.774700  1.0  0.0993
  H  H31  1  0.957800  0.708500  0.751800  1.0  0.0998
  H  H32  1  0.007800  0.617200  0.836600  1.0  0.0971
  H  H33  1  0.251500  0.914500  0.581900  1.0  0.0609
  H  H34  1  0.304300  0.825300  0.666300  1.0  0.0937
  H  H35  1  0.910600  0.806500  0.699800  1.0  0.0964
  H  H36  1  0.867300  0.894000  0.610900  1.0  0.0622
  H  H37  1  0.794400  0.706800  0.922100  1.0  0.103
  H  H38  1  0.739100  0.797700  0.838900  1.0  0.1134
  H  H39  1  0.558100  0.668500  0.678600  1.0  0.1137
  H  H40  1  0.597800  0.579700  0.766900  1.0  0.1051
  H  H41  1  0.566700  0.965100  0.684100  1.0  0.0798
  H  H42  1  0.612600  0.878100  0.773100  1.0  0.1184
  H  H43  1  0.604600  0.747900  0.588900  1.0  0.1197
  H  H44  1  0.553000  0.838600  0.505500  1.0  0.0687
  H  H45  1  0.396500  0.824200  0.358300  1.0  0.0917
  H  H46  1  0.345100  0.732500  0.274700  1.0  0.1001
  H  H47  1  0.957800  0.791500  0.251800  1.0  0.0995
  H  H48  1  0.007800  0.882800  0.336600  1.0  0.0969
  H  H49  1  0.251500  0.585500  0.081900  1.0  0.0611
  H  H50  1  0.304300  0.674700  0.166300  1.0  0.0938
  H  H51  1  0.910600  0.693500  0.199800  1.0  0.0963
  H  H52  1  0.867300  0.606000  0.110900  1.0  0.062
  H  H53  1  0.205600  0.206800  0.577900  1.0  0.1033
  H  H54  1  0.260900  0.297700  0.661100  1.0  0.1142
  H  H55  1  0.441900  0.168500  0.821400  1.0  0.1154
  H  H56  1  0.402200  0.079700  0.733100  1.0  0.1052
  H  H57  1  0.433300  0.465100  0.815900  1.0  0.0791
  H  H58  1  0.387400  0.378100  0.726900  1.0  0.1176
  H  H59  1  0.395400  0.247900  0.911100  1.0  0.1204
  H  H60  1  0.447000  0.338600  0.994500  1.0  0.0683
  H  H61  1  0.603500  0.324200  0.141700  1.0  0.0909
  H  H62  1  0.654900  0.232500  0.225300  1.0  0.0993
  H  H63  1  0.042200  0.291500  0.248200  1.0  0.0983
  H  H64  1  0.992200  0.382800  0.163400  1.0  0.0968
  H  H65  1  0.748500  0.085500  0.418100  1.0  0.0611
  H  H66  1  0.695700  0.174700  0.333700  1.0  0.0935
  H  H67  1  0.089400  0.193500  0.300200  1.0  0.0968
  H  H68  1  0.132700  0.106000  0.389100  1.0  0.0623
  C  C69  1  0.262100  0.426700  0.091300  1.0  0.7112
  C  C70  1  0.296800  0.366700  0.146200  1.0  -0.0744
  C  C71  1  0.255600  0.301000  0.126400  1.0  -0.0895
  C  C72  1  0.286900  0.246400  0.177000  1.0  -0.1264
  C  C73  1  0.356300  0.256200  0.251100  1.0  0.0461
  C  C74  1  0.396600  0.323100  0.271600  1.0  -0.1339
  C  C75  1  0.370200  0.376600  0.219300  1.0  -0.0847
  C  C76  1  0.426700  0.079400  0.335400  1.0  0.1776
  C  C77  1  0.398400  0.131600  0.281300  1.0  -0.2002
  C  C78  1  0.386200  0.198400  0.307600  1.0  0.0931
  C  C79  1  0.403800  0.208400  0.389800  1.0  -0.2138
  C  C80  1  0.433800  0.153200  0.439800  1.0  0.1924
  C  C81  1  0.756200  0.074600  0.592100  1.0  0.6967
  C  C82  1  0.791000  0.135600  0.645900  1.0  -0.1266
  C  C83  1  0.692300  0.181700  0.663700  1.0  -0.0309
  C  C84  1  0.723200  0.236700  0.714200  1.0  -0.119
  C  C85  1  0.853500  0.246600  0.748300  1.0  0.0433
  C  C86  1  0.952900  0.201700  0.727600  1.0  -0.1188
  C  C87  1  0.923100  0.146600  0.676700  1.0  -0.0422
  C  C88  1  0.818700  0.392200  0.894500  1.0  0.189
  C  C89  1  0.786100  0.338800  0.842900  1.0  -0.2
  C  C90  1  0.885900  0.304900  0.804600  1.0  0.0694
  C  C91  1  0.017400  0.327400  0.823600  1.0  -0.2007
  C  C92  1  0.042800  0.380600  0.877100  1.0  0.1896
  C  C93  1  0.737900  0.926700  0.408700  1.0  0.7105
  C  C94  1  0.703200  0.866700  0.353800  1.0  -0.0735
  C  C95  1  0.744400  0.801000  0.373600  1.0  -0.0901
  C  C96  1  0.713100  0.746400  0.323000  1.0  -0.1246
  C  C97  1  0.643700  0.756200  0.248900  1.0  0.0465
  C  C98  1  0.603400  0.823100  0.228400  1.0  -0.1344
  C  C99  1  0.629800  0.876600  0.280700  1.0  -0.0826
  C  C100  1  0.573300  0.579400  0.164600  1.0  0.1777
  C  C101  1  0.601600  0.631600  0.218700  1.0  -0.1998
  C  C102  1  0.613800  0.698400  0.192400  1.0  0.0927
  C  C103  1  0.596200  0.708400  0.110200  1.0  -0.214
  C  C104  1  0.566200  0.653200  0.060200  1.0  0.1937
  C  C105  1  0.243800  0.574600  0.907900  1.0  0.6959
  C  C106  1  0.209000  0.635600  0.854100  1.0  -0.1269
  C  C107  1  0.307700  0.681700  0.836300  1.0  -0.0315
  C  C108  1  0.276800  0.736700  0.785800  1.0  -0.1199
  C  C109  1  0.146500  0.746600  0.751700  1.0  0.0436
  C  C110  1  0.047100  0.701700  0.772400  1.0  -0.1185
  C  C111  1  0.076900  0.646600  0.823300  1.0  -0.0432
  C  C112  1  0.181300  0.892200  0.605500  1.0  0.1894
  C  C113  1  0.213900  0.838800  0.657100  1.0  -0.1988
  C  C114  1  0.114100  0.804900  0.695400  1.0  0.069
  C  C115  1  0.982600  0.827400  0.676400  1.0  -0.1992
  C  C116  1  0.957200  0.880600  0.622900  1.0  0.19
  C  C117  1  0.737900  0.573300  0.908700  1.0  0.7103
  C  C118  1  0.703200  0.633300  0.853800  1.0  -0.0744
  C  C119  1  0.744400  0.699000  0.873600  1.0  -0.0904
  C  C120  1  0.713100  0.753600  0.823000  1.0  -0.1231
  C  C121  1  0.643700  0.743800  0.748900  1.0  0.0469
  C  C122  1  0.603400  0.676900  0.728400  1.0  -0.1337
  C  C123  1  0.629800  0.623400  0.780700  1.0  -0.0845
  C  C124  1  0.573300  0.920600  0.664600  1.0  0.1773
  C  C125  1  0.601600  0.868400  0.718700  1.0  -0.1996
  C  C126  1  0.613800  0.801600  0.692400  1.0  0.0929
  C  C127  1  0.596200  0.791600  0.610200  1.0  -0.2121
  C  C128  1  0.566200  0.846800  0.560200  1.0  0.1941
  C  C129  1  0.243800  0.925400  0.407900  1.0  0.6958
  C  C130  1  0.209000  0.864400  0.354100  1.0  -0.1257
  C  C131  1  0.307700  0.818300  0.336300  1.0  -0.0313
  C  C132  1  0.276800  0.763300  0.285800  1.0  -0.1201
  C  C133  1  0.146500  0.753400  0.251700  1.0  0.0435
  C  C134  1  0.047100  0.798300  0.272400  1.0  -0.119
  C  C135  1  0.076900  0.853400  0.323300  1.0  -0.0433
  C  C136  1  0.181300  0.607800  0.105500  1.0  0.1894
  C  C137  1  0.213900  0.661200  0.157100  1.0  -0.1991
  C  C138  1  0.114100  0.695100  0.195400  1.0  0.0688
  C  C139  1  0.982600  0.672600  0.176400  1.0  -0.1991
  C  C140  1  0.957200  0.619400  0.122900  1.0  0.1902
  C  C141  1  0.262100  0.073300  0.591300  1.0  0.7106
  C  C142  1  0.296800  0.133300  0.646200  1.0  -0.0755
  C  C143  1  0.255600  0.199000  0.626400  1.0  -0.0897
  C  C144  1  0.286900  0.253600  0.677000  1.0  -0.127
  C  C145  1  0.356300  0.243800  0.751100  1.0  0.0463
  C  C146  1  0.396600  0.176900  0.771600  1.0  -0.1343
  C  C147  1  0.370200  0.123400  0.719300  1.0  -0.0864
  C  C148  1  0.426700  0.420600  0.835400  1.0  0.1787
  C  C149  1  0.398400  0.368400  0.781300  1.0  -0.2015
  C  C150  1  0.386200  0.301600  0.807600  1.0  0.0932
  C  C151  1  0.403800  0.291600  0.889800  1.0  -0.213
  C  C152  1  0.433800  0.346800  0.939800  1.0  0.1917
  C  C153  1  0.756200  0.425400  0.092100  1.0  0.6962
  C  C154  1  0.791000  0.364400  0.145900  1.0  -0.1258
  C  C155  1  0.692300  0.318300  0.163700  1.0  -0.0308
  C  C156  1  0.723200  0.263300  0.214200  1.0  -0.119
  C  C157  1  0.853500  0.253400  0.248300  1.0  0.0432
  C  C158  1  0.952900  0.298300  0.227600  1.0  -0.1191
  C  C159  1  0.923100  0.353400  0.176700  1.0  -0.0418
  C  C160  1  0.818700  0.107800  0.394500  1.0  0.1888
  C  C161  1  0.786100  0.161200  0.342900  1.0  -0.2
  C  C162  1  0.885900  0.195100  0.304600  1.0  0.0697
  C  C163  1  0.017400  0.172600  0.323600  1.0  -0.2006
  C  C164  1  0.042800  0.119400  0.377100  1.0  0.1891
  N  N165  1  0.445000  0.089050  0.414200  1.0  -0.3352
  N  N166  1  0.945400  0.413400  0.912200  1.0  -0.3442
  N  N167  1  0.555000  0.589050  0.085800  1.0  -0.3362
  N  N168  1  0.054600  0.913400  0.587800  1.0  -0.3458
  N  N169  1  0.555000  0.910950  0.585800  1.0  -0.3362
  N  N170  1  0.054600  0.586600  0.087800  1.0  -0.3459
  N  N171  1  0.445000  0.410950  0.914200  1.0  -0.3355
  N  N172  1  0.945400  0.086600  0.412200  1.0  -0.3429
  O  O173  1  0.144100  0.427450  0.058200  1.0  -0.6152
  O  O174  1  0.352300  0.470940  0.084530  1.0  -0.6079
  O  O175  1  0.635400  0.070370  0.564970  1.0  -0.605
  O  O176  1  0.849800  0.033410  0.580260  1.0  -0.6276
  O  O177  1  0.855900  0.927450  0.441800  1.0  -0.6142
  O  O178  1  0.647700  0.970940  0.415470  1.0  -0.6069
  O  O179  1  0.364600  0.570370  0.935030  1.0  -0.608
  O  O180  1  0.150200  0.533410  0.919740  1.0  -0.6269
  O  O181  1  0.855900  0.572550  0.941800  1.0  -0.6142
  O  O182  1  0.647700  0.529060  0.915470  1.0  -0.6076
  O  O183  1  0.364600  0.929630  0.435030  1.0  -0.6074
  O  O184  1  0.150200  0.966590  0.419740  1.0  -0.6259
  O  O185  1  0.144100  0.072550  0.558200  1.0  -0.6151
  O  O186  1  0.352300  0.029060  0.584530  1.0  -0.608
  O  O187  1  0.635400  0.429630  0.064970  1.0  -0.6045
  O  O188  1  0.849800  0.466590  0.080260  1.0  -0.6267
