# generated using pymatgen
data_MnH16C24(NO2)2
_symmetry_space_group_name_H-M   'P 1'
_cell_length_a   9.78210000
_cell_length_b   19.91600000
_cell_length_c   16.10470000
_cell_angle_alpha   90.00000000
_cell_angle_beta   93.58100000
_cell_angle_gamma   90.00000000
_symmetry_Int_Tables_number   1
_chemical_formula_structural   MnH16C24(NO2)2
_chemical_formula_sum   'Mn4 H64 C96 N8 O16'
_cell_volume   3131.39651706
_cell_formula_units_Z   4
loop_
 _symmetry_equiv_pos_site_id
 _symmetry_equiv_pos_as_xyz
  1  'x, y, z'
loop_
 _atom_site_type_symbol
 _atom_site_label
 _atom_site_symmetry_multiplicity
 _atom_site_fract_x
 _atom_site_fract_y
 _atom_site_fract_z
 _atom_site_occupancy
 _atom_site_charge
  Mn  Mn1  1  0.500000  0.000000  0.500000  1.0  0.9021
  Mn  Mn2  1  0.500000  0.500000  0.000000  1.0  0.9021
  Mn  Mn3  1  0.000000  0.500000  0.000000  1.0  0.9189
  Mn  Mn4  1  0.000000  0.000000  0.500000  1.0  0.9189
  H  H5  1  0.197400  0.300300  0.078900  1.0  0.1109
  H  H6  1  0.259000  0.208000  0.159800  1.0  0.121
  H  H7  1  0.454000  0.329300  0.328900  1.0  0.1144
  H  H8  1  0.414200  0.420000  0.241000  1.0  0.1108
  H  H9  1  0.426400  0.038200  0.310400  1.0  0.0821
  H  H10  1  0.381800  0.126900  0.221200  1.0  0.1199
  H  H11  1  0.408900  0.250800  0.421000  1.0  0.1199
  H  H12  1  0.458500  0.158700  0.503300  1.0  0.0807
  H  H13  1  0.605200  0.177700  0.634400  1.0  0.0972
  H  H14  1  0.656400  0.270000  0.720000  1.0  0.1083
  H  H15  1  0.045900  0.202500  0.757900  1.0  0.106
  H  H16  1  0.993500  0.112200  0.672600  1.0  0.0905
  H  H17  1  0.747500  0.415800  0.919200  1.0  0.0605
  H  H18  1  0.692900  0.326400  0.833300  1.0  0.1045
  H  H19  1  0.095700  0.302500  0.804100  1.0  0.1097
  H  H20  1  0.136800  0.391700  0.891300  1.0  0.0662
  H  H21  1  0.802600  0.800300  0.421100  1.0  0.1111
  H  H22  1  0.741000  0.708000  0.340200  1.0  0.1192
  H  H23  1  0.546000  0.829300  0.171100  1.0  0.1143
  H  H24  1  0.585800  0.920000  0.259000  1.0  0.111
  H  H25  1  0.573600  0.538200  0.189600  1.0  0.0827
  H  H26  1  0.618200  0.626900  0.278800  1.0  0.1204
  H  H27  1  0.591100  0.750800  0.079000  1.0  0.1197
  H  H28  1  0.541500  0.658700  0.996700  1.0  0.0814
  H  H29  1  0.394800  0.677700  0.865600  1.0  0.0966
  H  H30  1  0.343600  0.770000  0.780000  1.0  0.1077
  H  H31  1  0.954100  0.702500  0.742100  1.0  0.1062
  H  H32  1  0.006500  0.612200  0.827400  1.0  0.0896
  H  H33  1  0.252500  0.915800  0.580800  1.0  0.0609
  H  H34  1  0.307100  0.826400  0.666667  1.0  0.1047
  H  H35  1  0.904300  0.802500  0.695900  1.0  0.1096
  H  H36  1  0.863200  0.891700  0.608700  1.0  0.0661
  H  H37  1  0.802600  0.699700  0.921100  1.0  0.1105
  H  H38  1  0.741000  0.792000  0.840200  1.0  0.1215
  H  H39  1  0.546000  0.670700  0.671100  1.0  0.114
  H  H40  1  0.585800  0.580000  0.759000  1.0  0.1108
  H  H41  1  0.573600  0.961800  0.689600  1.0  0.0826
  H  H42  1  0.618200  0.873100  0.778800  1.0  0.1194
  H  H43  1  0.591100  0.749200  0.579000  1.0  0.1195
  H  H44  1  0.541500  0.841300  0.496700  1.0  0.0811
  H  H45  1  0.394800  0.822300  0.365600  1.0  0.0973
  H  H46  1  0.343600  0.730000  0.280000  1.0  0.1085
  H  H47  1  0.954100  0.797500  0.242100  1.0  0.1063
  H  H48  1  0.006500  0.887800  0.327400  1.0  0.0903
  H  H49  1  0.252500  0.584200  0.080800  1.0  0.0614
  H  H50  1  0.307100  0.673600  0.166700  1.0  0.1045
  H  H51  1  0.904300  0.697500  0.195900  1.0  0.1097
  H  H52  1  0.863200  0.608300  0.108700  1.0  0.0669
  H  H53  1  0.197400  0.199700  0.578900  1.0  0.1107
  H  H54  1  0.259000  0.292000  0.659800  1.0  0.1191
  H  H55  1  0.454000  0.170700  0.828900  1.0  0.1148
  H  H56  1  0.414200  0.080000  0.741000  1.0  0.1106
  H  H57  1  0.426400  0.461800  0.810400  1.0  0.0822
  H  H58  1  0.381800  0.373100  0.721200  1.0  0.1207
  H  H59  1  0.408900  0.249200  0.921000  1.0  0.1205
  H  H60  1  0.458500  0.341300  0.003300  1.0  0.0808
  H  H61  1  0.605200  0.322300  0.134400  1.0  0.0974
  H  H62  1  0.656400  0.230000  0.220000  1.0  0.1079
  H  H63  1  0.045900  0.297500  0.257900  1.0  0.106
  H  H64  1  0.993500  0.387800  0.172600  1.0  0.0902
  H  H65  1  0.747500  0.084200  0.419200  1.0  0.0608
  H  H66  1  0.692900  0.173600  0.333333  1.0  0.1045
  H  H67  1  0.095700  0.197500  0.304100  1.0  0.1096
  H  H68  1  0.136800  0.108300  0.391300  1.0  0.067
  C  C69  1  0.262800  0.430000  0.096900  1.0  0.7181
  C  C70  1  0.299000  0.370500  0.151400  1.0  -0.0694
  C  C71  1  0.252800  0.306300  0.129000  1.0  -0.0888
  C  C72  1  0.286300  0.251600  0.178200  1.0  -0.147
  C  C73  1  0.359800  0.259100  0.254600  1.0  0.0664
  C  C74  1  0.404200  0.322800  0.277000  1.0  -0.1402
  C  C75  1  0.377800  0.377300  0.225400  1.0  -0.0876
  C  C76  1  0.423300  0.082200  0.332900  1.0  0.1567
  C  C77  1  0.395800  0.135100  0.279200  1.0  -0.2068
  C  C78  1  0.388300  0.200500  0.309700  1.0  0.0893
  C  C79  1  0.412400  0.207600  0.396200  1.0  -0.2212
  C  C80  1  0.441100  0.152200  0.445200  1.0  0.1764
  C  C81  1  0.757500  0.072000  0.596100  1.0  0.7005
  C  C82  1  0.792700  0.133900  0.648300  1.0  -0.1278
  C  C83  1  0.694400  0.182200  0.660700  1.0  -0.0269
  C  C84  1  0.725300  0.237500  0.711700  1.0  -0.1213
  C  C85  1  0.855000  0.245900  0.750300  1.0  0.0405
  C  C86  1  0.955300  0.197500  0.733800  1.0  -0.1173
  C  C87  1  0.923900  0.143600  0.683500  1.0  -0.0243
  C  C88  1  0.819800  0.392200  0.895500  1.0  0.1774
  C  C89  1  0.786100  0.339000  0.843600  1.0  -0.1974
  C  C90  1  0.887300  0.303900  0.806800  1.0  0.0812
  C  C91  1  0.021100  0.325000  0.826800  1.0  -0.2066
  C  C92  1  0.044600  0.378300  0.879200  1.0  0.1892
  C  C93  1  0.737200  0.930000  0.403100  1.0  0.7183
  C  C94  1  0.701000  0.870500  0.348600  1.0  -0.0686
  C  C95  1  0.747200  0.806300  0.371000  1.0  -0.0911
  C  C96  1  0.713700  0.751600  0.321800  1.0  -0.1451
  C  C97  1  0.640200  0.759100  0.245400  1.0  0.0663
  C  C98  1  0.595800  0.822800  0.223000  1.0  -0.1395
  C  C99  1  0.622200  0.877300  0.274600  1.0  -0.0859
  C  C100  1  0.576700  0.582200  0.167100  1.0  0.1572
  C  C101  1  0.604200  0.635100  0.220800  1.0  -0.2057
  C  C102  1  0.611700  0.700500  0.190300  1.0  0.0891
  C  C103  1  0.587600  0.707600  0.103800  1.0  -0.2224
  C  C104  1  0.558900  0.652200  0.054800  1.0  0.177
  C  C105  1  0.242500  0.572000  0.903900  1.0  0.6999
  C  C106  1  0.207300  0.633900  0.851700  1.0  -0.1285
  C  C107  1  0.305600  0.682200  0.839300  1.0  -0.027
  C  C108  1  0.274700  0.737500  0.788300  1.0  -0.1208
  C  C109  1  0.145000  0.745900  0.749700  1.0  0.0405
  C  C110  1  0.044700  0.697500  0.766200  1.0  -0.1171
  C  C111  1  0.076100  0.643600  0.816500  1.0  -0.0228
  C  C112  1  0.180200  0.892200  0.604500  1.0  0.1762
  C  C113  1  0.213900  0.839000  0.656400  1.0  -0.1947
  C  C114  1  0.112700  0.803900  0.693200  1.0  0.0806
  C  C115  1  0.978900  0.825000  0.673200  1.0  -0.2067
  C  C116  1  0.955400  0.878300  0.620800  1.0  0.1903
  C  C117  1  0.737200  0.570000  0.903100  1.0  0.7192
  C  C118  1  0.701000  0.629500  0.848600  1.0  -0.07
  C  C119  1  0.747200  0.693700  0.871000  1.0  -0.0911
  C  C120  1  0.713700  0.748400  0.821800  1.0  -0.1437
  C  C121  1  0.640200  0.740900  0.745400  1.0  0.0669
  C  C122  1  0.595800  0.677200  0.723000  1.0  -0.1372
  C  C123  1  0.622200  0.622700  0.774600  1.0  -0.088
  C  C124  1  0.576700  0.917800  0.667100  1.0  0.157
  C  C125  1  0.604200  0.864900  0.720800  1.0  -0.206
  C  C126  1  0.611700  0.799500  0.690300  1.0  0.0892
  C  C127  1  0.587600  0.792400  0.603800  1.0  -0.2222
  C  C128  1  0.558900  0.847800  0.554800  1.0  0.1768
  C  C129  1  0.242500  0.928000  0.403900  1.0  0.7001
  C  C130  1  0.207300  0.866100  0.351700  1.0  -0.1285
  C  C131  1  0.305600  0.817800  0.339300  1.0  -0.027
  C  C132  1  0.274700  0.762500  0.288300  1.0  -0.1205
  C  C133  1  0.145000  0.754100  0.249700  1.0  0.0406
  C  C134  1  0.044700  0.802500  0.266200  1.0  -0.1174
  C  C135  1  0.076100  0.856400  0.316500  1.0  -0.0228
  C  C136  1  0.180200  0.607800  0.104500  1.0  0.1757
  C  C137  1  0.213900  0.661000  0.156400  1.0  -0.1952
  C  C138  1  0.112700  0.696100  0.193200  1.0  0.0804
  C  C139  1  0.978900  0.675000  0.173200  1.0  -0.2062
  C  C140  1  0.955400  0.621700  0.120800  1.0  0.1899
  C  C141  1  0.262800  0.070000  0.596900  1.0  0.7189
  C  C142  1  0.299000  0.129500  0.651400  1.0  -0.0708
  C  C143  1  0.252800  0.193700  0.629000  1.0  -0.0885
  C  C144  1  0.286300  0.248400  0.678200  1.0  -0.1469
  C  C145  1  0.359800  0.240900  0.754600  1.0  0.0667
  C  C146  1  0.404200  0.177200  0.777000  1.0  -0.1395
  C  C147  1  0.377800  0.122700  0.725400  1.0  -0.0907
  C  C148  1  0.423300  0.417800  0.832900  1.0  0.1581
  C  C149  1  0.395800  0.364900  0.779200  1.0  -0.2081
  C  C150  1  0.388300  0.299500  0.809700  1.0  0.0893
  C  C151  1  0.412400  0.292400  0.896200  1.0  -0.2232
  C  C152  1  0.441100  0.347800  0.945200  1.0  0.1765
  C  C153  1  0.757500  0.428000  0.096100  1.0  0.7009
  C  C154  1  0.792700  0.366100  0.148300  1.0  -0.1278
  C  C155  1  0.694400  0.317800  0.160700  1.0  -0.0268
  C  C156  1  0.725300  0.262500  0.211700  1.0  -0.1211
  C  C157  1  0.855000  0.254100  0.250300  1.0  0.0407
  C  C158  1  0.955300  0.302500  0.233800  1.0  -0.1172
  C  C159  1  0.923900  0.356400  0.183500  1.0  -0.0236
  C  C160  1  0.819800  0.107800  0.395500  1.0  0.177
  C  C161  1  0.786100  0.161000  0.343600  1.0  -0.1964
  C  C162  1  0.887300  0.196100  0.306800  1.0  0.0814
  C  C163  1  0.021100  0.175000  0.326800  1.0  -0.206
  C  C164  1  0.044600  0.121700  0.379200  1.0  0.1885
  N  N165  1  0.445900  0.089700  0.415500  1.0  -0.34
  N  N166  1  0.947400  0.412500  0.914300  1.0  -0.3458
  N  N167  1  0.554100  0.589700  0.084500  1.0  -0.3405
  N  N168  1  0.052600  0.912500  0.585700  1.0  -0.3465
  N  N169  1  0.554100  0.910300  0.584500  1.0  -0.3408
  N  N170  1  0.052600  0.587500  0.085700  1.0  -0.3467
  N  N171  1  0.445900  0.410300  0.915500  1.0  -0.3405
  N  N172  1  0.947400  0.087500  0.414300  1.0  -0.3453
  O  O173  1  0.145200  0.430600  0.062200  1.0  -0.6064
  O  O174  1  0.354400  0.474500  0.091300  1.0  -0.6126
  O  O175  1  0.635300  0.068100  0.567800  1.0  -0.6025
  O  O176  1  0.849900  0.030100  0.587400  1.0  -0.6218
  O  O177  1  0.854800  0.930600  0.437800  1.0  -0.6065
  O  O178  1  0.645600  0.974500  0.408700  1.0  -0.6122
  O  O179  1  0.364700  0.568100  0.932200  1.0  -0.6034
  O  O180  1  0.150100  0.530100  0.912600  1.0  -0.6215
  O  O181  1  0.854800  0.569400  0.937800  1.0  -0.6062
  O  O182  1  0.645600  0.525500  0.908700  1.0  -0.6111
  O  O183  1  0.364700  0.931900  0.432200  1.0  -0.6038
  O  O184  1  0.150100  0.969900  0.412600  1.0  -0.6214
  O  O185  1  0.145200  0.069400  0.562200  1.0  -0.606
  O  O186  1  0.354400  0.025500  0.591300  1.0  -0.6114
  O  O187  1  0.635300  0.431900  0.067800  1.0  -0.6025
  O  O188  1  0.849900  0.469900  0.087400  1.0  -0.6217
