# generated using pymatgen
data_Eu2Cu3H18C42(NO4)6
_symmetry_space_group_name_H-M   'P 1'
_cell_length_a   13.94500000
_cell_length_b   20.58500000
_cell_length_c   30.63300000
_cell_angle_alpha   90.00000000
_cell_angle_beta   90.00000000
_cell_angle_gamma   98.79000000
_symmetry_Int_Tables_number   1
_chemical_formula_structural   Eu2Cu3H18C42(NO4)6
_chemical_formula_sum   'Eu8 Cu12 H72 C168 N24 O96'
_cell_volume   8690.16396600
_cell_formula_units_Z   4
loop_
 _symmetry_equiv_pos_site_id
 _symmetry_equiv_pos_as_xyz
  1  'x, y, z'
loop_
 _atom_site_type_symbol
 _atom_site_label
 _atom_site_symmetry_multiplicity
 _atom_site_fract_x
 _atom_site_fract_y
 _atom_site_fract_z
 _atom_site_occupancy
 _atom_site_charge
  Eu  Eu1  1  0.976100  0.625140  0.448750  1.0  1.906
  Eu  Eu2  1  0.538940  0.894920  0.690230  1.0  1.9831
  Eu  Eu3  1  0.023900  0.374860  0.551250  1.0  1.908
  Eu  Eu4  1  0.961060  0.605080  0.190230  1.0  1.9816
  Eu  Eu5  1  0.461060  0.105080  0.309770  1.0  1.9821
  Eu  Eu6  1  0.476100  0.125140  0.051250  1.0  1.9058
  Eu  Eu7  1  0.523900  0.874860  0.948750  1.0  1.9077
  Eu  Eu8  1  0.038940  0.394920  0.809770  1.0  1.9836
  Cu  Cu9  1  0.504280  0.241370  0.842560  1.0  0.6801
  Cu  Cu10  1  0.995720  0.258630  0.342560  1.0  0.6824
  Cu  Cu11  1  0.508150  0.780610  0.477850  1.0  0.6753
  Cu  Cu12  1  0.004280  0.741370  0.657440  1.0  0.6795
  Cu  Cu13  1  0.473110  0.610970  0.815400  1.0  0.679
  Cu  Cu14  1  0.973110  0.110970  0.684600  1.0  0.6789
  Cu  Cu15  1  0.526890  0.389030  0.184600  1.0  0.677
  Cu  Cu16  1  0.026890  0.889030  0.315400  1.0  0.6774
  Cu  Cu17  1  0.008150  0.280610  0.022150  1.0  0.6751
  Cu  Cu18  1  0.491850  0.219390  0.522150  1.0  0.6746
  Cu  Cu19  1  0.991850  0.719390  0.977850  1.0  0.6754
  Cu  Cu20  1  0.495720  0.758630  0.157440  1.0  0.6825
  H  H21  1  0.694000  0.704200  0.933600  1.0  0.1044
  H  H22  1  0.930700  0.205500  0.753200  1.0  0.0898
  H  H23  1  0.320100  0.911300  0.380000  1.0  0.1078
  H  H24  1  0.642400  0.546100  0.826700  1.0  0.0993
  H  H25  1  0.341600  0.304900  0.820000  1.0  0.0963
  H  H26  1  0.906900  0.633900  0.718200  1.0  0.0877
  H  H27  1  0.074600  0.295000  0.927000  1.0  0.0935
  H  H28  1  0.813500  0.221500  0.039800  1.0  0.0962
  H  H29  1  0.313500  0.721500  0.460200  1.0  0.0965
  H  H30  1  0.303700  0.729500  0.018900  1.0  0.1023
  H  H31  1  0.158400  0.195100  0.320000  1.0  0.0976
  H  H32  1  0.738600  0.890600  0.255800  1.0  0.1117
  H  H33  1  0.221500  0.957500  0.293500  1.0  0.0849
  H  H34  1  0.357600  0.453900  0.173300  1.0  0.1
  H  H35  1  0.857600  0.953900  0.326700  1.0  0.1001
  H  H36  1  0.299700  0.230700  0.384600  1.0  0.1107
  H  H37  1  0.298200  0.726800  0.706400  1.0  0.1043
  H  H38  1  0.761400  0.609400  0.755800  1.0  0.1116
  H  H39  1  0.817400  0.780400  0.968800  1.0  0.098
  H  H40  1  0.574600  0.795000  0.573000  1.0  0.0931
  H  H41  1  0.430700  0.705500  0.746800  1.0  0.0899
  H  H42  1  0.947000  0.811700  0.393400  1.0  0.0826
  H  H43  1  0.553000  0.688300  0.893400  1.0  0.0823
  H  H44  1  0.721500  0.457500  0.206500  1.0  0.0858
  H  H45  1  0.278500  0.542500  0.793500  1.0  0.085
  H  H46  1  0.941000  0.258800  0.439100  1.0  0.097
  H  H47  1  0.778500  0.042500  0.706500  1.0  0.0852
  H  H48  1  0.441000  0.758800  0.060900  1.0  0.0964
  H  H49  1  0.593100  0.866100  0.218200  1.0  0.0873
  H  H50  1  0.179900  0.588700  0.880000  1.0  0.1078
  H  H51  1  0.447000  0.311700  0.106600  1.0  0.0835
  H  H52  1  0.457700  0.888700  0.416200  1.0  0.0984
  H  H53  1  0.186500  0.778500  0.960200  1.0  0.0946
  H  H54  1  0.317400  0.280400  0.531200  1.0  0.0964
  H  H55  1  0.093100  0.366100  0.281800  1.0  0.0875
  H  H56  1  0.196300  0.770500  0.518900  1.0  0.1031
  H  H57  1  0.261400  0.109400  0.744200  1.0  0.112
  H  H58  1  0.059000  0.741200  0.560900  1.0  0.0956
  H  H59  1  0.925400  0.705000  0.073000  1.0  0.0934
  H  H60  1  0.696300  0.270500  0.981100  1.0  0.1032
  H  H61  1  0.794000  0.205500  0.332300  1.0  0.099
  H  H62  1  0.686500  0.278500  0.539800  1.0  0.0957
  H  H63  1  0.799700  0.730700  0.115400  1.0  0.1109
  H  H64  1  0.042300  0.611300  0.916200  1.0  0.0975
  H  H65  1  0.201800  0.773200  0.206400  1.0  0.1002
  H  H66  1  0.238600  0.390600  0.244200  1.0  0.112
  H  H67  1  0.142400  0.046100  0.673300  1.0  0.0998
  H  H68  1  0.194000  0.204200  0.566400  1.0  0.1056
  H  H69  1  0.679900  0.088700  0.620000  1.0  0.1078
  H  H70  1  0.200300  0.269300  0.884600  1.0  0.1109
  H  H71  1  0.182600  0.219600  0.031200  1.0  0.0973
  H  H72  1  0.406900  0.133900  0.781800  1.0  0.0879
  H  H73  1  0.294000  0.705500  0.167700  1.0  0.0983
  H  H74  1  0.957700  0.388700  0.083800  1.0  0.0978
  H  H75  1  0.803700  0.229500  0.481100  1.0  0.1023
  H  H76  1  0.542300  0.111300  0.583800  1.0  0.0982
  H  H77  1  0.569300  0.294500  0.253200  1.0  0.0902
  H  H78  1  0.798200  0.226800  0.793600  1.0  0.1015
  H  H79  1  0.559000  0.241200  0.939100  1.0  0.0964
  H  H80  1  0.206000  0.794500  0.667700  1.0  0.098
  H  H81  1  0.306000  0.295800  0.066400  1.0  0.1054
  H  H82  1  0.820100  0.411300  0.120000  1.0  0.1074
  H  H83  1  0.806000  0.795800  0.433600  1.0  0.1044
  H  H84  1  0.658400  0.695100  0.180000  1.0  0.097
  H  H85  1  0.700300  0.769300  0.615400  1.0  0.1109
  H  H86  1  0.425400  0.205000  0.427000  1.0  0.0936
  H  H87  1  0.682600  0.719600  0.468800  1.0  0.0963
  H  H88  1  0.841600  0.804900  0.680000  1.0  0.0968
  H  H89  1  0.701800  0.273200  0.293600  1.0  0.1019
  H  H90  1  0.706000  0.294500  0.832300  1.0  0.0985
  H  H91  1  0.069300  0.794500  0.246800  1.0  0.09
  H  H92  1  0.053000  0.188300  0.606600  1.0  0.0823
  C  C93  1  0.814400  0.260730  0.056200  1.0  0.1742
  C  C94  1  0.622300  0.183080  0.459610  1.0  0.6473
  C  C95  1  0.766700  0.748270  0.214790  1.0  -0.0921
  C  C96  1  0.116700  0.181970  0.735050  1.0  0.665
  C  C97  1  0.676100  0.735780  0.194650  1.0  0.1764
  C  C98  1  0.626500  0.157780  0.805120  1.0  0.6698
  C  C99  1  0.742000  0.585840  0.870920  1.0  -0.1192
  C  C100  1  0.792900  0.188430  0.775950  1.0  -0.132
  C  C101  1  0.862500  0.664560  0.717590  1.0  0.1689
  C  C102  1  0.623600  0.774270  0.559760  1.0  0.1537
  C  C103  1  0.834900  0.699510  0.208540  1.0  0.6764
  C  C104  1  0.766400  0.716120  0.522370  1.0  -0.1674
  C  C105  1  0.228500  0.270470  0.433550  1.0  -0.0406
  C  C106  1  0.899300  0.358280  0.081980  1.0  0.141
  C  C107  1  0.382400  0.829450  0.639660  1.0  0.6818
  C  C108  1  0.165100  0.300490  0.791460  1.0  0.6774
  C  C109  1  0.100700  0.641720  0.918020  1.0  0.1409
  C  C110  1  0.289200  0.798860  0.569020  1.0  -0.0365
  C  C111  1  0.873500  0.342220  0.305120  1.0  0.6686
  C  C112  1  0.345700  0.420910  0.151420  1.0  0.1982
  C  C113  1  0.731600  0.328130  0.101630  1.0  -0.0419
  C  C114  1  0.109900  0.541050  0.757020  1.0  0.7288
  C  C115  1  0.823900  0.764220  0.694650  1.0  0.1756
  C  C116  1  0.845700  0.920910  0.348580  1.0  0.1993
  C  C117  1  0.275600  0.149270  0.760220  1.0  -0.1616
  C  C118  1  0.343400  0.187270  0.001900  1.0  0.6687
  C  C119  1  0.637500  0.835440  0.217590  1.0  0.1667
  C  C120  1  0.665100  0.800490  0.708540  1.0  0.678
  C  C121  1  0.871500  0.175720  0.751600  1.0  0.1572
  C  C122  1  0.200500  0.774990  0.549690  1.0  -0.1467
  C  C123  1  0.741400  0.867020  0.403330  1.0  -0.0091
  C  C124  1  0.733300  0.751730  0.714790  1.0  -0.0916
  C  C125  1  0.207900  0.694800  0.114630  1.0  -0.1302
  C  C126  1  0.876400  0.725730  0.059760  1.0  0.1546
  C  C127  1  0.316600  0.043850  0.642780  1.0  0.7372
  C  C128  1  0.381400  0.742250  0.074870  1.0  0.1468
  C  C129  1  0.758600  0.632980  0.903330  1.0  -0.0087
  C  C130  1  0.314400  0.760730  0.443800  1.0  0.1748
  C  C131  1  0.643600  0.335340  0.129570  1.0  0.6534
  C  C132  1  0.349200  0.143010  0.569230  1.0  0.6519
  C  C133  1  0.881400  0.242250  0.425130  1.0  0.1467
  C  C134  1  0.770000  0.228260  0.576570  1.0  -0.0896
  C  C135  1  0.301600  0.240690  0.414890  1.0  -0.168
  C  C136  1  0.359700  0.777100  0.930960  1.0  0.6869
  C  C137  1  0.616700  0.681970  0.764950  1.0  0.6649
  C  C138  1  0.258000  0.414160  0.129080  1.0  -0.1136
  C  C139  1  0.206700  0.645490  0.725400  1.0  -0.021
  C  C140  1  0.185300  0.171480  0.588510  1.0  -0.1727
  C  C141  1  0.151000  0.291260  0.403930  1.0  0.6847
  C  C142  1  0.182700  0.628200  0.896330  1.0  -0.1056
  C  C143  1  0.849000  0.708740  0.596070  1.0  0.6839
  C  C144  1  0.154300  0.079090  0.651420  1.0  0.1973
  C  C145  1  0.790600  0.806720  0.238260  1.0  -0.0616
  C  C146  1  0.617600  0.170550  0.360340  1.0  0.6812
  C  C147  1  0.233600  0.283880  0.477630  1.0  -0.168
  C  C148  1  0.882400  0.329450  0.860340  1.0  0.6816
  C  C149  1  0.205200  0.788200  0.637010  1.0  0.1942
  C  C150  1  0.707100  0.311570  0.275950  1.0  -0.1318
  C  C151  1  0.201700  0.589880  0.751870  1.0  -0.153
  C  C152  1  0.600700  0.141720  0.581980  1.0  0.1439
  C  C153  1  0.793300  0.354510  0.274600  1.0  -0.0208
  C  C154  1  0.698400  0.759310  0.585110  1.0  -0.1698
  C  C155  1  0.290600  0.306720  0.261740  1.0  -0.0625
  C  C156  1  0.812600  0.769060  0.998910  1.0  0.1884
  C  C157  1  0.877700  0.316920  0.959610  1.0  0.6475
  C  C158  1  0.118600  0.757750  0.574870  1.0  0.1465
  C  C159  1  0.270000  0.728260  0.923430  1.0  -0.0902
  C  C160  1  0.768400  0.171870  0.601630  1.0  -0.0514
  C  C161  1  0.123600  0.274270  0.940240  1.0  0.1546
  C  C162  1  0.609900  0.041050  0.742980  1.0  0.7291
  C  C163  1  0.601600  0.661770  0.887530  1.0  0.1706
  C  C164  1  0.789200  0.298860  0.930980  1.0  -0.0363
  C  C165  1  0.398400  0.338230  0.112470  1.0  0.1735
  C  C166  1  0.362500  0.164560  0.782410  1.0  0.1645
  C  C167  1  0.242000  0.085840  0.629080  1.0  -0.1146
  C  C168  1  0.618600  0.257750  0.925130  1.0  0.1463
  C  C169  1  0.814700  0.828520  0.411490  1.0  -0.1736
  C  C170  1  0.298300  0.910120  0.251870  1.0  -0.1568
  C  C171  1  0.217600  0.919630  0.275480  1.0  0.2005
  C  C172  1  0.187400  0.230940  0.001090  1.0  0.1862
  C  C173  1  0.292100  0.805200  0.614630  1.0  -0.1296
  C  C174  1  0.843400  0.687270  0.498100  1.0  0.6689
  C  C175  1  0.628500  0.324280  0.251600  1.0  0.1576
  C  C176  1  0.117600  0.670550  0.139660  1.0  0.6815
  C  C177  1  0.685300  0.671480  0.911490  1.0  -0.1736
  C  C178  1  0.293300  0.854510  0.225400  1.0  -0.021
  C  C179  1  0.651000  0.791260  0.096070  1.0  0.684
  C  C180  1  0.224400  0.350730  0.260220  1.0  -0.1624
  C  C181  1  0.717600  0.419630  0.224520  1.0  0.1966
  C  C182  1  0.209400  0.193280  0.761740  1.0  -0.0629
  C  C183  1  0.758000  0.914160  0.370920  1.0  -0.1187
  C  C184  1  0.371500  0.675720  0.748400  1.0  0.1573
  C  C185  1  0.730000  0.271740  0.076570  1.0  -0.0901
  C  C186  1  0.782400  0.080370  0.724520  1.0  0.1967
  C  C187  1  0.314700  0.328520  0.088510  1.0  -0.1717
  C  C188  1  0.101600  0.161770  0.612470  1.0  0.1704
  C  C189  1  0.771500  0.729530  0.566450  1.0  -0.0399
  C  C190  1  0.271500  0.229530  0.933550  1.0  -0.04
  C  C191  1  0.701700  0.089880  0.748130  1.0  -0.1527
  C  C192  1  0.390100  0.958950  0.257020  1.0  0.7288
  C  C193  1  0.650800  0.856990  0.430770  1.0  0.6512
  C  C194  1  0.207100  0.811570  0.224050  1.0  -0.1307
  C  C195  1  0.349000  0.208740  0.903930  1.0  0.681
  C  C196  1  0.292900  0.688430  0.724050  1.0  -0.1316
  C  C197  1  0.183400  0.456150  0.142780  1.0  0.7377
  C  C198  1  0.798300  0.410120  0.248130  1.0  -0.1521
  C  C199  1  0.801600  0.740690  0.085110  1.0  -0.1672
  C  C200  1  0.377700  0.816920  0.540390  1.0  0.6473
  C  C201  1  0.849200  0.643010  0.930770  1.0  0.6524
  C  C202  1  0.230000  0.771740  0.423430  1.0  -0.091
  C  C203  1  0.794800  0.211800  0.362990  1.0  0.1856
  C  C204  1  0.707900  0.194800  0.385370  1.0  -0.1295
  C  C205  1  0.898400  0.838230  0.387530  1.0  0.1706
  C  C206  1  0.156600  0.312730  0.501900  1.0  0.6711
  C  C207  1  0.728500  0.770470  0.066450  1.0  -0.0405
  C  C208  1  0.150800  0.356990  0.069230  1.0  0.6511
  C  C209  1  0.294800  0.711800  0.137010  1.0  0.1872
  C  C210  1  0.856400  0.164660  0.629570  1.0  0.656
  C  C211  1  0.683400  0.956150  0.357220  1.0  0.7377
  C  C212  1  0.883300  0.818030  0.264950  1.0  0.6658
  C  C213  1  0.775600  0.649270  0.739780  1.0  -0.1616
  C  C214  1  0.700500  0.274990  0.950310  1.0  -0.1467
  C  C215  1  0.140300  0.722900  0.430960  1.0  0.6905
  C  C216  1  0.233300  0.251730  0.785210  1.0  -0.0916
  C  C217  1  0.724400  0.850730  0.239780  1.0  -0.1628
  C  C218  1  0.185600  0.739270  0.943800  1.0  0.1743
  C  C219  1  0.654300  0.579090  0.848580  1.0  0.2002
  C  C220  1  0.373500  0.842220  0.194880  1.0  0.669
  C  C221  1  0.687400  0.730940  0.498910  1.0  0.1869
  C  C222  1  0.126500  0.657780  0.694880  1.0  0.6699
  C  C223  1  0.799500  0.225010  0.450310  1.0  -0.1468
  C  C224  1  0.266400  0.216120  0.977630  1.0  -0.1686
  C  C225  1  0.709400  0.693280  0.738260  1.0  -0.0629
  C  C226  1  0.640300  0.222900  0.069040  1.0  0.6897
  C  C227  1  0.312600  0.269060  0.501090  1.0  0.1882
  C  C228  1  0.241400  0.367020  0.096670  1.0  -0.0094
  C  C229  1  0.299500  0.725010  0.049690  1.0  -0.1468
  C  C230  1  0.733600  0.783880  0.022370  1.0  -0.1673
  C  C231  1  0.792100  0.305200  0.885370  1.0  -0.1292
  C  C232  1  0.710800  0.201140  0.430980  1.0  -0.0353
  C  C233  1  0.231600  0.828130  0.398370  1.0  -0.0492
  C  C234  1  0.176100  0.235780  0.305350  1.0  0.1782
  C  C235  1  0.817300  0.371800  0.103670  1.0  -0.1068
  C  C236  1  0.399300  0.858280  0.418020  1.0  0.1421
  C  C237  1  0.356400  0.664660  0.870430  1.0  0.6563
  C  C238  1  0.128500  0.824280  0.248400  1.0  0.1587
  C  C239  1  0.258600  0.132980  0.596670  1.0  -0.009
  C  C240  1  0.705200  0.288200  0.862990  1.0  0.1863
  C  C241  1  0.706700  0.145490  0.774600  1.0  -0.0206
  C  C242  1  0.656600  0.812730  0.998100  1.0  0.6699
  C  C243  1  0.334900  0.199510  0.291460  1.0  0.6761
  C  C244  1  0.266700  0.248270  0.285210  1.0  -0.0916
  C  C245  1  0.376400  0.225730  0.440240  1.0  0.1544
  C  C246  1  0.210800  0.701140  0.069020  1.0  -0.0356
  C  C247  1  0.685600  0.239270  0.556200  1.0  0.1739
  C  C248  1  0.816600  0.543850  0.857220  1.0  0.7367
  C  C249  1  0.137500  0.335440  0.282410  1.0  0.166
  C  C250  1  0.282400  0.580370  0.775480  1.0  0.1978
  C  C251  1  0.682700  0.128200  0.603670  1.0  -0.1073
  C  C252  1  0.143600  0.835340  0.370430  1.0  0.6543
  C  C253  1  0.198400  0.259310  0.914890  1.0  -0.167
  C  C254  1  0.317300  0.871800  0.396330  1.0  -0.1076
  C  C255  1  0.383300  0.318030  0.235050  1.0  0.6658
  C  C256  1  0.122300  0.683080  0.040390  1.0  0.6471
  C  C257  1  0.890100  0.458950  0.242980  1.0  0.7295
  C  C258  1  0.268400  0.671870  0.898370  1.0  -0.0511
  C  C259  1  0.859700  0.277100  0.569040  1.0  0.6859
  C  C260  1  0.323900  0.264220  0.805350  1.0  0.1755
  N  N261  1  0.585840  0.616570  0.856280  1.0  -0.3132
  N  N262  1  0.879470  0.236410  0.381500  1.0  -0.3298
  N  N263  1  0.366630  0.622230  0.774330  1.0  -0.3187
  N  N264  1  0.617190  0.760550  0.516750  1.0  -0.3377
  N  N265  1  0.120530  0.763590  0.618500  1.0  -0.3315
  N  N266  1  0.382810  0.239450  0.483250  1.0  -0.3403
  N  N267  1  0.085840  0.116570  0.643720  1.0  -0.3132
  N  N268  1  0.914160  0.883430  0.356280  1.0  -0.3163
  N  N269  1  0.897570  0.303090  0.058540  1.0  -0.3226
  N  N270  1  0.414160  0.383430  0.143720  1.0  -0.3168
  N  N271  1  0.882810  0.739450  0.016750  1.0  -0.3393
  N  N272  1  0.102430  0.696910  0.941460  1.0  -0.3202
  N  N273  1  0.602430  0.196910  0.558540  1.0  -0.319
  N  N274  1  0.117190  0.260550  0.983250  1.0  -0.3385
  N  N275  1  0.112820  0.278950  0.304900  1.0  -0.3137
  N  N276  1  0.397570  0.803090  0.441460  1.0  -0.3235
  N  N277  1  0.387180  0.221050  0.804900  1.0  -0.3146
  N  N278  1  0.633370  0.377770  0.225670  1.0  -0.3175
  N  N279  1  0.133370  0.877770  0.274330  1.0  -0.318
  N  N280  1  0.379470  0.736410  0.118500  1.0  -0.3296
  N  N281  1  0.866630  0.122230  0.725670  1.0  -0.3185
  N  N282  1  0.887180  0.721050  0.695100  1.0  -0.3142
  N  N283  1  0.620530  0.263590  0.881500  1.0  -0.3317
  N  N284  1  0.612820  0.778950  0.195100  1.0  -0.3133
  O  O285  1  0.400710  0.873880  0.528060  1.0  -0.5081
  O  O286  1  0.624560  0.392740  0.136100  1.0  -0.5688
  O  O287  1  0.416480  0.253960  0.892040  1.0  -0.5928
  O  O288  1  0.531100  0.060470  0.750300  1.0  -0.5656
  O  O289  1  0.838580  0.650800  0.609070  1.0  -0.5123
  O  O290  1  0.641850  0.163590  0.079520  1.0  -0.6269
  O  O291  1  0.376510  0.832620  0.680910  1.0  -0.6636
  O  O292  1  0.591340  0.729690  0.784050  1.0  -0.5235
  O  O293  1  0.583520  0.746040  0.107960  1.0  -0.5922
  O  O294  1  0.213700  0.514760  0.153280  1.0  -0.4792
  O  O295  1  0.468900  0.939530  0.249700  1.0  -0.5656
  O  O296  1  0.888600  0.379020  0.337480  1.0  -0.52
  O  O297  1  0.427540  0.376970  0.233350  1.0  -0.5962
  O  O298  1  0.431950  0.759110  0.949120  1.0  -0.6378
  O  O299  1  0.161420  0.349200  0.390930  1.0  -0.5123
  O  O300  1  0.580690  0.821640  0.016960  1.0  -0.6792
  O  O301  1  0.538250  0.154440  0.379890  1.0  -0.6658
  O  O302  1  0.581350  0.231940  0.471670  1.0  -0.5986
  O  O303  1  0.572460  0.623030  0.766650  1.0  -0.5954
  O  O304  1  0.416840  0.218970  0.308600  1.0  -0.6319
  O  O305  1  0.583160  0.781030  0.691400  1.0  -0.6318
  O  O306  1  0.038250  0.654440  0.120110  1.0  -0.6646
  O  O307  1  0.192360  0.359610  0.781660  1.0  -0.6379
  O  O308  1  0.584050  0.206740  0.796970  1.0  -0.5856
  O  O309  1  0.111400  0.620980  0.662520  1.0  -0.5192
  O  O310  1  0.080690  0.321640  0.483040  1.0  -0.6788
  O  O311  1  0.931950  0.259110  0.550880  1.0  -0.6378
  O  O312  1  0.171510  0.326490  0.542100  1.0  -0.5364
  O  O313  1  0.671510  0.826490  0.957900  1.0  -0.5395
  O  O314  1  0.927540  0.876970  0.266650  1.0  -0.5923
  O  O315  1  0.084050  0.706740  0.703030  1.0  -0.5876
  O  O316  1  0.415950  0.793260  0.203030  1.0  -0.5869
  O  O317  1  0.068050  0.740890  0.449120  1.0  -0.6377
  O  O318  1  0.124560  0.892740  0.363900  1.0  -0.5687
  O  O319  1  0.807640  0.640390  0.218340  1.0  -0.6398
  O  O320  1  0.631960  0.901880  0.454520  1.0  -0.5041
  O  O321  1  0.388600  0.879020  0.162520  1.0  -0.52
  O  O322  1  0.623490  0.167380  0.319090  1.0  -0.6593
  O  O323  1  0.286300  0.985240  0.653280  1.0  -0.4788
  O  O324  1  0.072460  0.123030  0.733350  1.0  -0.5913
  O  O325  1  0.418650  0.768060  0.528330  1.0  -0.5942
  O  O326  1  0.599640  0.284100  0.146070  1.0  -0.5681
  O  O327  1  0.083520  0.246040  0.392040  1.0  -0.5928
  O  O328  1  0.876510  0.332620  0.819090  1.0  -0.6597
  O  O329  1  0.101570  0.299580  0.071070  1.0  -0.6063
  O  O330  1  0.786300  0.485240  0.846720  1.0  -0.48
  O  O331  1  0.597110  0.928770  0.356410  1.0  -0.5357
  O  O332  1  0.091340  0.229690  0.715950  1.0  -0.5225
  O  O333  1  0.375440  0.607260  0.863900  1.0  -0.5705
  O  O334  1  0.358150  0.836410  0.920480  1.0  -0.6256
  O  O335  1  0.123490  0.667380  0.180910  1.0  -0.6593
  O  O336  1  0.120440  0.484510  0.769390  1.0  -0.7694
  O  O337  1  0.916480  0.753960  0.607960  1.0  -0.5923
  O  O338  1  0.568050  0.240890  0.050880  1.0  -0.638
  O  O339  1  0.898430  0.700420  0.928930  1.0  -0.6071
  O  O340  1  0.900360  0.215900  0.646070  1.0  -0.5674
  O  O341  1  0.307640  0.140390  0.281660  1.0  -0.6395
  O  O342  1  0.918650  0.268060  0.971670  1.0  -0.5937
  O  O343  1  0.419310  0.178360  0.983040  1.0  -0.6776
  O  O344  1  0.961750  0.345560  0.879890  1.0  -0.6665
  O  O345  1  0.902890  0.571230  0.856410  1.0  -0.5364
  O  O346  1  0.908660  0.770310  0.284050  1.0  -0.5237
  O  O347  1  0.368040  0.098120  0.545480  1.0  -0.503
  O  O348  1  0.083160  0.281030  0.808600  1.0  -0.632
  O  O349  1  0.599290  0.126120  0.471940  1.0  -0.5101
  O  O350  1  0.338580  0.150800  0.890930  1.0  -0.5131
  O  O351  1  0.661420  0.849200  0.109070  1.0  -0.513
  O  O352  1  0.379560  0.015490  0.269390  1.0  -0.7715
  O  O353  1  0.141850  0.663590  0.420480  1.0  -0.6262
  O  O354  1  0.099290  0.626120  0.028060  1.0  -0.5104
  O  O355  1  0.402890  0.071230  0.643590  1.0  -0.5374
  O  O356  1  0.328490  0.173510  0.042100  1.0  -0.532
  O  O357  1  0.097110  0.428770  0.143590  1.0  -0.5365
  O  O358  1  0.916840  0.718970  0.191400  1.0  -0.6315
  O  O359  1  0.081350  0.731940  0.028330  1.0  -0.598
  O  O360  1  0.879560  0.515490  0.230610  1.0  -0.7705
  O  O361  1  0.398430  0.200420  0.571070  1.0  -0.6077
  O  O362  1  0.131960  0.401880  0.045480  1.0  -0.5039
  O  O363  1  0.461750  0.845560  0.620110  1.0  -0.667
  O  O364  1  0.858150  0.336410  0.579520  1.0  -0.6263
  O  O365  1  0.408660  0.270310  0.215950  1.0  -0.5235
  O  O366  1  0.919310  0.678360  0.516960  1.0  -0.6776
  O  O367  1  0.031100  0.560470  0.749700  1.0  -0.5649
  O  O368  1  0.713700  0.014760  0.346720  1.0  -0.4776
  O  O369  1  0.620440  0.984510  0.730610  1.0  -0.769
  O  O370  1  0.601570  0.799580  0.428930  1.0  -0.6065
  O  O371  1  0.868040  0.598120  0.954520  1.0  -0.5051
  O  O372  1  0.915950  0.293260  0.296970  1.0  -0.5844
  O  O373  1  0.400360  0.715900  0.853930  1.0  -0.5665
  O  O374  1  0.692360  0.859610  0.718340  1.0  -0.6384
  O  O375  1  0.875440  0.107260  0.636100  1.0  -0.5695
  O  O376  1  0.611400  0.120980  0.837480  1.0  -0.5202
  O  O377  1  0.828490  0.673510  0.457900  1.0  -0.5389
  O  O378  1  0.099640  0.784100  0.353930  1.0  -0.5681
  O  O379  1  0.968900  0.439530  0.250300  1.0  -0.5657
  O  O380  1  0.900710  0.373880  0.971940  1.0  -0.5084
