# generated using pymatgen
data_ErCuH9C16(NO5)2
_symmetry_space_group_name_H-M   'P 1'
_cell_length_a   10.63200000
_cell_length_b   13.86200000
_cell_length_c   19.49800000
_cell_angle_alpha   90.00000000
_cell_angle_beta   99.98000000
_cell_angle_gamma   90.00000000
_symmetry_Int_Tables_number   1
_chemical_formula_structural   ErCuH9C16(NO5)2
_chemical_formula_sum   'Er4 Cu4 H36 C64 N8 O40'
_cell_volume   2830.14763341
_cell_formula_units_Z   4
loop_
 _symmetry_equiv_pos_site_id
 _symmetry_equiv_pos_as_xyz
  1  'x, y, z'
loop_
 _atom_site_type_symbol
 _atom_site_label
 _atom_site_symmetry_multiplicity
 _atom_site_fract_x
 _atom_site_fract_y
 _atom_site_fract_z
 _atom_site_occupancy
 _atom_site_charge
  Er  Er1  1  0.155020  0.067080  0.555910  1.0  1.5047
  Er  Er2  1  0.844980  0.567080  0.944090  1.0  1.5046
  Er  Er3  1  0.844980  0.932920  0.444090  1.0  1.5041
  Er  Er4  1  0.155020  0.432920  0.055910  1.0  1.5041
  Cu  Cu5  1  0.756570  0.067900  0.789420  1.0  0.7702
  Cu  Cu6  1  0.243430  0.567900  0.710580  1.0  0.7728
  Cu  Cu7  1  0.243430  0.932100  0.210580  1.0  0.7729
  Cu  Cu8  1  0.756570  0.432100  0.289420  1.0  0.7706
  H  H9  1  0.783900  0.260500  0.838800  1.0  0.1017
  H  H10  1  0.104900  0.259200  0.711300  1.0  0.1143
  H  H11  1  0.979600  0.125100  0.716700  1.0  0.1
  H  H12  1  0.239400  0.385700  0.635100  1.0  0.101
  H  H13  1  0.616500  0.356400  0.786100  1.0  0.1191
  H  H14  1  0.502800  0.498100  0.777300  1.0  0.106
  H  H15  1  0.739800  0.201700  0.490400  1.0  0.159
  H  H16  1  0.777900  0.243600  0.565800  1.0  0.1648
  H  H17  1  0.719700  0.139700  0.554900  1.0  0.1755
  H  H18  1  0.216100  0.760500  0.661200  1.0  0.1004
  H  H19  1  0.895100  0.759200  0.788700  1.0  0.1142
  H  H20  1  0.020400  0.625100  0.783300  1.0  0.1001
  H  H21  1  0.760600  0.885700  0.864900  1.0  0.1015
  H  H22  1  0.383500  0.856400  0.713900  1.0  0.1198
  H  H23  1  0.497200  0.998100  0.722700  1.0  0.1061
  H  H24  1  0.260200  0.701700  0.009600  1.0  0.1584
  H  H25  1  0.222100  0.743600  0.934200  1.0  0.1652
  H  H26  1  0.280300  0.639700  0.945100  1.0  0.1762
  H  H27  1  0.216100  0.739500  0.161200  1.0  0.1005
  H  H28  1  0.895100  0.740800  0.288700  1.0  0.1143
  H  H29  1  0.020400  0.874900  0.283300  1.0  0.1002
  H  H30  1  0.760600  0.614300  0.364900  1.0  0.1021
  H  H31  1  0.383500  0.643600  0.213900  1.0  0.1197
  H  H32  1  0.497200  0.501900  0.222700  1.0  0.1056
  H  H33  1  0.260200  0.798300  0.509600  1.0  0.1585
  H  H34  1  0.222100  0.756400  0.434200  1.0  0.1629
  H  H35  1  0.280300  0.860300  0.445100  1.0  0.1761
  H  H36  1  0.783900  0.239500  0.338800  1.0  0.1013
  H  H37  1  0.104900  0.240800  0.211300  1.0  0.1143
  H  H38  1  0.979600  0.374900  0.216700  1.0  0.1002
  H  H39  1  0.239400  0.114300  0.135100  1.0  0.1015
  H  H40  1  0.616500  0.143600  0.286100  1.0  0.1193
  H  H41  1  0.502800  0.001900  0.277300  1.0  0.1057
  H  H42  1  0.739800  0.298300  0.990400  1.0  0.159
  H  H43  1  0.777900  0.256400  0.065800  1.0  0.162
  H  H44  1  0.719700  0.360300  0.054900  1.0  0.1758
  C  C45  1  0.848900  0.260700  0.812400  1.0  0.1917
  C  C46  1  0.917100  0.344700  0.809300  1.0  -0.1487
  C  C47  1  0.018100  0.344600  0.772100  1.0  -0.01
  C  C48  1  0.039600  0.261100  0.737500  1.0  -0.077
  C  C49  1  0.964800  0.180300  0.741300  1.0  0.1784
  C  C50  1  0.879600  0.431300  0.847500  1.0  0.7235
  C  C51  1  0.110900  0.427700  0.772400  1.0  0.6868
  C  C52  1  0.315000  0.379000  0.666900  1.0  0.2057
  C  C53  1  0.375900  0.291500  0.671000  1.0  -0.0474
  C  C54  1  0.490800  0.281300  0.716600  1.0  -0.0282
  C  C55  1  0.538800  0.360600  0.755900  1.0  -0.1243
  C  C56  1  0.470500  0.445600  0.750000  1.0  0.1872
  C  C57  1  0.567900  0.188800  0.719100  1.0  0.6724
  C  C58  1  0.308600  0.209900  0.628000  1.0  0.7084
  C  C59  1  0.773900  0.186200  0.538000  1.0  -0.4962
  C  C60  1  0.905100  0.145100  0.542400  1.0  0.7493
  C  C61  1  0.151100  0.760700  0.687600  1.0  0.1922
  C  C62  1  0.082900  0.844700  0.690700  1.0  -0.1477
  C  C63  1  0.981900  0.844600  0.727900  1.0  -0.0108
  C  C64  1  0.960400  0.761100  0.762500  1.0  -0.0754
  C  C65  1  0.035200  0.680300  0.758700  1.0  0.1786
  C  C66  1  0.120400  0.931300  0.652500  1.0  0.7234
  C  C67  1  0.889100  0.927700  0.727600  1.0  0.6857
  C  C68  1  0.685000  0.879000  0.833100  1.0  0.2064
  C  C69  1  0.624100  0.791500  0.829000  1.0  -0.0467
  C  C70  1  0.509200  0.781300  0.783400  1.0  -0.0276
  C  C71  1  0.461200  0.860600  0.744100  1.0  -0.123
  C  C72  1  0.529500  0.945600  0.750000  1.0  0.1871
  C  C73  1  0.432100  0.688800  0.780900  1.0  0.6735
  C  C74  1  0.691400  0.709900  0.872000  1.0  0.7106
  C  C75  1  0.226100  0.686200  0.962000  1.0  -0.4992
  C  C76  1  0.094900  0.645100  0.957600  1.0  0.7519
  C  C77  1  0.151100  0.739300  0.187600  1.0  0.193
  C  C78  1  0.082900  0.655300  0.190700  1.0  -0.1484
  C  C79  1  0.981900  0.655400  0.227900  1.0  -0.0121
  C  C80  1  0.960400  0.738900  0.262500  1.0  -0.0757
  C  C81  1  0.035200  0.819700  0.258700  1.0  0.1786
  C  C82  1  0.120400  0.568700  0.152500  1.0  0.7234
  C  C83  1  0.889100  0.572300  0.227600  1.0  0.686
  C  C84  1  0.685000  0.621000  0.333100  1.0  0.2064
  C  C85  1  0.624100  0.708500  0.329000  1.0  -0.0463
  C  C86  1  0.509200  0.718700  0.283400  1.0  -0.027
  C  C87  1  0.461200  0.639400  0.244100  1.0  -0.1231
  C  C88  1  0.529500  0.554400  0.250000  1.0  0.1871
  C  C89  1  0.432100  0.811200  0.280900  1.0  0.6733
  C  C90  1  0.691400  0.790100  0.372000  1.0  0.7096
  C  C91  1  0.226100  0.813800  0.462000  1.0  -0.4986
  C  C92  1  0.094900  0.854900  0.457600  1.0  0.752
  C  C93  1  0.848900  0.239300  0.312400  1.0  0.1914
  C  C94  1  0.917100  0.155300  0.309300  1.0  -0.1491
  C  C95  1  0.018100  0.155400  0.272100  1.0  -0.0114
  C  C96  1  0.039600  0.238900  0.237500  1.0  -0.0774
  C  C97  1  0.964800  0.319700  0.241300  1.0  0.1792
  C  C98  1  0.879600  0.068700  0.347500  1.0  0.7237
  C  C99  1  0.110900  0.072300  0.272400  1.0  0.6867
  C  C100  1  0.315000  0.121000  0.166900  1.0  0.2062
  C  C101  1  0.375900  0.208500  0.171000  1.0  -0.0461
  C  C102  1  0.490800  0.218700  0.216600  1.0  -0.0273
  C  C103  1  0.538800  0.139400  0.255900  1.0  -0.1245
  C  C104  1  0.470500  0.054400  0.250000  1.0  0.1873
  C  C105  1  0.567900  0.311200  0.219100  1.0  0.6723
  C  C106  1  0.308600  0.290100  0.128000  1.0  0.708
  C  C107  1  0.773900  0.313800  0.038000  1.0  -0.4955
  C  C108  1  0.905100  0.354900  0.042400  1.0  0.7498
  N  N109  1  0.871000  0.179800  0.779600  1.0  -0.322
  N  N110  1  0.358300  0.455300  0.706000  1.0  -0.3188
  N  N111  1  0.129000  0.679800  0.720400  1.0  -0.322
  N  N112  1  0.641700  0.955300  0.794000  1.0  -0.3195
  N  N113  1  0.129000  0.820200  0.220400  1.0  -0.3208
  N  N114  1  0.641700  0.544700  0.294000  1.0  -0.3201
  N  N115  1  0.871000  0.320200  0.279600  1.0  -0.3222
  N  N116  1  0.358300  0.044700  0.206000  1.0  -0.32
  O  O117  1  0.784000  0.423600  0.878660  1.0  -0.6386
  O  O118  1  0.942500  0.508300  0.848910  1.0  -0.6712
  O  O119  1  0.195900  0.439100  0.823970  1.0  -0.5447
  O  O120  1  0.100700  0.476100  0.715870  1.0  -0.5834
  O  O121  1  0.286700  0.132900  0.659120  1.0  -0.6162
  O  O122  1  0.269900  0.222800  0.564100  1.0  -0.6246
  O  O123  1  0.611600  0.158400  0.781350  1.0  -0.5805
  O  O124  1  0.586200  0.152600  0.665000  1.0  -0.4649
  O  O125  1  0.920300  0.061000  0.518630  1.0  -0.8053
  O  O126  1  0.002900  0.191300  0.570950  1.0  -0.6223
  O  O127  1  0.216000  0.923600  0.621340  1.0  -0.639
  O  O128  1  0.057500  0.008300  0.651090  1.0  -0.6703
  O  O129  1  0.804100  0.939100  0.676030  1.0  -0.5445
  O  O130  1  0.899300  0.976100  0.784130  1.0  -0.5854
  O  O131  1  0.713300  0.632900  0.840880  1.0  -0.6155
  O  O132  1  0.730100  0.722800  0.935900  1.0  -0.6259
  O  O133  1  0.388400  0.658400  0.718650  1.0  -0.5794
  O  O134  1  0.413800  0.652600  0.835000  1.0  -0.4664
  O  O135  1  0.079700  0.561000  0.981370  1.0  -0.8049
  O  O136  1  0.997100  0.691300  0.929050  1.0  -0.6225
  O  O137  1  0.216000  0.576400  0.121340  1.0  -0.639
  O  O138  1  0.057500  0.491700  0.151090  1.0  -0.6707
  O  O139  1  0.804100  0.560900  0.176030  1.0  -0.5447
  O  O140  1  0.899300  0.523900  0.284130  1.0  -0.585
  O  O141  1  0.713300  0.867100  0.340880  1.0  -0.6147
  O  O142  1  0.730100  0.777200  0.435900  1.0  -0.6253
  O  O143  1  0.388400  0.841600  0.218650  1.0  -0.5792
  O  O144  1  0.413800  0.847400  0.335000  1.0  -0.4674
  O  O145  1  0.079700  0.939000  0.481370  1.0  -0.8036
  O  O146  1  0.997100  0.808700  0.429050  1.0  -0.6202
  O  O147  1  0.784000  0.076400  0.378660  1.0  -0.639
  O  O148  1  0.942500  0.991700  0.348910  1.0  -0.6717
  O  O149  1  0.195900  0.060900  0.323970  1.0  -0.5449
  O  O150  1  0.100700  0.023900  0.215870  1.0  -0.582
  O  O151  1  0.286700  0.367100  0.159120  1.0  -0.616
  O  O152  1  0.269900  0.277200  0.064100  1.0  -0.6241
  O  O153  1  0.611600  0.341600  0.281350  1.0  -0.5811
  O  O154  1  0.586200  0.347400  0.165000  1.0  -0.4637
  O  O155  1  0.920300  0.439000  0.018630  1.0  -0.8044
  O  O156  1  0.002900  0.308700  0.070950  1.0  -0.6204
