# generated using pymatgen
data_HoCuH9C16(NO5)2
_symmetry_space_group_name_H-M   'P 1'
_cell_length_a   10.79200000
_cell_length_b   13.88900000
_cell_length_c   19.73900000
_cell_angle_alpha   90.00000000
_cell_angle_beta   100.91000000
_cell_angle_gamma   90.00000000
_symmetry_Int_Tables_number   1
_chemical_formula_structural   HoCuH9C16(NO5)2
_chemical_formula_sum   'Ho4 Cu4 H36 C64 N8 O40'
_cell_volume   2905.20435234
_cell_formula_units_Z   4
loop_
 _symmetry_equiv_pos_site_id
 _symmetry_equiv_pos_as_xyz
  1  'x, y, z'
loop_
 _atom_site_type_symbol
 _atom_site_label
 _atom_site_symmetry_multiplicity
 _atom_site_fract_x
 _atom_site_fract_y
 _atom_site_fract_z
 _atom_site_occupancy
 _atom_site_charge
  Ho  Ho1  1  0.154320  0.568390  0.057140  1.0  2.1223
  Ho  Ho2  1  0.845680  0.431610  0.942850  1.0  2.1273
  Ho  Ho3  1  0.154320  0.931610  0.557140  1.0  2.1225
  Ho  Ho4  1  0.845680  0.068390  0.442850  1.0  2.1277
  Cu  Cu5  1  0.757620  0.569940  0.285010  1.0  0.7019
  Cu  Cu6  1  0.757620  0.930060  0.785010  1.0  0.7025
  Cu  Cu7  1  0.242380  0.069940  0.214990  1.0  0.7043
  Cu  Cu8  1  0.242380  0.430060  0.714990  1.0  0.7047
  H  H9  1  0.217900  0.247200  0.953600  1.0  0.1535
  H  H10  1  0.782100  0.752800  0.046400  1.0  0.1539
  H  H11  1  0.104200  0.737400  0.712800  1.0  0.1076
  H  H12  1  0.782100  0.747200  0.546400  1.0  0.1521
  H  H13  1  0.895800  0.262600  0.287200  1.0  0.1085
  H  H14  1  0.786200  0.737600  0.836800  1.0  0.0858
  H  H15  1  0.233500  0.887100  0.140100  1.0  0.1023
  H  H16  1  0.732900  0.652900  0.067300  1.0  0.1432
  H  H17  1  0.500000  0.999000  0.280000  1.0  0.0792
  H  H18  1  0.786200  0.762400  0.336800  1.0  0.0858
  H  H19  1  0.271100  0.177200  0.510700  1.0  0.1453
  H  H20  1  0.233500  0.612900  0.640100  1.0  0.1024
  H  H21  1  0.213800  0.237600  0.663200  1.0  0.0858
  H  H22  1  0.271100  0.322800  0.010700  1.0  0.1454
  H  H23  1  0.766500  0.112900  0.859900  1.0  0.103
  H  H24  1  0.766500  0.387100  0.359900  1.0  0.1025
  H  H25  1  0.213800  0.262400  0.163200  1.0  0.0858
  H  H26  1  0.500000  0.499000  0.220000  1.0  0.0797
  H  H27  1  0.973500  0.629800  0.213700  1.0  0.0888
  H  H28  1  0.500000  0.501000  0.780000  1.0  0.0797
  H  H29  1  0.732900  0.847100  0.567300  1.0  0.1439
  H  H30  1  0.973500  0.870200  0.713700  1.0  0.0892
  H  H31  1  0.728900  0.677200  0.989300  1.0  0.1452
  H  H32  1  0.026500  0.370200  0.786300  1.0  0.0891
  H  H33  1  0.026500  0.129800  0.286300  1.0  0.089
  H  H34  1  0.104200  0.762600  0.212800  1.0  0.1082
  H  H35  1  0.385800  0.358900  0.212700  1.0  0.0986
  H  H36  1  0.267100  0.347100  0.932700  1.0  0.1438
  H  H37  1  0.500000  0.001000  0.720000  1.0  0.0794
  H  H38  1  0.217900  0.252800  0.453600  1.0  0.1538
  H  H39  1  0.385800  0.141100  0.712700  1.0  0.0986
  H  H40  1  0.614200  0.641100  0.787300  1.0  0.0986
  H  H41  1  0.614200  0.858900  0.287300  1.0  0.0983
  H  H42  1  0.728900  0.822800  0.489300  1.0  0.1449
  H  H43  1  0.895800  0.237400  0.787200  1.0  0.1081
  H  H44  1  0.267100  0.152900  0.432700  1.0  0.1438
  C  C45  1  0.961200  0.235300  0.762600  1.0  -0.1007
  C  C46  1  0.151400  0.263200  0.190000  1.0  0.1923
  C  C47  1  0.690400  0.380300  0.329100  1.0  0.1819
  C  C48  1  0.467200  0.946800  0.252900  1.0  0.1839
  C  C49  1  0.490400  0.782600  0.218100  1.0  -0.0141
  C  C50  1  0.903200  0.855500  0.540400  1.0  0.7242
  C  C51  1  0.017200  0.652200  0.773000  1.0  -0.0275
  C  C52  1  0.890100  0.069100  0.725900  1.0  0.6736
  C  C53  1  0.536400  0.862300  0.257600  1.0  -0.1372
  C  C54  1  0.463600  0.362300  0.242400  1.0  -0.136
  C  C55  1  0.309600  0.619700  0.670900  1.0  0.181
  C  C56  1  0.119300  0.067500  0.652100  1.0  0.7139
  C  C57  1  0.690400  0.119700  0.829100  1.0  0.1816
  C  C58  1  0.109900  0.930900  0.274100  1.0  0.6744
  C  C59  1  0.038800  0.735300  0.737400  1.0  -0.1019
  C  C60  1  0.903200  0.644500  0.040400  1.0  0.7231
  C  C61  1  0.509600  0.282600  0.281900  1.0  -0.0139
  C  C62  1  0.096800  0.355500  0.959600  1.0  0.7273
  C  C63  1  0.039200  0.184100  0.261000  1.0  0.1739
  C  C64  1  0.509600  0.217400  0.781900  1.0  -0.0132
  C  C65  1  0.432500  0.306600  0.781700  1.0  0.6594
  C  C66  1  0.109900  0.569100  0.774100  1.0  0.6744
  C  C67  1  0.038800  0.764700  0.237400  1.0  -0.104
  C  C68  1  0.039200  0.315900  0.761000  1.0  0.1721
  C  C69  1  0.467200  0.553200  0.752900  1.0  0.1852
  C  C70  1  0.960800  0.815900  0.739000  1.0  0.1711
  C  C71  1  0.693500  0.287600  0.869100  1.0  0.6953
  C  C72  1  0.916400  0.848300  0.307700  1.0  -0.1676
  C  C73  1  0.536400  0.637700  0.757600  1.0  -0.1379
  C  C74  1  0.119300  0.432500  0.152100  1.0  0.7128
  C  C75  1  0.532800  0.053200  0.747100  1.0  0.1846
  C  C76  1  0.627700  0.207500  0.825900  1.0  -0.0632
  C  C77  1  0.083600  0.348300  0.192300  1.0  -0.1668
  C  C78  1  0.567500  0.693400  0.218300  1.0  0.6594
  C  C79  1  0.775600  0.685400  0.035400  1.0  -0.5118
  C  C80  1  0.083600  0.151700  0.692300  1.0  -0.1669
  C  C81  1  0.880700  0.932500  0.347900  1.0  0.712
  C  C82  1  0.880700  0.567500  0.847900  1.0  0.7126
  C  C83  1  0.372300  0.792500  0.174100  1.0  -0.0634
  C  C84  1  0.309600  0.880300  0.170900  1.0  0.1806
  C  C85  1  0.982800  0.347800  0.227000  1.0  -0.0282
  C  C86  1  0.960800  0.684100  0.239000  1.0  0.1727
  C  C87  1  0.306500  0.712400  0.130900  1.0  0.6952
  C  C88  1  0.693500  0.212400  0.369100  1.0  0.696
  C  C89  1  0.775600  0.814600  0.535400  1.0  -0.5112
  C  C90  1  0.532800  0.446800  0.247100  1.0  0.1837
  C  C91  1  0.627700  0.292500  0.325900  1.0  -0.0631
  C  C92  1  0.224400  0.185400  0.464600  1.0  -0.5154
  C  C93  1  0.224400  0.314600  0.964600  1.0  -0.5147
  C  C94  1  0.463600  0.137700  0.742400  1.0  -0.1373
  C  C95  1  0.017200  0.847800  0.273000  1.0  -0.0272
  C  C96  1  0.961200  0.264700  0.262600  1.0  -0.0996
  C  C97  1  0.151400  0.236800  0.690000  1.0  0.1964
  C  C98  1  0.982800  0.152200  0.727000  1.0  -0.0284
  C  C99  1  0.096800  0.144500  0.459600  1.0  0.7269
  C  C100  1  0.567500  0.806600  0.718300  1.0  0.6588
  C  C101  1  0.306500  0.787600  0.630900  1.0  0.6946
  C  C102  1  0.848600  0.736800  0.810000  1.0  0.1942
  C  C103  1  0.372300  0.707500  0.674100  1.0  -0.0629
  C  C104  1  0.890100  0.430900  0.225900  1.0  0.6734
  C  C105  1  0.848600  0.763200  0.310000  1.0  0.1962
  C  C106  1  0.432500  0.193400  0.281700  1.0  0.659
  C  C107  1  0.916400  0.651700  0.807700  1.0  -0.1671
  C  C108  1  0.490400  0.717400  0.718100  1.0  -0.0132
  N  N109  1  0.867800  0.683000  0.276200  1.0  -0.3267
  N  N110  1  0.645100  0.456200  0.289200  1.0  -0.3358
  N  N111  1  0.354900  0.543800  0.710800  1.0  -0.3364
  N  N112  1  0.867800  0.817000  0.776200  1.0  -0.3275
  N  N113  1  0.645100  0.043800  0.789200  1.0  -0.3351
  N  N114  1  0.132200  0.317000  0.723800  1.0  -0.3267
  N  N115  1  0.354900  0.956200  0.210800  1.0  -0.3361
  N  N116  1  0.132200  0.183000  0.223800  1.0  -0.3263
  O  O117  1  0.942200  0.490900  0.849000  1.0  -0.7105
  O  O118  1  0.285500  0.866300  0.661100  1.0  -0.63
  O  O119  1  0.900800  0.479800  0.280800  1.0  -0.5973
  O  O120  1  0.787900  0.576400  0.877000  1.0  -0.6335
  O  O121  1  0.080100  0.439100  0.982100  1.0  -0.8436
  O  O122  1  0.057800  0.990900  0.651000  1.0  -0.7094
  O  O123  1  0.613100  0.840500  0.779200  1.0  -0.6047
  O  O124  1  0.264900  0.774400  0.568400  1.0  -0.6137
  O  O125  1  0.000700  0.691200  0.069800  1.0  -0.6959
  O  O126  1  0.415700  0.160000  0.336300  1.0  -0.5057
  O  O127  1  0.807700  0.440900  0.174600  1.0  -0.5132
  O  O128  1  0.415700  0.340000  0.836300  1.0  -0.5056
  O  O129  1  0.714500  0.133700  0.338900  1.0  -0.6298
  O  O130  1  0.942200  0.009100  0.349000  1.0  -0.7099
  O  O131  1  0.613100  0.659500  0.279200  1.0  -0.6042
  O  O132  1  0.807700  0.059100  0.674600  1.0  -0.5125
  O  O133  1  0.919900  0.560900  0.017900  1.0  -0.8481
  O  O134  1  0.080100  0.060900  0.482100  1.0  -0.8422
  O  O135  1  0.735100  0.225600  0.431600  1.0  -0.6139
  O  O136  1  0.735100  0.274400  0.931600  1.0  -0.615
  O  O137  1  0.212100  0.076400  0.623000  1.0  -0.6335
  O  O138  1  0.999300  0.308800  0.930200  1.0  -0.6955
  O  O139  1  0.000700  0.808800  0.569800  1.0  -0.6957
  O  O140  1  0.264900  0.725600  0.068400  1.0  -0.6081
  O  O141  1  0.099200  0.979800  0.219200  1.0  -0.5958
  O  O142  1  0.919900  0.939100  0.517900  1.0  -0.8499
  O  O143  1  0.099200  0.520200  0.719200  1.0  -0.5954
  O  O144  1  0.192300  0.559100  0.825400  1.0  -0.5138
  O  O145  1  0.900800  0.020200  0.780800  1.0  -0.5967
  O  O146  1  0.057800  0.509100  0.151000  1.0  -0.7088
  O  O147  1  0.192300  0.940900  0.325400  1.0  -0.5145
  O  O148  1  0.714500  0.366300  0.838900  1.0  -0.6295
  O  O149  1  0.584300  0.840000  0.663700  1.0  -0.5043
  O  O150  1  0.787900  0.923600  0.377000  1.0  -0.6331
  O  O151  1  0.386900  0.159500  0.220800  1.0  -0.6052
  O  O152  1  0.386900  0.340500  0.720800  1.0  -0.6053
  O  O153  1  0.999300  0.191200  0.430200  1.0  -0.6963
  O  O154  1  0.285500  0.633700  0.161100  1.0  -0.6298
  O  O155  1  0.584300  0.660000  0.163700  1.0  -0.506
  O  O156  1  0.212100  0.423600  0.123000  1.0  -0.6332
