# generated using pymatgen
data_Gd2Cu3H18C42(NO4)6
_symmetry_space_group_name_H-M   'P 1'
_cell_length_a   13.95800000
_cell_length_b   20.52900000
_cell_length_c   30.68200000
_cell_angle_alpha   90.00000000
_cell_angle_beta   90.00000000
_cell_angle_gamma   98.82000000
_symmetry_Int_Tables_number   1
_chemical_formula_structural   Gd2Cu3H18C42(NO4)6
_chemical_formula_sum   'Gd8 Cu12 H72 C168 N24 O96'
_cell_volume   8687.77332619
_cell_formula_units_Z   4
loop_
 _symmetry_equiv_pos_site_id
 _symmetry_equiv_pos_as_xyz
  1  'x, y, z'
loop_
 _atom_site_type_symbol
 _atom_site_label
 _atom_site_symmetry_multiplicity
 _atom_site_fract_x
 _atom_site_fract_y
 _atom_site_fract_z
 _atom_site_occupancy
 _atom_site_charge
  Gd  Gd1  1  0.461300  0.104370  0.310330  1.0  1.9477
  Gd  Gd2  1  0.961300  0.604370  0.189670  1.0  1.947
  Gd  Gd3  1  0.975810  0.625070  0.449140  1.0  1.907
  Gd  Gd4  1  0.038700  0.395630  0.810330  1.0  1.9494
  Gd  Gd5  1  0.475810  0.125070  0.050860  1.0  1.9063
  Gd  Gd6  1  0.024190  0.374930  0.550860  1.0  1.9092
  Gd  Gd7  1  0.524190  0.874930  0.949140  1.0  1.9085
  Gd  Gd8  1  0.538700  0.895630  0.689670  1.0  1.9485
  Cu  Cu9  1  0.026680  0.888620  0.315230  1.0  0.685
  Cu  Cu10  1  0.508300  0.779600  0.477990  1.0  0.6765
  Cu  Cu11  1  0.504560  0.242630  0.842330  1.0  0.6828
  Cu  Cu12  1  0.526680  0.388620  0.184770  1.0  0.6848
  Cu  Cu13  1  0.995440  0.257370  0.342330  1.0  0.685
  Cu  Cu14  1  0.491700  0.220400  0.522010  1.0  0.6756
  Cu  Cu15  1  0.008300  0.279600  0.022010  1.0  0.6763
  Cu  Cu16  1  0.991700  0.720400  0.977990  1.0  0.6763
  Cu  Cu17  1  0.004560  0.742630  0.657670  1.0  0.6825
  Cu  Cu18  1  0.473320  0.611380  0.815230  1.0  0.6872
  Cu  Cu19  1  0.495440  0.757370  0.157670  1.0  0.685
  Cu  Cu20  1  0.973320  0.111380  0.684770  1.0  0.6873
  H  H21  1  0.186900  0.779800  0.960800  1.0  0.0965
  H  H22  1  0.448100  0.312500  0.105900  1.0  0.0794
  H  H23  1  0.683900  0.719400  0.469500  1.0  0.0972
  H  H24  1  0.304700  0.294000  0.067500  1.0  0.0942
  H  H25  1  0.237600  0.390000  0.244700  1.0  0.1096
  H  H26  1  0.813100  0.220200  0.039200  1.0  0.0968
  H  H27  1  0.542500  0.113200  0.584400  1.0  0.081
  H  H28  1  0.804700  0.794000  0.432500  1.0  0.0945
  H  H29  1  0.301400  0.231900  0.384200  1.0  0.0999
  H  H30  1  0.940200  0.260900  0.438900  1.0  0.0936
  H  H31  1  0.569100  0.294500  0.253200  1.0  0.0814
  H  H32  1  0.821500  0.410700  0.120700  1.0  0.1169
  H  H33  1  0.200300  0.772700  0.205700  1.0  0.1097
  H  H34  1  0.321500  0.910700  0.379300  1.0  0.1172
  H  H35  1  0.206700  0.795600  0.668000  1.0  0.0983
  H  H36  1  0.195300  0.206000  0.567500  1.0  0.0944
  H  H37  1  0.659700  0.694700  0.178800  1.0  0.0985
  H  H38  1  0.698600  0.768100  0.615800  1.0  0.0997
  H  H39  1  0.957500  0.386800  0.084400  1.0  0.0805
  H  H40  1  0.221100  0.957100  0.293900  1.0  0.0866
  H  H41  1  0.686900  0.279800  0.539200  1.0  0.0964
  H  H42  1  0.930900  0.205500  0.753200  1.0  0.0815
  H  H43  1  0.051900  0.187500  0.605900  1.0  0.0791
  H  H44  1  0.159700  0.194700  0.321200  1.0  0.0989
  H  H45  1  0.803500  0.229800  0.481200  1.0  0.0993
  H  H46  1  0.073000  0.293500  0.927100  1.0  0.0867
  H  H47  1  0.427000  0.206500  0.427100  1.0  0.0874
  H  H48  1  0.316100  0.280600  0.530500  1.0  0.0972
  H  H49  1  0.908200  0.635300  0.718300  1.0  0.0876
  H  H50  1  0.340300  0.305300  0.821200  1.0  0.0984
  H  H51  1  0.430900  0.705500  0.746800  1.0  0.0816
  H  H52  1  0.059800  0.739100  0.561100  1.0  0.0922
  H  H53  1  0.927000  0.706500  0.072900  1.0  0.0869
  H  H54  1  0.737600  0.890000  0.255300  1.0  0.1091
  H  H55  1  0.262400  0.110000  0.744700  1.0  0.1097
  H  H56  1  0.408200  0.135300  0.781700  1.0  0.088
  H  H57  1  0.643900  0.546600  0.826300  1.0  0.1023
  H  H58  1  0.801400  0.731900  0.115800  1.0  0.0997
  H  H59  1  0.678500  0.089300  0.620700  1.0  0.1172
  H  H60  1  0.778900  0.042900  0.706100  1.0  0.0868
  H  H61  1  0.793300  0.204400  0.332000  1.0  0.099
  H  H62  1  0.299700  0.727300  0.705700  1.0  0.1095
  H  H63  1  0.948100  0.812500  0.394100  1.0  0.0794
  H  H64  1  0.700300  0.272700  0.294300  1.0  0.1101
  H  H65  1  0.799700  0.227300  0.794300  1.0  0.1121
  H  H66  1  0.695300  0.706000  0.932500  1.0  0.0941
  H  H67  1  0.721100  0.457100  0.206100  1.0  0.087
  H  H68  1  0.178500  0.589300  0.879300  1.0  0.1173
  H  H69  1  0.591800  0.864700  0.218300  1.0  0.0872
  H  H70  1  0.573000  0.793500  0.572900  1.0  0.0863
  H  H71  1  0.143900  0.046600  0.673700  1.0  0.1027
  H  H72  1  0.551900  0.687500  0.894100  1.0  0.0789
  H  H73  1  0.196500  0.770200  0.518800  1.0  0.0988
  H  H74  1  0.091800  0.364700  0.281700  1.0  0.0873
  H  H75  1  0.278900  0.542900  0.793900  1.0  0.0864
  H  H76  1  0.069100  0.794500  0.246800  1.0  0.0812
  H  H77  1  0.840300  0.805300  0.678800  1.0  0.0973
  H  H78  1  0.457500  0.886800  0.415600  1.0  0.0805
  H  H79  1  0.706700  0.295600  0.832000  1.0  0.0985
  H  H80  1  0.356100  0.453400  0.173700  1.0  0.103
  H  H81  1  0.293300  0.704400  0.168000  1.0  0.0986
  H  H82  1  0.696500  0.270200  0.981200  1.0  0.1002
  H  H83  1  0.440200  0.760900  0.061100  1.0  0.0931
  H  H84  1  0.183900  0.219400  0.030500  1.0  0.0972
  H  H85  1  0.313100  0.720200  0.460800  1.0  0.0955
  H  H86  1  0.559800  0.239100  0.938900  1.0  0.0934
  H  H87  1  0.856100  0.953400  0.326300  1.0  0.103
  H  H88  1  0.042500  0.613200  0.915600  1.0  0.0788
  H  H89  1  0.198600  0.268100  0.884200  1.0  0.1001
  H  H90  1  0.762400  0.610000  0.755300  1.0  0.1092
  H  H91  1  0.303500  0.729800  0.018800  1.0  0.0987
  H  H92  1  0.816100  0.780600  0.969500  1.0  0.0979
  C  C93  1  0.258400  0.134300  0.596900  1.0  -0.0152
  C  C94  1  0.728100  0.770900  0.067200  1.0  -0.0226
  C  C95  1  0.311700  0.269200  0.500500  1.0  0.1936
  C  C96  1  0.710200  0.202000  0.431100  1.0  -0.0251
  C  C97  1  0.382900  0.830000  0.639600  1.0  0.6972
  C  C98  1  0.855700  0.165900  0.629920  1.0  0.6754
  C  C99  1  0.622500  0.773200  0.559800  1.0  0.1472
  C  C100  1  0.101100  0.161900  0.612500  1.0  0.1569
  C  C101  1  0.717100  0.419400  0.224300  1.0  0.2009
  C  C102  1  0.651200  0.856100  0.430700  1.0  0.6489
  C  C103  1  0.767200  0.747400  0.214600  1.0  -0.0855
  C  C104  1  0.176700  0.235000  0.305800  1.0  0.1897
  C  C105  1  0.776400  0.650100  0.739500  1.0  -0.1532
  C  C106  1  0.209600  0.193600  0.762000  1.0  -0.0627
  C  C107  1  0.223600  0.349900  0.260500  1.0  -0.1548
  C  C108  1  0.276400  0.150100  0.760500  1.0  -0.1539
  C  C109  1  0.636600  0.834200  0.217600  1.0  0.1684
  C  C110  1  0.289800  0.798000  0.568900  1.0  -0.0251
  C  C111  1  0.197700  0.258300  0.914500  1.0  -0.1474
  C  C112  1  0.681900  0.128900  0.604400  1.0  -0.1541
  C  C113  1  0.298600  0.909500  0.251900  1.0  -0.1528
  C  C114  1  0.849900  0.709100  0.596600  1.0  0.6848
  C  C115  1  0.242000  0.086700  0.629500  1.0  -0.1219
  C  C116  1  0.122500  0.273200  0.940200  1.0  0.1516
  C  C117  1  0.650100  0.790900  0.096600  1.0  0.6848
  C  C118  1  0.269700  0.729400  0.923700  1.0  -0.0915
  C  C119  1  0.101200  0.643400  0.917500  1.0  0.1593
  C  C120  1  0.817900  0.545100  0.856900  1.0  0.7369
  C  C121  1  0.863400  0.665800  0.717600  1.0  0.1635
  C  C122  1  0.709600  0.693600  0.738000  1.0  -0.0629
  C  C123  1  0.644300  0.334100  0.129920  1.0  0.6757
  C  C124  1  0.814000  0.827500  0.410900  1.0  -0.1695
  C  C125  1  0.282900  0.580600  0.775700  1.0  0.1988
  C  C126  1  0.640000  0.220900  0.069000  1.0  0.7008
  C  C127  1  0.241600  0.365700  0.096900  1.0  -0.0161
  C  C128  1  0.758400  0.634300  0.903100  1.0  -0.0153
  C  C129  1  0.371800  0.675800  0.748200  1.0  0.1709
  C  C130  1  0.798600  0.409500  0.248100  1.0  -0.1512
  C  C131  1  0.186000  0.172500  0.589100  1.0  -0.1679
  C  C132  1  0.758000  0.913300  0.370500  1.0  -0.1221
  C  C133  1  0.185800  0.740700  0.944200  1.0  0.1706
  C  C134  1  0.377500  0.226800  0.440200  1.0  0.1474
  C  C135  1  0.617100  0.170000  0.360400  1.0  0.6949
  C  C136  1  0.875300  0.341200  0.304500  1.0  0.6738
  C  C137  1  0.232800  0.252600  0.785400  1.0  -0.0847
  C  C138  1  0.654800  0.811800  0.998300  1.0  0.7082
  C  C139  1  0.292200  0.806000  0.614400  1.0  -0.1419
  C  C140  1  0.154800  0.311800  0.501700  1.0  0.7079
  C  C141  1  0.898900  0.838100  0.387500  1.0  0.1569
  C  C142  1  0.793700  0.189100  0.776500  1.0  -0.1559
  C  C143  1  0.802300  0.741700  0.085500  1.0  -0.1483
  C  C144  1  0.116900  0.182100  0.735300  1.0  0.6813
  C  C145  1  0.122400  0.684100  0.040200  1.0  0.6601
  C  C146  1  0.318100  0.871100  0.395600  1.0  -0.1546
  C  C147  1  0.685800  0.240700  0.555800  1.0  0.1702
  C  C148  1  0.267200  0.247400  0.285400  1.0  -0.0854
  C  C149  1  0.601100  0.661900  0.887500  1.0  0.1567
  C  C150  1  0.299100  0.725600  0.049600  1.0  -0.139
  C  C151  1  0.682100  0.954900  0.356900  1.0  0.7369
  C  C152  1  0.381100  0.743100  0.074900  1.0  0.1449
  C  C153  1  0.200900  0.774400  0.549600  1.0  -0.1377
  C  C154  1  0.109300  0.541800  0.757500  1.0  0.7118
  C  C155  1  0.144300  0.834100  0.370080  1.0  0.6744
  C  C156  1  0.663100  0.800700  0.708400  1.0  0.6891
  C  C157  1  0.706300  0.310900  0.276500  1.0  -0.1543
  C  C158  1  0.814200  0.259300  0.055800  1.0  0.1713
  C  C159  1  0.383100  0.317900  0.235300  1.0  0.6819
  C  C160  1  0.818100  0.371100  0.104400  1.0  -0.1546
  C  C161  1  0.293400  0.854100  0.225200  1.0  -0.0027
  C  C162  1  0.317900  0.045100  0.643100  1.0  0.7376
  C  C163  1  0.345200  0.188200  0.001700  1.0  0.7089
  C  C164  1  0.314000  0.327500  0.089100  1.0  -0.1677
  C  C165  1  0.766800  0.716400  0.522700  1.0  -0.1698
  C  C166  1  0.741600  0.865700  0.403100  1.0  -0.016
  C  C167  1  0.268700  0.673400  0.897700  1.0  -0.057
  C  C168  1  0.290400  0.306400  0.262000  1.0  -0.0615
  C  C169  1  0.271900  0.229100  0.932800  1.0  -0.0225
  C  C170  1  0.794500  0.210900  0.362700  1.0  0.1827
  C  C171  1  0.188300  0.230800  0.000500  1.0  0.1919
  C  C172  1  0.140000  0.720900  0.431000  1.0  0.6988
  C  C173  1  0.258000  0.413300  0.129500  1.0  -0.1221
  C  C174  1  0.628200  0.324200  0.251800  1.0  0.1727
  C  C175  1  0.344800  0.420500  0.151800  1.0  0.2008
  C  C176  1  0.201400  0.590500  0.751900  1.0  -0.1518
  C  C177  1  0.205500  0.789100  0.637300  1.0  0.1838
  C  C178  1  0.730300  0.270600  0.076300  1.0  -0.0927
  C  C179  1  0.700900  0.274400  0.950400  1.0  -0.1393
  C  C180  1  0.206300  0.810900  0.223500  1.0  -0.1549
  C  C181  1  0.233200  0.283600  0.477300  1.0  -0.1689
  C  C182  1  0.618900  0.256900  0.925100  1.0  0.144
  C  C183  1  0.731300  0.326600  0.102300  1.0  -0.0426
  C  C184  1  0.882900  0.330000  0.860400  1.0  0.6969
  C  C185  1  0.360000  0.779100  0.931000  1.0  0.695
  C  C186  1  0.860000  0.279100  0.569000  1.0  0.6944
  C  C187  1  0.624700  0.158800  0.804500  1.0  0.675
  C  C188  1  0.890700  0.458200  0.242500  1.0  0.7133
  C  C189  1  0.348800  0.143900  0.569300  1.0  0.6498
  C  C190  1  0.742000  0.586700  0.870500  1.0  -0.1225
  C  C191  1  0.294500  0.710900  0.137300  1.0  0.1833
  C  C192  1  0.622400  0.184100  0.459800  1.0  0.6602
  C  C193  1  0.266800  0.216400  0.977300  1.0  -0.1699
  C  C194  1  0.768700  0.173400  0.602300  1.0  -0.0548
  C  C195  1  0.848800  0.643900  0.930700  1.0  0.6503
  C  C196  1  0.705500  0.289100  0.862700  1.0  0.1809
  C  C197  1  0.844800  0.920500  0.348200  1.0  0.1967
  C  C198  1  0.136600  0.334200  0.282400  1.0  0.1653
  C  C199  1  0.150100  0.290900  0.403400  1.0  0.6848
  C  C200  1  0.155200  0.079500  0.651800  1.0  0.206
  C  C201  1  0.706600  0.145900  0.774800  1.0  -0.0026
  C  C202  1  0.697700  0.758300  0.585500  1.0  -0.1482
  C  C203  1  0.323300  0.265000  0.805800  1.0  0.1889
  C  C204  1  0.686000  0.672500  0.910900  1.0  -0.1691
  C  C205  1  0.151200  0.356100  0.069300  1.0  0.6489
  C  C206  1  0.799100  0.225600  0.450400  1.0  -0.1394
  C  C207  1  0.732800  0.752600  0.714600  1.0  -0.0841
  C  C208  1  0.881100  0.243100  0.425100  1.0  0.1447
  C  C209  1  0.206600  0.645900  0.725200  1.0  -0.0028
  C  C210  1  0.883100  0.817900  0.264700  1.0  0.6816
  C  C211  1  0.231300  0.826600  0.397700  1.0  -0.0567
  C  C212  1  0.349900  0.209100  0.903400  1.0  0.6846
  C  C213  1  0.230300  0.770600  0.423700  1.0  -0.093
  C  C214  1  0.124700  0.658800  0.695500  1.0  0.6747
  C  C215  1  0.877500  0.726800  0.059800  1.0  0.1505
  C  C216  1  0.609300  0.041800  0.742500  1.0  0.7123
  C  C217  1  0.676700  0.735000  0.194200  1.0  0.1896
  C  C218  1  0.210200  0.702000  0.068900  1.0  -0.0252
  C  C219  1  0.117100  0.670000  0.139600  1.0  0.6955
  C  C220  1  0.390700  0.958200  0.257500  1.0  0.7126
  C  C221  1  0.616900  0.682100  0.764700  1.0  0.681
  C  C222  1  0.723600  0.849900  0.239500  1.0  -0.1551
  C  C223  1  0.655200  0.579500  0.848200  1.0  0.2012
  C  C224  1  0.782900  0.080600  0.724300  1.0  0.199
  C  C225  1  0.898800  0.356600  0.082500  1.0  0.1592
  C  C226  1  0.128200  0.824200  0.248200  1.0  0.171
  C  C227  1  0.790400  0.806400  0.238000  1.0  -0.0616
  C  C228  1  0.707800  0.194000  0.385600  1.0  -0.1423
  C  C229  1  0.293700  0.689100  0.723500  1.0  -0.1559
  C  C230  1  0.793400  0.354100  0.274800  1.0  -0.0025
  C  C231  1  0.771900  0.729100  0.567200  1.0  -0.0226
  C  C232  1  0.789800  0.298000  0.931100  1.0  -0.025
  C  C233  1  0.217100  0.919400  0.275700  1.0  0.2014
  C  C234  1  0.836900  0.699300  0.208400  1.0  0.6884
  C  C235  1  0.769700  0.229400  0.576300  1.0  -0.0911
  C  C236  1  0.375300  0.841200  0.195500  1.0  0.6738
  C  C237  1  0.792200  0.306000  0.885600  1.0  -0.1411
  C  C238  1  0.701400  0.090500  0.748100  1.0  -0.1542
  C  C239  1  0.355700  0.665900  0.870080  1.0  0.6753
  C  C240  1  0.181900  0.628900  0.895600  1.0  -0.1543
  C  C241  1  0.811700  0.769200  0.999500  1.0  0.1947
  C  C242  1  0.688300  0.730800  0.499500  1.0  0.1934
  C  C243  1  0.228100  0.270900  0.432800  1.0  -0.0226
  C  C244  1  0.845200  0.688200  0.498300  1.0  0.7081
  C  C245  1  0.302300  0.241700  0.414500  1.0  -0.1483
  C  C246  1  0.823300  0.765000  0.694200  1.0  0.1887
  C  C247  1  0.398800  0.856600  0.417500  1.0  0.1587
  C  C248  1  0.363400  0.165800  0.782400  1.0  0.1632
  C  C249  1  0.207800  0.694000  0.114400  1.0  -0.1424
  C  C250  1  0.336900  0.199300  0.291600  1.0  0.6893
  C  C251  1  0.182100  0.454900  0.143100  1.0  0.7372
  C  C252  1  0.871800  0.175800  0.751800  1.0  0.1697
  C  C253  1  0.163100  0.300700  0.791600  1.0  0.6896
  C  C254  1  0.877600  0.315900  0.959800  1.0  0.6597
  C  C255  1  0.377600  0.815900  0.540200  1.0  0.6598
  C  C256  1  0.398900  0.338100  0.112500  1.0  0.1572
  C  C257  1  0.601200  0.143400  0.582500  1.0  0.1588
  C  C258  1  0.314200  0.759300  0.444200  1.0  0.1718
  C  C259  1  0.733200  0.783600  0.022700  1.0  -0.169
  C  C260  1  0.118900  0.756900  0.574900  1.0  0.1442
  N  N261  1  0.620500  0.264300  0.881270  1.0  -0.3343
  N  N262  1  0.585500  0.617000  0.856030  1.0  -0.3291
  N  N263  1  0.133000  0.877800  0.273990  1.0  -0.3185
  N  N264  1  0.085500  0.117000  0.643970  1.0  -0.3289
  N  N265  1  0.397800  0.801900  0.441380  1.0  -0.3235
  N  N266  1  0.914500  0.883000  0.356030  1.0  -0.3304
  N  N267  1  0.879500  0.235700  0.381270  1.0  -0.3339
  N  N268  1  0.102200  0.698100  0.941380  1.0  -0.3207
  N  N269  1  0.367000  0.622200  0.773990  1.0  -0.3198
  N  N270  1  0.379500  0.735700  0.118730  1.0  -0.3336
  N  N271  1  0.120500  0.764300  0.618730  1.0  -0.3342
  N  N272  1  0.112800  0.277500  0.304620  1.0  -0.3235
  N  N273  1  0.882900  0.739800  0.017040  1.0  -0.3363
  N  N274  1  0.602200  0.198100  0.558620  1.0  -0.3204
  N  N275  1  0.633000  0.377800  0.226010  1.0  -0.3179
  N  N276  1  0.382900  0.239800  0.482960  1.0  -0.337
  N  N277  1  0.414500  0.383000  0.143970  1.0  -0.3309
  N  N278  1  0.897800  0.301900  0.058620  1.0  -0.3232
  N  N279  1  0.617100  0.760200  0.517040  1.0  -0.3348
  N  N280  1  0.612800  0.777500  0.195380  1.0  -0.3238
  N  N281  1  0.867000  0.122200  0.726010  1.0  -0.3196
  N  N282  1  0.887200  0.722500  0.695380  1.0  -0.3237
  N  N283  1  0.117100  0.260200  0.982960  1.0  -0.3354
  N  N284  1  0.387200  0.222500  0.804620  1.0  -0.3236
  O  O285  1  0.932600  0.260000  0.551190  1.0  -0.6502
  O  O286  1  0.668800  0.825100  0.958350  1.0  -0.5492
  O  O287  1  0.961500  0.346100  0.880230  1.0  -0.6673
  O  O288  1  0.585600  0.209000  0.796650  1.0  -0.5938
  O  O289  1  0.641700  0.162000  0.079000  1.0  -0.6161
  O  O290  1  0.809400  0.639300  0.218340  1.0  -0.6446
  O  O291  1  0.903900  0.572800  0.855970  1.0  -0.5298
  O  O292  1  0.392000  0.878000  0.163120  1.0  -0.5313
  O  O293  1  0.875500  0.108700  0.636360  1.0  -0.5761
  O  O294  1  0.067400  0.740000  0.448810  1.0  -0.6496
  O  O295  1  0.398700  0.201700  0.570550  1.0  -0.6049
  O  O296  1  0.211900  0.513400  0.154700  1.0  -0.4962
  O  O297  1  0.120100  0.485100  0.770530  1.0  -0.7716
  O  O298  1  0.091600  0.230200  0.716010  1.0  -0.514
  O  O299  1  0.030700  0.562100  0.750500  1.0  -0.5545
  O  O300  1  0.624500  0.391300  0.136360  1.0  -0.5756
  O  O301  1  0.416700  0.254300  0.892030  1.0  -0.5859
  O  O302  1  0.581800  0.781100  0.691370  1.0  -0.6267
  O  O303  1  0.900800  0.372700  0.972450  1.0  -0.5029
  O  O304  1  0.096100  0.427200  0.144030  1.0  -0.5293
  O  O305  1  0.572000  0.623200  0.766500  1.0  -0.5915
  O  O306  1  0.530700  0.062100  0.749500  1.0  -0.5567
  O  O307  1  0.428000  0.376800  0.233500  1.0  -0.5921
  O  O308  1  0.288100  0.986600  0.654700  1.0  -0.4974
  O  O309  1  0.596100  0.927200  0.355970  1.0  -0.5285
  O  O310  1  0.969300  0.437900  0.249500  1.0  -0.5572
  O  O311  1  0.918600  0.266900  0.971750  1.0  -0.5966
  O  O312  1  0.400800  0.872700  0.527550  1.0  -0.5019
  O  O313  1  0.591600  0.730200  0.783990  1.0  -0.5145
  O  O314  1  0.331200  0.174900  0.041650  1.0  -0.5451
  O  O315  1  0.414400  0.791000  0.203350  1.0  -0.5949
  O  O316  1  0.190600  0.360700  0.781660  1.0  -0.6434
  O  O317  1  0.711900  0.013400  0.345300  1.0  -0.4958
  O  O318  1  0.469300  0.937900  0.250500  1.0  -0.5572
  O  O319  1  0.858300  0.338000  0.579000  1.0  -0.6164
  O  O320  1  0.099200  0.627300  0.027550  1.0  -0.5049
  O  O321  1  0.358300  0.838000  0.921000  1.0  -0.616
  O  O322  1  0.141700  0.662000  0.421000  1.0  -0.6155
  O  O323  1  0.579100  0.821100  0.017300  1.0  -0.7213
  O  O324  1  0.831200  0.674900  0.458350  1.0  -0.5391
  O  O325  1  0.400400  0.717600  0.853480  1.0  -0.5652
  O  O326  1  0.583300  0.745700  0.107970  1.0  -0.5851
  O  O327  1  0.083300  0.245700  0.392030  1.0  -0.5857
  O  O328  1  0.108000  0.622000  0.663120  1.0  -0.5312
  O  O329  1  0.620100  0.985100  0.729470  1.0  -0.7703
  O  O330  1  0.124500  0.891300  0.363640  1.0  -0.5763
  O  O331  1  0.876600  0.333200  0.819490  1.0  -0.6667
  O  O332  1  0.839600  0.650600  0.609310  1.0  -0.5083
  O  O333  1  0.160400  0.349400  0.390690  1.0  -0.5085
  O  O334  1  0.914400  0.291000  0.296650  1.0  -0.5927
  O  O335  1  0.581400  0.233100  0.471750  1.0  -0.5997
  O  O336  1  0.376600  0.833200  0.680510  1.0  -0.667
  O  O337  1  0.920900  0.678900  0.517300  1.0  -0.72
  O  O338  1  0.879900  0.514900  0.229470  1.0  -0.7737
  O  O339  1  0.339600  0.150600  0.890690  1.0  -0.5087
  O  O340  1  0.868400  0.599400  0.953800  1.0  -0.4784
  O  O341  1  0.420900  0.178900  0.982700  1.0  -0.7193
  O  O342  1  0.408400  0.269800  0.216010  1.0  -0.5154
  O  O343  1  0.567400  0.240000  0.051190  1.0  -0.6505
  O  O344  1  0.898700  0.701700  0.929450  1.0  -0.6047
  O  O345  1  0.379900  0.014900  0.270530  1.0  -0.7737
  O  O346  1  0.608000  0.122000  0.836880  1.0  -0.5313
  O  O347  1  0.101300  0.298300  0.070550  1.0  -0.6028
  O  O348  1  0.432600  0.760000  0.948810  1.0  -0.6502
  O  O349  1  0.099600  0.782400  0.353480  1.0  -0.566
  O  O350  1  0.038500  0.653900  0.119770  1.0  -0.6658
  O  O351  1  0.085600  0.709000  0.703350  1.0  -0.5957
  O  O352  1  0.918200  0.718900  0.191370  1.0  -0.6278
  O  O353  1  0.081400  0.733100  0.028250  1.0  -0.5998
  O  O354  1  0.309400  0.139300  0.281660  1.0  -0.6444
  O  O355  1  0.538500  0.153900  0.380230  1.0  -0.666
  O  O356  1  0.660400  0.849400  0.109310  1.0  -0.5099
  O  O357  1  0.631600  0.900600  0.453800  1.0  -0.4782
  O  O358  1  0.072000  0.123200  0.733500  1.0  -0.5892
  O  O359  1  0.690600  0.860700  0.718340  1.0  -0.6446
  O  O360  1  0.928000  0.876800  0.266500  1.0  -0.5901
  O  O361  1  0.461500  0.846100  0.619770  1.0  -0.6672
  O  O362  1  0.601300  0.798300  0.429450  1.0  -0.6031
  O  O363  1  0.375500  0.608700  0.863640  1.0  -0.5774
  O  O364  1  0.892000  0.378000  0.336880  1.0  -0.5318
  O  O365  1  0.908400  0.769800  0.283990  1.0  -0.5148
  O  O366  1  0.123400  0.666800  0.180510  1.0  -0.6685
  O  O367  1  0.418200  0.218900  0.308630  1.0  -0.6279
  O  O368  1  0.916700  0.754300  0.607970  1.0  -0.5864
  O  O369  1  0.900400  0.217600  0.646520  1.0  -0.5641
  O  O370  1  0.168800  0.325100  0.541650  1.0  -0.5404
  O  O371  1  0.418600  0.766900  0.528250  1.0  -0.5976
  O  O372  1  0.131600  0.400600  0.046200  1.0  -0.4785
  O  O373  1  0.081800  0.281100  0.808630  1.0  -0.6269
  O  O374  1  0.403900  0.072800  0.644030  1.0  -0.5308
  O  O375  1  0.079100  0.321100  0.482700  1.0  -0.7209
  O  O376  1  0.788100  0.486600  0.845300  1.0  -0.4984
  O  O377  1  0.599200  0.127300  0.472450  1.0  -0.5048
  O  O378  1  0.368400  0.099400  0.546200  1.0  -0.4779
  O  O379  1  0.599600  0.282400  0.146520  1.0  -0.5655
  O  O380  1  0.623400  0.166800  0.319490  1.0  -0.6657
