# generated using pymatgen
data_Tb2Cu3H21C42(N3O13)2
_symmetry_space_group_name_H-M   'P 1'
_cell_length_a   13.93400000
_cell_length_b   20.49400000
_cell_length_c   30.72200000
_cell_angle_alpha   90.00000000
_cell_angle_beta   90.00000000
_cell_angle_gamma   98.71000000
_symmetry_Int_Tables_number   1
_chemical_formula_structural   Tb2Cu3H21C42(N3O13)2
_chemical_formula_sum   'Tb8 Cu12 H84 C168 N24 O104'
_cell_volume   8671.90287461
_cell_formula_units_Z   4
loop_
 _symmetry_equiv_pos_site_id
 _symmetry_equiv_pos_as_xyz
  1  'x, y, z'
loop_
 _atom_site_type_symbol
 _atom_site_label
 _atom_site_symmetry_multiplicity
 _atom_site_fract_x
 _atom_site_fract_y
 _atom_site_fract_z
 _atom_site_occupancy
 _atom_site_charge
  Tb  Tb1  1  0.461020  0.604450  0.810330  1.0  2.0242
  Tb  Tb2  1  0.538980  0.395550  0.189670  1.0  2.0257
  Tb  Tb3  1  0.961020  0.104450  0.689670  1.0  2.0238
  Tb  Tb4  1  0.023720  0.874760  0.050700  1.0  2.1682
  Tb  Tb5  1  0.476280  0.625240  0.550700  1.0  2.1688
  Tb  Tb6  1  0.038980  0.895550  0.310330  1.0  2.0261
  Tb  Tb7  1  0.523720  0.374760  0.449300  1.0  2.1704
  Tb  Tb8  1  0.976280  0.125240  0.949300  1.0  2.171
  Cu  Cu9  1  0.491620  0.720030  0.021910  1.0  0.6706
  Cu  Cu10  1  0.991620  0.220030  0.478090  1.0  0.6713
  Cu  Cu11  1  0.004730  0.242050  0.157680  1.0  0.6815
  Cu  Cu12  1  0.504730  0.742050  0.342320  1.0  0.6817
  Cu  Cu13  1  0.973410  0.611740  0.184440  1.0  0.6486
  Cu  Cu14  1  0.526590  0.888260  0.684440  1.0  0.6478
  Cu  Cu15  1  0.995270  0.757950  0.842320  1.0  0.6838
  Cu  Cu16  1  0.008380  0.779970  0.521910  1.0  0.672
  Cu  Cu17  1  0.508380  0.279970  0.978090  1.0  0.6722
  Cu  Cu18  1  0.473410  0.111740  0.315560  1.0  0.6487
  Cu  Cu19  1  0.026590  0.388260  0.815560  1.0  0.6482
  Cu  Cu20  1  0.495270  0.257950  0.657680  1.0  0.6839
  H  H21  1  0.707400  0.795000  0.331500  1.0  0.1012
  H  H22  1  0.408300  0.635100  0.281500  1.0  0.0873
  H  H23  1  0.184300  0.719900  0.530900  1.0  0.0948
  H  H24  1  0.201000  0.770000  0.384800  1.0  0.1063
  H  H25  1  0.804300  0.294500  0.933300  1.0  0.102
  H  H26  1  0.220600  0.457500  0.794200  1.0  0.0905
  H  H27  1  0.356100  0.952300  0.674100  1.0  0.1034
  H  H28  1  0.313900  0.220600  0.960900  1.0  0.0986
  H  H29  1  0.591700  0.364900  0.718500  1.0  0.0871
  H  H30  1  0.195700  0.705500  0.066700  1.0  0.1021
  H  H31  1  0.143900  0.547700  0.174100  1.0  0.1029
  H  H32  1  0.320800  0.410900  0.879400  1.0  0.1107
  H  H33  1  0.813900  0.720600  0.539100  1.0  0.0982
  H  H34  1  0.074700  0.794700  0.427300  1.0  0.0936
  H  H35  1  0.012000  0.036000  0.909000  1.0  0.4514
  H  H36  1  0.840100  0.305600  0.179000  1.0  0.0985
  H  H37  1  0.299000  0.730000  0.884800  1.0  0.1059
  H  H38  1  0.315700  0.780100  0.030900  1.0  0.0952
  H  H39  1  0.197800  0.270000  0.019100  1.0  0.1033
  H  H40  1  0.929900  0.705600  0.252700  1.0  0.0822
  H  H41  1  0.988000  0.964000  0.091000  1.0  0.4521
  H  H42  1  0.720600  0.957500  0.705800  1.0  0.0906
  H  H43  1  0.799000  0.230000  0.615200  1.0  0.1057
  H  H44  1  0.761800  0.110200  0.255700  1.0  0.1076
  H  H45  1  0.886000  0.953000  0.081000  1.0  0.4815
  H  H46  1  0.457700  0.387900  0.916000  1.0  0.0894
  H  H47  1  0.701000  0.270000  0.115200  1.0  0.106
  H  H48  1  0.304300  0.794500  0.566700  1.0  0.1021
  H  H49  1  0.614000  0.547000  0.581000  1.0  0.4787
  H  H50  1  0.697800  0.770000  0.480900  1.0  0.1026
  H  H51  1  0.261800  0.610200  0.244300  1.0  0.1081
  H  H52  1  0.570100  0.794400  0.752700  1.0  0.0824
  H  H53  1  0.700700  0.772600  0.794000  1.0  0.1157
  H  H54  1  0.279400  0.042500  0.294200  1.0  0.0904
  H  H55  1  0.114000  0.047000  0.919000  1.0  0.4786
  H  H56  1  0.070100  0.294400  0.747300  1.0  0.0821
  H  H57  1  0.060100  0.240400  0.061300  1.0  0.0922
  H  H58  1  0.042300  0.112100  0.416000  1.0  0.0897
  H  H59  1  0.447500  0.811200  0.606300  1.0  0.0831
  H  H60  1  0.340100  0.805600  0.321000  1.0  0.0988
  H  H61  1  0.820800  0.910900  0.620600  1.0  0.1105
  H  H62  1  0.815700  0.280100  0.469100  1.0  0.0952
  H  H63  1  0.908300  0.135100  0.218500  1.0  0.0873
  H  H64  1  0.512000  0.536000  0.591000  1.0  0.4529
  H  H65  1  0.006000  0.202000  0.869000  1.0  0.3835
  H  H66  1  0.574700  0.294700  0.072700  1.0  0.0934
  H  H67  1  0.302200  0.230000  0.519100  1.0  0.1019
  H  H68  1  0.779400  0.542500  0.205800  1.0  0.0906
  H  H69  1  0.792600  0.705000  0.831500  1.0  0.1013
  H  H70  1  0.207400  0.295000  0.168500  1.0  0.1012
  H  H71  1  0.560100  0.740400  0.438700  1.0  0.0919
  H  H72  1  0.947500  0.311200  0.893700  1.0  0.0837
  H  H73  1  0.488000  0.464000  0.409000  1.0  0.4526
  H  H74  1  0.659900  0.194400  0.679000  1.0  0.0988
  H  H75  1  0.494000  0.298000  0.369000  1.0  0.3866
  H  H76  1  0.679200  0.589100  0.120600  1.0  0.1107
  H  H77  1  0.643900  0.047700  0.325900  1.0  0.1022
  H  H78  1  0.684300  0.219900  0.969100  1.0  0.0949
  H  H79  1  0.200700  0.272600  0.706000  1.0  0.1152
  H  H80  1  0.506000  0.702000  0.631000  1.0  0.3822
  H  H81  1  0.738200  0.389800  0.755700  1.0  0.1075
  H  H82  1  0.695700  0.205500  0.433300  1.0  0.1015
  H  H83  1  0.425300  0.705300  0.927300  1.0  0.0936
  H  H84  1  0.957700  0.887900  0.584000  1.0  0.0897
  H  H85  1  0.802200  0.730000  0.980900  1.0  0.1036
  H  H86  1  0.686100  0.779400  0.039100  1.0  0.098
  H  H87  1  0.552500  0.188800  0.393700  1.0  0.0834
  H  H88  1  0.091700  0.864900  0.781500  1.0  0.087
  H  H89  1  0.159900  0.694400  0.821000  1.0  0.0994
  H  H90  1  0.299300  0.227400  0.206000  1.0  0.1152
  H  H91  1  0.925300  0.205300  0.572700  1.0  0.0936
  H  H92  1  0.799300  0.727400  0.294000  1.0  0.1151
  H  H93  1  0.994000  0.798000  0.131000  1.0  0.3847
  H  H94  1  0.186100  0.279400  0.460900  1.0  0.0982
  H  H95  1  0.238200  0.889800  0.744300  1.0  0.1081
  H  H96  1  0.429900  0.205600  0.247300  1.0  0.0822
  H  H97  1  0.439900  0.259600  0.561300  1.0  0.0931
  H  H98  1  0.292600  0.205000  0.668500  1.0  0.1007
  H  H99  1  0.179200  0.089100  0.379400  1.0  0.1107
  H  H100  1  0.052500  0.688800  0.106300  1.0  0.083
  H  H101  1  0.386000  0.453000  0.419000  1.0  0.4819
  H  H102  1  0.856100  0.452300  0.825900  1.0  0.1035
  H  H103  1  0.542300  0.612100  0.084000  1.0  0.0894
  H  H104  1  0.939900  0.759600  0.938700  1.0  0.0925
  C  C105  1  0.206200  0.145600  0.225700  1.0  -0.0128
  C  C106  1  0.136600  0.834400  0.782400  1.0  0.1571
  C  C107  1  0.741900  0.086800  0.370700  1.0  -0.1351
  C  C108  1  0.850200  0.208900  0.096100  1.0  0.6836
  C  C109  1  0.849400  0.144000  0.430800  1.0  0.6676
  C  C110  1  0.199300  0.759400  0.415000  1.0  -0.152
  C  C111  1  0.209300  0.694400  0.261800  1.0  -0.0625
  C  C112  1  0.883900  0.829600  0.360100  1.0  0.6993
  C  C113  1  0.688500  0.230900  0.999200  1.0  0.1958
  C  C114  1  0.609800  0.541400  0.241700  1.0  0.7185
  C  C115  1  0.880500  0.742700  0.924800  1.0  0.1451
  C  C116  1  0.650600  0.356000  0.930800  1.0  0.6658
  C  C117  1  0.767500  0.215900  0.022600  1.0  -0.1659
  C  C118  1  0.600900  0.642400  0.082100  1.0  0.1557
  C  C119  1  0.149800  0.791100  0.903900  1.0  0.6836
  C  C120  1  0.767100  0.247700  0.714200  1.0  -0.0992
  C  C121  1  0.727400  0.270500  0.566900  1.0  -0.0393
  C  C122  1  0.790700  0.305600  0.738200  1.0  -0.0627
  C  C123  1  0.116100  0.170400  0.639900  1.0  0.6984
  C  C124  1  0.139600  0.221800  0.931500  1.0  0.6862
  C  C125  1  0.293800  0.354400  0.725700  1.0  -0.0133
  C  C126  1  0.845000  0.419900  0.848100  1.0  0.1996
  C  C127  1  0.314600  0.260000  0.944500  1.0  0.1769
  C  C128  1  0.759100  0.134600  0.403100  1.0  -0.0109
  C  C129  1  0.101500  0.662500  0.112500  1.0  0.1683
  C  C130  1  0.290700  0.805600  0.761800  1.0  -0.0626
  C  C131  1  0.267100  0.747700  0.785800  1.0  -0.0993
  C  C132  1  0.682500  0.628400  0.104000  1.0  -0.1254
  C  C133  1  0.890200  0.958600  0.741700  1.0  0.7196
  C  C134  1  0.883000  0.317100  0.764700  1.0  0.68
  C  C135  1  0.272600  0.729500  0.433100  1.0  -0.0387
  C  C136  1  0.685400  0.740000  0.055500  1.0  0.1773
  C  C137  1  0.877900  0.815900  0.459500  1.0  0.6896
  C  C138  1  0.770600  0.728800  0.075800  1.0  -0.09
  C  C139  1  0.122100  0.184100  0.540500  1.0  0.6905
  C  C140  1  0.624000  0.274000  0.059600  1.0  0.1526
  C  C141  1  0.154900  0.812600  0.001700  1.0  0.7224
  C  C142  1  0.617000  0.182900  0.264700  1.0  0.6799
  C  C143  1  0.177000  0.734900  0.805900  1.0  0.1908
  C  C144  1  0.232500  0.784100  0.977400  1.0  -0.1661
  C  C145  1  0.311500  0.769100  0.000800  1.0  0.1961
  C  C146  1  0.775900  0.150200  0.239700  1.0  -0.1472
  C  C147  1  0.293800  0.211400  0.637900  1.0  0.1778
  C  C148  1  0.769400  0.672200  0.101600  1.0  -0.0564
  C  C149  1  0.349400  0.644000  0.069200  1.0  0.6673
  C  C150  1  0.185400  0.240000  0.444500  1.0  0.1771
  C  C151  1  0.241900  0.586800  0.129300  1.0  -0.1343
  C  C152  1  0.275900  0.650200  0.260300  1.0  -0.1458
  C  C153  1  0.150600  0.856000  0.569200  1.0  0.6659
  C  C154  1  0.183400  0.955700  0.642900  1.0  0.7492
  C  C155  1  0.629200  0.824200  0.751300  1.0  0.1667
  C  C156  1  0.383900  0.329600  0.139900  1.0  0.6999
  C  C157  1  0.622100  0.684100  0.959500  1.0  0.691
  C  C158  1  0.370800  0.175800  0.248700  1.0  0.166
  C  C159  1  0.188500  0.730900  0.500800  1.0  0.1959
  C  C160  1  0.267500  0.715900  0.477400  1.0  -0.1668
  C  C161  1  0.155000  0.580100  0.151900  1.0  0.2009
  C  C162  1  0.790400  0.798500  0.430800  1.0  -0.0285
  C  C163  1  0.740900  0.365400  0.903100  1.0  -0.0103
  C  C164  1  0.206700  0.310800  0.723900  1.0  -0.1836
  C  C165  1  0.323000  0.765100  0.305900  1.0  0.1892
  C  C166  1  0.119500  0.257300  0.075200  1.0  0.1446
  C  C167  1  0.293300  0.189200  0.223900  1.0  -0.1862
  C  C168  1  0.817500  0.871600  0.604000  1.0  -0.1271
  C  C169  1  0.706700  0.694300  0.885500  1.0  -0.1557
  C  C170  1  0.206700  0.194300  0.614500  1.0  -0.1561
  C  C171  1  0.206200  0.288600  0.137900  1.0  0.1791
  C  C172  1  0.814600  0.760000  0.555500  1.0  0.1772
  C  C173  1  0.856100  0.665500  0.129500  1.0  0.6705
  C  C174  1  0.677000  0.234900  0.694100  1.0  0.1899
  C  C175  1  0.201400  0.090300  0.252400  1.0  -0.1574
  C  C176  1  0.793300  0.805700  0.385500  1.0  -0.1574
  C  C177  1  0.876000  0.226000  0.559600  1.0  0.1523
  C  C178  1  0.783100  0.580400  0.223800  1.0  0.1932
  C  C179  1  0.649800  0.291100  0.596100  1.0  0.6832
  C  C180  1  0.377900  0.315900  0.040500  1.0  0.6894
  C  C181  1  0.823000  0.265100  0.194100  1.0  0.1884
  C  C182  1  0.124000  0.774000  0.440400  1.0  0.1529
  C  C183  1  0.345000  0.919900  0.651900  1.0  0.1998
  C  C184  1  0.706700  0.810800  0.776100  1.0  -0.1853
  C  C185  1  0.816600  0.044300  0.357100  1.0  0.7492
  C  C186  1  0.898500  0.337500  0.887500  1.0  0.1689
  C  C187  1  0.793800  0.854400  0.774300  1.0  -0.0133
  C  C188  1  0.316600  0.544300  0.142900  1.0  0.7497
  C  C189  1  0.398500  0.837500  0.612500  1.0  0.1689
  C  C190  1  0.800700  0.240600  0.585000  1.0  -0.1544
  C  C191  1  0.390200  0.458600  0.758300  1.0  0.7194
  C  C192  1  0.724100  0.349800  0.739700  1.0  -0.1471
  C  C193  1  0.701400  0.590300  0.247600  1.0  -0.1544
  C  C194  1  0.686700  0.172600  0.411300  1.0  -0.1596
  C  C195  1  0.232900  0.752300  0.285800  1.0  -0.1
  C  C196  1  0.811500  0.269100  0.499200  1.0  0.1961
  C  C197  1  0.655000  0.080100  0.348100  1.0  0.2006
  C  C198  1  0.143900  0.334500  0.870500  1.0  0.6677
  C  C199  1  0.716900  0.919600  0.723800  1.0  0.1891
  C  C200  1  0.870800  0.675800  0.251300  1.0  0.1693
  C  C201  1  0.216900  0.419600  0.776200  1.0  0.199
  C  C202  1  0.399100  0.357600  0.917900  1.0  0.1563
  C  C203  1  0.258100  0.913200  0.629300  1.0  -0.1334
  C  C204  1  0.182500  0.128400  0.396000  1.0  -0.1254
  C  C205  1  0.835900  0.198400  0.708100  1.0  0.676
  C  C206  1  0.730600  0.827800  0.601600  1.0  -0.0551
  C  C207  1  0.283100  0.080400  0.276200  1.0  0.1986
  C  C208  1  0.270600  0.228800  0.424200  1.0  -0.0902
  C  C209  1  0.643900  0.834500  0.629500  1.0  0.6682
  C  C210  1  0.732500  0.284100  0.522600  1.0  -0.167
  C  C211  1  0.129200  0.324200  0.748700  1.0  0.1661
  C  C212  1  0.813300  0.327400  0.911300  1.0  -0.1592
  C  C213  1  0.363400  0.665600  0.282400  1.0  0.1555
  C  C214  1  0.375000  0.342000  0.695500  1.0  0.6753
  C  C215  1  0.758100  0.413200  0.870700  1.0  -0.1348
  C  C216  1  0.732900  0.252300  0.214200  1.0  -0.0996
  C  C217  1  0.230600  0.327800  0.898400  1.0  -0.0538
  C  C218  1  0.793300  0.689200  0.276100  1.0  -0.1846
  C  C219  1  0.224100  0.849800  0.760300  1.0  -0.1461
  C  C220  1  0.380500  0.242700  0.575200  1.0  0.145
  C  C221  1  0.625000  0.658000  0.304500  1.0  0.6774
  C  C222  1  0.356100  0.165500  0.370500  1.0  0.6702
  C  C223  1  0.383000  0.817100  0.735300  1.0  0.6802
  C  C224  1  0.259100  0.634600  0.096900  1.0  -0.0111
  C  C225  1  0.290400  0.298500  0.069200  1.0  -0.0282
  C  C226  1  0.636600  0.334400  0.717600  1.0  0.1618
  C  C227  1  0.164100  0.801600  0.291900  1.0  0.6771
  C  C228  1  0.298100  0.225400  0.549900  1.0  -0.1345
  C  C229  1  0.798100  0.725400  0.950100  1.0  -0.1345
  C  C230  1  0.793800  0.711400  0.862100  1.0  0.1812
  C  C231  1  0.701900  0.774600  0.450100  1.0  -0.1345
  C  C232  1  0.298600  0.409700  0.752400  1.0  -0.1568
  C  C233  1  0.616100  0.670400  0.860100  1.0  0.6977
  C  C234  1  0.709600  0.701500  0.930800  1.0  -0.0293
  C  C235  1  0.798600  0.909700  0.747600  1.0  -0.1537
  C  C236  1  0.639600  0.721800  0.568500  1.0  0.6861
  C  C237  1  0.350200  0.708900  0.403900  1.0  0.6837
  C  C238  1  0.100900  0.142400  0.417900  1.0  0.1594
  C  C239  1  0.376000  0.726000  0.940400  1.0  0.1527
  C  C240  1  0.345100  0.687400  0.501700  1.0  0.7226
  C  C241  1  0.201900  0.274600  0.049900  1.0  -0.1328
  C  C242  1  0.335900  0.698400  0.791900  1.0  0.6766
  C  C243  1  0.619500  0.757300  0.424800  1.0  0.1448
  C  C244  1  0.360400  0.278200  0.431500  1.0  0.6869
  C  C245  1  0.699300  0.259400  0.085000  1.0  -0.1539
  C  C246  1  0.845100  0.187400  0.998300  1.0  0.7219
  C  C247  1  0.772600  0.229500  0.066900  1.0  -0.0389
  C  C248  1  0.709300  0.194400  0.238200  1.0  -0.0624
  C  C249  1  0.227400  0.770500  0.933100  1.0  -0.0389
  C  C250  1  0.293300  0.305700  0.114500  1.0  -0.1577
  C  C251  1  0.240900  0.865400  0.596900  1.0  -0.0106
  C  C252  1  0.229400  0.271200  0.924200  1.0  -0.0901
  C  C253  1  0.269400  0.172200  0.398400  1.0  -0.0554
  C  C254  1  0.109800  0.041400  0.258300  1.0  0.7185
  C  C255  1  0.209600  0.201500  0.569200  1.0  -0.0292
  C  C256  1  0.664100  0.301600  0.208100  1.0  0.6787
  C  C257  1  0.313300  0.827400  0.588700  1.0  -0.1586
  C  C258  1  0.899100  0.857600  0.582100  1.0  0.1561
  C  C259  1  0.706200  0.788600  0.362100  1.0  0.1821
  C  C260  1  0.186700  0.672600  0.088700  1.0  -0.1587
  C  C261  1  0.300700  0.740600  0.915000  1.0  -0.1533
  C  C262  1  0.863400  0.165600  0.217600  1.0  0.1557
  C  C263  1  0.125000  0.158000  0.195500  1.0  0.6772
  C  C264  1  0.654900  0.312600  0.498300  1.0  0.7222
  C  C265  1  0.117000  0.682900  0.235300  1.0  0.6798
  C  C266  1  0.683400  0.455700  0.857100  1.0  0.7493
  C  C267  1  0.317500  0.371600  0.896000  1.0  -0.1262
  C  C268  1  0.860400  0.778200  0.068500  1.0  0.6866
  C  C269  1  0.601500  0.162500  0.387500  1.0  0.1692
  C  C270  1  0.706200  0.645600  0.274300  1.0  -0.0129
  C  C271  1  0.875000  0.842000  0.804500  1.0  0.6761
  C  C272  1  0.729400  0.771200  0.575800  1.0  -0.0899
  N  N273  1  0.378900  0.236300  0.618880  1.0  -0.328
  N  N274  1  0.112900  0.778100  0.804880  1.0  -0.3245
  N  N275  1  0.633400  0.877600  0.725410  1.0  -0.3172
  N  N276  1  0.133400  0.377600  0.774590  1.0  -0.3174
  N  N277  1  0.612900  0.278100  0.695120  1.0  -0.3241
  N  N278  1  0.882200  0.240100  0.516700  1.0  -0.3284
  N  N279  1  0.887100  0.221900  0.195120  1.0  -0.3247
  N  N280  1  0.878900  0.736300  0.881120  1.0  -0.3284
  N  N281  1  0.366600  0.122400  0.274590  1.0  -0.3176
  N  N282  1  0.102300  0.197700  0.441940  1.0  -0.3156
  N  N283  1  0.382200  0.740100  0.983300  1.0  -0.3289
  N  N284  1  0.914300  0.382600  0.856260  1.0  -0.3205
  N  N285  1  0.085700  0.617400  0.143740  1.0  -0.318
  N  N286  1  0.617800  0.259900  0.016700  1.0  -0.3259
  N  N287  1  0.397700  0.302300  0.941940  1.0  -0.3153
  N  N288  1  0.414300  0.882600  0.643740  1.0  -0.3201
  N  N289  1  0.121100  0.263700  0.118880  1.0  -0.3288
  N  N290  1  0.602300  0.697700  0.058060  1.0  -0.3145
  N  N291  1  0.866600  0.622400  0.225410  1.0  -0.3178
  N  N292  1  0.897700  0.802300  0.558060  1.0  -0.3149
  N  N293  1  0.387100  0.721900  0.304880  1.0  -0.3252
  N  N294  1  0.621100  0.763700  0.381120  1.0  -0.329
  N  N295  1  0.117800  0.759900  0.483300  1.0  -0.3262
  N  N296  1  0.585700  0.117400  0.356260  1.0  -0.3186
  O  O297  1  0.141000  0.162500  0.921600  1.0  -0.6951
  O  O298  1  0.932700  0.759800  0.050320  1.0  -0.6192
  O  O299  1  0.578900  0.321900  0.517340  1.0  -0.6975
  O  O300  1  0.620700  0.484700  0.228700  1.0  -0.759
  O  O301  1  0.415500  0.292600  0.703360  1.0  -0.5804
  O  O302  1  0.120700  0.984700  0.271300  1.0  -0.7591
  O  O303  1  0.610100  0.620800  0.336700  1.0  -0.5427
  O  O304  1  0.859000  0.837500  0.078400  1.0  -0.6967
  O  O305  1  0.581300  0.732300  0.971320  1.0  -0.5874
  O  O306  1  0.808400  0.139000  0.717500  1.0  -0.6255
  O  O307  1  0.584500  0.707400  0.296640  1.0  -0.58
  O  O308  1  0.368800  0.599100  0.045900  1.0  -0.484
  O  O309  1  0.624200  0.891700  0.635930  1.0  -0.574
  O  O310  1  0.100000  0.282600  0.854180  1.0  -0.5991
  O  O311  1  0.056400  0.034500  0.927300  1.0  -0.7722
  O  O312  1  0.567300  0.740200  0.550320  1.0  -0.6201
  O  O313  1  0.601000  0.298700  0.929260  1.0  -0.6045
  O  O314  1  0.537700  0.654300  0.880010  1.0  -0.6607
  O  O315  1  0.124200  0.391700  0.864070  1.0  -0.5743
  O  O316  1  0.917300  0.254100  0.107790  1.0  -0.5838
  O  O317  1  0.213000  0.014100  0.653700  1.0  -0.4743
  O  O318  1  0.879300  0.015300  0.728700  1.0  -0.7586
  O  O319  1  0.160500  0.849100  0.890900  1.0  -0.5351
  O  O320  1  0.375800  0.108300  0.364070  1.0  -0.5755
  O  O321  1  0.379300  0.515300  0.771300  1.0  -0.7589
  O  O322  1  0.096800  0.928200  0.643700  1.0  -0.5385
  O  O323  1  0.660500  0.349100  0.609100  1.0  -0.5355
  O  O324  1  0.030500  0.060400  0.250100  1.0  -0.5485
  O  O325  1  0.538200  0.327500  0.378330  1.0  -0.6846
  O  O326  1  0.418700  0.267700  0.028680  1.0  -0.5837
  O  O327  1  0.461800  0.672500  0.621670  1.0  -0.6877
  O  O328  1  0.110100  0.120800  0.163300  1.0  -0.5426
  O  O329  1  0.081300  0.232300  0.528680  1.0  -0.5877
  O  O330  1  0.530500  0.560400  0.249900  1.0  -0.5484
  O  O331  1  0.067300  0.240200  0.949680  1.0  -0.6202
  O  O332  1  0.417300  0.754100  0.392210  1.0  -0.5842
  O  O333  1  0.962300  0.845700  0.380010  1.0  -0.6621
  O  O334  1  0.921100  0.178100  0.017340  1.0  -0.6967
  O  O335  1  0.038200  0.827500  0.121670  1.0  -0.6845
  O  O336  1  0.878000  0.832900  0.319160  1.0  -0.6652
  O  O337  1  0.098600  0.126800  0.527950  1.0  -0.5159
  O  O338  1  0.918000  0.217800  0.691130  1.0  -0.6405
  O  O339  1  0.308400  0.639000  0.782500  1.0  -0.626
  O  O340  1  0.918700  0.767700  0.471320  1.0  -0.5833
  O  O341  1  0.072300  0.624000  0.233190  1.0  -0.5916
  O  O342  1  0.359000  0.337500  0.421600  1.0  -0.6967
  O  O343  1  0.943600  0.965500  0.072700  1.0  -0.776
  O  O344  1  0.900000  0.717400  0.145820  1.0  -0.6014
  O  O345  1  0.432700  0.259800  0.449680  1.0  -0.6192
  O  O346  1  0.399000  0.701300  0.070740  1.0  -0.6059
  O  O347  1  0.389900  0.379200  0.663300  1.0  -0.543
  O  O348  1  0.287000  0.485900  0.153700  1.0  -0.4747
  O  O349  1  0.084500  0.207400  0.203360  1.0  -0.5825
  O  O350  1  0.889900  0.879200  0.836700  1.0  -0.5437
  O  O351  1  0.591400  0.231100  0.283640  1.0  -0.5358
  O  O352  1  0.868800  0.099100  0.454100  1.0  -0.4859
  O  O353  1  0.078900  0.821900  0.982660  1.0  -0.6974
  O  O354  1  0.101000  0.798700  0.570740  1.0  -0.6037
  O  O355  1  0.713000  0.514100  0.846300  1.0  -0.4724
  O  O356  1  0.598600  0.626800  0.972050  1.0  -0.5158
  O  O357  1  0.131200  0.900900  0.545900  1.0  -0.4844
  O  O358  1  0.572300  0.124000  0.266810  1.0  -0.5875
  O  O359  1  0.582700  0.245900  0.607790  1.0  -0.583
  O  O360  1  0.339500  0.650900  0.390900  1.0  -0.5342
  O  O361  1  0.600000  0.782600  0.645820  1.0  -0.6015
  O  O362  1  0.469500  0.439600  0.750100  1.0  -0.5498
  O  O363  1  0.596800  0.428200  0.856300  1.0  -0.5381
  O  O364  1  0.403200  0.571800  0.143700  1.0  -0.54
  O  O365  1  0.908600  0.268900  0.783640  1.0  -0.5335
  O  O366  1  0.331800  0.674200  0.541520  1.0  -0.7144
  O  O367  1  0.622000  0.667100  0.819160  1.0  -0.6643
  O  O368  1  0.556400  0.534500  0.572700  1.0  -0.7778
  O  O369  1  0.418000  0.717800  0.808870  1.0  -0.64
  O  O370  1  0.082000  0.782200  0.308870  1.0  -0.6398
  O  O371  1  0.668200  0.325800  0.458480  1.0  -0.7109
  O  O372  1  0.168200  0.825800  0.041520  1.0  -0.7135
  O  O373  1  0.631200  0.400900  0.954100  1.0  -0.484
  O  O374  1  0.787000  0.985900  0.346300  1.0  -0.4753
  O  O375  1  0.462300  0.345700  0.119990  1.0  -0.6617
  O  O376  1  0.122000  0.167100  0.680840  1.0  -0.6687
  O  O377  1  0.691600  0.361000  0.217500  1.0  -0.6219
  O  O378  1  0.903200  0.071800  0.356300  1.0  -0.5393
  O  O379  1  0.191600  0.861000  0.282500  1.0  -0.6215
  O  O380  1  0.899000  0.201300  0.429260  1.0  -0.6058
  O  O381  1  0.915500  0.792600  0.796640  1.0  -0.578
  O  O382  1  0.400000  0.217400  0.354180  1.0  -0.5989
  O  O383  1  0.378000  0.332900  0.180840  1.0  -0.667
  O  O384  1  0.421100  0.678100  0.482660  1.0  -0.6964
  O  O385  1  0.582000  0.282200  0.191130  1.0  -0.6409
  O  O386  1  0.875800  0.608300  0.135930  1.0  -0.5747
  O  O387  1  0.969500  0.939600  0.749900  1.0  -0.5499
  O  O388  1  0.408600  0.768900  0.716360  1.0  -0.534
  O  O389  1  0.443600  0.465500  0.427300  1.0  -0.7716
  O  O390  1  0.927700  0.376000  0.766810  1.0  -0.5912
  O  O391  1  0.091400  0.731100  0.216360  1.0  -0.5356
  O  O392  1  0.961800  0.172500  0.878330  1.0  -0.6875
  O  O393  1  0.641000  0.662500  0.578400  1.0  -0.6962
  O  O394  1  0.037700  0.154300  0.619990  1.0  -0.6606
  O  O395  1  0.831800  0.174200  0.958480  1.0  -0.7107
  O  O396  1  0.839500  0.150900  0.109100  1.0  -0.5342
  O  O397  1  0.427700  0.876000  0.733190  1.0  -0.5889
  O  O398  1  0.901400  0.873200  0.472050  1.0  -0.5146
  O  O399  1  0.082700  0.745900  0.892210  1.0  -0.5836
  O  O400  1  0.401400  0.373200  0.027950  1.0  -0.5137
