# generated using pymatgen
data_Mn5H26(C8O9)2
_symmetry_space_group_name_H-M   'P 1'
_cell_length_a   12.72280000
_cell_length_b   18.13720000
_cell_length_c   18.13720000
_cell_angle_alpha   82.93380000
_cell_angle_beta   69.46760000
_cell_angle_gamma   69.46770000
_symmetry_Int_Tables_number   1
_chemical_formula_structural   Mn5H26(C8O9)2
_chemical_formula_sum   'Mn20 H104 C64 O72'
_cell_volume   3670.41286440
_cell_formula_units_Z   4
loop_
 _symmetry_equiv_pos_site_id
 _symmetry_equiv_pos_as_xyz
  1  'x, y, z'
loop_
 _atom_site_type_symbol
 _atom_site_label
 _atom_site_symmetry_multiplicity
 _atom_site_fract_x
 _atom_site_fract_y
 _atom_site_fract_z
 _atom_site_occupancy
 _atom_site_charge
  Mn  Mn1  1  0.965190  0.173600  0.907920  1.0  1.0574
  Mn  Mn2  1  0.873110  0.092080  0.673600  1.0  1.0589
  Mn  Mn3  1  0.201740  0.218310  0.817580  1.0  1.127
  Mn  Mn4  1  0.980670  0.817580  0.281700  1.0  1.1286
  Mn  Mn5  1  0.034810  0.826400  0.092080  1.0  1.0574
  Mn  Mn6  1  0.453290  0.673600  0.407920  1.0  1.0578
  Mn  Mn7  1  0.500000  0.500000  0.500000  1.0  0.9786
  Mn  Mn8  1  0.579950  0.682420  0.218300  1.0  1.1318
  Mn  Mn9  1  0.262360  0.718310  0.317580  1.0  1.1262
  Mn  Mn10  1  0.861210  0.592080  0.173600  1.0  1.058
  Mn  Mn11  1  0.000000  0.500000  0.000000  1.0  0.9786
  Mn  Mn12  1  0.737640  0.281690  0.682420  1.0  1.1311
  Mn  Mn13  1  0.126890  0.907920  0.326400  1.0  1.0573
  Mn  Mn14  1  0.420050  0.317580  0.781700  1.0  1.1305
  Mn  Mn15  1  0.000000  0.000000  0.000000  1.0  0.9786
  Mn  Mn16  1  0.000000  0.000000  0.500000  1.0  0.9786
  Mn  Mn17  1  0.546710  0.326400  0.592080  1.0  1.0586
  Mn  Mn18  1  0.138790  0.407920  0.826400  1.0  1.0575
  Mn  Mn19  1  0.019330  0.182420  0.718300  1.0  1.1299
  Mn  Mn20  1  0.798260  0.781690  0.182420  1.0  1.1276
  H  H21  1  0.679100  0.098700  0.891900  1.0  0.141
  H  H22  1  0.551100  0.886800  0.411800  1.0  0.1413
  H  H23  1  0.696800  0.049900  0.446900  1.0  0.1439
  H  H24  1  0.895100  0.686200  0.813000  1.0  0.1554
  H  H25  1  0.205600  0.351400  0.177400  1.0  0.1644
  H  H26  1  0.735300  0.516400  0.489800  1.0  0.1457
  H  H27  1  0.164800  0.564300  0.698900  1.0  0.1474
  H  H28  1  0.140100  0.864600  0.584400  1.0  0.1434
  H  H29  1  0.222200  0.608100  0.098700  1.0  0.1396
  H  H30  1  0.459500  0.753800  0.629400  1.0  0.155
  H  H31  1  0.941700  0.205100  0.603100  1.0  0.4682
  H  H32  1  0.105700  0.186200  0.313000  1.0  0.1597
  H  H33  1  0.633900  0.532300  0.016300  1.0  0.1543
  H  H34  1  0.928000  0.935700  0.801100  1.0  0.1421
  H  H35  1  0.262500  0.678700  0.049300  1.0  0.1476
  H  H36  1  0.894300  0.813800  0.687000  1.0  0.1569
  H  H37  1  0.066500  0.925100  0.773700  1.0  0.1396
  H  H38  1  0.265300  0.574900  0.726300  1.0  0.1401
  H  H39  1  0.270900  0.801100  0.564300  1.0  0.1437
  H  H40  1  0.169700  0.401300  0.608100  1.0  0.1371
  H  H41  1  0.225100  0.510200  0.016400  1.0  0.143
  H  H42  1  0.058300  0.794900  0.396900  1.0  0.4686
  H  H43  1  0.443000  0.322600  0.351400  1.0  0.1618
  H  H44  1  0.291900  0.813000  0.813800  1.0  0.1589
  H  H45  1  0.737500  0.321300  0.950700  1.0  0.1498
  H  H46  1  0.544800  0.396900  0.705100  1.0  0.4689
  H  H47  1  0.072000  0.064300  0.198900  1.0  0.1439
  H  H48  1  0.910900  0.364600  0.084400  1.0  0.1437
  H  H49  1  0.933500  0.074900  0.226300  1.0  0.1398
  H  H50  1  0.540500  0.246200  0.370600  1.0  0.1507
  H  H51  1  0.490500  0.821300  0.450700  1.0  0.1504
  H  H52  1  0.777800  0.391900  0.901300  1.0  0.1403
  H  H53  1  0.657300  0.253800  0.129400  1.0  0.1551
  H  H54  1  0.429000  0.891900  0.401300  1.0  0.141
  H  H55  1  0.058800  0.450700  0.678700  1.0  0.1497
  H  H56  1  0.349700  0.613200  0.088200  1.0  0.1411
  H  H57  1  0.840200  0.226300  0.425100  1.0  0.1404
  H  H58  1  0.830300  0.598700  0.391900  1.0  0.1379
  H  H59  1  0.234400  0.148600  0.322600  1.0  0.1654
  H  H60  1  0.008400  0.726300  0.925100  1.0  0.1417
  H  H61  1  0.786700  0.870600  0.753800  1.0  0.1537
  H  H62  1  0.794400  0.648600  0.822600  1.0  0.1667
  H  H63  1  0.941200  0.549300  0.321300  1.0  0.1493
  H  H64  1  0.213300  0.129400  0.246200  1.0  0.1541
  H  H65  1  0.682500  0.967700  0.483700  1.0  0.1524
  H  H66  1  0.241500  0.983600  0.010200  1.0  0.1452
  H  H67  1  0.724500  0.415600  0.364600  1.0  0.1438
  H  H68  1  0.765600  0.851400  0.677400  1.0  0.1638
  H  H69  1  0.509500  0.178700  0.549300  1.0  0.1484
  H  H70  1  0.856300  0.446900  0.450100  1.0  0.1419
  H  H71  1  0.991600  0.273700  0.074900  1.0  0.1415
  H  H72  1  0.571000  0.108100  0.598700  1.0  0.139
  H  H73  1  0.366100  0.467700  0.983700  1.0  0.1533
  H  H74  1  0.383000  0.822600  0.851400  1.0  0.1662
  H  H75  1  0.995300  0.915600  0.864600  1.0  0.1445
  H  H76  1  0.734700  0.425100  0.273700  1.0  0.1401
  H  H77  1  0.004700  0.084400  0.135400  1.0  0.144
  H  H78  1  0.774900  0.489800  0.983600  1.0  0.1432
  H  H79  1  0.911100  0.629400  0.746200  1.0  0.1518
  H  H80  1  0.835200  0.435700  0.301100  1.0  0.1457
  H  H81  1  0.089100  0.635400  0.915600  1.0  0.1435
  H  H82  1  0.833800  0.483700  0.532300  1.0  0.1544
  H  H83  1  0.253300  0.053100  0.049900  1.0  0.1439
  H  H84  1  0.617000  0.177400  0.148600  1.0  0.1671
  H  H85  1  0.650300  0.386800  0.911800  1.0  0.141
  H  H86  1  0.581300  0.313000  0.313800  1.0  0.1561
  H  H87  1  0.249900  0.294900  0.896900  1.0  0.4664
  H  H88  1  0.275500  0.584400  0.635400  1.0  0.1427
  H  H89  1  0.166200  0.516300  0.467700  1.0  0.1529
  H  H90  1  0.146800  0.103100  0.794900  1.0  0.4701
  H  H91  1  0.708100  0.187000  0.186200  1.0  0.1601
  H  H92  1  0.037100  0.411800  0.613200  1.0  0.1405
  H  H93  1  0.962900  0.588200  0.386800  1.0  0.142
  H  H94  1  0.143700  0.553100  0.549900  1.0  0.142
  H  H95  1  0.557000  0.677400  0.648600  1.0  0.1636
  H  H96  1  0.317500  0.032300  0.516300  1.0  0.1538
  H  H97  1  0.088900  0.370600  0.253800  1.0  0.1538
  H  H98  1  0.863700  0.301100  0.064300  1.0  0.1432
  H  H99  1  0.306400  0.549900  0.946900  1.0  0.1434
  H  H100  1  0.251700  0.989800  0.483600  1.0  0.1454
  H  H101  1  0.748300  0.010200  0.516400  1.0  0.1445
  H  H102  1  0.349800  0.016300  0.967700  1.0  0.1524
  H  H103  1  0.859900  0.135400  0.415600  1.0  0.1437
  H  H104  1  0.746700  0.946900  0.950100  1.0  0.1443
  H  H105  1  0.264700  0.483600  0.510200  1.0  0.1466
  H  H106  1  0.650200  0.983700  0.032300  1.0  0.1512
  H  H107  1  0.342700  0.746200  0.870600  1.0  0.1523
  H  H108  1  0.853200  0.896900  0.205100  1.0  0.4687
  H  H109  1  0.729100  0.198900  0.435700  1.0  0.1424
  H  H110  1  0.693600  0.450100  0.053100  1.0  0.1429
  H  H111  1  0.448900  0.113200  0.588200  1.0  0.1411
  H  H112  1  0.320900  0.901300  0.108100  1.0  0.1396
  H  H113  1  0.311800  0.950700  0.178700  1.0  0.1507
  H  H114  1  0.455200  0.603100  0.294900  1.0  0.471
  H  H115  1  0.136300  0.698900  0.935700  1.0  0.145
  H  H116  1  0.758500  0.016400  0.989800  1.0  0.1451
  H  H117  1  0.303200  0.950100  0.553100  1.0  0.143
  H  H118  1  0.418700  0.687000  0.686200  1.0  0.1557
  H  H119  1  0.750100  0.705100  0.103100  1.0  0.4684
  H  H120  1  0.437900  0.911800  0.113200  1.0  0.1414
  H  H121  1  0.159800  0.773700  0.574900  1.0  0.1404
  H  H122  1  0.562100  0.088200  0.886800  1.0  0.1424
  H  H123  1  0.104900  0.313800  0.187000  1.0  0.1588
  H  H124  1  0.688200  0.049300  0.821300  1.0  0.1513
  C  C125  1  0.796020  0.469400  0.500160  1.0  -0.4895
  C  C126  1  0.381380  0.831780  0.192260  1.0  0.7832
  C  C127  1  0.734420  0.969400  0.000160  1.0  -0.4883
  C  C128  1  0.213770  0.844580  0.930680  1.0  0.7773
  C  C129  1  0.144450  0.069320  0.344580  1.0  0.7734
  C  C130  1  0.316920  0.802930  0.860430  1.0  -0.5049
  C  C131  1  0.265420  0.000160  0.530600  1.0  -0.4882
  C  C132  1  0.959090  0.031020  0.828600  1.0  0.751
  C  C133  1  0.855550  0.930680  0.655420  1.0  0.7733
  C  C134  1  0.040910  0.968980  0.171400  1.0  0.7492
  C  C135  1  0.009890  0.671400  0.031020  1.0  0.7545
  C  C136  1  0.266470  0.643880  0.094780  1.0  -0.4556
  C  C137  1  0.618620  0.168220  0.807740  1.0  0.7847
  C  C138  1  0.734580  0.999840  0.469400  1.0  -0.4871
  C  C139  1  0.010090  0.055740  0.184080  1.0  -0.4562
  C  C140  1  0.510970  0.344580  0.430680  1.0  0.7749
  C  C141  1  0.203980  0.530600  0.499840  1.0  -0.4872
  C  C142  1  0.480280  0.697070  0.639570  1.0  -0.5068
  C  C143  1  0.905420  0.668220  0.307740  1.0  0.7844
  C  C144  1  0.733530  0.356120  0.905220  1.0  -0.4551
  C  C145  1  0.989910  0.944260  0.815920  1.0  -0.4593
  C  C146  1  0.807830  0.909780  0.043360  1.0  0.768
  C  C147  1  0.065830  0.684080  0.944260  1.0  -0.458
  C  C148  1  0.805830  0.184080  0.444260  1.0  -0.4622
  C  C149  1  0.318710  0.468980  0.671400  1.0  0.7497
  C  C150  1  0.851190  0.956640  0.409780  1.0  0.7695
  C  C151  1  0.489030  0.655420  0.569320  1.0  0.7723
  C  C152  1  0.148810  0.043360  0.590220  1.0  0.7684
  C  C153  1  0.786840  0.307740  0.831780  1.0  0.7842
  C  C154  1  0.880150  0.639570  0.802930  1.0  -0.5036
  C  C155  1  0.260970  0.590220  0.456640  1.0  0.7679
  C  C156  1  0.212310  0.828600  0.468980  1.0  0.7556
  C  C157  1  0.941650  0.569320  0.844580  1.0  0.7741
  C  C158  1  0.505130  0.856120  0.405220  1.0  -0.4541
  C  C159  1  0.573640  0.807740  0.331780  1.0  0.7834
  C  C160  1  0.749910  0.444260  0.315920  1.0  -0.4608
  C  C161  1  0.296180  0.499840  0.969400  1.0  -0.487
  C  C162  1  0.739030  0.409780  0.543360  1.0  0.7672
  C  C163  1  0.192170  0.090220  0.956640  1.0  0.7663
  C  C164  1  0.194170  0.815920  0.555740  1.0  -0.462
  C  C165  1  0.703820  0.500160  0.030600  1.0  -0.4848
  C  C166  1  0.910350  0.594780  0.356120  1.0  -0.4574
  C  C167  1  0.265580  0.030600  0.999840  1.0  -0.4871
  C  C168  1  0.213160  0.692260  0.168220  1.0  0.7829
  C  C169  1  0.934170  0.315920  0.055740  1.0  -0.4598
  C  C170  1  0.058350  0.430680  0.155420  1.0  0.7732
  C  C171  1  0.717610  0.543360  0.090220  1.0  0.7678
  C  C172  1  0.638750  0.094780  0.856120  1.0  -0.4524
  C  C173  1  0.089650  0.405220  0.643880  1.0  -0.4544
  C  C174  1  0.282390  0.456640  0.909780  1.0  0.7666
  C  C175  1  0.250090  0.555740  0.684080  1.0  -0.4595
  C  C176  1  0.426360  0.192260  0.668220  1.0  0.7855
  C  C177  1  0.494870  0.143880  0.594780  1.0  -0.4531
  C  C178  1  0.822650  0.860430  0.697070  1.0  -0.5032
  C  C179  1  0.519720  0.302930  0.360430  1.0  -0.5038
  C  C180  1  0.990110  0.328600  0.968980  1.0  0.7545
  C  C181  1  0.361250  0.905220  0.143880  1.0  -0.4549
  C  C182  1  0.094580  0.331780  0.692260  1.0  0.7844
  C  C183  1  0.119850  0.360430  0.197070  1.0  -0.5056
  C  C184  1  0.787690  0.171400  0.531020  1.0  0.7545
  C  C185  1  0.683080  0.197070  0.139570  1.0  -0.5035
  C  C186  1  0.681290  0.531020  0.328600  1.0  0.7506
  C  C187  1  0.177350  0.139570  0.302930  1.0  -0.5048
  C  C188  1  0.786230  0.155420  0.069320  1.0  0.7746
  O  O189  1  0.915110  0.908320  0.029180  1.0  -0.6635
  O  O190  1  0.259230  0.300560  0.848260  1.0  -0.9602
  O  O191  1  0.883010  0.672040  0.244380  1.0  -0.6476
  O  O192  1  0.477130  0.777930  0.166010  1.0  -0.6157
  O  O193  1  0.559790  0.348260  0.699440  1.0  -0.9577
  O  O194  1  0.286600  0.774410  0.421750  1.0  -0.6931
  O  O195  1  0.017240  0.274410  0.921750  1.0  -0.6923
  O  O196  1  0.216680  0.634580  0.410120  1.0  -0.6337
  O  O197  1  0.091950  0.800560  0.348260  1.0  -0.9598
  O  O198  1  0.643140  0.833990  0.277930  1.0  -0.6168
  O  O199  1  0.524690  0.302780  0.489000  1.0  -0.5844
  O  O200  1  0.172530  0.011000  0.302780  1.0  -0.5851
  O  O201  1  0.078930  0.277930  0.666010  1.0  -0.6188
  O  O202  1  0.008170  0.393800  0.945960  1.0  -0.6907
  O  O203  1  0.176570  0.470820  0.908320  1.0  -0.6632
  O  O204  1  0.013690  0.511000  0.802780  1.0  -0.5852
  O  O205  1  0.598030  0.554040  0.393800  1.0  -0.6915
  O  O206  1  0.522870  0.222070  0.833990  1.0  -0.616
  O  O207  1  0.761380  0.865420  0.089880  1.0  -0.6351
  O  O208  1  0.475310  0.697220  0.511000  1.0  -0.5857
  O  O209  1  0.356860  0.166010  0.722070  1.0  -0.6169
  O  O210  1  0.164130  0.917870  0.925770  1.0  -0.6013
  O  O211  1  0.823430  0.529180  0.091680  1.0  -0.6638
  O  O212  1  0.148740  0.089880  0.634580  1.0  -0.6335
  O  O213  1  0.986310  0.489000  0.197220  1.0  -0.5851
  O  O214  1  0.700570  0.172040  0.744380  1.0  -0.6495
  O  O215  1  0.152070  0.893800  0.445960  1.0  -0.6901
  O  O216  1  0.847930  0.106200  0.554040  1.0  -0.6903
  O  O217  1  0.555050  0.744380  0.327960  1.0  -0.65
  O  O218  1  0.238620  0.134580  0.910120  1.0  -0.6333
  O  O219  1  0.872610  0.244380  0.827960  1.0  -0.6489
  O  O220  1  0.107490  0.151740  0.800560  1.0  -0.9572
  O  O221  1  0.910100  0.925770  0.582130  1.0  -0.6014
  O  O222  1  0.835870  0.082130  0.074230  1.0  -0.6013
  O  O223  1  0.647390  0.408320  0.529180  1.0  -0.663
  O  O224  1  0.708350  0.578250  0.274410  1.0  -0.6934
  O  O225  1  0.183530  0.802780  0.989000  1.0  -0.585
  O  O226  1  0.851260  0.910120  0.365420  1.0  -0.6356
  O  O227  1  0.740770  0.699440  0.151740  1.0  -0.9588
  O  O228  1  0.783320  0.365420  0.589880  1.0  -0.633
  O  O229  1  0.991830  0.606200  0.054040  1.0  -0.6901
  O  O230  1  0.921070  0.722070  0.333990  1.0  -0.6188
  O  O231  1  0.352610  0.591680  0.470820  1.0  -0.6639
  O  O232  1  0.401970  0.445960  0.606200  1.0  -0.6911
  O  O233  1  0.713400  0.225590  0.578250  1.0  -0.6931
  O  O234  1  0.373200  0.410120  0.865420  1.0  -0.6325
  O  O235  1  0.116990  0.327960  0.755620  1.0  -0.652
  O  O236  1  0.827470  0.989000  0.697220  1.0  -0.5851
  O  O237  1  0.255060  0.666010  0.222070  1.0  -0.6175
  O  O238  1  0.744940  0.333990  0.777930  1.0  -0.6163
  O  O239  1  0.299430  0.827960  0.255620  1.0  -0.6501
  O  O240  1  0.082000  0.425770  0.082130  1.0  -0.6014
  O  O241  1  0.055710  0.029180  0.591680  1.0  -0.662
  O  O242  1  0.982760  0.725590  0.078250  1.0  -0.6925
  O  O243  1  0.892510  0.848260  0.199440  1.0  -0.9574
  O  O244  1  0.089900  0.074230  0.417870  1.0  -0.6001
  O  O245  1  0.816470  0.197220  0.011000  1.0  -0.5859
  O  O246  1  0.061010  0.921750  0.225590  1.0  -0.694
  O  O247  1  0.045870  0.945960  0.106200  1.0  -0.6901
  O  O248  1  0.084890  0.091680  0.970820  1.0  -0.6623
  O  O249  1  0.918000  0.574230  0.917870  1.0  -0.6002
  O  O250  1  0.908050  0.199440  0.651740  1.0  -0.9581
  O  O251  1  0.444950  0.255620  0.672040  1.0  -0.6504
  O  O252  1  0.954130  0.054040  0.893800  1.0  -0.6897
  O  O253  1  0.291650  0.421750  0.725590  1.0  -0.6933
  O  O254  1  0.507770  0.582130  0.574230  1.0  -0.6042
  O  O255  1  0.626800  0.589880  0.134580  1.0  -0.6337
  O  O256  1  0.938990  0.078250  0.774410  1.0  -0.6931
  O  O257  1  0.492230  0.417870  0.425770  1.0  -0.6027
  O  O258  1  0.440210  0.651740  0.300560  1.0  -0.958
  O  O259  1  0.944290  0.970820  0.408320  1.0  -0.6638
  O  O260  1  0.127390  0.755620  0.172040  1.0  -0.6513
