# generated using pymatgen
data_LaH3(C3O2)3
_symmetry_space_group_name_H-M   'P 1'
_cell_length_a   10.43800000
_cell_length_b   10.43800000
_cell_length_c   13.85300000
_cell_angle_alpha   90.00000000
_cell_angle_beta   90.00000000
_cell_angle_gamma   90.00000000
_symmetry_Int_Tables_number   1
_chemical_formula_structural   LaH3(C3O2)3
_chemical_formula_sum   'La4 H12 C36 O24'
_cell_volume   1509.30989493
_cell_formula_units_Z   4
loop_
 _symmetry_equiv_pos_site_id
 _symmetry_equiv_pos_as_xyz
  1  'x, y, z'
loop_
 _atom_site_type_symbol
 _atom_site_label
 _atom_site_symmetry_multiplicity
 _atom_site_fract_x
 _atom_site_fract_y
 _atom_site_fract_z
 _atom_site_occupancy
 _atom_site_charge
  La  La1  1  0.393170  0.633190  0.810870  1.0  2.1848
  La  La2  1  0.633190  0.606830  0.560870  1.0  2.1848
  La  La3  1  0.606830  0.366810  0.310870  1.0  2.1842
  La  La4  1  0.366810  0.393170  0.060870  1.0  2.184
  H  H5  1  0.610300  0.030100  0.566000  1.0  0.1247
  H  H6  1  0.508800  0.046100  0.847400  1.0  0.1206
  H  H7  1  0.634300  0.508300  0.934400  1.0  0.1111
  H  H8  1  0.046100  0.491200  0.597400  1.0  0.1207
  H  H9  1  0.491700  0.634300  0.184400  1.0  0.1093
  H  H10  1  0.969900  0.610300  0.816000  1.0  0.1241
  H  H11  1  0.030100  0.389700  0.316000  1.0  0.1247
  H  H12  1  0.365700  0.491700  0.434400  1.0  0.11
  H  H13  1  0.508300  0.365700  0.684400  1.0  0.1089
  H  H14  1  0.491200  0.953900  0.347400  1.0  0.1206
  H  H15  1  0.953900  0.508800  0.097400  1.0  0.1208
  H  H16  1  0.389700  0.969900  0.066000  1.0  0.1244
  C  C17  1  0.411700  0.732600  0.015700  1.0  0.7179
  C  C18  1  0.588300  0.267400  0.515700  1.0  0.7172
  C  C19  1  0.077600  0.416500  0.370000  1.0  -0.0181
  C  C20  1  0.912800  0.524200  0.038200  1.0  -0.0045
  C  C21  1  0.566300  0.206200  0.612700  1.0  -0.1503
  C  C22  1  0.509900  0.219400  0.781200  1.0  -0.149
  C  C23  1  0.707900  0.472300  0.117900  1.0  0.7227
  C  C24  1  0.722200  0.525400  0.941600  1.0  -0.0074
  C  C25  1  0.438800  0.984300  0.208400  1.0  -0.1393
  C  C26  1  0.561200  0.015700  0.708400  1.0  -0.139
  C  C27  1  0.292100  0.527700  0.617900  1.0  0.734
  C  C28  1  0.267400  0.411700  0.265700  1.0  0.7184
  C  C29  1  0.433700  0.793800  0.112700  1.0  -0.1497
  C  C30  1  0.525400  0.277800  0.691600  1.0  -0.0096
  C  C31  1  0.475800  0.912800  0.288200  1.0  -0.0041
  C  C32  1  0.568900  0.870700  0.714100  1.0  0.7494
  C  C33  1  0.527700  0.707900  0.367900  1.0  0.7219
  C  C34  1  0.870700  0.431100  0.464100  1.0  0.7496
  C  C35  1  0.490100  0.780600  0.281200  1.0  -0.1486
  C  C36  1  0.129300  0.568900  0.964100  1.0  0.7488
  C  C37  1  0.474600  0.722200  0.191600  1.0  -0.0072
  C  C38  1  0.583500  0.077600  0.620000  1.0  -0.0172
  C  C39  1  0.206200  0.433700  0.362700  1.0  -0.1483
  C  C40  1  0.277800  0.474600  0.441600  1.0  -0.0073
  C  C41  1  0.732600  0.588300  0.765700  1.0  0.718
  C  C42  1  0.015700  0.438800  0.458400  1.0  -0.1398
  C  C43  1  0.431100  0.129300  0.214100  1.0  0.7496
  C  C44  1  0.793800  0.566300  0.862700  1.0  -0.149
  C  C45  1  0.472300  0.292100  0.867900  1.0  0.7331
  C  C46  1  0.219400  0.490100  0.531200  1.0  -0.148
  C  C47  1  0.984300  0.561200  0.958400  1.0  -0.1394
  C  C48  1  0.922400  0.583500  0.870000  1.0  -0.0177
  C  C49  1  0.524200  0.087200  0.788200  1.0  -0.0046
  C  C50  1  0.416500  0.922400  0.120000  1.0  -0.0178
  C  C51  1  0.087200  0.475800  0.538200  1.0  -0.0059
  C  C52  1  0.780600  0.509900  0.031200  1.0  -0.1479
  O  O53  1  0.612600  0.557500  0.753200  1.0  -0.7344
  O  O54  1  0.180800  0.540300  0.044500  1.0  -0.699
  O  O55  1  0.507800  0.756500  0.450600  1.0  -0.687
  O  O56  1  0.540300  0.819200  0.794500  1.0  -0.6941
  O  O57  1  0.579400  0.595600  0.361600  1.0  -0.8139
  O  O58  1  0.756500  0.492200  0.200600  1.0  -0.6898
  O  O59  1  0.442500  0.612600  0.003200  1.0  -0.7373
  O  O60  1  0.420600  0.404400  0.861600  1.0  -0.8111
  O  O61  1  0.403900  0.188800  0.139600  1.0  -0.714
  O  O62  1  0.188800  0.596100  0.889600  1.0  -0.7166
  O  O63  1  0.557500  0.387400  0.503200  1.0  -0.7379
  O  O64  1  0.798000  0.631800  0.698300  1.0  -0.6181
  O  O65  1  0.811200  0.403900  0.389600  1.0  -0.7171
  O  O66  1  0.404400  0.579400  0.611600  1.0  -0.8135
  O  O67  1  0.631800  0.202000  0.448300  1.0  -0.6179
  O  O68  1  0.368200  0.798000  0.948300  1.0  -0.6184
  O  O69  1  0.387400  0.442500  0.253200  1.0  -0.7343
  O  O70  1  0.492200  0.243500  0.950600  1.0  -0.6854
  O  O71  1  0.459700  0.180800  0.294500  1.0  -0.6943
  O  O72  1  0.243500  0.507800  0.700600  1.0  -0.6891
  O  O73  1  0.819200  0.459700  0.544500  1.0  -0.6989
  O  O74  1  0.595600  0.420600  0.111600  1.0  -0.8138
  O  O75  1  0.596100  0.811200  0.639600  1.0  -0.7142
  O  O76  1  0.202000  0.368200  0.198300  1.0  -0.6183
