# generated using pymatgen
data_NiPC3NO3
_symmetry_space_group_name_H-M   'P 1'
_cell_length_a   27.91440000
_cell_length_b   27.91440000
_cell_length_c   6.16550000
_cell_angle_alpha   90.00000000
_cell_angle_beta   90.00000000
_cell_angle_gamma   120.00000000
_symmetry_Int_Tables_number   1
_chemical_formula_structural   NiPC3NO3
_chemical_formula_sum   'Ni18 P18 C54 N18 O54'
_cell_volume   4160.59582234
_cell_formula_units_Z   18
loop_
 _symmetry_equiv_pos_site_id
 _symmetry_equiv_pos_as_xyz
  1  'x, y, z'
loop_
 _atom_site_type_symbol
 _atom_site_label
 _atom_site_symmetry_multiplicity
 _atom_site_fract_x
 _atom_site_fract_y
 _atom_site_fract_z
 _atom_site_occupancy
 _atom_site_charge
  Ni  Ni1  1  0.304850  0.028630  0.719160  1.0  0.7686
  Ni  Ni2  1  0.971520  0.361960  0.052490  1.0  0.7694
  Ni  Ni3  1  0.638180  0.695300  0.385830  1.0  0.7685
  Ni  Ni4  1  0.971370  0.276220  0.719160  1.0  0.7619
  Ni  Ni5  1  0.638040  0.609550  0.052490  1.0  0.7619
  Ni  Ni6  1  0.304700  0.942890  0.385830  1.0  0.7622
  Ni  Ni7  1  0.723780  0.695150  0.719160  1.0  0.7637
  Ni  Ni8  1  0.390450  0.028480  0.052490  1.0  0.7628
  Ni  Ni9  1  0.057110  0.361820  0.385830  1.0  0.7626
  Ni  Ni10  1  0.695150  0.971370  0.280840  1.0  0.7668
  Ni  Ni11  1  0.361820  0.304700  0.614170  1.0  0.7668
  Ni  Ni12  1  0.028480  0.638040  0.947510  1.0  0.7676
  Ni  Ni13  1  0.028630  0.723780  0.280840  1.0  0.7665
  Ni  Ni14  1  0.695300  0.057110  0.614170  1.0  0.7667
  Ni  Ni15  1  0.361960  0.390450  0.947510  1.0  0.7665
  Ni  Ni16  1  0.276220  0.304850  0.280840  1.0  0.7606
  Ni  Ni17  1  0.942890  0.638180  0.614170  1.0  0.7596
  Ni  Ni18  1  0.609550  0.971520  0.947510  1.0  0.7598
  P  P19  1  0.423970  0.039000  0.570000  1.0  1.4323
  P  P20  1  0.090640  0.372330  0.903330  1.0  1.4323
  P  P21  1  0.757300  0.705670  0.236670  1.0  1.4322
  P  P22  1  0.961000  0.384970  0.570000  1.0  1.4347
  P  P23  1  0.627670  0.718300  0.903330  1.0  1.4346
  P  P24  1  0.294330  0.051640  0.236670  1.0  1.4348
  P  P25  1  0.615030  0.576030  0.570000  1.0  1.4351
  P  P26  1  0.281700  0.909360  0.903330  1.0  1.4351
  P  P27  1  0.948360  0.242700  0.236670  1.0  1.4351
  P  P28  1  0.576030  0.961000  0.430000  1.0  1.4335
  P  P29  1  0.242700  0.294330  0.763330  1.0  1.4334
  P  P30  1  0.909360  0.627670  0.096670  1.0  1.4335
  P  P31  1  0.039000  0.615030  0.430000  1.0  1.4352
  P  P32  1  0.705670  0.948360  0.763330  1.0  1.4353
  P  P33  1  0.372330  0.281700  0.096670  1.0  1.4352
  P  P34  1  0.384970  0.423970  0.430000  1.0  1.4358
  P  P35  1  0.051640  0.757300  0.763330  1.0  1.4358
  P  P36  1  0.718300  0.090640  0.096670  1.0  1.4359
  C  C37  1  0.446400  0.958100  0.097300  1.0  0.0062
  C  C38  1  0.510900  0.056200  0.984800  1.0  0.0632
  C  C39  1  0.437500  0.984400  0.716100  1.0  -0.0576
  C  C40  1  0.113070  0.291430  0.430630  1.0  0.0058
  C  C41  1  0.177570  0.389530  0.318130  1.0  0.0632
  C  C42  1  0.104170  0.317730  0.049430  1.0  -0.0576
  C  C43  1  0.779730  0.624770  0.763970  1.0  0.0062
  C  C44  1  0.844230  0.722870  0.651470  1.0  0.0632
  C  C45  1  0.770830  0.651070  0.382770  1.0  -0.0576
  C  C46  1  0.041900  0.488300  0.097300  1.0  0.0078
  C  C47  1  0.943800  0.454700  0.984800  1.0  0.0648
  C  C48  1  0.015600  0.453100  0.716100  1.0  -0.0581
  C  C49  1  0.708570  0.821630  0.430630  1.0  0.0082
  C  C50  1  0.610470  0.788030  0.318130  1.0  0.0648
  C  C51  1  0.682270  0.786430  0.049430  1.0  -0.0581
  C  C52  1  0.375230  0.154970  0.763970  1.0  0.0078
  C  C53  1  0.277130  0.121370  0.651470  1.0  0.0648
  C  C54  1  0.348930  0.119770  0.382770  1.0  -0.0581
  C  C55  1  0.511700  0.553600  0.097300  1.0  0.0106
  C  C56  1  0.545300  0.489100  0.984800  1.0  0.0636
  C  C57  1  0.546900  0.562500  0.716100  1.0  -0.0583
  C  C58  1  0.178370  0.886930  0.430630  1.0  0.0106
  C  C59  1  0.211970  0.822430  0.318130  1.0  0.0636
  C  C60  1  0.213570  0.895830  0.049430  1.0  -0.0583
  C  C61  1  0.845030  0.220270  0.763970  1.0  0.0106
  C  C62  1  0.878630  0.155770  0.651470  1.0  0.0636
  C  C63  1  0.880230  0.229170  0.382770  1.0  -0.0583
  C  C64  1  0.553600  0.041900  0.902700  1.0  0.0133
  C  C65  1  0.489100  0.943800  0.015200  1.0  0.0641
  C  C66  1  0.562500  0.015600  0.283900  1.0  -0.0615
  C  C67  1  0.220270  0.375230  0.236030  1.0  0.0133
  C  C68  1  0.155770  0.277130  0.348530  1.0  0.0641
  C  C69  1  0.229170  0.348930  0.617230  1.0  -0.0615
  C  C70  1  0.886930  0.708570  0.569370  1.0  0.0131
  C  C71  1  0.822430  0.610470  0.681870  1.0  0.0641
  C  C72  1  0.895830  0.682270  0.950570  1.0  -0.0615
  C  C73  1  0.958100  0.511700  0.902700  1.0  0.0145
  C  C74  1  0.056200  0.545300  0.015200  1.0  0.0644
  C  C75  1  0.984400  0.546900  0.283900  1.0  -0.0596
  C  C76  1  0.624770  0.845030  0.236030  1.0  0.0145
  C  C77  1  0.722870  0.878630  0.348530  1.0  0.0644
  C  C78  1  0.651070  0.880230  0.617230  1.0  -0.0596
  C  C79  1  0.291430  0.178370  0.569370  1.0  0.0149
  C  C80  1  0.389530  0.211970  0.681870  1.0  0.0643
  C  C81  1  0.317730  0.213570  0.950570  1.0  -0.0596
  C  C82  1  0.488300  0.446400  0.902700  1.0  0.0123
  C  C83  1  0.454700  0.510900  0.015200  1.0  0.0653
  C  C84  1  0.453100  0.437500  0.283900  1.0  -0.0608
  C  C85  1  0.154970  0.779730  0.236030  1.0  0.0123
  C  C86  1  0.121370  0.844230  0.348530  1.0  0.0653
  C  C87  1  0.119770  0.770830  0.617230  1.0  -0.0608
  C  C88  1  0.821630  0.113070  0.569370  1.0  0.0123
  C  C89  1  0.788030  0.177570  0.681870  1.0  0.0653
  C  C90  1  0.786430  0.104170  0.950570  1.0  -0.0608
  N  N91  1  0.454900  0.007400  0.946500  1.0  -0.1079
  N  N92  1  0.121570  0.340730  0.279830  1.0  -0.1079
  N  N93  1  0.788230  0.674070  0.613170  1.0  -0.1079
  N  N94  1  0.992600  0.447500  0.946500  1.0  -0.1095
  N  N95  1  0.659270  0.780830  0.279830  1.0  -0.1096
  N  N96  1  0.325930  0.114170  0.613170  1.0  -0.1095
  N  N97  1  0.552500  0.545100  0.946500  1.0  -0.1063
  N  N98  1  0.219170  0.878430  0.279830  1.0  -0.1062
  N  N99  1  0.885830  0.211770  0.613170  1.0  -0.1063
  N  N100  1  0.545100  0.992600  0.053500  1.0  -0.1064
  N  N101  1  0.211770  0.325930  0.386830  1.0  -0.1064
  N  N102  1  0.878430  0.659270  0.720170  1.0  -0.1065
  N  N103  1  0.007400  0.552500  0.053500  1.0  -0.108
  N  N104  1  0.674070  0.885830  0.386830  1.0  -0.108
  N  N105  1  0.340730  0.219170  0.720170  1.0  -0.1081
  N  N106  1  0.447500  0.454900  0.053500  1.0  -0.1042
  N  N107  1  0.114170  0.788230  0.386830  1.0  -0.1042
  N  N108  1  0.780830  0.121570  0.720170  1.0  -0.1042
  O  O109  1  0.478780  0.093480  0.501800  1.0  -0.5051
  O  O110  1  0.387540  0.053010  0.733900  1.0  -0.8332
  O  O111  1  0.390050  0.011540  0.374600  1.0  -0.7702
  O  O112  1  0.145450  0.426810  0.835130  1.0  -0.5051
  O  O113  1  0.054210  0.386340  0.067230  1.0  -0.8332
  O  O114  1  0.056720  0.344870  0.707930  1.0  -0.7701
  O  O115  1  0.812110  0.760150  0.168470  1.0  -0.5071
  O  O116  1  0.720870  0.719680  0.400570  1.0  -0.8332
  O  O117  1  0.723380  0.678210  0.041270  1.0  -0.7702
  O  O118  1  0.906520  0.385300  0.501800  1.0  -0.4964
  O  O119  1  0.946990  0.334530  0.733900  1.0  -0.8318
  O  O120  1  0.988460  0.378510  0.374600  1.0  -0.7713
  O  O121  1  0.573190  0.718630  0.835130  1.0  -0.4964
  O  O122  1  0.613660  0.667860  0.067230  1.0  -0.8319
  O  O123  1  0.655130  0.711840  0.707930  1.0  -0.7705
  O  O124  1  0.239850  0.051970  0.168470  1.0  -0.4969
  O  O125  1  0.280320  0.001200  0.400570  1.0  -0.8319
  O  O126  1  0.321790  0.045180  0.041270  1.0  -0.7713
  O  O127  1  0.614700  0.521220  0.501800  1.0  -0.5175
  O  O128  1  0.665470  0.612460  0.733900  1.0  -0.8317
  O  O129  1  0.621490  0.609950  0.374600  1.0  -0.7697
  O  O130  1  0.281370  0.854550  0.835130  1.0  -0.5175
  O  O131  1  0.332140  0.945790  0.067230  1.0  -0.8317
  O  O132  1  0.288160  0.943280  0.707930  1.0  -0.7702
  O  O133  1  0.948030  0.187890  0.168470  1.0  -0.5063
  O  O134  1  0.998800  0.279130  0.400570  1.0  -0.8317
  O  O135  1  0.954820  0.276620  0.041270  1.0  -0.7696
  O  O136  1  0.521220  0.906520  0.498200  1.0  -0.5046
  O  O137  1  0.612460  0.946990  0.266100  1.0  -0.8314
  O  O138  1  0.609950  0.988460  0.625400  1.0  -0.7701
  O  O139  1  0.187890  0.239850  0.831530  1.0  -0.5072
  O  O140  1  0.279130  0.280320  0.599430  1.0  -0.8314
  O  O141  1  0.276620  0.321790  0.958730  1.0  -0.7702
  O  O142  1  0.854550  0.573190  0.164870  1.0  -0.5046
  O  O143  1  0.945790  0.613660  0.932770  1.0  -0.8314
  O  O144  1  0.943280  0.655130  0.292070  1.0  -0.7701
  O  O145  1  0.093480  0.614700  0.498200  1.0  -0.5002
  O  O146  1  0.053010  0.665470  0.266100  1.0  -0.8306
  O  O147  1  0.011540  0.621490  0.625400  1.0  -0.7709
  O  O148  1  0.760150  0.948030  0.831530  1.0  -0.5004
  O  O149  1  0.719680  0.998800  0.599430  1.0  -0.8306
  O  O150  1  0.678210  0.954820  0.958730  1.0  -0.7709
  O  O151  1  0.426810  0.281370  0.164870  1.0  -0.5002
  O  O152  1  0.386340  0.332140  0.932770  1.0  -0.8306
  O  O153  1  0.344870  0.288160  0.292070  1.0  -0.7701
  O  O154  1  0.385300  0.478780  0.498200  1.0  -0.5173
  O  O155  1  0.334530  0.387540  0.266100  1.0  -0.8299
  O  O156  1  0.378510  0.390050  0.625400  1.0  -0.7697
  O  O157  1  0.051970  0.812110  0.831530  1.0  -0.5065
  O  O158  1  0.001200  0.720870  0.599430  1.0  -0.83
  O  O159  1  0.045180  0.723380  0.958730  1.0  -0.7696
  O  O160  1  0.718630  0.145450  0.164870  1.0  -0.5173
  O  O161  1  0.667860  0.054210  0.932770  1.0  -0.8299
  O  O162  1  0.711840  0.056720  0.292070  1.0  -0.7703
