# generated using pymatgen
data_NiPC3NO3
_symmetry_space_group_name_H-M   'P 1'
_cell_length_a   27.83420000
_cell_length_b   27.83420000
_cell_length_c   6.24210000
_cell_angle_alpha   90.00000000
_cell_angle_beta   90.00000000
_cell_angle_gamma   120.00000000
_symmetry_Int_Tables_number   1
_chemical_formula_structural   NiPC3NO3
_chemical_formula_sum   'Ni18 P18 C54 N18 O54'
_cell_volume   4188.11733628
_cell_formula_units_Z   18
loop_
 _symmetry_equiv_pos_site_id
 _symmetry_equiv_pos_as_xyz
  1  'x, y, z'
loop_
 _atom_site_type_symbol
 _atom_site_label
 _atom_site_symmetry_multiplicity
 _atom_site_fract_x
 _atom_site_fract_y
 _atom_site_fract_z
 _atom_site_occupancy
 _atom_site_charge
  Ni  Ni1  1  0.303460  0.027060  0.719210  1.0  0.7982
  Ni  Ni2  1  0.970130  0.360390  0.052540  1.0  0.7966
  Ni  Ni3  1  0.636790  0.693730  0.385880  1.0  0.7981
  Ni  Ni4  1  0.972940  0.276400  0.719210  1.0  0.7901
  Ni  Ni5  1  0.639610  0.609730  0.052540  1.0  0.7912
  Ni  Ni6  1  0.306270  0.943070  0.385880  1.0  0.79
  Ni  Ni7  1  0.723600  0.696540  0.719210  1.0  0.7901
  Ni  Ni8  1  0.390270  0.029870  0.052540  1.0  0.7901
  Ni  Ni9  1  0.056930  0.363210  0.385880  1.0  0.79
  Ni  Ni10  1  0.696540  0.972940  0.280790  1.0  0.7961
  Ni  Ni11  1  0.363210  0.306270  0.614120  1.0  0.7959
  Ni  Ni12  1  0.029870  0.639610  0.947460  1.0  0.7946
  Ni  Ni13  1  0.027060  0.723600  0.280790  1.0  0.7941
  Ni  Ni14  1  0.693730  0.056930  0.614120  1.0  0.7941
  Ni  Ni15  1  0.360390  0.390270  0.947460  1.0  0.7953
  Ni  Ni16  1  0.276400  0.303460  0.280790  1.0  0.7896
  Ni  Ni17  1  0.943070  0.636790  0.614120  1.0  0.7896
  Ni  Ni18  1  0.609730  0.970130  0.947460  1.0  0.7896
  P  P19  1  0.294020  0.050950  0.237500  1.0  1.4792
  P  P20  1  0.960690  0.384280  0.570830  1.0  1.4791
  P  P21  1  0.627350  0.717620  0.904170  1.0  1.4792
  P  P22  1  0.949050  0.243070  0.237500  1.0  1.4767
  P  P23  1  0.615720  0.576400  0.570830  1.0  1.4767
  P  P24  1  0.282380  0.909740  0.904170  1.0  1.4767
  P  P25  1  0.756930  0.705980  0.237500  1.0  1.4761
  P  P26  1  0.423600  0.039310  0.570830  1.0  1.4762
  P  P27  1  0.090260  0.372650  0.904170  1.0  1.4761
  P  P28  1  0.705980  0.949050  0.762500  1.0  1.4718
  P  P29  1  0.372650  0.282380  0.095830  1.0  1.4718
  P  P30  1  0.039310  0.615720  0.429170  1.0  1.4716
  P  P31  1  0.050950  0.756930  0.762500  1.0  1.4779
  P  P32  1  0.717620  0.090260  0.095830  1.0  1.478
  P  P33  1  0.384280  0.423600  0.429170  1.0  1.478
  P  P34  1  0.243070  0.294020  0.762500  1.0  1.4767
  P  P35  1  0.909740  0.627350  0.095830  1.0  1.4767
  P  P36  1  0.576400  0.960690  0.429170  1.0  1.4768
  C  C37  1  0.278100  0.119800  0.645000  1.0  1e-04
  C  C38  1  0.377430  0.157300  0.744900  1.0  0.0067
  C  C39  1  0.346700  0.117000  0.394900  1.0  -0.0728
  C  C40  1  0.944770  0.453130  0.978330  1.0  1e-04
  C  C41  1  0.044100  0.490630  0.078230  1.0  0.0054
  C  C42  1  0.013370  0.450330  0.728230  1.0  -0.0727
  C  C43  1  0.611430  0.786470  0.311670  1.0  1e-04
  C  C44  1  0.710760  0.823970  0.411570  1.0  0.0067
  C  C45  1  0.680030  0.783670  0.061570  1.0  -0.0728
  C  C46  1  0.880200  0.158300  0.645000  1.0  -0.0005
  C  C47  1  0.842700  0.220130  0.744900  1.0  0.0063
  C  C48  1  0.883000  0.229700  0.394900  1.0  -0.0714
  C  C49  1  0.546870  0.491630  0.978330  1.0  -0.0005
  C  C50  1  0.509370  0.553460  0.078230  1.0  0.0063
  C  C51  1  0.549670  0.563030  0.728230  1.0  -0.0715
  C  C52  1  0.213530  0.824970  0.311670  1.0  -0.0005
  C  C53  1  0.176030  0.886800  0.411570  1.0  0.0063
  C  C54  1  0.216330  0.896370  0.061570  1.0  -0.0714
  C  C55  1  0.841700  0.721900  0.645000  1.0  -0.0018
  C  C56  1  0.779870  0.622570  0.744900  1.0  0.0011
  C  C57  1  0.770300  0.653300  0.394900  1.0  -0.073
  C  C58  1  0.508370  0.055230  0.978330  1.0  -0.0019
  C  C59  1  0.446540  0.955900  0.078230  1.0  0.0027
  C  C60  1  0.436970  0.986630  0.728230  1.0  -0.0729
  C  C61  1  0.175030  0.388570  0.311670  1.0  -0.0018
  C  C62  1  0.113200  0.289240  0.411570  1.0  0.0011
  C  C63  1  0.103630  0.319970  0.061570  1.0  -0.073
  C  C64  1  0.721900  0.880200  0.355000  1.0  0.0004
  C  C65  1  0.622570  0.842700  0.255100  1.0  0.0111
  C  C66  1  0.653300  0.883000  0.605100  1.0  -0.0758
  C  C67  1  0.388570  0.213530  0.688330  1.0  0.0004
  C  C68  1  0.289240  0.176030  0.588430  1.0  0.0111
  C  C69  1  0.319970  0.216330  0.938430  1.0  -0.0758
  C  C70  1  0.055230  0.546870  0.021670  1.0  0.0004
  C  C71  1  0.955900  0.509370  0.921770  1.0  0.0098
  C  C72  1  0.986630  0.549670  0.271770  1.0  -0.0757
  C  C73  1  0.119800  0.841700  0.355000  1.0  0.0022
  C  C74  1  0.157300  0.779870  0.255100  1.0  0.0094
  C  C75  1  0.117000  0.770300  0.605100  1.0  -0.0749
  C  C76  1  0.786470  0.175030  0.688330  1.0  0.0022
  C  C77  1  0.823970  0.113200  0.588430  1.0  0.0094
  C  C78  1  0.783670  0.103630  0.938430  1.0  -0.0749
  C  C79  1  0.453130  0.508370  0.021670  1.0  0.0022
  C  C80  1  0.490630  0.446540  0.921770  1.0  0.0094
  C  C81  1  0.450330  0.436970  0.271770  1.0  -0.075
  C  C82  1  0.158300  0.278100  0.355000  1.0  -0.0009
  C  C83  1  0.220130  0.377430  0.255100  1.0  0.0108
  C  C84  1  0.229700  0.346700  0.605100  1.0  -0.0773
  C  C85  1  0.824970  0.611430  0.688330  1.0  -0.0009
  C  C86  1  0.886800  0.710760  0.588430  1.0  0.0108
  C  C87  1  0.896370  0.680030  0.938430  1.0  -0.0773
  C  C88  1  0.491630  0.944770  0.021670  1.0  -0.0009
  C  C89  1  0.553460  0.044100  0.921770  1.0  0.0121
  C  C90  1  0.563030  0.013370  0.271770  1.0  -0.0772
  N  N91  1  0.324910  0.111250  0.623000  1.0  -0.0503
  N  N92  1  0.991580  0.444580  0.956330  1.0  -0.0504
  N  N93  1  0.658240  0.777920  0.289670  1.0  -0.0503
  N  N94  1  0.888750  0.213660  0.623000  1.0  -0.0465
  N  N95  1  0.555420  0.546990  0.956330  1.0  -0.0465
  N  N96  1  0.222080  0.880330  0.289670  1.0  -0.0465
  N  N97  1  0.786340  0.675090  0.623000  1.0  -0.0493
  N  N98  1  0.453010  0.008420  0.956330  1.0  -0.0493
  N  N99  1  0.119670  0.341760  0.289670  1.0  -0.0493
  N  N100  1  0.675090  0.888750  0.377000  1.0  -0.0488
  N  N101  1  0.341760  0.222080  0.710330  1.0  -0.0488
  N  N102  1  0.008420  0.555420  0.043670  1.0  -0.0489
  N  N103  1  0.111250  0.786340  0.377000  1.0  -0.047
  N  N104  1  0.777920  0.119670  0.710330  1.0  -0.047
  N  N105  1  0.444580  0.453010  0.043670  1.0  -0.047
  N  N106  1  0.213660  0.324910  0.377000  1.0  -0.0487
  N  N107  1  0.880330  0.658240  0.710330  1.0  -0.0487
  N  N108  1  0.546990  0.991580  0.043670  1.0  -0.0488
  O  O109  1  0.240670  0.050630  0.183100  1.0  -0.5287
  O  O110  1  0.323940  0.045780  0.049600  1.0  -0.7853
  O  O111  1  0.282760  0.002620  0.397900  1.0  -0.8367
  O  O112  1  0.907340  0.383960  0.516430  1.0  -0.5253
  O  O113  1  0.990610  0.379110  0.382930  1.0  -0.785
  O  O114  1  0.949430  0.335950  0.731230  1.0  -0.8367
  O  O115  1  0.574000  0.717300  0.849770  1.0  -0.5253
  O  O116  1  0.657270  0.712450  0.716270  1.0  -0.785
  O  O117  1  0.616090  0.669290  0.064570  1.0  -0.8362
  O  O118  1  0.949370  0.190040  0.183100  1.0  -0.5371
  O  O119  1  0.954220  0.278160  0.049600  1.0  -0.7835
  O  O120  1  0.997380  0.280140  0.397900  1.0  -0.8348
  O  O121  1  0.616040  0.523370  0.516430  1.0  -0.5337
  O  O122  1  0.620890  0.611490  0.382930  1.0  -0.7835
  O  O123  1  0.664050  0.613470  0.731230  1.0  -0.8349
  O  O124  1  0.282700  0.856710  0.849770  1.0  -0.5337
  O  O125  1  0.287550  0.944830  0.716270  1.0  -0.7836
  O  O126  1  0.330710  0.946810  0.064570  1.0  -0.8347
  O  O127  1  0.809960  0.759330  0.183100  1.0  -0.5362
  O  O128  1  0.721840  0.676060  0.049600  1.0  -0.7852
  O  O129  1  0.719860  0.717240  0.397900  1.0  -0.8362
  O  O130  1  0.476630  0.092660  0.516430  1.0  -0.5362
  O  O131  1  0.388510  0.009390  0.382930  1.0  -0.7852
  O  O132  1  0.386530  0.050570  0.731230  1.0  -0.8361
  O  O133  1  0.143290  0.426000  0.849770  1.0  -0.5362
  O  O134  1  0.055170  0.342730  0.716270  1.0  -0.785
  O  O135  1  0.053190  0.383910  0.064570  1.0  -0.8367
  O  O136  1  0.759330  0.949370  0.816900  1.0  -0.5322
  O  O137  1  0.676060  0.954220  0.950400  1.0  -0.7864
  O  O138  1  0.717240  0.997380  0.602100  1.0  -0.8355
  O  O139  1  0.426000  0.282700  0.150230  1.0  -0.5287
  O  O140  1  0.342730  0.287550  0.283730  1.0  -0.7861
  O  O141  1  0.383910  0.330710  0.935430  1.0  -0.8351
  O  O142  1  0.092660  0.616040  0.483570  1.0  -0.5287
  O  O143  1  0.009390  0.620890  0.617070  1.0  -0.7861
  O  O144  1  0.050570  0.664050  0.268770  1.0  -0.8356
  O  O145  1  0.050630  0.809960  0.816900  1.0  -0.541
  O  O146  1  0.045780  0.721840  0.950400  1.0  -0.7849
  O  O147  1  0.002620  0.719860  0.602100  1.0  -0.8342
  O  O148  1  0.717300  0.143290  0.150230  1.0  -0.538
  O  O149  1  0.712450  0.055170  0.283730  1.0  -0.785
  O  O150  1  0.669290  0.053190  0.935430  1.0  -0.8341
  O  O151  1  0.383960  0.476630  0.483570  1.0  -0.538
  O  O152  1  0.379110  0.388510  0.617070  1.0  -0.7848
  O  O153  1  0.335950  0.386530  0.268770  1.0  -0.8342
  O  O154  1  0.190040  0.240670  0.816900  1.0  -0.5348
  O  O155  1  0.278160  0.323940  0.950400  1.0  -0.7857
  O  O156  1  0.280140  0.282760  0.602100  1.0  -0.8361
  O  O157  1  0.856710  0.574000  0.150230  1.0  -0.5348
  O  O158  1  0.944830  0.657270  0.283730  1.0  -0.7854
  O  O159  1  0.946810  0.616090  0.935430  1.0  -0.8364
  O  O160  1  0.523370  0.907340  0.483570  1.0  -0.5348
  O  O161  1  0.611490  0.990610  0.617070  1.0  -0.7857
  O  O162  1  0.613470  0.949430  0.268770  1.0  -0.8361
