# generated using pymatgen
data_Mn2Mo(CN)8
_symmetry_space_group_name_H-M   'P 1'
_cell_length_a   10.74350000
_cell_length_b   10.74350000
_cell_length_c   10.74350000
_cell_angle_alpha   103.56400000
_cell_angle_beta   112.50300000
_cell_angle_gamma   112.50300000
_symmetry_Int_Tables_number   1
_chemical_formula_structural   Mn2Mo(CN)8
_chemical_formula_sum   'Mn4 Mo2 C16 N16'
_cell_volume   947.08718854
_cell_formula_units_Z   2
loop_
 _symmetry_equiv_pos_site_id
 _symmetry_equiv_pos_as_xyz
  1  'x, y, z'
loop_
 _atom_site_type_symbol
 _atom_site_label
 _atom_site_symmetry_multiplicity
 _atom_site_fract_x
 _atom_site_fract_y
 _atom_site_fract_z
 _atom_site_occupancy
 _atom_site_charge
  Mn  Mn1  1  0.109560  0.303160  0.806400  1.0  1.2132
  Mn  Mn2  1  0.890440  0.696840  0.193600  1.0  1.2145
  Mn  Mn3  1  0.503240  0.806400  0.696840  1.0  1.2129
  Mn  Mn4  1  0.496760  0.193600  0.303160  1.0  1.2128
  Mo  Mo5  1  0.000000  0.248130  0.248130  1.0  -0.2691
  Mo  Mo6  1  0.000000  0.751870  0.751870  1.0  -0.2691
  C  C7  1  0.053060  0.258900  0.467760  1.0  0.2361
  C  C8  1  0.096120  0.303410  0.111150  1.0  0.23
  C  C9  1  0.946940  0.414700  0.205840  1.0  0.2299
  C  C10  1  0.903880  0.015030  0.207290  1.0  0.2362
  C  C11  1  0.208860  0.467760  0.414700  1.0  0.2398
  C  C12  1  0.807740  0.111150  0.015030  1.0  0.2337
  C  C13  1  0.791140  0.205840  0.258900  1.0  0.2374
  C  C14  1  0.192260  0.207290  0.303410  1.0  0.2339
  C  C15  1  0.946940  0.741100  0.532240  1.0  0.2351
  C  C16  1  0.903880  0.696590  0.888850  1.0  0.2311
  C  C17  1  0.053060  0.585300  0.794160  1.0  0.2308
  C  C18  1  0.096120  0.984970  0.792710  1.0  0.2361
  C  C19  1  0.791140  0.532240  0.585300  1.0  0.2404
  C  C20  1  0.192260  0.888850  0.984970  1.0  0.2325
  C  C21  1  0.208860  0.794160  0.741100  1.0  0.2379
  C  C22  1  0.807740  0.792710  0.696590  1.0  0.2349
  N  N23  1  0.073760  0.257110  0.579930  1.0  -0.5022
  N  N24  1  0.139460  0.332930  0.033190  1.0  -0.505
  N  N25  1  0.926240  0.506170  0.183350  1.0  -0.5027
  N  N26  1  0.860540  0.893730  0.193470  1.0  -0.5075
  N  N27  1  0.322820  0.579930  0.506170  1.0  -0.5021
  N  N28  1  0.700260  0.033190  0.893730  1.0  -0.5103
  N  N29  1  0.677180  0.183350  0.257110  1.0  -0.4976
  N  N30  1  0.299740  0.193470  0.332930  1.0  -0.5086
  N  N31  1  0.926240  0.742890  0.420070  1.0  -0.502
  N  N32  1  0.860540  0.667070  0.966810  1.0  -0.5039
  N  N33  1  0.073760  0.493830  0.816650  1.0  -0.5026
  N  N34  1  0.139460  0.106270  0.806530  1.0  -0.5086
  N  N35  1  0.677180  0.420070  0.493830  1.0  -0.4994
  N  N36  1  0.299740  0.966810  0.106270  1.0  -0.5105
  N  N37  1  0.322820  0.816650  0.742890  1.0  -0.4987
  N  N38  1  0.700260  0.806530  0.667070  1.0  -0.509
