# generated using pymatgen
data_Mn2Mo(CN)8
_symmetry_space_group_name_H-M   'P 1'
_cell_length_a   10.72200000
_cell_length_b   10.72200000
_cell_length_c   10.72200000
_cell_angle_alpha   67.50850000
_cell_angle_beta   76.41380000
_cell_angle_gamma   112.49100000
_symmetry_Int_Tables_number   1
_chemical_formula_structural   Mn2Mo(CN)8
_chemical_formula_sum   'Mn4 Mo2 C16 N16'
_cell_volume   941.46985956
_cell_formula_units_Z   2
loop_
 _symmetry_equiv_pos_site_id
 _symmetry_equiv_pos_as_xyz
  1  'x, y, z'
loop_
 _atom_site_type_symbol
 _atom_site_label
 _atom_site_symmetry_multiplicity
 _atom_site_fract_x
 _atom_site_fract_y
 _atom_site_fract_z
 _atom_site_occupancy
 _atom_site_charge
  Mn  Mn1  1  0.694130  0.891150  0.802980  1.0  1.2119
  Mn  Mn2  1  0.305870  0.108850  0.197020  1.0  1.2116
  Mn  Mn3  1  0.802980  0.497110  0.305870  1.0  1.2124
  Mn  Mn4  1  0.197020  0.502890  0.694130  1.0  1.213
  Mo  Mo5  1  0.748300  0.000000  0.251700  1.0  -0.2777
  Mo  Mo6  1  0.251700  0.000000  0.748300  1.0  -0.2772
  C  C7  1  0.706000  0.946400  0.086000  1.0  0.2387
  C  C8  1  0.610800  0.094500  0.196900  1.0  0.2283
  C  C9  1  0.967600  0.053600  0.240400  1.0  0.2361
  C  C10  1  0.708600  0.905500  0.483700  1.0  0.2362
  C  C11  1  0.759600  0.792000  0.294000  1.0  0.2401
  C  C12  1  0.516300  0.807700  0.389200  1.0  0.2358
  C  C13  1  0.914000  0.208000  0.032400  1.0  0.2428
  C  C14  1  0.803100  0.192300  0.291400  1.0  0.2336
  C  C15  1  0.294000  0.053600  0.914000  1.0  0.2385
  C  C16  1  0.389200  0.905500  0.803100  1.0  0.2278
  C  C17  1  0.032400  0.946400  0.759600  1.0  0.2369
  C  C18  1  0.291400  0.094500  0.516300  1.0  0.2351
  C  C19  1  0.240400  0.208000  0.706000  1.0  0.2403
  C  C20  1  0.483700  0.192300  0.610800  1.0  0.234
  C  C21  1  0.086000  0.792000  0.967600  1.0  0.2427
  C  C22  1  0.196900  0.807700  0.708600  1.0  0.2358
  N  N23  1  0.683500  0.925300  0.994400  1.0  -0.5046
  N  N24  1  0.531500  0.137200  0.167100  1.0  -0.513
  N  N25  1  0.080300  0.074700  0.241800  1.0  -0.4956
  N  N26  1  0.695700  0.862800  0.605700  1.0  -0.5125
  N  N27  1  0.758200  0.677900  0.316500  1.0  -0.5007
  N  N28  1  0.394300  0.698600  0.468500  1.0  -0.4997
  N  N29  1  0.005600  0.322100  0.919700  1.0  -0.496
  N  N30  1  0.832900  0.301400  0.304300  1.0  -0.5152
  N  N31  1  0.316500  0.074700  0.005600  1.0  -0.5047
  N  N32  1  0.468500  0.862800  0.832900  1.0  -0.5129
  N  N33  1  0.919700  0.925300  0.758200  1.0  -0.4948
  N  N34  1  0.304300  0.137200  0.394300  1.0  -0.5143
  N  N35  1  0.241800  0.322100  0.683500  1.0  -0.5015
  N  N36  1  0.605700  0.301400  0.531500  1.0  -0.5035
  N  N37  1  0.994400  0.677900  0.080300  1.0  -0.4948
  N  N38  1  0.167100  0.698600  0.695700  1.0  -0.5128
