# generated using pymatgen
data_CdH18C27(N3O2)2
_symmetry_space_group_name_H-M   'P 1'
_cell_length_a   11.32800000
_cell_length_b   13.62400000
_cell_length_c   24.95100000
_cell_angle_alpha   90.00000000
_cell_angle_beta   90.00000000
_cell_angle_gamma   114.07300000
_symmetry_Int_Tables_number   1
_chemical_formula_structural   CdH18C27(N3O2)2
_chemical_formula_sum   'Cd4 H72 C108 N24 O16'
_cell_volume   3515.84089135
_cell_formula_units_Z   4
loop_
 _symmetry_equiv_pos_site_id
 _symmetry_equiv_pos_as_xyz
  1  'x, y, z'
loop_
 _atom_site_type_symbol
 _atom_site_label
 _atom_site_symmetry_multiplicity
 _atom_site_fract_x
 _atom_site_fract_y
 _atom_site_fract_z
 _atom_site_occupancy
 _atom_site_charge
  Cd  Cd1  1  0.352460  0.174730  0.840230  1.0  0.9277
  Cd  Cd2  1  0.852460  0.674730  0.659770  1.0  0.9269
  Cd  Cd3  1  0.647540  0.825270  0.159770  1.0  0.9275
  Cd  Cd4  1  0.147540  0.325270  0.340230  1.0  0.9281
  H  H5  1  0.182500  0.791500  0.697300  1.0  0.1036
  H  H6  1  0.438700  0.614700  0.848200  1.0  0.0982
  H  H7  1  0.366300  0.876700  0.845200  1.0  0.1017
  H  H8  1  0.396000  0.432500  0.060100  1.0  0.1248
  H  H9  1  0.048200  0.158400  0.229600  1.0  0.1189
  H  H10  1  0.133700  0.623300  0.345200  1.0  0.1018
  H  H11  1  0.990800  0.936000  0.625600  1.0  0.0986
  H  H12  1  0.890000  0.419400  0.203300  1.0  0.1012
  H  H13  1  0.661700  0.025300  0.324000  1.0  0.1298
  H  H14  1  0.894900  0.042100  0.088100  1.0  0.0925
  H  H15  1  0.375200  0.167000  0.675700  1.0  0.1097
  H  H16  1  0.830300  0.212500  0.619800  1.0  0.1033
  H  H17  1  0.169700  0.787500  0.380200  1.0  0.1034
  H  H18  1  0.866300  0.376700  0.654800  1.0  0.1013
  H  H19  1  0.806000  0.827200  0.040900  1.0  0.093
  H  H20  1  0.605100  0.457900  0.588100  1.0  0.0927
  H  H21  1  0.076600  0.175000  0.722500  1.0  0.0937
  H  H22  1  0.532500  0.312900  0.031300  1.0  0.1145
  H  H23  1  0.700100  0.972400  0.664700  1.0  0.1043
  H  H24  1  0.562500  0.243600  0.944800  1.0  0.1012
  H  H25  1  0.437500  0.756400  0.055200  1.0  0.0996
  H  H26  1  0.490800  0.436000  0.874400  1.0  0.0982
  H  H27  1  0.624800  0.833000  0.324300  1.0  0.109
  H  H28  1  0.548200  0.658400  0.270400  1.0  0.1188
  H  H29  1  0.134500  0.124700  0.063000  1.0  0.1202
  H  H30  1  0.394900  0.542100  0.411900  1.0  0.0933
  H  H31  1  0.062500  0.743600  0.555200  1.0  0.1003
  H  H32  1  0.200100  0.472400  0.835300  1.0  0.1041
  H  H33  1  0.799900  0.527600  0.164700  1.0  0.102
  H  H34  1  0.642900  0.509400  0.742100  1.0  0.0976
  H  H35  1  0.923400  0.825000  0.277500  1.0  0.0944
  H  H36  1  0.110000  0.580600  0.796700  1.0  0.1018
  H  H37  1  0.194000  0.172800  0.959100  1.0  0.0944
  H  H38  1  0.104000  0.067500  0.560100  1.0  0.1245
  H  H39  1  0.306000  0.327200  0.459100  1.0  0.0935
  H  H40  1  0.634500  0.624700  0.437000  1.0  0.1203
  H  H41  1  0.604000  0.567500  0.939900  1.0  0.1245
  H  H42  1  0.390000  0.919400  0.296700  1.0  0.1014
  H  H43  1  0.896000  0.932500  0.439900  1.0  0.1245
  H  H44  1  0.009200  0.064000  0.374400  1.0  0.0988
  H  H45  1  0.937500  0.256400  0.444800  1.0  0.1003
  H  H46  1  0.330300  0.712500  0.880200  1.0  0.1043
  H  H47  1  0.467500  0.687100  0.968700  1.0  0.1143
  H  H48  1  0.105100  0.957900  0.911900  1.0  0.0934
  H  H49  1  0.561300  0.385300  0.151800  1.0  0.0984
  H  H50  1  0.142900  0.009400  0.757900  1.0  0.0968
  H  H51  1  0.423400  0.325000  0.222500  1.0  0.0941
  H  H52  1  0.161700  0.525300  0.176000  1.0  0.1296
  H  H53  1  0.357100  0.490600  0.257900  1.0  0.0973
  H  H54  1  0.576600  0.675000  0.777500  1.0  0.0934
  H  H55  1  0.032500  0.812900  0.468700  1.0  0.1143
  H  H56  1  0.124800  0.333000  0.175700  1.0  0.1086
  H  H57  1  0.338300  0.974700  0.676000  1.0  0.1304
  H  H58  1  0.451800  0.341600  0.729600  1.0  0.1214
  H  H59  1  0.365500  0.375300  0.563000  1.0  0.1209
  H  H60  1  0.817500  0.208500  0.302700  1.0  0.1064
  H  H61  1  0.967500  0.187100  0.531300  1.0  0.1148
  H  H62  1  0.317500  0.708500  0.197300  1.0  0.1061
  H  H63  1  0.669700  0.287500  0.119800  1.0  0.1032
  H  H64  1  0.875200  0.667000  0.824300  1.0  0.1089
  H  H65  1  0.061300  0.885300  0.348200  1.0  0.098
  H  H66  1  0.694000  0.672800  0.540900  1.0  0.0943
  H  H67  1  0.857100  0.990600  0.242100  1.0  0.0982
  H  H68  1  0.509200  0.564000  0.125600  1.0  0.0986
  H  H69  1  0.951800  0.841600  0.770400  1.0  0.121
  H  H70  1  0.633700  0.123300  0.154800  1.0  0.1011
  H  H71  1  0.938700  0.114700  0.651800  1.0  0.0977
  H  H72  1  0.682500  0.291500  0.802700  1.0  0.1035
  H  H73  1  0.838300  0.474700  0.824000  1.0  0.1305
  H  H74  1  0.865500  0.875300  0.937000  1.0  0.1229
  H  H75  1  0.610000  0.080600  0.703300  1.0  0.1014
  H  H76  1  0.299900  0.027600  0.335300  1.0  0.102
  C  C77  1  0.825400  0.878300  0.423870  1.0  -0.2143
  C  C78  1  0.611100  0.477300  0.709200  1.0  0.0511
  C  C79  1  0.968300  0.776300  0.493600  1.0  -0.1264
  C  C80  1  0.775100  0.774700  0.444610  1.0  0.1689
  C  C81  1  0.224900  0.225300  0.555390  1.0  0.1694
  C  C82  1  0.291200  0.206900  0.307200  1.0  0.705
  C  C83  1  0.909100  0.337200  0.669100  1.0  -0.1167
  C  C84  1  0.111900  0.217700  0.122530  1.0  0.1655
  C  C85  1  0.979600  0.517900  0.264150  1.0  -0.12
  C  C86  1  0.168100  0.193500  0.077620  1.0  -0.1819
  C  C87  1  0.836700  0.156100  0.319800  1.0  0.0061
  C  C88  1  0.137300  0.353700  0.781300  1.0  -0.1413
  C  C89  1  0.908600  0.050000  0.124890  1.0  0.1498
  C  C90  1  0.111600  0.760400  0.352000  1.0  -0.1054
  C  C91  1  0.005000  0.884600  0.797200  1.0  -0.1347
  C  C92  1  0.249700  0.554900  0.168300  1.0  -0.1382
  C  C93  1  0.348000  0.050200  0.304000  1.0  -0.0589
  C  C94  1  0.020400  0.482100  0.735850  1.0  -0.1216
  C  C95  1  0.661800  0.818700  0.355010  1.0  -0.2767
  C  C96  1  0.388400  0.739600  0.852000  1.0  -0.1124
  C  C97  1  0.791200  0.706900  0.192800  1.0  0.7013
  C  C98  1  0.862700  0.646300  0.218700  1.0  -0.1412
  C  C99  1  0.495000  0.615400  0.297200  1.0  -0.1325
  C  C100  1  0.468300  0.276300  0.006400  1.0  -0.1255
  C  C101  1  0.516200  0.761700  0.041400  1.0  0.0304
  C  C102  1  0.942800  0.684700  0.265200  1.0  0.0388
  C  C103  1  0.275100  0.274700  0.055390  1.0  0.1691
  C  C104  1  0.483800  0.238300  0.958600  1.0  0.0322
  C  C105  1  0.231600  0.100800  0.621080  1.0  0.1525
  C  C106  1  0.034400  0.216400  0.709900  1.0  -0.0941
  C  C107  1  0.952100  0.180200  0.667600  1.0  -0.1264
  C  C108  1  0.970200  0.559400  0.711160  1.0  0.6696
  C  C109  1  0.520400  0.982100  0.764150  1.0  -0.1204
  C  C110  1  0.174600  0.121700  0.576130  1.0  -0.213
  C  C111  1  0.717700  0.801000  0.034040  1.0  0.1576
  C  C112  1  0.708800  0.793100  0.692800  1.0  0.6992
  C  C113  1  0.111100  0.977300  0.790800  1.0  0.052
  C  C114  1  0.668100  0.693500  0.422380  1.0  -0.1801
  C  C115  1  0.470200  0.059400  0.788840  1.0  0.6691
  C  C116  1  0.888400  0.239600  0.648000  1.0  -0.1109
  C  C117  1  0.029800  0.440600  0.288840  1.0  0.6721
  C  C118  1  0.750300  0.445100  0.831700  1.0  -0.1351
  C  C119  1  0.547900  0.319800  0.167600  1.0  -0.1272
  C  C120  1  0.090900  0.662800  0.330900  1.0  -0.1157
  C  C121  1  0.505000  0.384600  0.702800  1.0  -0.1431
  C  C122  1  0.888900  0.022700  0.209200  1.0  0.051
  C  C123  1  0.362700  0.146300  0.281300  1.0  -0.1409
  C  C124  1  0.152000  0.449800  0.804000  1.0  -0.0601
  C  C125  1  0.557500  0.422400  0.859200  1.0  0.144
  C  C126  1  0.611600  0.260400  0.148000  1.0  -0.1048
  C  C127  1  0.325400  0.378300  0.076130  1.0  -0.2158
  C  C128  1  0.965600  0.783600  0.290100  1.0  -0.0943
  C  C129  1  0.529800  0.940600  0.211160  1.0  0.6717
  C  C130  1  0.282300  0.199000  0.965960  1.0  0.1557
  C  C131  1  0.452100  0.680200  0.832400  1.0  -0.1266
  C  C132  1  0.504000  0.120200  0.213050  1.0  0.0588
  C  C133  1  0.465600  0.283600  0.209900  1.0  -0.0939
  C  C134  1  0.250300  0.945100  0.668300  1.0  -0.1347
  C  C135  1  0.663300  0.343900  0.819800  1.0  0.0062
  C  C136  1  0.336700  0.656100  0.180200  1.0  0.0063
  C  C137  1  0.217700  0.301000  0.465960  1.0  0.1573
  C  C138  1  0.596000  0.014700  0.718900  1.0  -0.0442
  C  C139  1  0.442500  0.577600  0.140800  1.0  0.1436
  C  C140  1  0.057500  0.922400  0.640800  1.0  0.144
  C  C141  1  0.479600  0.017900  0.235850  1.0  -0.1214
  C  C142  1  0.749700  0.054900  0.331700  1.0  -0.1376
  C  C143  1  0.338200  0.181300  0.644990  1.0  -0.2743
  C  C144  1  0.590900  0.162800  0.169100  1.0  -0.1162
  C  C145  1  0.674600  0.621700  0.923870  1.0  -0.213
  C  C146  1  0.047900  0.819800  0.332400  1.0  -0.1271
  C  C147  1  0.534400  0.716400  0.790100  1.0  -0.0945
  C  C148  1  0.557200  0.815300  0.765200  1.0  0.038
  C  C149  1  0.004000  0.620200  0.286950  1.0  0.0588
  C  C150  1  0.995000  0.115400  0.202800  1.0  -0.1336
  C  C151  1  0.388900  0.522700  0.290800  1.0  0.0513
  C  C152  1  0.442800  0.184700  0.234800  1.0  0.0383
  C  C153  1  0.091400  0.950000  0.875110  1.0  0.149
  C  C154  1  0.409100  0.837200  0.830900  1.0  -0.1163
  C  C155  1  0.331900  0.306500  0.577620  1.0  -0.1826
  C  C156  1  0.161800  0.318700  0.144990  1.0  -0.2762
  C  C157  1  0.031700  0.223700  0.506400  1.0  -0.1263
  C  C158  1  0.724900  0.725300  0.944610  1.0  0.1691
  C  C159  1  0.388100  0.282300  0.622530  1.0  0.1663
  C  C160  1  0.831900  0.806500  0.922380  1.0  -0.1818
  C  C161  1  0.408600  0.550000  0.375110  1.0  0.1485
  C  C162  1  0.496000  0.879800  0.786950  1.0  0.0596
  C  C163  1  0.404000  0.985300  0.281100  1.0  -0.0368
  C  C164  1  0.996000  0.379800  0.713050  1.0  0.0587
  C  C165  1  0.163300  0.843900  0.680200  1.0  0.0067
  C  C166  1  0.637300  0.853700  0.718700  1.0  -0.1417
  C  C167  1  0.731600  0.600800  0.878920  1.0  0.1529
  C  C168  1  0.838200  0.681300  0.855010  1.0  -0.273
  C  C169  1  0.016200  0.261700  0.458600  1.0  0.0315
  C  C170  1  0.782300  0.699000  0.534040  1.0  0.157
  C  C171  1  0.768400  0.899200  0.378920  1.0  0.1521
  C  C172  1  0.208800  0.293100  0.807200  1.0  0.7023
  C  C173  1  0.611900  0.717700  0.377470  1.0  0.1652
  C  C174  1  0.057200  0.315300  0.734800  1.0  0.038
  C  C175  1  0.531700  0.723700  0.993600  1.0  -0.1269
  C  C176  1  0.888100  0.782300  0.877470  1.0  0.1653
  C  C177  1  0.652000  0.949800  0.696000  1.0  -0.0604
  C  C178  1  0.983800  0.738300  0.541400  1.0  0.0314
  C  C179  1  0.848000  0.550200  0.196000  1.0  -0.0598
  C  C180  1  0.591400  0.450000  0.624890  1.0  0.1498
  C  C181  1  0.268400  0.399200  0.121080  1.0  0.1519
  C  C182  1  0.942500  0.077600  0.359200  1.0  0.1439
  C  C183  1  0.904000  0.485300  0.218900  1.0  -0.0461
  C  C184  1  0.096000  0.514700  0.781100  1.0  -0.0433
  N  N185  1  0.132700  0.309500  0.432760  1.0  -0.3605
  N  N186  1  0.182300  0.994700  0.642700  1.0  0.0324
  N  N187  1  0.682300  0.494700  0.857300  1.0  0.0315
  N  N188  1  0.835100  0.982800  0.160800  1.0  -0.345
  N  N189  1  0.817700  0.005300  0.357300  1.0  0.0314
  N  N190  1  0.867300  0.690500  0.567240  1.0  -0.3619
  N  N191  1  0.839100  0.750400  0.488770  1.0  0.055
  N  N192  1  0.042400  0.831100  0.662980  1.0  -0.3443
  N  N193  1  0.457600  0.668900  0.162980  1.0  -0.3453
  N  N194  1  0.164900  0.017200  0.839200  1.0  -0.3457
  N  N195  1  0.339100  0.250400  0.011230  1.0  0.0544
  N  N196  1  0.335100  0.482800  0.339200  1.0  -0.3454
  N  N197  1  0.660900  0.749600  0.988770  1.0  0.0547
  N  N198  1  0.160900  0.249600  0.511230  1.0  0.0542
  N  N199  1  0.317700  0.505300  0.142700  1.0  0.0315
  N  N200  1  0.542400  0.331100  0.837020  1.0  -0.3441
  N  N201  1  0.957600  0.168900  0.337020  1.0  -0.3454
  N  N202  1  0.492200  0.367100  0.648560  1.0  0.0379
  N  N203  1  0.007800  0.132900  0.148560  1.0  0.0378
  N  N204  1  0.664900  0.517200  0.660800  1.0  -0.3457
  N  N205  1  0.992200  0.867100  0.851440  1.0  0.0383
  N  N206  1  0.507800  0.632900  0.351440  1.0  0.0378
  N  N207  1  0.632700  0.809500  0.067240  1.0  -0.3635
  N  N208  1  0.367300  0.190500  0.932760  1.0  -0.3605
  O  O209  1  0.754100  0.742300  0.722410  1.0  -0.6338
  O  O210  1  0.245900  0.257700  0.277590  1.0  -0.6348
  O  O211  1  0.745900  0.757700  0.222410  1.0  -0.6346
  O  O212  1  0.254100  0.242300  0.777590  1.0  -0.634
  O  O213  1  0.975100  0.569800  0.660960  1.0  -0.6767
  O  O214  1  0.779400  0.703500  0.143130  1.0  -0.6074
  O  O215  1  0.475100  0.069800  0.839040  1.0  -0.6836
  O  O216  1  0.524900  0.930200  0.160960  1.0  -0.6779
  O  O217  1  0.927500  0.610200  0.740450  1.0  -0.5998
  O  O218  1  0.024900  0.430200  0.339040  1.0  -0.6819
  O  O219  1  0.720600  0.796500  0.643130  1.0  -0.6058
  O  O220  1  0.427500  0.110200  0.759550  1.0  -0.6019
  O  O221  1  0.279400  0.203500  0.356870  1.0  -0.607
  O  O222  1  0.072500  0.389800  0.259550  1.0  -0.6078
  O  O223  1  0.572500  0.889800  0.240450  1.0  -0.6074
  O  O224  1  0.220600  0.296500  0.856870  1.0  -0.6065
