# generated using pymatgen
data_CdH21C25(N4O)2
_symmetry_space_group_name_H-M   'P 1'
_cell_length_a   19.56390000
_cell_length_b   19.56390000
_cell_length_c   26.87320000
_cell_angle_alpha   90.00000000
_cell_angle_beta   90.00000000
_cell_angle_gamma   120.00000000
_symmetry_Int_Tables_number   1
_chemical_formula_structural   CdH21C25(N4O)2
_chemical_formula_sum   'Cd12 H252 C300 N96 O24'
_cell_volume   8907.60365027
_cell_formula_units_Z   12
loop_
 _symmetry_equiv_pos_site_id
 _symmetry_equiv_pos_as_xyz
  1  'x, y, z'
loop_
 _atom_site_type_symbol
 _atom_site_label
 _atom_site_symmetry_multiplicity
 _atom_site_fract_x
 _atom_site_fract_y
 _atom_site_fract_z
 _atom_site_occupancy
 _atom_site_charge
  Cd  Cd1  1  0.289930  0.010140  0.361440  1.0  0.9088
  Cd  Cd2  1  0.989860  0.279790  0.361440  1.0  0.91
  Cd  Cd3  1  0.720210  0.710070  0.361440  1.0  0.9096
  Cd  Cd4  1  0.989860  0.710070  0.138560  1.0  0.9075
  Cd  Cd5  1  0.720210  0.010140  0.138560  1.0  0.9091
  Cd  Cd6  1  0.289930  0.279790  0.138560  1.0  0.9089
  Cd  Cd7  1  0.710070  0.989860  0.638560  1.0  0.9097
  Cd  Cd8  1  0.010140  0.720210  0.638560  1.0  0.9083
  Cd  Cd9  1  0.279790  0.289930  0.638560  1.0  0.9089
  Cd  Cd10  1  0.010140  0.289930  0.861440  1.0  0.9098
  Cd  Cd11  1  0.279790  0.989860  0.861440  1.0  0.9096
  Cd  Cd12  1  0.710070  0.720210  0.861440  1.0  0.9101
  H  H13  1  0.999500  0.922300  0.338300  1.0  0.0742
  H  H14  1  0.999300  0.879100  0.387500  1.0  0.0583
  H  H15  1  0.074000  0.999600  0.428000  1.0  0.0697
  H  H16  1  0.483500  0.106600  0.537900  1.0  0.1026
  H  H17  1  0.472600  0.079600  0.686400  1.0  0.1084
  H  H18  1  0.289800  0.071900  0.612200  1.0  0.0994
  H  H19  1  0.267100  0.128900  0.538000  1.0  0.1073
  H  H20  1  0.228300  0.099000  0.451300  1.0  0.076
  H  H21  1  0.388700  0.039400  0.474100  1.0  0.0706
  H  H22  1  0.634100  0.188500  0.560500  1.0  0.1071
  H  H23  1  0.732200  0.146800  0.573800  1.0  0.0686
  H  H24  1  0.547000  0.005600  0.651000  1.0  0.0654
  H  H25  1  0.208200  0.984600  0.672800  1.0  0.0996
  H  H26  1  0.169600  0.958200  0.761000  1.0  0.0933
  H  H27  1  0.394900  0.049400  0.754500  1.0  0.0613
  H  H28  1  0.585300  0.388100  0.320900  1.0  0.1066
  H  H29  1  0.457200  0.298600  0.288900  1.0  0.1131
  H  H30  1  0.327800  0.184200  0.313400  1.0  0.0785
  H  H31  1  0.488900  0.133300  0.348200  1.0  0.0738
  H  H32  1  0.268000  0.119100  0.689900  1.0  0.08
  H  H33  1  0.230400  0.089700  0.777300  1.0  0.1388
  H  H34  1  0.077700  0.077200  0.338300  1.0  0.0739
  H  H35  1  0.120900  0.120200  0.387500  1.0  0.0571
  H  H36  1  0.000400  0.074400  0.428000  1.0  0.0693
  H  H37  1  0.893400  0.376900  0.537900  1.0  0.1025
  H  H38  1  0.920400  0.393000  0.686400  1.0  0.1087
  H  H39  1  0.928100  0.217900  0.612200  1.0  0.0992
  H  H40  1  0.871100  0.138200  0.538000  1.0  0.1075
  H  H41  1  0.901000  0.129300  0.451300  1.0  0.0759
  H  H42  1  0.960600  0.349300  0.474100  1.0  0.0718
  H  H43  1  0.811500  0.445600  0.560500  1.0  0.1051
  H  H44  1  0.853200  0.585400  0.573800  1.0  0.0697
  H  H45  1  0.994400  0.541400  0.651000  1.0  0.0654
  H  H46  1  0.015400  0.223600  0.672800  1.0  0.0997
  H  H47  1  0.041800  0.211400  0.761000  1.0  0.0941
  H  H48  1  0.950600  0.345500  0.754500  1.0  0.0623
  H  H49  1  0.611900  0.197200  0.320900  1.0  0.1058
  H  H50  1  0.701400  0.158600  0.288900  1.0  0.1122
  H  H51  1  0.815800  0.143600  0.313400  1.0  0.0773
  H  H52  1  0.866700  0.355600  0.348200  1.0  0.0742
  H  H53  1  0.880900  0.148900  0.689900  1.0  0.078
  H  H54  1  0.910300  0.140700  0.777300  1.0  0.1381
  H  H55  1  0.922800  0.000500  0.338300  1.0  0.0742
  H  H56  1  0.879800  0.000700  0.387500  1.0  0.0549
  H  H57  1  0.925600  0.926000  0.428000  1.0  0.0701
  H  H58  1  0.623100  0.516500  0.537900  1.0  0.1027
  H  H59  1  0.607000  0.527400  0.686400  1.0  0.1102
  H  H60  1  0.782100  0.710200  0.612200  1.0  0.0983
  H  H61  1  0.861800  0.732900  0.538000  1.0  0.1071
  H  H62  1  0.870700  0.771700  0.451300  1.0  0.0757
  H  H63  1  0.650700  0.611300  0.474100  1.0  0.0707
  H  H64  1  0.554400  0.365900  0.560500  1.0  0.1049
  H  H65  1  0.414600  0.267800  0.573800  1.0  0.0696
  H  H66  1  0.458600  0.453000  0.651000  1.0  0.0657
  H  H67  1  0.776400  0.791800  0.672800  1.0  0.0995
  H  H68  1  0.788600  0.830400  0.761000  1.0  0.0943
  H  H69  1  0.654500  0.605100  0.754500  1.0  0.0618
  H  H70  1  0.802800  0.414700  0.320900  1.0  0.1046
  H  H71  1  0.841400  0.542800  0.288900  1.0  0.113
  H  H72  1  0.856400  0.672200  0.313400  1.0  0.0771
  H  H73  1  0.644400  0.511100  0.348200  1.0  0.0739
  H  H74  1  0.851100  0.732000  0.689900  1.0  0.0799
  H  H75  1  0.859300  0.769600  0.777300  1.0  0.1406
  H  H76  1  0.077700  0.000500  0.161700  1.0  0.0747
  H  H77  1  0.120900  0.000700  0.112500  1.0  0.0578
  H  H78  1  0.000400  0.926000  0.072000  1.0  0.0717
  H  H79  1  0.893400  0.516500  0.962100  1.0  0.1028
  H  H80  1  0.920400  0.527400  0.813600  1.0  0.1101
  H  H81  1  0.928100  0.710200  0.887800  1.0  0.0991
  H  H82  1  0.871100  0.732900  0.962000  1.0  0.1071
  H  H83  1  0.901000  0.771700  0.048700  1.0  0.0756
  H  H84  1  0.960600  0.611300  0.025900  1.0  0.0707
  H  H85  1  0.811500  0.365900  0.939500  1.0  0.1059
  H  H86  1  0.853200  0.267800  0.926200  1.0  0.0698
  H  H87  1  0.994400  0.453000  0.849000  1.0  0.0662
  H  H88  1  0.015400  0.791800  0.827200  1.0  0.0977
  H  H89  1  0.041800  0.830400  0.739000  1.0  0.096
  H  H90  1  0.950600  0.605100  0.745500  1.0  0.0612
  H  H91  1  0.611900  0.414700  0.179100  1.0  0.1048
  H  H92  1  0.701400  0.542800  0.211100  1.0  0.113
  H  H93  1  0.815800  0.672200  0.186600  1.0  0.0772
  H  H94  1  0.866700  0.511100  0.151800  1.0  0.0742
  H  H95  1  0.880900  0.732000  0.810100  1.0  0.0776
  H  H96  1  0.910300  0.769600  0.722700  1.0  0.1421
  H  H97  1  0.922800  0.922300  0.161700  1.0  0.0748
  H  H98  1  0.879800  0.879100  0.112500  1.0  0.0584
  H  H99  1  0.925600  0.999600  0.072000  1.0  0.071
  H  H100  1  0.623100  0.106600  0.962100  1.0  0.1032
  H  H101  1  0.607000  0.079600  0.813600  1.0  0.1091
  H  H102  1  0.782100  0.071900  0.887800  1.0  0.0988
  H  H103  1  0.861800  0.128900  0.962000  1.0  0.1074
  H  H104  1  0.870700  0.099000  0.048700  1.0  0.0757
  H  H105  1  0.650700  0.039400  0.025900  1.0  0.0706
  H  H106  1  0.554400  0.188500  0.939500  1.0  0.107
  H  H107  1  0.414600  0.146800  0.926200  1.0  0.0698
  H  H108  1  0.458600  0.005600  0.849000  1.0  0.0652
  H  H109  1  0.776400  0.984600  0.827200  1.0  0.0988
  H  H110  1  0.788600  0.958200  0.739000  1.0  0.0944
  H  H111  1  0.654500  0.049400  0.745500  1.0  0.063
  H  H112  1  0.802800  0.388100  0.179100  1.0  0.1063
  H  H113  1  0.841400  0.298600  0.211100  1.0  0.1132
  H  H114  1  0.856400  0.184200  0.186600  1.0  0.0786
  H  H115  1  0.644400  0.133300  0.151800  1.0  0.0741
  H  H116  1  0.851100  0.119100  0.810100  1.0  0.0793
  H  H117  1  0.859300  0.089700  0.722700  1.0  0.1365
  H  H118  1  0.999500  0.077200  0.161700  1.0  0.0747
  H  H119  1  0.999300  0.120200  0.112500  1.0  0.058
  H  H120  1  0.074000  0.074400  0.072000  1.0  0.0714
  H  H121  1  0.483500  0.376900  0.962100  1.0  0.1023
  H  H122  1  0.472600  0.393000  0.813600  1.0  0.109
  H  H123  1  0.289800  0.217900  0.887800  1.0  0.099
  H  H124  1  0.267100  0.138200  0.962000  1.0  0.1075
  H  H125  1  0.228300  0.129300  0.048700  1.0  0.0756
  H  H126  1  0.388700  0.349300  0.025900  1.0  0.0715
  H  H127  1  0.634100  0.445600  0.939500  1.0  0.1052
  H  H128  1  0.732200  0.585400  0.926200  1.0  0.0702
  H  H129  1  0.547000  0.541400  0.849000  1.0  0.0649
  H  H130  1  0.208200  0.223600  0.827200  1.0  0.0987
  H  H131  1  0.169600  0.211400  0.739000  1.0  0.0937
  H  H132  1  0.394900  0.345500  0.745500  1.0  0.0618
  H  H133  1  0.585300  0.197200  0.179100  1.0  0.1055
  H  H134  1  0.457200  0.158600  0.211100  1.0  0.1125
  H  H135  1  0.327800  0.143600  0.186600  1.0  0.0775
  H  H136  1  0.488900  0.355600  0.151800  1.0  0.0738
  H  H137  1  0.268000  0.148900  0.810100  1.0  0.0776
  H  H138  1  0.230400  0.140700  0.722700  1.0  0.1366
  H  H139  1  0.000500  0.077700  0.661700  1.0  0.0748
  H  H140  1  0.000700  0.120900  0.612500  1.0  0.0589
  H  H141  1  0.926000  0.000400  0.572000  1.0  0.0709
  H  H142  1  0.516500  0.893400  0.462100  1.0  0.1034
  H  H143  1  0.527400  0.920400  0.313600  1.0  0.1091
  H  H144  1  0.710200  0.928100  0.387800  1.0  0.0988
  H  H145  1  0.732900  0.871100  0.462000  1.0  0.1074
  H  H146  1  0.771700  0.901000  0.548700  1.0  0.0755
  H  H147  1  0.611300  0.960600  0.525900  1.0  0.0706
  H  H148  1  0.365900  0.811500  0.439500  1.0  0.1069
  H  H149  1  0.267800  0.853200  0.426200  1.0  0.07
  H  H150  1  0.453000  0.994400  0.349000  1.0  0.0655
  H  H151  1  0.791800  0.015400  0.327200  1.0  0.0982
  H  H152  1  0.830400  0.041800  0.239000  1.0  0.094
  H  H153  1  0.605100  0.950600  0.245500  1.0  0.0623
  H  H154  1  0.414700  0.611900  0.679100  1.0  0.1059
  H  H155  1  0.542800  0.701400  0.711100  1.0  0.1129
  H  H156  1  0.672200  0.815800  0.686600  1.0  0.0784
  H  H157  1  0.511100  0.866700  0.651800  1.0  0.0745
  H  H158  1  0.732000  0.880900  0.310100  1.0  0.0783
  H  H159  1  0.769600  0.910300  0.222700  1.0  0.1396
  H  H160  1  0.922300  0.922800  0.661700  1.0  0.0748
  H  H161  1  0.879100  0.879800  0.612500  1.0  0.058
  H  H162  1  0.999600  0.925600  0.572000  1.0  0.0712
  H  H163  1  0.106600  0.623100  0.462100  1.0  0.1025
  H  H164  1  0.079600  0.607000  0.313600  1.0  0.1093
  H  H165  1  0.071900  0.782100  0.387800  1.0  0.0987
  H  H166  1  0.128900  0.861800  0.462000  1.0  0.1073
  H  H167  1  0.099000  0.870700  0.548700  1.0  0.0759
  H  H168  1  0.039400  0.650700  0.525900  1.0  0.0716
  H  H169  1  0.188500  0.554400  0.439500  1.0  0.1053
  H  H170  1  0.146800  0.414600  0.426200  1.0  0.0702
  H  H171  1  0.005600  0.458600  0.349000  1.0  0.0651
  H  H172  1  0.984600  0.776400  0.327200  1.0  0.0986
  H  H173  1  0.958200  0.788600  0.239000  1.0  0.0929
  H  H174  1  0.049400  0.654500  0.245500  1.0  0.0611
  H  H175  1  0.388100  0.802800  0.679100  1.0  0.1049
  H  H176  1  0.298600  0.841400  0.711100  1.0  0.1127
  H  H177  1  0.184200  0.856400  0.686600  1.0  0.0776
  H  H178  1  0.133300  0.644400  0.651800  1.0  0.0747
  H  H179  1  0.119100  0.851100  0.310100  1.0  0.0783
  H  H180  1  0.089700  0.859300  0.222700  1.0  0.1383
  H  H181  1  0.077200  0.999500  0.661700  1.0  0.0745
  H  H182  1  0.120200  0.999300  0.612500  1.0  0.0576
  H  H183  1  0.074400  0.074000  0.572000  1.0  0.0714
  H  H184  1  0.376900  0.483500  0.462100  1.0  0.1024
  H  H185  1  0.393000  0.472600  0.313600  1.0  0.1096
  H  H186  1  0.217900  0.289800  0.387800  1.0  0.0992
  H  H187  1  0.138200  0.267100  0.462000  1.0  0.1074
  H  H188  1  0.129300  0.228300  0.548700  1.0  0.0755
  H  H189  1  0.349300  0.388700  0.525900  1.0  0.0708
  H  H190  1  0.445600  0.634100  0.439500  1.0  0.1057
  H  H191  1  0.585400  0.732200  0.426200  1.0  0.0705
  H  H192  1  0.541400  0.547000  0.349000  1.0  0.066
  H  H193  1  0.223600  0.208200  0.327200  1.0  0.0986
  H  H194  1  0.211400  0.169600  0.239000  1.0  0.0966
  H  H195  1  0.345500  0.394900  0.245500  1.0  0.0603
  H  H196  1  0.197200  0.585300  0.679100  1.0  0.1046
  H  H197  1  0.158600  0.457200  0.711100  1.0  0.1129
  H  H198  1  0.143600  0.327800  0.686600  1.0  0.0777
  H  H199  1  0.355600  0.488900  0.651800  1.0  0.074
  H  H200  1  0.148900  0.268000  0.310100  1.0  0.0775
  H  H201  1  0.140700  0.230400  0.222700  1.0  0.1383
  H  H202  1  0.922300  0.999500  0.838300  1.0  0.074
  H  H203  1  0.879100  0.999300  0.887500  1.0  0.0549
  H  H204  1  0.999600  0.074000  0.928000  1.0  0.0695
  H  H205  1  0.106600  0.483500  0.037900  1.0  0.1023
  H  H206  1  0.079600  0.472600  0.186400  1.0  0.1099
  H  H207  1  0.071900  0.289800  0.112200  1.0  0.098
  H  H208  1  0.128900  0.267100  0.038000  1.0  0.1071
  H  H209  1  0.099000  0.228300  0.951300  1.0  0.0762
  H  H210  1  0.039400  0.388700  0.974100  1.0  0.0712
  H  H211  1  0.188500  0.634100  0.060500  1.0  0.1052
  H  H212  1  0.146800  0.732200  0.073800  1.0  0.0702
  H  H213  1  0.005600  0.547000  0.151000  1.0  0.0661
  H  H214  1  0.984600  0.208200  0.172800  1.0  0.1
  H  H215  1  0.958200  0.169600  0.261000  1.0  0.0957
  H  H216  1  0.049400  0.394900  0.254500  1.0  0.06
  H  H217  1  0.388100  0.585300  0.820900  1.0  0.105
  H  H218  1  0.298600  0.457200  0.788900  1.0  0.1131
  H  H219  1  0.184200  0.327800  0.813400  1.0  0.0772
  H  H220  1  0.133300  0.488900  0.848200  1.0  0.0738
  H  H221  1  0.119100  0.268000  0.189900  1.0  0.0799
  H  H222  1  0.089700  0.230400  0.277300  1.0  0.1379
  H  H223  1  0.077200  0.077700  0.838300  1.0  0.074
  H  H224  1  0.120200  0.120900  0.887500  1.0  0.057
  H  H225  1  0.074400  0.000400  0.928000  1.0  0.0697
  H  H226  1  0.376900  0.893400  0.037900  1.0  0.1025
  H  H227  1  0.393000  0.920400  0.186400  1.0  0.1086
  H  H228  1  0.217900  0.928100  0.112200  1.0  0.0998
  H  H229  1  0.138200  0.871100  0.038000  1.0  0.1072
  H  H230  1  0.129300  0.901000  0.951300  1.0  0.0757
  H  H231  1  0.349300  0.960600  0.974100  1.0  0.0706
  H  H232  1  0.445600  0.811500  0.060500  1.0  0.1063
  H  H233  1  0.585400  0.853200  0.073800  1.0  0.0688
  H  H234  1  0.541400  0.994400  0.151000  1.0  0.0653
  H  H235  1  0.223600  0.015400  0.172800  1.0  0.0999
  H  H236  1  0.211400  0.041800  0.261000  1.0  0.0935
  H  H237  1  0.345500  0.950600  0.254500  1.0  0.0616
  H  H238  1  0.197200  0.611900  0.820900  1.0  0.1067
  H  H239  1  0.158600  0.701400  0.788900  1.0  0.1128
  H  H240  1  0.143600  0.815800  0.813400  1.0  0.0781
  H  H241  1  0.355600  0.866700  0.848200  1.0  0.074
  H  H242  1  0.148900  0.880900  0.189900  1.0  0.0782
  H  H243  1  0.140700  0.910300  0.277300  1.0  0.1413
  H  H244  1  0.000500  0.922800  0.838300  1.0  0.074
  H  H245  1  0.000700  0.879800  0.887500  1.0  0.0583
  H  H246  1  0.926000  0.925600  0.928000  1.0  0.0695
  H  H247  1  0.516500  0.623100  0.037900  1.0  0.1025
  H  H248  1  0.527400  0.607000  0.186400  1.0  0.1091
  H  H249  1  0.710200  0.782100  0.112200  1.0  0.0984
  H  H250  1  0.732900  0.861800  0.038000  1.0  0.1077
  H  H251  1  0.771700  0.870700  0.951300  1.0  0.0758
  H  H252  1  0.611300  0.650700  0.974100  1.0  0.0717
  H  H253  1  0.365900  0.554400  0.060500  1.0  0.1058
  H  H254  1  0.267800  0.414600  0.073800  1.0  0.07
  H  H255  1  0.453000  0.458600  0.151000  1.0  0.0654
  H  H256  1  0.791800  0.776400  0.172800  1.0  0.0995
  H  H257  1  0.830400  0.788600  0.261000  1.0  0.0934
  H  H258  1  0.605100  0.654500  0.254500  1.0  0.0624
  H  H259  1  0.414700  0.802800  0.820900  1.0  0.1044
  H  H260  1  0.542800  0.841400  0.788900  1.0  0.1128
  H  H261  1  0.672200  0.856400  0.813400  1.0  0.0769
  H  H262  1  0.511100  0.644400  0.848200  1.0  0.0744
  H  H263  1  0.732000  0.851100  0.189900  1.0  0.0784
  H  H264  1  0.769600  0.859300  0.277300  1.0  0.138
  C  C265  1  0.999500  0.925300  0.374340  1.0  -0.1596
  C  C266  1  0.074500  0.999600  0.391570  1.0  -0.2032
  C  C267  1  0.148100  0.998100  0.375290  1.0  0.6558
  C  C268  1  0.381700  0.088500  0.568400  1.0  0.1478
  C  C269  1  0.456100  0.097900  0.567600  1.0  -0.2269
  C  C270  1  0.489200  0.094100  0.612470  1.0  0.1222
  C  C271  1  0.449600  0.081900  0.656660  1.0  -0.2094
  C  C272  1  0.374900  0.073200  0.656210  1.0  0.1661
  C  C273  1  0.339600  0.076900  0.612240  1.0  -0.2406
  C  C274  1  0.286600  0.107500  0.514950  1.0  -0.1394
  C  C275  1  0.265800  0.090600  0.467030  1.0  0.0371
  C  C276  1  0.353500  0.057600  0.478800  1.0  0.1183
  C  C277  1  0.629100  0.148400  0.581400  1.0  -0.1607
  C  C278  1  0.683000  0.124600  0.589000  1.0  -0.0197
  C  C279  1  0.582200  0.048300  0.631700  1.0  0.1638
  C  C280  1  0.241200  0.003200  0.700400  1.0  -0.0462
  C  C281  1  0.220700  0.988700  0.748700  1.0  -0.031
  C  C282  1  0.347000  0.045900  0.746490  1.0  0.1463
  C  C283  1  0.617800  0.366100  0.322300  1.0  -0.2939
  C  C284  1  0.586000  0.285500  0.323300  1.0  0.126
  C  C285  1  0.448300  0.253200  0.305500  1.0  -0.1508
  C  C286  1  0.376700  0.188000  0.317700  1.0  0.0189
  C  C287  1  0.464200  0.161000  0.338000  1.0  0.1501
  C  C288  1  0.282000  0.091200  0.711700  1.0  -0.0308
  C  C289  1  0.261500  0.074500  0.759600  1.0  -0.0076
  C  C290  1  0.074700  0.074200  0.374340  1.0  -0.1599
  C  C291  1  0.000400  0.074900  0.391570  1.0  -0.203
  C  C292  1  0.001900  0.150000  0.375290  1.0  0.6575
  C  C293  1  0.911500  0.293200  0.568400  1.0  0.148
  C  C294  1  0.902100  0.358200  0.567600  1.0  -0.227
  C  C295  1  0.905900  0.395100  0.612470  1.0  0.1221
  C  C296  1  0.918100  0.367700  0.656660  1.0  -0.2118
  C  C297  1  0.926800  0.301700  0.656210  1.0  0.1625
  C  C298  1  0.923100  0.262700  0.612240  1.0  -0.2393
  C  C299  1  0.892500  0.179100  0.514950  1.0  -0.1423
  C  C300  1  0.909400  0.175200  0.467030  1.0  0.0326
  C  C301  1  0.942400  0.295900  0.478800  1.0  0.116
  C  C302  1  0.851600  0.480700  0.581400  1.0  -0.1581
  C  C303  1  0.875400  0.558400  0.589000  1.0  -0.0191
  C  C304  1  0.951700  0.533900  0.631700  1.0  0.1663
  C  C305  1  0.996800  0.238000  0.700400  1.0  -0.047
  C  C306  1  0.011300  0.232000  0.748700  1.0  -0.0287
  C  C307  1  0.954100  0.301100  0.746490  1.0  0.1441
  C  C308  1  0.633900  0.251700  0.322300  1.0  -0.2876
  C  C309  1  0.714500  0.300500  0.323300  1.0  0.1259
  C  C310  1  0.746800  0.195100  0.305500  1.0  -0.1514
  C  C311  1  0.812000  0.188700  0.317700  1.0  0.0187
  C  C312  1  0.839000  0.303200  0.338000  1.0  0.1469
  C  C313  1  0.908800  0.190800  0.711700  1.0  -0.0338
  C  C314  1  0.925500  0.187000  0.759600  1.0  -0.0084
  C  C315  1  0.925800  0.000500  0.374340  1.0  -0.1577
  C  C316  1  0.925100  0.925500  0.391570  1.0  -0.2019
  C  C317  1  0.850000  0.851900  0.375290  1.0  0.6581
  C  C318  1  0.706800  0.618300  0.568400  1.0  0.1475
  C  C319  1  0.641800  0.543900  0.567600  1.0  -0.2238
  C  C320  1  0.604900  0.510800  0.612470  1.0  0.1229
  C  C321  1  0.632300  0.550400  0.656660  1.0  -0.2104
  C  C322  1  0.698300  0.625100  0.656210  1.0  0.163
  C  C323  1  0.737300  0.660400  0.612240  1.0  -0.2415
  C  C324  1  0.820900  0.713400  0.514950  1.0  -0.1403
  C  C325  1  0.824800  0.734200  0.467030  1.0  0.0326
  C  C326  1  0.704100  0.646500  0.478800  1.0  0.1181
  C  C327  1  0.519300  0.370900  0.581400  1.0  -0.1545
  C  C328  1  0.441600  0.317000  0.589000  1.0  -0.0201
  C  C329  1  0.466100  0.417800  0.631700  1.0  0.1647
  C  C330  1  0.762000  0.758800  0.700400  1.0  -0.0453
  C  C331  1  0.768000  0.779300  0.748700  1.0  -0.031
  C  C332  1  0.698900  0.653000  0.746490  1.0  0.1442
  C  C333  1  0.748300  0.382200  0.322300  1.0  -0.2902
  C  C334  1  0.699500  0.414000  0.323300  1.0  0.1256
  C  C335  1  0.804900  0.551700  0.305500  1.0  -0.1502
  C  C336  1  0.811300  0.623300  0.317700  1.0  0.0178
  C  C337  1  0.696800  0.535800  0.338000  1.0  0.1488
  C  C338  1  0.809200  0.718000  0.711700  1.0  -0.0336
  C  C339  1  0.813000  0.738500  0.759600  1.0  -0.0081
  C  C340  1  0.074700  0.000500  0.125660  1.0  -0.1595
  C  C341  1  0.000400  0.925500  0.108430  1.0  -0.2016
  C  C342  1  0.001900  0.851900  0.124710  1.0  0.6573
  C  C343  1  0.911500  0.618300  0.931600  1.0  0.147
  C  C344  1  0.902100  0.543900  0.932400  1.0  -0.2258
  C  C345  1  0.905900  0.510800  0.887530  1.0  0.1227
  C  C346  1  0.918100  0.550400  0.843340  1.0  -0.2083
  C  C347  1  0.926800  0.625100  0.843790  1.0  0.1636
  C  C348  1  0.923100  0.660400  0.887760  1.0  -0.2412
  C  C349  1  0.892500  0.713400  0.985050  1.0  -0.1391
  C  C350  1  0.909400  0.734200  0.032970  1.0  0.0342
  C  C351  1  0.942400  0.646500  0.021200  1.0  0.1189
  C  C352  1  0.851600  0.370900  0.918600  1.0  -0.1553
  C  C353  1  0.875400  0.317000  0.911000  1.0  -0.019
  C  C354  1  0.951700  0.417800  0.868300  1.0  0.1649
  C  C355  1  0.996800  0.758800  0.799600  1.0  -0.0467
  C  C356  1  0.011300  0.779300  0.751300  1.0  -0.0295
  C  C357  1  0.954100  0.653000  0.753510  1.0  0.1429
  C  C358  1  0.633900  0.382200  0.177700  1.0  -0.2934
  C  C359  1  0.714500  0.414000  0.176700  1.0  0.1245
  C  C360  1  0.746800  0.551700  0.194500  1.0  -0.1498
  C  C361  1  0.812000  0.623300  0.182300  1.0  0.0169
  C  C362  1  0.839000  0.535800  0.162000  1.0  0.1491
  C  C363  1  0.908800  0.718000  0.788300  1.0  -0.0345
  C  C364  1  0.925500  0.738500  0.740400  1.0  -0.0088
  C  C365  1  0.925800  0.925300  0.125660  1.0  -0.1595
  C  C366  1  0.925100  0.999600  0.108430  1.0  -0.2036
  C  C367  1  0.850000  0.998100  0.124710  1.0  0.6557
  C  C368  1  0.706800  0.088500  0.931600  1.0  0.1483
  C  C369  1  0.641800  0.097900  0.932400  1.0  -0.2303
  C  C370  1  0.604900  0.094100  0.887530  1.0  0.1213
  C  C371  1  0.632300  0.081900  0.843340  1.0  -0.2102
  C  C372  1  0.698300  0.073200  0.843790  1.0  0.1652
  C  C373  1  0.737300  0.076900  0.887760  1.0  -0.2416
  C  C374  1  0.820900  0.107500  0.985050  1.0  -0.1375
  C  C375  1  0.824800  0.090600  0.032970  1.0  0.0377
  C  C376  1  0.704100  0.057600  0.021200  1.0  0.1169
  C  C377  1  0.519300  0.148400  0.918600  1.0  -0.1593
  C  C378  1  0.441600  0.124600  0.911000  1.0  -0.0193
  C  C379  1  0.466100  0.048300  0.868300  1.0  0.1636
  C  C380  1  0.762000  0.003200  0.799600  1.0  -0.0459
  C  C381  1  0.768000  0.988700  0.751300  1.0  -0.0311
  C  C382  1  0.698900  0.045900  0.753510  1.0  0.1435
  C  C383  1  0.748300  0.366100  0.177700  1.0  -0.2943
  C  C384  1  0.699500  0.285500  0.176700  1.0  0.1231
  C  C385  1  0.804900  0.253200  0.194500  1.0  -0.1485
  C  C386  1  0.811300  0.188000  0.182300  1.0  0.0194
  C  C387  1  0.696800  0.161000  0.162000  1.0  0.1496
  C  C388  1  0.809200  0.091200  0.788300  1.0  -0.0338
  C  C389  1  0.813000  0.074500  0.740400  1.0  -0.007
  C  C390  1  0.999500  0.074200  0.125660  1.0  -0.1596
  C  C391  1  0.074500  0.074900  0.108430  1.0  -0.1994
  C  C392  1  0.148100  0.150000  0.124710  1.0  0.6569
  C  C393  1  0.381700  0.293200  0.931600  1.0  0.1474
  C  C394  1  0.456100  0.358200  0.932400  1.0  -0.2288
  C  C395  1  0.489200  0.395100  0.887530  1.0  0.1229
  C  C396  1  0.449600  0.367700  0.843340  1.0  -0.2079
  C  C397  1  0.374900  0.301700  0.843790  1.0  0.1639
  C  C398  1  0.339600  0.262700  0.887760  1.0  -0.2397
  C  C399  1  0.286600  0.179100  0.985050  1.0  -0.1411
  C  C400  1  0.265800  0.175200  0.032970  1.0  0.0336
  C  C401  1  0.353500  0.295900  0.021200  1.0  0.1164
  C  C402  1  0.629100  0.480700  0.918600  1.0  -0.1558
  C  C403  1  0.683000  0.558400  0.911000  1.0  -0.0187
  C  C404  1  0.582200  0.533900  0.868300  1.0  0.165
  C  C405  1  0.241200  0.238000  0.799600  1.0  -0.0481
  C  C406  1  0.220700  0.232000  0.751300  1.0  -0.0317
  C  C407  1  0.347000  0.301100  0.753510  1.0  0.1444
  C  C408  1  0.617800  0.251700  0.177700  1.0  -0.2906
  C  C409  1  0.586000  0.300500  0.176700  1.0  0.1233
  C  C410  1  0.448300  0.195100  0.194500  1.0  -0.149
  C  C411  1  0.376700  0.188700  0.182300  1.0  0.0169
  C  C412  1  0.464200  0.303200  0.162000  1.0  0.1482
  C  C413  1  0.282000  0.190800  0.788300  1.0  -0.0372
  C  C414  1  0.261500  0.187000  0.740400  1.0  -0.0061
  C  C415  1  0.000500  0.074700  0.625660  1.0  -0.1602
  C  C416  1  0.925500  0.000400  0.608430  1.0  -0.2037
  C  C417  1  0.851900  0.001900  0.624710  1.0  0.6554
  C  C418  1  0.618300  0.911500  0.431600  1.0  0.1484
  C  C419  1  0.543900  0.902100  0.432400  1.0  -0.2305
  C  C420  1  0.510800  0.905900  0.387530  1.0  0.1212
  C  C421  1  0.550400  0.918100  0.343340  1.0  -0.21
  C  C422  1  0.625100  0.926800  0.343790  1.0  0.1655
  C  C423  1  0.660400  0.923100  0.387760  1.0  -0.2414
  C  C424  1  0.713400  0.892500  0.485050  1.0  -0.1375
  C  C425  1  0.734200  0.909400  0.532970  1.0  0.0378
  C  C426  1  0.646500  0.942400  0.521200  1.0  0.1168
  C  C427  1  0.370900  0.851600  0.418600  1.0  -0.1595
  C  C428  1  0.317000  0.875400  0.411000  1.0  -0.0187
  C  C429  1  0.417800  0.951700  0.368300  1.0  0.1635
  C  C430  1  0.758800  0.996800  0.299600  1.0  -0.0427
  C  C431  1  0.779300  0.011300  0.251300  1.0  -0.0275
  C  C432  1  0.653000  0.954100  0.253510  1.0  0.1431
  C  C433  1  0.382200  0.633900  0.677700  1.0  -0.2943
  C  C434  1  0.414000  0.714500  0.676700  1.0  0.1234
  C  C435  1  0.551700  0.746800  0.694500  1.0  -0.1477
  C  C436  1  0.623300  0.812000  0.682300  1.0  0.0197
  C  C437  1  0.535800  0.839000  0.662000  1.0  0.149
  C  C438  1  0.718000  0.908800  0.288300  1.0  -0.0366
  C  C439  1  0.738500  0.925500  0.240400  1.0  -0.007
  C  C440  1  0.925300  0.925800  0.625660  1.0  -0.1594
  C  C441  1  0.999600  0.925100  0.608430  1.0  -0.2016
  C  C442  1  0.998100  0.850000  0.624710  1.0  0.6567
  C  C443  1  0.088500  0.706800  0.431600  1.0  0.1472
  C  C444  1  0.097900  0.641800  0.432400  1.0  -0.2284
  C  C445  1  0.094100  0.604900  0.387530  1.0  0.1229
  C  C446  1  0.081900  0.632300  0.343340  1.0  -0.2077
  C  C447  1  0.073200  0.698300  0.343790  1.0  0.165
  C  C448  1  0.076900  0.737300  0.387760  1.0  -0.2397
  C  C449  1  0.107500  0.820900  0.485050  1.0  -0.1407
  C  C450  1  0.090600  0.824800  0.532970  1.0  0.0327
  C  C451  1  0.057600  0.704100  0.521200  1.0  0.1174
  C  C452  1  0.148400  0.519300  0.418600  1.0  -0.1567
  C  C453  1  0.124600  0.441600  0.411000  1.0  -0.0193
  C  C454  1  0.048300  0.466100  0.368300  1.0  0.1647
  C  C455  1  0.003200  0.762000  0.299600  1.0  -0.05
  C  C456  1  0.988700  0.768000  0.251300  1.0  -0.0363
  C  C457  1  0.045900  0.698900  0.253510  1.0  0.1439
  C  C458  1  0.366100  0.748300  0.677700  1.0  -0.2901
  C  C459  1  0.285500  0.699500  0.676700  1.0  0.1235
  C  C460  1  0.253200  0.804900  0.694500  1.0  -0.1499
  C  C461  1  0.188000  0.811300  0.682300  1.0  0.0163
  C  C462  1  0.161000  0.696800  0.662000  1.0  0.1487
  C  C463  1  0.091200  0.809200  0.288300  1.0  -0.0361
  C  C464  1  0.074500  0.813000  0.240400  1.0  -0.0064
  C  C465  1  0.074200  0.999500  0.625660  1.0  -0.1595
  C  C466  1  0.074900  0.074500  0.608430  1.0  -0.1985
  C  C467  1  0.150000  0.148100  0.624710  1.0  0.6586
  C  C468  1  0.293200  0.381700  0.431600  1.0  0.1472
  C  C469  1  0.358200  0.456100  0.432400  1.0  -0.2261
  C  C470  1  0.395100  0.489200  0.387530  1.0  0.1225
  C  C471  1  0.367700  0.449600  0.343340  1.0  -0.2087
  C  C472  1  0.301700  0.374900  0.343790  1.0  0.1625
  C  C473  1  0.262700  0.339600  0.387760  1.0  -0.2404
  C  C474  1  0.179100  0.286600  0.485050  1.0  -0.1392
  C  C475  1  0.175200  0.265800  0.532970  1.0  0.0336
  C  C476  1  0.295900  0.353500  0.521200  1.0  0.1189
  C  C477  1  0.480700  0.629100  0.418600  1.0  -0.1561
  C  C478  1  0.558400  0.683000  0.411000  1.0  -0.0188
  C  C479  1  0.533900  0.582200  0.368300  1.0  0.1645
  C  C480  1  0.238000  0.241200  0.299600  1.0  -0.0469
  C  C481  1  0.232000  0.220700  0.251300  1.0  -0.0299
  C  C482  1  0.301100  0.347000  0.253510  1.0  0.1429
  C  C483  1  0.251700  0.617800  0.677700  1.0  -0.2922
  C  C484  1  0.300500  0.586000  0.676700  1.0  0.1237
  C  C485  1  0.195100  0.448300  0.694500  1.0  -0.1504
  C  C486  1  0.188700  0.376700  0.682300  1.0  0.0167
  C  C487  1  0.303200  0.464200  0.662000  1.0  0.1494
  C  C488  1  0.190800  0.282000  0.288300  1.0  -0.0322
  C  C489  1  0.187000  0.261500  0.240400  1.0  -0.008
  C  C490  1  0.925300  0.999500  0.874340  1.0  -0.1575
  C  C491  1  0.999600  0.074500  0.891570  1.0  -0.2023
  C  C492  1  0.998100  0.148100  0.875290  1.0  0.6592
  C  C493  1  0.088500  0.381700  0.068400  1.0  0.1474
  C  C494  1  0.097900  0.456100  0.067600  1.0  -0.2242
  C  C495  1  0.094100  0.489200  0.112470  1.0  0.1226
  C  C496  1  0.081900  0.449600  0.156660  1.0  -0.2114
  C  C497  1  0.073200  0.374900  0.156210  1.0  0.162
  C  C498  1  0.076900  0.339600  0.112240  1.0  -0.2398
  C  C499  1  0.107500  0.286600  0.014950  1.0  -0.14
  C  C500  1  0.090600  0.265800  0.967030  1.0  0.0322
  C  C501  1  0.057600  0.353500  0.978800  1.0  0.1184
  C  C502  1  0.148400  0.629100  0.081400  1.0  -0.1548
  C  C503  1  0.124600  0.683000  0.089000  1.0  -0.0201
  C  C504  1  0.048300  0.582200  0.131700  1.0  0.165
  C  C505  1  0.003200  0.241200  0.200400  1.0  -0.0458
  C  C506  1  0.988700  0.220700  0.248700  1.0  -0.0315
  C  C507  1  0.045900  0.347000  0.246490  1.0  0.1435
  C  C508  1  0.366100  0.617800  0.822300  1.0  -0.2898
  C  C509  1  0.285500  0.586000  0.823300  1.0  0.1267
  C  C510  1  0.253200  0.448300  0.805500  1.0  -0.1506
  C  C511  1  0.188000  0.376700  0.817700  1.0  0.0172
  C  C512  1  0.161000  0.464200  0.838000  1.0  0.1485
  C  C513  1  0.091200  0.282000  0.211700  1.0  -0.0291
  C  C514  1  0.074500  0.261500  0.259600  1.0  -0.0081
  C  C515  1  0.074200  0.074700  0.874340  1.0  -0.1595
  C  C516  1  0.074900  0.000400  0.891570  1.0  -0.2033
  C  C517  1  0.150000  0.001900  0.875290  1.0  0.656
  C  C518  1  0.293200  0.911500  0.068400  1.0  0.1477
  C  C519  1  0.358200  0.902100  0.067600  1.0  -0.2267
  C  C520  1  0.395100  0.905900  0.112470  1.0  0.1223
  C  C521  1  0.367700  0.918100  0.156660  1.0  -0.2087
  C  C522  1  0.301700  0.926800  0.156210  1.0  0.166
  C  C523  1  0.262700  0.923100  0.112240  1.0  -0.2406
  C  C524  1  0.179100  0.892500  0.014950  1.0  -0.139
  C  C525  1  0.175200  0.909400  0.967030  1.0  0.0369
  C  C526  1  0.295900  0.942400  0.978800  1.0  0.1185
  C  C527  1  0.480700  0.851600  0.081400  1.0  -0.1606
  C  C528  1  0.558400  0.875400  0.089000  1.0  -0.0195
  C  C529  1  0.533900  0.951700  0.131700  1.0  0.1634
  C  C530  1  0.238000  0.996800  0.200400  1.0  -0.0442
  C  C531  1  0.232000  0.011300  0.248700  1.0  -0.029
  C  C532  1  0.301100  0.954100  0.246490  1.0  0.1465
  C  C533  1  0.251700  0.633900  0.822300  1.0  -0.2928
  C  C534  1  0.300500  0.714500  0.823300  1.0  0.1254
  C  C535  1  0.195100  0.746800  0.805500  1.0  -0.1504
  C  C536  1  0.188700  0.812000  0.817700  1.0  0.0192
  C  C537  1  0.303200  0.839000  0.838000  1.0  0.1484
  C  C538  1  0.190800  0.908800  0.211700  1.0  -0.0333
  C  C539  1  0.187000  0.925500  0.259600  1.0  -0.0074
  C  C540  1  0.000500  0.925800  0.874340  1.0  -0.1605
  C  C541  1  0.925500  0.925100  0.891570  1.0  -0.2018
  C  C542  1  0.851900  0.850000  0.875290  1.0  0.6571
  C  C543  1  0.618300  0.706800  0.068400  1.0  0.1479
  C  C544  1  0.543900  0.641800  0.067600  1.0  -0.227
  C  C545  1  0.510800  0.604900  0.112470  1.0  0.1218
  C  C546  1  0.550400  0.632300  0.156660  1.0  -0.2109
  C  C547  1  0.625100  0.698300  0.156210  1.0  0.1631
  C  C548  1  0.660400  0.737300  0.112240  1.0  -0.2403
  C  C549  1  0.713400  0.820900  0.014950  1.0  -0.1425
  C  C550  1  0.734200  0.824800  0.967030  1.0  0.0328
  C  C551  1  0.646500  0.704100  0.978800  1.0  0.1162
  C  C552  1  0.370900  0.519300  0.081400  1.0  -0.1587
  C  C553  1  0.317000  0.441600  0.089000  1.0  -0.0202
  C  C554  1  0.417800  0.466100  0.131700  1.0  0.1655
  C  C555  1  0.758800  0.762000  0.200400  1.0  -0.0503
  C  C556  1  0.779300  0.768000  0.248700  1.0  -0.0324
  C  C557  1  0.653000  0.698900  0.246490  1.0  0.1445
  C  C558  1  0.382200  0.748300  0.822300  1.0  -0.2882
  C  C559  1  0.414000  0.699500  0.823300  1.0  0.1256
  C  C560  1  0.551700  0.804900  0.805500  1.0  -0.1523
  C  C561  1  0.623300  0.811300  0.817700  1.0  0.0182
  C  C562  1  0.535800  0.696800  0.838000  1.0  0.1496
  C  C563  1  0.718000  0.809200  0.211700  1.0  -0.0349
  C  C564  1  0.738500  0.813000  0.259600  1.0  -0.0078
  N  N565  1  0.307200  0.059300  0.444020  1.0  -0.3987
  N  N566  1  0.343100  0.086000  0.522480  1.0  0.021
  N  N567  1  0.654800  0.064600  0.621540  1.0  -0.3761
  N  N568  1  0.565200  0.099800  0.611420  1.0  0.0055
  N  N569  1  0.294400  0.030300  0.779210  1.0  -0.2287
  N  N570  1  0.330400  0.056700  0.700880  1.0  0.0002
  N  N571  1  0.388000  0.130200  0.336800  1.0  -0.4235
  N  N572  1  0.503400  0.235700  0.323400  1.0  0.0155
  N  N573  1  0.940700  0.247900  0.444020  1.0  -0.3994
  N  N574  1  0.914000  0.257100  0.522480  1.0  0.0203
  N  N575  1  0.935400  0.590200  0.621540  1.0  -0.3747
  N  N576  1  0.900200  0.465400  0.611420  1.0  0.0035
  N  N577  1  0.969700  0.264100  0.779210  1.0  -0.2309
  N  N578  1  0.943300  0.273700  0.700880  1.0  -0.0073
  N  N579  1  0.869800  0.257800  0.336800  1.0  -0.4263
  N  N580  1  0.764300  0.267700  0.323400  1.0  0.0151
  N  N581  1  0.752100  0.692800  0.444020  1.0  -0.3978
  N  N582  1  0.742900  0.656900  0.522480  1.0  0.0212
  N  N583  1  0.409800  0.345200  0.621540  1.0  -0.3767
  N  N584  1  0.534600  0.434800  0.611420  1.0  0.0052
  N  N585  1  0.735900  0.705600  0.779210  1.0  -0.231
  N  N586  1  0.726300  0.669600  0.700880  1.0  -0.0058
  N  N587  1  0.742200  0.612000  0.336800  1.0  -0.423
  N  N588  1  0.732300  0.496600  0.323400  1.0  0.0165
  N  N589  1  0.940700  0.692800  0.055980  1.0  -0.3974
  N  N590  1  0.914000  0.656900  0.977520  1.0  0.0206
  N  N591  1  0.935400  0.345200  0.878460  1.0  -0.3762
  N  N592  1  0.900200  0.434800  0.888580  1.0  0.0045
  N  N593  1  0.969700  0.705600  0.720790  1.0  -0.2328
  N  N594  1  0.943300  0.669600  0.799120  1.0  -0.0036
  N  N595  1  0.869800  0.612000  0.163200  1.0  -0.4228
  N  N596  1  0.764300  0.496600  0.176600  1.0  0.0154
  N  N597  1  0.752100  0.059300  0.055980  1.0  -0.398
  N  N598  1  0.742900  0.086000  0.977520  1.0  0.0202
  N  N599  1  0.409800  0.064600  0.878460  1.0  -0.3731
  N  N600  1  0.534600  0.099800  0.888580  1.0  0.0055
  N  N601  1  0.735900  0.030300  0.720790  1.0  -0.2324
  N  N602  1  0.726300  0.056700  0.799120  1.0  -0.0038
  N  N603  1  0.742200  0.130200  0.163200  1.0  -0.424
  N  N604  1  0.732300  0.235700  0.176600  1.0  0.0174
  N  N605  1  0.307200  0.247900  0.055980  1.0  -0.3995
  N  N606  1  0.343100  0.257100  0.977520  1.0  0.0199
  N  N607  1  0.654800  0.590200  0.878460  1.0  -0.3745
  N  N608  1  0.565200  0.465400  0.888580  1.0  0.0035
  N  N609  1  0.294400  0.264100  0.720790  1.0  -0.2322
  N  N610  1  0.330400  0.273700  0.799120  1.0  -0.0037
  N  N611  1  0.388000  0.257800  0.163200  1.0  -0.4218
  N  N612  1  0.503400  0.267700  0.176600  1.0  0.0165
  N  N613  1  0.692800  0.940700  0.555980  1.0  -0.3981
  N  N614  1  0.656900  0.914000  0.477520  1.0  0.0199
  N  N615  1  0.345200  0.935400  0.378460  1.0  -0.3729
  N  N616  1  0.434800  0.900200  0.388580  1.0  0.0057
  N  N617  1  0.705600  0.969700  0.220790  1.0  -0.2311
  N  N618  1  0.669600  0.943300  0.299120  1.0  -0.0044
  N  N619  1  0.612000  0.869800  0.663200  1.0  -0.4245
  N  N620  1  0.496600  0.764300  0.676600  1.0  0.0155
  N  N621  1  0.059300  0.752100  0.555980  1.0  -0.3993
  N  N622  1  0.086000  0.742900  0.477520  1.0  0.0199
  N  N623  1  0.064600  0.409800  0.378460  1.0  -0.3764
  N  N624  1  0.099800  0.534600  0.388580  1.0  0.0029
  N  N625  1  0.030300  0.735900  0.220790  1.0  -0.2294
  N  N626  1  0.056700  0.726300  0.299120  1.0  -0.0027
  N  N627  1  0.130200  0.742200  0.663200  1.0  -0.4226
  N  N628  1  0.235700  0.732300  0.676600  1.0  0.0161
  N  N629  1  0.247900  0.307200  0.555980  1.0  -0.3987
  N  N630  1  0.257100  0.343100  0.477520  1.0  0.0205
  N  N631  1  0.590200  0.654800  0.378460  1.0  -0.3755
  N  N632  1  0.465400  0.565200  0.388580  1.0  0.0046
  N  N633  1  0.264100  0.294400  0.220790  1.0  -0.2331
  N  N634  1  0.273700  0.330400  0.299120  1.0  -0.0038
  N  N635  1  0.257800  0.388000  0.663200  1.0  -0.4231
  N  N636  1  0.267700  0.503400  0.676600  1.0  0.017
  N  N637  1  0.059300  0.307200  0.944020  1.0  -0.3982
  N  N638  1  0.086000  0.343100  0.022480  1.0  0.0212
  N  N639  1  0.064600  0.654800  0.121540  1.0  -0.3753
  N  N640  1  0.099800  0.565200  0.111420  1.0  0.0046
  N  N641  1  0.030300  0.294400  0.279210  1.0  -0.231
  N  N642  1  0.056700  0.330400  0.200880  1.0  -0.0064
  N  N643  1  0.130200  0.388000  0.836800  1.0  -0.4231
  N  N644  1  0.235700  0.503400  0.823400  1.0  0.016
  N  N645  1  0.247900  0.940700  0.944020  1.0  -0.3983
  N  N646  1  0.257100  0.914000  0.022480  1.0  0.0211
  N  N647  1  0.590200  0.935400  0.121540  1.0  -0.3761
  N  N648  1  0.465400  0.900200  0.111420  1.0  0.0049
  N  N649  1  0.264100  0.969700  0.279210  1.0  -0.2292
  N  N650  1  0.273700  0.943300  0.200880  1.0  0.0002
  N  N651  1  0.257800  0.869800  0.836800  1.0  -0.4243
  N  N652  1  0.267700  0.764300  0.823400  1.0  0.0159
  N  N653  1  0.692800  0.752100  0.944020  1.0  -0.3999
  N  N654  1  0.656900  0.742900  0.022480  1.0  0.0199
  N  N655  1  0.345200  0.409800  0.121540  1.0  -0.3764
  N  N656  1  0.434800  0.534600  0.111420  1.0  0.0031
  N  N657  1  0.705600  0.735900  0.279210  1.0  -0.2289
  N  N658  1  0.669600  0.726300  0.200880  1.0  -0.0074
  N  N659  1  0.612000  0.742200  0.836800  1.0  -0.4256
  N  N660  1  0.496600  0.732300  0.823400  1.0  0.0152
  O  O661  1  0.202550  0.058520  0.354860  1.0  -0.6315
  O  O662  1  0.152950  0.937040  0.384530  1.0  -0.6622
  O  O663  1  0.941480  0.144030  0.354860  1.0  -0.6345
  O  O664  1  0.062960  0.215910  0.384530  1.0  -0.6638
  O  O665  1  0.855970  0.797450  0.354860  1.0  -0.6334
  O  O666  1  0.784090  0.847050  0.384530  1.0  -0.6622
  O  O667  1  0.941480  0.797450  0.145140  1.0  -0.6339
  O  O668  1  0.062960  0.847050  0.115470  1.0  -0.6627
  O  O669  1  0.855970  0.058520  0.145140  1.0  -0.6354
  O  O670  1  0.784090  0.937040  0.115470  1.0  -0.6629
  O  O671  1  0.202550  0.144030  0.145140  1.0  -0.6313
  O  O672  1  0.152950  0.215910  0.115470  1.0  -0.6625
  O  O673  1  0.797450  0.941480  0.645140  1.0  -0.6356
  O  O674  1  0.847050  0.062960  0.615470  1.0  -0.6629
  O  O675  1  0.058520  0.855970  0.645140  1.0  -0.6312
  O  O676  1  0.937040  0.784090  0.615470  1.0  -0.6633
  O  O677  1  0.144030  0.202550  0.645140  1.0  -0.6334
  O  O678  1  0.215910  0.152950  0.615470  1.0  -0.662
  O  O679  1  0.058520  0.202550  0.854860  1.0  -0.6328
  O  O680  1  0.937040  0.152950  0.884530  1.0  -0.6615
  O  O681  1  0.144030  0.941480  0.854860  1.0  -0.6322
  O  O682  1  0.215910  0.062960  0.884530  1.0  -0.6625
  O  O683  1  0.797450  0.855970  0.854860  1.0  -0.6345
  O  O684  1  0.847050  0.784090  0.884530  1.0  -0.6639
