# generated using pymatgen
data_GaH5C8O5
_symmetry_space_group_name_H-M   'P 1'
_cell_length_a   19.68010000
_cell_length_b   15.11650000
_cell_length_c   6.67160000
_cell_angle_alpha   90.00000000
_cell_angle_beta   103.75700000
_cell_angle_gamma   90.00000000
_symmetry_Int_Tables_number   1
_chemical_formula_structural   GaH5C8O5
_chemical_formula_sum   'Ga8 H40 C64 O40'
_cell_volume   1927.82568073
_cell_formula_units_Z   8
loop_
 _symmetry_equiv_pos_site_id
 _symmetry_equiv_pos_as_xyz
  1  'x, y, z'
loop_
 _atom_site_type_symbol
 _atom_site_label
 _atom_site_symmetry_multiplicity
 _atom_site_fract_x
 _atom_site_fract_y
 _atom_site_fract_z
 _atom_site_occupancy
 _atom_site_charge
  Ga  Ga1  1  0.496300  0.250000  0.514100  1.0  1.5729
  Ga  Ga2  1  0.503700  0.750000  0.985900  1.0  1.5726
  Ga  Ga3  1  0.503700  0.750000  0.485900  1.0  1.5726
  Ga  Ga4  1  0.496300  0.250000  0.014100  1.0  1.5729
  Ga  Ga5  1  0.000000  0.500000  0.000000  1.0  1.634
  Ga  Ga6  1  0.000000  0.000000  0.500000  1.0  1.6246
  Ga  Ga7  1  0.000000  0.500000  0.500000  1.0  1.5729
  Ga  Ga8  1  0.000000  0.000000  0.000000  1.0  1.5729
  H  H9  1  0.787900  0.091300  0.858400  1.0  0.1106
  H  H10  1  0.667900  0.118600  0.726900  1.0  0.1295
  H  H11  1  0.703900  0.153400  0.157600  1.0  0.1189
  H  H12  1  0.824100  0.126200  0.287300  1.0  0.1324
  H  H13  1  0.280300  0.315200  0.849200  1.0  0.1057
  H  H14  1  0.159400  0.345100  0.702800  1.0  0.1315
  H  H15  1  0.212000  0.428800  0.175700  1.0  0.113
  H  H16  1  0.333000  0.399500  0.319100  1.0  0.1352
  H  H17  1  0.495000  0.373700  0.276000  1.0  0.4056
  H  H18  1  0.995000  0.614600  0.263000  1.0  0.3733
  H  H19  1  0.212100  0.591300  0.641600  1.0  0.1117
  H  H20  1  0.332100  0.618600  0.773100  1.0  0.1291
  H  H21  1  0.296100  0.653400  0.342400  1.0  0.1197
  H  H22  1  0.175900  0.626200  0.212700  1.0  0.1323
  H  H23  1  0.719700  0.815200  0.650800  1.0  0.1067
  H  H24  1  0.840600  0.845100  0.797200  1.0  0.1313
  H  H25  1  0.788000  0.928800  0.324300  1.0  0.113
  H  H26  1  0.667000  0.899500  0.180900  1.0  0.1351
  H  H27  1  0.505000  0.873700  0.224000  1.0  0.4066
  H  H28  1  0.005000  0.114600  0.237000  1.0  0.374
  H  H29  1  0.212100  0.908700  0.141600  1.0  0.1114
  H  H30  1  0.332100  0.881400  0.273100  1.0  0.129
  H  H31  1  0.296100  0.846600  0.842400  1.0  0.1198
  H  H32  1  0.175900  0.873800  0.712700  1.0  0.1326
  H  H33  1  0.719700  0.684800  0.150800  1.0  0.1078
  H  H34  1  0.840600  0.654900  0.297200  1.0  0.1314
  H  H35  1  0.788000  0.571200  0.824300  1.0  0.113
  H  H36  1  0.667000  0.600500  0.680900  1.0  0.1353
  H  H37  1  0.505000  0.626300  0.724000  1.0  0.4084
  H  H38  1  0.005000  0.385400  0.737000  1.0  0.3774
  H  H39  1  0.787900  0.408700  0.358400  1.0  0.1107
  H  H40  1  0.667900  0.381400  0.226900  1.0  0.1292
  H  H41  1  0.703900  0.346600  0.657600  1.0  0.1191
  H  H42  1  0.824100  0.373800  0.787300  1.0  0.1324
  H  H43  1  0.280300  0.184800  0.349200  1.0  0.1066
  H  H44  1  0.159400  0.154900  0.202800  1.0  0.1311
  H  H45  1  0.212000  0.071200  0.675700  1.0  0.1129
  H  H46  1  0.333000  0.100500  0.819100  1.0  0.1348
  H  H47  1  0.495000  0.126300  0.776000  1.0  0.4074
  H  H48  1  0.995000  0.885400  0.763000  1.0  0.3761
  C  C49  1  0.818200  0.106300  0.587500  1.0  -0.1364
  C  C50  1  0.770800  0.104500  0.711400  1.0  -0.0717
  C  C51  1  0.699700  0.120100  0.633700  1.0  -0.0803
  C  C52  1  0.674900  0.138200  0.426600  1.0  -0.1235
  C  C53  1  0.721500  0.140000  0.303800  1.0  -0.0857
  C  C54  1  0.792500  0.124500  0.381000  1.0  -0.0725
  C  C55  1  0.893900  0.087800  0.675900  1.0  0.698
  C  C56  1  0.600400  0.157300  0.333500  1.0  0.7272
  C  C57  1  0.317500  0.354800  0.598900  1.0  -0.1157
  C  C58  1  0.266100  0.339000  0.709000  1.0  -0.0488
  C  C59  1  0.194800  0.356000  0.623700  1.0  -0.1125
  C  C60  1  0.176000  0.389300  0.425100  1.0  -0.1248
  C  C61  1  0.226600  0.404900  0.315600  1.0  -0.0693
  C  C62  1  0.297900  0.388200  0.399300  1.0  -0.107
  C  C63  1  0.393000  0.335000  0.689300  1.0  0.6682
  C  C64  1  0.101200  0.408500  0.331300  1.0  0.6704
  C  C65  1  0.181800  0.606300  0.912500  1.0  -0.1387
  C  C66  1  0.229200  0.604500  0.788600  1.0  -0.0719
  C  C67  1  0.300300  0.620100  0.866300  1.0  -0.0803
  C  C68  1  0.325100  0.638200  0.073400  1.0  -0.1219
  C  C69  1  0.278500  0.640000  0.196200  1.0  -0.084
  C  C70  1  0.207500  0.624500  0.119000  1.0  -0.0747
  C  C71  1  0.106100  0.587800  0.824100  1.0  0.6968
  C  C72  1  0.399600  0.657300  0.166500  1.0  0.7281
  C  C73  1  0.682500  0.854800  0.901100  1.0  -0.1135
  C  C74  1  0.733900  0.839000  0.791000  1.0  -0.0501
  C  C75  1  0.805200  0.856000  0.876300  1.0  -0.1139
  C  C76  1  0.824000  0.889300  0.074900  1.0  -0.1245
  C  C77  1  0.773400  0.904900  0.184400  1.0  -0.0665
  C  C78  1  0.702100  0.888200  0.100700  1.0  -0.11
  C  C79  1  0.607000  0.835000  0.810700  1.0  0.6677
  C  C80  1  0.898800  0.908500  0.168700  1.0  0.67
  C  C81  1  0.181800  0.893700  0.412500  1.0  -0.1397
  C  C82  1  0.229200  0.895500  0.288600  1.0  -0.0718
  C  C83  1  0.300300  0.879900  0.366300  1.0  -0.0805
  C  C84  1  0.325100  0.861800  0.573400  1.0  -0.1214
  C  C85  1  0.278500  0.860000  0.696200  1.0  -0.0839
  C  C86  1  0.207500  0.875500  0.619000  1.0  -0.0744
  C  C87  1  0.106100  0.912200  0.324100  1.0  0.697
  C  C88  1  0.399600  0.842700  0.666500  1.0  0.7278
  C  C89  1  0.682500  0.645200  0.401100  1.0  -0.1144
  C  C90  1  0.733900  0.661000  0.291000  1.0  -0.0503
  C  C91  1  0.805200  0.644000  0.376300  1.0  -0.1139
  C  C92  1  0.824000  0.610700  0.574900  1.0  -0.1244
  C  C93  1  0.773400  0.595100  0.684400  1.0  -0.0662
  C  C94  1  0.702100  0.611800  0.600700  1.0  -0.1098
  C  C95  1  0.607000  0.665000  0.310700  1.0  0.6675
  C  C96  1  0.898800  0.591500  0.668700  1.0  0.6707
  C  C97  1  0.818200  0.393700  0.087500  1.0  -0.1362
  C  C98  1  0.770800  0.395500  0.211400  1.0  -0.0717
  C  C99  1  0.699700  0.379900  0.133700  1.0  -0.0803
  C  C100  1  0.674900  0.361800  0.926600  1.0  -0.1218
  C  C101  1  0.721500  0.360000  0.803800  1.0  -0.0856
  C  C102  1  0.792500  0.375500  0.881000  1.0  -0.0729
  C  C103  1  0.893900  0.412200  0.175900  1.0  0.6979
  C  C104  1  0.600400  0.342700  0.833500  1.0  0.726
  C  C105  1  0.317500  0.145200  0.098900  1.0  -0.1161
  C  C106  1  0.266100  0.161000  0.209000  1.0  -0.0487
  C  C107  1  0.194800  0.144000  0.123700  1.0  -0.1129
  C  C108  1  0.176000  0.110700  0.925100  1.0  -0.1242
  C  C109  1  0.226600  0.095100  0.815600  1.0  -0.0691
  C  C110  1  0.297900  0.111800  0.899300  1.0  -0.1075
  C  C111  1  0.393000  0.165000  0.189300  1.0  0.6681
  C  C112  1  0.101200  0.091500  0.831300  1.0  0.671
  O  O113  1  0.499600  0.314700  0.258100  1.0  -0.9388
  O  O114  1  0.000900  0.555300  0.251800  1.0  -1.0374
  O  O115  1  0.915700  0.077700  0.869100  1.0  -0.5621
  O  O116  1  0.931800  0.082100  0.549300  1.0  -0.5946
  O  O117  1  0.555900  0.148500  0.442900  1.0  -0.5908
  O  O118  1  0.586700  0.183600  0.147000  1.0  -0.5592
  O  O119  1  0.408000  0.300300  0.871200  1.0  -0.5586
  O  O120  1  0.435700  0.351800  0.575600  1.0  -0.5549
  O  O121  1  0.056800  0.399300  0.444800  1.0  -0.5761
  O  O122  1  0.088500  0.431400  0.140500  1.0  -0.5711
  O  O123  1  0.500400  0.814700  0.241900  1.0  -0.9384
  O  O124  1  0.999100  0.055300  0.248200  1.0  -1.0371
  O  O125  1  0.084300  0.577700  0.630900  1.0  -0.562
  O  O126  1  0.068200  0.582100  0.950700  1.0  -0.5954
  O  O127  1  0.444100  0.648500  0.057100  1.0  -0.5906
  O  O128  1  0.413300  0.683600  0.353000  1.0  -0.5588
  O  O129  1  0.592000  0.800300  0.628800  1.0  -0.5594
  O  O130  1  0.564300  0.851800  0.924400  1.0  -0.5559
  O  O131  1  0.943200  0.899300  0.055200  1.0  -0.5758
  O  O132  1  0.911500  0.931400  0.359500  1.0  -0.5715
  O  O133  1  0.500400  0.685300  0.741900  1.0  -0.9408
  O  O134  1  0.999100  0.444700  0.748200  1.0  -1.0396
  O  O135  1  0.084300  0.922300  0.130900  1.0  -0.5623
  O  O136  1  0.068200  0.917900  0.450700  1.0  -0.5973
  O  O137  1  0.444100  0.851500  0.557100  1.0  -0.5905
  O  O138  1  0.413300  0.816400  0.853000  1.0  -0.5586
  O  O139  1  0.592000  0.699700  0.128800  1.0  -0.5598
  O  O140  1  0.564300  0.648200  0.424400  1.0  -0.5564
  O  O141  1  0.943200  0.600700  0.555200  1.0  -0.5757
  O  O142  1  0.911500  0.568600  0.859500  1.0  -0.5731
  O  O143  1  0.499600  0.185300  0.758100  1.0  -0.9409
  O  O144  1  0.000900  0.944700  0.751800  1.0  -1.0396
  O  O145  1  0.915700  0.422300  0.369100  1.0  -0.5626
  O  O146  1  0.931800  0.417900  0.049300  1.0  -0.5961
  O  O147  1  0.555900  0.351500  0.942900  1.0  -0.5908
  O  O148  1  0.586700  0.316400  0.647000  1.0  -0.5587
  O  O149  1  0.408000  0.199700  0.371200  1.0  -0.5585
  O  O150  1  0.435700  0.148200  0.075600  1.0  -0.5555
  O  O151  1  0.056800  0.100700  0.944800  1.0  -0.5759
  O  O152  1  0.088500  0.068600  0.640500  1.0  -0.5722
