# generated using pymatgen
data_GaH5C8O5
_symmetry_space_group_name_H-M   'P 1'
_cell_length_a   19.23950000
_cell_length_b   15.16420000
_cell_length_c   6.68120000
_cell_angle_alpha   90.00000000
_cell_angle_beta   84.08420000
_cell_angle_gamma   90.00000000
_symmetry_Int_Tables_number   1
_chemical_formula_structural   GaH5C8O5
_chemical_formula_sum   'Ga8 H40 C64 O40'
_cell_volume   1938.87009640
_cell_formula_units_Z   8
loop_
 _symmetry_equiv_pos_site_id
 _symmetry_equiv_pos_as_xyz
  1  'x, y, z'
loop_
 _atom_site_type_symbol
 _atom_site_label
 _atom_site_symmetry_multiplicity
 _atom_site_fract_x
 _atom_site_fract_y
 _atom_site_fract_z
 _atom_site_occupancy
 _atom_site_charge
  Ga  Ga1  1  0.495680  0.253960  0.519280  1.0  1.5648
  Ga  Ga2  1  0.504320  0.753960  0.980720  1.0  1.564
  Ga  Ga3  1  0.504320  0.746040  0.480720  1.0  1.5637
  Ga  Ga4  1  0.495680  0.246040  0.019280  1.0  1.5641
  Ga  Ga5  1  0.000000  0.000000  0.000000  1.0  1.4966
  Ga  Ga6  1  0.000000  0.500000  0.500000  1.0  1.4966
  Ga  Ga7  1  0.000000  0.000000  0.500000  1.0  1.5825
  Ga  Ga8  1  0.000000  0.500000  0.000000  1.0  1.5825
  H  H9  1  0.787320  0.093720  0.581490  1.0  0.1006
  H  H10  1  0.668810  0.124740  0.557270  1.0  0.1057
  H  H11  1  0.708240  0.142730  0.948310  1.0  0.1023
  H  H12  1  0.826760  0.111710  0.972520  1.0  0.1026
  H  H13  1  0.280820  0.176890  0.560100  1.0  0.0994
  H  H14  1  0.163200  0.143630  0.527720  1.0  0.1091
  H  H15  1  0.215990  0.068120  0.947320  1.0  0.1004
  H  H16  1  0.333610  0.101390  0.979700  1.0  0.1103
  H  H17  1  0.999900  0.370460  0.246500  1.0  0.4286
  H  H18  1  0.499000  0.123060  0.771800  1.0  0.4193
  H  H19  1  0.212680  0.593720  0.918510  1.0  0.1017
  H  H20  1  0.331190  0.624740  0.942730  1.0  0.1058
  H  H21  1  0.291760  0.642730  0.551690  1.0  0.1016
  H  H22  1  0.173240  0.611710  0.527480  1.0  0.1026
  H  H23  1  0.719180  0.676890  0.939900  1.0  0.1003
  H  H24  1  0.836800  0.643630  0.972280  1.0  0.1093
  H  H25  1  0.784010  0.568120  0.552680  1.0  0.0995
  H  H26  1  0.666390  0.601390  0.520300  1.0  0.1101
  H  H27  1  0.000100  0.870460  0.253500  1.0  0.429
  H  H28  1  0.501000  0.623060  0.728200  1.0  0.4192
  H  H29  1  0.212680  0.906280  0.418510  1.0  0.1013
  H  H30  1  0.331190  0.875260  0.442730  1.0  0.1059
  H  H31  1  0.291760  0.857270  0.051690  1.0  0.1017
  H  H32  1  0.173240  0.888290  0.027480  1.0  0.1028
  H  H33  1  0.719180  0.823110  0.439900  1.0  0.1002
  H  H34  1  0.836800  0.856370  0.472280  1.0  0.1094
  H  H35  1  0.784010  0.931880  0.052680  1.0  0.0996
  H  H36  1  0.666390  0.898610  0.020300  1.0  0.1099
  H  H37  1  0.000100  0.629540  0.753500  1.0  0.4285
  H  H38  1  0.501000  0.876940  0.228200  1.0  0.4162
  H  H39  1  0.787320  0.406280  0.081490  1.0  0.101
  H  H40  1  0.668810  0.375260  0.057270  1.0  0.1057
  H  H41  1  0.708240  0.357270  0.448310  1.0  0.1025
  H  H42  1  0.826760  0.388290  0.472520  1.0  0.1027
  H  H43  1  0.280820  0.323110  0.060100  1.0  0.0994
  H  H44  1  0.163200  0.356370  0.027720  1.0  0.1093
  H  H45  1  0.215990  0.431880  0.447320  1.0  0.1002
  H  H46  1  0.333610  0.398610  0.479700  1.0  0.1104
  H  H47  1  0.999900  0.129540  0.746500  1.0  0.4285
  H  H48  1  0.499000  0.376940  0.271800  1.0  0.4163
  C  C49  1  0.816870  0.100140  0.279020  1.0  -0.1207
  C  C50  1  0.770830  0.103940  0.449470  1.0  -0.0731
  C  C51  1  0.701740  0.122020  0.435350  1.0  -0.0676
  C  C52  1  0.678690  0.136310  0.250780  1.0  -0.1093
  C  C53  1  0.724730  0.132510  0.080330  1.0  -0.0779
  C  C54  1  0.793820  0.114420  0.094450  1.0  -0.0743
  C  C55  1  0.891510  0.080600  0.294270  1.0  0.681
  C  C56  1  0.604050  0.155840  0.235530  1.0  0.6721
  C  C57  1  0.316970  0.141900  0.272590  1.0  -0.1177
  C  C58  1  0.267300  0.154210  0.432330  1.0  -0.072
  C  C59  1  0.198730  0.134820  0.413450  1.0  -0.07
  C  C60  1  0.179840  0.103120  0.234830  1.0  -0.1168
  C  C61  1  0.229510  0.090800  0.075090  1.0  -0.0789
  C  C62  1  0.298080  0.110190  0.093970  1.0  -0.0548
  C  C63  1  0.391040  0.162850  0.292990  1.0  0.6748
  C  C64  1  0.105770  0.082170  0.214430  1.0  0.6642
  C  C65  1  0.183130  0.600140  0.220980  1.0  -0.1204
  C  C66  1  0.229170  0.603940  0.050530  1.0  -0.0745
  C  C67  1  0.298260  0.622020  0.064650  1.0  -0.0685
  C  C68  1  0.321310  0.636310  0.249220  1.0  -0.1079
  C  C69  1  0.275270  0.632510  0.419670  1.0  -0.0776
  C  C70  1  0.206180  0.614420  0.405550  1.0  -0.072
  C  C71  1  0.108490  0.580600  0.205730  1.0  0.6807
  C  C72  1  0.395950  0.655840  0.264470  1.0  0.6719
  C  C73  1  0.683030  0.641900  0.227410  1.0  -0.1182
  C  C74  1  0.732700  0.654210  0.067670  1.0  -0.0727
  C  C75  1  0.801270  0.634820  0.086550  1.0  -0.0705
  C  C76  1  0.820160  0.603120  0.265170  1.0  -0.1166
  C  C77  1  0.770490  0.590800  0.424910  1.0  -0.0775
  C  C78  1  0.701920  0.610190  0.406030  1.0  -0.0545
  C  C79  1  0.608960  0.662850  0.207010  1.0  0.6743
  C  C80  1  0.894230  0.582170  0.285570  1.0  0.6665
  C  C81  1  0.183130  0.899860  0.720980  1.0  -0.1209
  C  C82  1  0.229170  0.896060  0.550530  1.0  -0.0741
  C  C83  1  0.298260  0.877980  0.564650  1.0  -0.0684
  C  C84  1  0.321310  0.863690  0.749220  1.0  -0.108
  C  C85  1  0.275270  0.867490  0.919670  1.0  -0.0772
  C  C86  1  0.206180  0.885580  0.905550  1.0  -0.0711
  C  C87  1  0.108490  0.919400  0.705730  1.0  0.6807
  C  C88  1  0.395950  0.844160  0.764470  1.0  0.672
  C  C89  1  0.683030  0.858100  0.727410  1.0  -0.1181
  C  C90  1  0.732700  0.845790  0.567670  1.0  -0.0728
  C  C91  1  0.801270  0.865180  0.586550  1.0  -0.0702
  C  C92  1  0.820160  0.896880  0.765170  1.0  -0.1166
  C  C93  1  0.770490  0.909200  0.924910  1.0  -0.0771
  C  C94  1  0.701920  0.889810  0.906030  1.0  -0.0549
  C  C95  1  0.608960  0.837150  0.707010  1.0  0.6749
  C  C96  1  0.894230  0.917830  0.785570  1.0  0.6673
  C  C97  1  0.816870  0.399860  0.779020  1.0  -0.1205
  C  C98  1  0.770830  0.396060  0.949470  1.0  -0.0729
  C  C99  1  0.701740  0.377980  0.935350  1.0  -0.0677
  C  C100  1  0.678690  0.363690  0.750780  1.0  -0.1093
  C  C101  1  0.724730  0.367490  0.580330  1.0  -0.0779
  C  C102  1  0.793820  0.385580  0.594450  1.0  -0.0744
  C  C103  1  0.891510  0.419400  0.794270  1.0  0.6811
  C  C104  1  0.604050  0.344160  0.735530  1.0  0.6714
  C  C105  1  0.316970  0.358100  0.772590  1.0  -0.118
  C  C106  1  0.267300  0.345790  0.932330  1.0  -0.0717
  C  C107  1  0.198730  0.365180  0.913450  1.0  -0.0697
  C  C108  1  0.179840  0.396880  0.734830  1.0  -0.1174
  C  C109  1  0.229510  0.409200  0.575090  1.0  -0.0789
  C  C110  1  0.298080  0.389810  0.593970  1.0  -0.0551
  C  C111  1  0.391040  0.337150  0.792990  1.0  0.6751
  C  C112  1  0.105770  0.417830  0.714430  1.0  0.6659
  O  O113  1  0.499000  0.189000  0.771800  1.0  -0.7904
  O  O114  1  0.999900  0.063600  0.746500  1.0  -0.8253
  O  O115  1  0.912680  0.066030  0.465080  1.0  -0.5918
  O  O116  1  0.934390  0.078420  0.136550  1.0  -0.6263
  O  O117  1  0.561030  0.157030  0.393000  1.0  -0.6093
  O  O118  1  0.583030  0.171420  0.064970  1.0  -0.5908
  O  O119  1  0.408550  0.192310  0.458510  1.0  -0.5995
  O  O120  1  0.437100  0.151350  0.144960  1.0  -0.604
  O  O121  1  0.059260  0.097470  0.359330  1.0  -0.6081
  O  O122  1  0.088710  0.048900  0.052040  1.0  -0.5997
  O  O123  1  0.501000  0.689000  0.728200  1.0  -0.7906
  O  O124  1  0.000100  0.563600  0.753500  1.0  -0.8253
  O  O125  1  0.087320  0.566030  0.034920  1.0  -0.5915
  O  O126  1  0.065610  0.578420  0.363450  1.0  -0.6255
  O  O127  1  0.438970  0.657030  0.107000  1.0  -0.6089
  O  O128  1  0.416970  0.671420  0.435030  1.0  -0.5912
  O  O129  1  0.591450  0.692310  0.041490  1.0  -0.5986
  O  O130  1  0.562900  0.651350  0.355040  1.0  -0.6041
  O  O131  1  0.940740  0.597470  0.140670  1.0  -0.6084
  O  O132  1  0.911290  0.548900  0.447960  1.0  -0.5998
  O  O133  1  0.501000  0.811000  0.228200  1.0  -0.7856
  O  O134  1  0.000100  0.936400  0.253500  1.0  -0.8269
  O  O135  1  0.087320  0.933970  0.534920  1.0  -0.5919
  O  O136  1  0.065610  0.921580  0.863450  1.0  -0.6263
  O  O137  1  0.438970  0.842970  0.607000  1.0  -0.6085
  O  O138  1  0.416970  0.828580  0.935030  1.0  -0.591
  O  O139  1  0.591450  0.807690  0.541490  1.0  -0.5982
  O  O140  1  0.562900  0.848650  0.855040  1.0  -0.6037
  O  O141  1  0.940740  0.902530  0.640670  1.0  -0.6084
  O  O142  1  0.911290  0.951100  0.947960  1.0  -0.5993
  O  O143  1  0.499000  0.311000  0.271800  1.0  -0.7852
  O  O144  1  0.999900  0.436400  0.246500  1.0  -0.8271
  O  O145  1  0.912680  0.433970  0.965080  1.0  -0.592
  O  O146  1  0.934390  0.421580  0.636550  1.0  -0.6265
  O  O147  1  0.561030  0.342970  0.893000  1.0  -0.6083
  O  O148  1  0.583030  0.328580  0.564970  1.0  -0.5908
  O  O149  1  0.408550  0.307690  0.958510  1.0  -0.5996
  O  O150  1  0.437100  0.348650  0.644960  1.0  -0.6037
  O  O151  1  0.059260  0.402530  0.859330  1.0  -0.608
  O  O152  1  0.088710  0.451100  0.552040  1.0  -0.6004
