# generated using pymatgen
data_CdH14C20N3O4
_symmetry_space_group_name_H-M   'P 1'
_cell_length_a   11.14140000
_cell_length_b   11.14140000
_cell_length_c   18.66200000
_cell_angle_alpha   93.48580000
_cell_angle_beta   93.48580000
_cell_angle_gamma   114.96100000
_symmetry_Int_Tables_number   1
_chemical_formula_structural   CdH14C20N3O4
_chemical_formula_sum   'Cd4 H56 C80 N12 O16'
_cell_volume   2086.67860324
_cell_formula_units_Z   4
loop_
 _symmetry_equiv_pos_site_id
 _symmetry_equiv_pos_as_xyz
  1  'x, y, z'
loop_
 _atom_site_type_symbol
 _atom_site_label
 _atom_site_symmetry_multiplicity
 _atom_site_fract_x
 _atom_site_fract_y
 _atom_site_fract_z
 _atom_site_occupancy
 _atom_site_charge
  Cd  Cd1  1  0.369180  0.135000  0.410170  1.0  0.964
  Cd  Cd2  1  0.135000  0.369180  0.910170  1.0  0.9651
  Cd  Cd3  1  0.865000  0.630820  0.089830  1.0  0.9652
  Cd  Cd4  1  0.630820  0.865000  0.589830  1.0  0.965
  H  H5  1  0.841700  0.011500  0.073200  1.0  0.1182
  H  H6  1  0.565400  0.398600  0.054300  1.0  0.073
  H  H7  1  0.936500  0.848900  0.960300  1.0  0.1042
  H  H8  1  0.398600  0.565400  0.554300  1.0  0.0733
  H  H9  1  0.715800  0.247600  0.118900  1.0  0.12
  H  H10  1  0.294500  0.585500  0.170700  1.0  0.1049
  H  H11  1  0.755300  0.572300  0.535600  1.0  0.1226
  H  H12  1  0.184200  0.738600  0.061000  1.0  0.0871
  H  H13  1  0.937400  0.820800  0.763800  1.0  0.1113
  H  H14  1  0.026300  0.390500  0.596300  1.0  0.1108
  H  H15  1  0.158300  0.988500  0.926800  1.0  0.1192
  H  H16  1  0.390500  0.026300  0.096300  1.0  0.1113
  H  H17  1  0.572300  0.755300  0.035600  1.0  0.1214
  H  H18  1  0.166400  0.437400  0.076700  1.0  0.0685
  H  H19  1  0.247600  0.715800  0.618900  1.0  0.1188
  H  H20  1  0.151100  0.063500  0.539700  1.0  0.1051
  H  H21  1  0.165900  0.621700  0.297300  1.0  0.1067
  H  H22  1  0.815800  0.261400  0.939000  1.0  0.0868
  H  H23  1  0.244700  0.427700  0.464400  1.0  0.1218
  H  H24  1  0.284200  0.752400  0.881100  1.0  0.1203
  H  H25  1  0.261400  0.815800  0.439000  1.0  0.0872
  H  H26  1  0.963300  0.284900  0.168400  1.0  0.0931
  H  H27  1  0.437400  0.166400  0.576700  1.0  0.0694
  H  H28  1  0.820800  0.937400  0.263800  1.0  0.1116
  H  H29  1  0.988500  0.158300  0.426800  1.0  0.1186
  H  H30  1  0.848900  0.936500  0.460300  1.0  0.1039
  H  H31  1  0.705500  0.414500  0.829300  1.0  0.1068
  H  H32  1  0.833600  0.562600  0.923300  1.0  0.0691
  H  H33  1  0.378300  0.834100  0.202700  1.0  0.1079
  H  H34  1  0.821700  0.408100  0.338000  1.0  0.1268
  H  H35  1  0.434600  0.601400  0.945700  1.0  0.0737
  H  H36  1  0.696800  0.119600  0.156500  1.0  0.1178
  H  H37  1  0.063500  0.151100  0.039700  1.0  0.1038
  H  H38  1  0.973700  0.609500  0.403700  1.0  0.1118
  H  H39  1  0.591900  0.178300  0.162000  1.0  0.128
  H  H40  1  0.303200  0.880400  0.843500  1.0  0.1175
  H  H41  1  0.119600  0.696800  0.656500  1.0  0.1173
  H  H42  1  0.621700  0.165900  0.797300  1.0  0.1061
  H  H43  1  0.062600  0.179200  0.236200  1.0  0.1119
  H  H44  1  0.036700  0.715100  0.831600  1.0  0.0929
  H  H45  1  0.427700  0.244700  0.964400  1.0  0.1216
  H  H46  1  0.414500  0.705500  0.329300  1.0  0.1065
  H  H47  1  0.179200  0.062600  0.736200  1.0  0.1107
  H  H48  1  0.752400  0.284200  0.381100  1.0  0.1196
  H  H49  1  0.562600  0.833600  0.423300  1.0  0.07
  H  H50  1  0.834100  0.378300  0.702700  1.0  0.1078
  H  H51  1  0.284900  0.963300  0.668400  1.0  0.0931
  H  H52  1  0.609500  0.973700  0.903700  1.0  0.1125
  H  H53  1  0.408100  0.821700  0.838000  1.0  0.1273
  H  H54  1  0.178300  0.591900  0.662000  1.0  0.1272
  H  H55  1  0.585500  0.294500  0.670700  1.0  0.1058
  H  H56  1  0.880400  0.303200  0.343500  1.0  0.119
  H  H57  1  0.601400  0.434600  0.445700  1.0  0.0743
  H  H58  1  0.715100  0.036700  0.331600  1.0  0.0928
  H  H59  1  0.738600  0.184200  0.561000  1.0  0.0879
  H  H60  1  0.011500  0.841700  0.573200  1.0  0.1176
  C  C61  1  0.502800  0.248800  0.568300  1.0  0.176
  C  C62  1  0.210800  0.471600  0.324660  1.0  0.0386
  C  C63  1  0.593800  0.401000  0.008400  1.0  0.182
  C  C64  1  0.024400  0.331600  0.207700  1.0  -0.0568
  C  C65  1  0.533020  0.146580  0.784540  1.0  -0.075
  C  C66  1  0.915000  0.731000  0.752100  1.0  -0.0364
  C  C67  1  0.163700  0.651700  0.631500  1.0  -0.3921
  C  C68  1  0.466980  0.853420  0.215460  1.0  -0.0718
  C  C69  1  0.863300  0.078300  0.042200  1.0  -0.1434
  C  C70  1  0.510100  0.308100  0.954700  1.0  -0.1791
  C  C71  1  0.836300  0.348300  0.368500  1.0  -0.3919
  C  C72  1  0.651700  0.163700  0.131500  1.0  -0.3912
  C  C73  1  0.733670  0.750330  0.157490  1.0  0.6682
  C  C74  1  0.331600  0.024400  0.707700  1.0  -0.0565
  C  C75  1  0.348300  0.836300  0.868500  1.0  -0.3899
  C  C76  1  0.464600  0.055000  0.726240  1.0  -0.1335
  C  C77  1  0.308100  0.510100  0.454700  1.0  -0.1793
  C  C78  1  0.674500  0.408500  0.874800  1.0  -0.2141
  C  C79  1  0.564000  0.983200  0.942200  1.0  -0.171
  C  C80  1  0.789200  0.528400  0.675340  1.0  0.037
  C  C81  1  0.983200  0.564000  0.442200  1.0  -0.1716
  C  C82  1  0.975600  0.668400  0.792300  1.0  -0.057
  C  C83  1  0.691900  0.489900  0.545300  1.0  -0.1782
  C  C84  1  0.945000  0.535400  0.773760  1.0  -0.1323
  C  C85  1  0.156000  0.985200  0.523500  1.0  0.0332
  C  C86  1  0.079100  0.574700  0.564400  1.0  0.0787
  C  C87  1  0.466600  0.006800  0.319200  1.0  0.6539
  C  C88  1  0.058400  0.634800  0.504600  1.0  0.1096
  C  C89  1  0.599000  0.406200  0.491600  1.0  0.1823
  C  C90  1  0.055000  0.464600  0.226240  1.0  -0.1351
  C  C91  1  0.731000  0.915000  0.252100  1.0  -0.0359
  C  C92  1  0.634800  0.058400  0.004600  1.0  0.1105
  C  C93  1  0.178880  0.337720  0.305320  1.0  -0.0966
  C  C94  1  0.489900  0.691900  0.045300  1.0  -0.1812
  C  C95  1  0.425300  0.920900  0.935600  1.0  0.0784
  C  C96  1  0.449080  0.689720  0.114800  1.0  0.0796
  C  C97  1  0.136700  0.921700  0.957800  1.0  -0.1431
  C  C98  1  0.750330  0.733670  0.657490  1.0  0.6672
  C  C99  1  0.408500  0.674500  0.374800  1.0  -0.2134
  C  C100  1  0.149400  0.783200  0.031800  1.0  0.1607
  C  C101  1  0.016800  0.436000  0.557800  1.0  -0.1707
  C  C102  1  0.528400  0.789200  0.175340  1.0  0.0374
  C  C103  1  0.533400  0.993200  0.680800  1.0  0.6535
  C  C104  1  0.550920  0.310280  0.885200  1.0  0.0796
  C  C105  1  0.078300  0.863300  0.542200  1.0  -0.1444
  C  C106  1  0.689720  0.449080  0.614800  1.0  0.08
  C  C107  1  0.853420  0.466980  0.715460  1.0  -0.0694
  C  C108  1  0.783200  0.149400  0.531800  1.0  0.1603
  C  C109  1  0.920900  0.425300  0.435600  1.0  0.0785
  C  C110  1  0.365200  0.941600  0.995400  1.0  0.1093
  C  C111  1  0.266330  0.249670  0.842510  1.0  0.6678
  C  C112  1  0.406200  0.599000  0.991600  1.0  0.1821
  C  C113  1  0.248800  0.502800  0.068300  1.0  0.1757
  C  C114  1  0.850600  0.216800  0.968200  1.0  0.1605
  C  C115  1  0.668400  0.975600  0.292300  1.0  -0.0581
  C  C116  1  0.535400  0.945000  0.273760  1.0  -0.1367
  C  C117  1  0.216800  0.850600  0.468200  1.0  0.1603
  C  C118  1  0.751200  0.497200  0.931700  1.0  0.1759
  C  C119  1  0.574700  0.079100  0.064400  1.0  0.0793
  C  C120  1  0.993200  0.533400  0.180800  1.0  0.6589
  C  C121  1  0.471600  0.210800  0.824660  1.0  0.0381
  C  C122  1  0.014800  0.844000  0.976500  1.0  0.0336
  C  C123  1  0.985200  0.156000  0.023500  1.0  0.0363
  C  C124  1  0.662280  0.821120  0.194680  1.0  -0.0948
  C  C125  1  0.269000  0.085000  0.747900  1.0  -0.0348
  C  C126  1  0.006800  0.466600  0.819200  1.0  0.6566
  C  C127  1  0.337720  0.178880  0.805320  1.0  -0.0972
  C  C128  1  0.821120  0.662280  0.694680  1.0  -0.0988
  C  C129  1  0.591500  0.325500  0.625200  1.0  -0.2111
  C  C130  1  0.085000  0.269000  0.247900  1.0  -0.0456
  C  C131  1  0.436000  0.016800  0.057800  1.0  -0.1703
  C  C132  1  0.325500  0.591500  0.125200  1.0  -0.2135
  C  C133  1  0.497200  0.751200  0.431700  1.0  0.177
  C  C134  1  0.146580  0.533020  0.284540  1.0  -0.0711
  C  C135  1  0.921700  0.136700  0.457800  1.0  -0.1436
  C  C136  1  0.844000  0.014800  0.476500  1.0  0.0328
  C  C137  1  0.249670  0.266330  0.342510  1.0  0.668
  C  C138  1  0.941600  0.365200  0.495400  1.0  0.1106
  C  C139  1  0.310280  0.550920  0.385200  1.0  0.0808
  C  C140  1  0.401000  0.593800  0.508400  1.0  0.1825
  N  N141  1  0.118420  0.777780  0.506110  1.0  0.0181
  N  N142  1  0.285790  0.505010  0.001870  1.0  -0.3549
  N  N143  1  0.976830  0.243170  0.977090  1.0  -0.3732
  N  N144  1  0.777780  0.118420  0.006110  1.0  0.0178
  N  N145  1  0.222220  0.881580  0.993890  1.0  0.018
  N  N146  1  0.714210  0.494990  0.998130  1.0  -0.353
  N  N147  1  0.756830  0.023170  0.522910  1.0  -0.3735
  N  N148  1  0.494990  0.714210  0.498130  1.0  -0.3488
  N  N149  1  0.243170  0.976830  0.477090  1.0  -0.3738
  N  N150  1  0.881580  0.222220  0.493890  1.0  0.0189
  N  N151  1  0.505010  0.285790  0.501870  1.0  -0.3516
  N  N152  1  0.023170  0.756830  0.022910  1.0  -0.3741
  O  O153  1  0.817680  0.835720  0.629370  1.0  -0.6031
  O  O154  1  0.346860  0.980540  0.302910  1.0  -0.6357
  O  O155  1  0.019460  0.653140  0.197090  1.0  -0.6332
  O  O156  1  0.529980  0.080620  0.374390  1.0  -0.5809
  O  O157  1  0.980540  0.346860  0.802910  1.0  -0.635
  O  O158  1  0.653140  0.019460  0.697090  1.0  -0.6344
  O  O159  1  0.372470  0.309930  0.343480  1.0  -0.5938
  O  O160  1  0.627530  0.690070  0.656520  1.0  -0.5951
  O  O161  1  0.164280  0.182320  0.870630  1.0  -0.6042
  O  O162  1  0.835720  0.817680  0.129370  1.0  -0.6047
  O  O163  1  0.080620  0.529980  0.874390  1.0  -0.5778
  O  O164  1  0.182320  0.164280  0.370630  1.0  -0.606
  O  O165  1  0.690070  0.627530  0.156520  1.0  -0.595
  O  O166  1  0.309930  0.372470  0.843480  1.0  -0.5927
  O  O167  1  0.919380  0.470020  0.125610  1.0  -0.5781
  O  O168  1  0.470020  0.919380  0.625610  1.0  -0.5784
