# generated using pymatgen
data_CoHC4NO4
_symmetry_space_group_name_H-M   'P 1'
_cell_length_a   6.79230000
_cell_length_b   15.10030000
_cell_length_c   15.10030000
_cell_angle_alpha   62.20700000
_cell_angle_beta   81.37680000
_cell_angle_gamma   98.62320000
_symmetry_Int_Tables_number   1
_chemical_formula_structural   CoHC4NO4
_chemical_formula_sum   'Co6 H6 C24 N6 O24'
_cell_volume   1311.12496236
_cell_formula_units_Z   6
loop_
 _symmetry_equiv_pos_site_id
 _symmetry_equiv_pos_as_xyz
  1  'x, y, z'
loop_
 _atom_site_type_symbol
 _atom_site_label
 _atom_site_symmetry_multiplicity
 _atom_site_fract_x
 _atom_site_fract_y
 _atom_site_fract_z
 _atom_site_occupancy
 _atom_site_charge
  Co  Co1  1  0.298800  0.267500  0.315900  1.0  1.1181
  Co  Co2  1  0.614700  0.315900  0.416600  1.0  1.1133
  Co  Co3  1  0.031300  0.416600  0.267500  1.0  1.1238
  Co  Co4  1  0.701200  0.732500  0.684100  1.0  1.0856
  Co  Co5  1  0.385300  0.684100  0.583400  1.0  1.1349
  Co  Co6  1  0.968700  0.583400  0.732500  1.0  1.1027
  H  H7  1  0.327840  0.467420  0.553080  1.0  0.2096
  H  H8  1  0.880920  0.553080  0.979500  1.0  0.2063
  H  H9  1  0.860420  0.979500  0.467420  1.0  0.2079
  H  H10  1  0.672160  0.532580  0.446920  1.0  0.2092
  H  H11  1  0.110180  0.825360  0.541320  1.0  0.232
  H  H12  1  0.139580  0.020500  0.532580  1.0  0.2023
  C  C13  1  0.239900  0.387200  0.437400  1.0  0.7674
  C  C14  1  0.113500  0.447000  0.465700  1.0  -0.0524
  C  C15  1  0.928800  0.467000  0.433800  1.0  0.3265
  C  C16  1  0.179000  0.481300  0.529100  1.0  0.0365
  C  C17  1  0.677300  0.437400  0.175400  1.0  0.7594
  C  C18  1  0.579200  0.465700  0.087300  1.0  -0.0597
  C  C19  1  0.362600  0.433800  0.099200  1.0  0.3285
  C  C20  1  0.708100  0.529100  0.989600  1.0  0.0394
  C  C21  1  0.852700  0.175400  0.387200  1.0  0.7671
  C  C22  1  0.666500  0.087300  0.447000  1.0  -0.0487
  C  C23  1  0.461800  0.099200  0.467000  1.0  0.3215
  C  C24  1  0.697700  0.989600  0.481300  1.0  0.0207
  C  C25  1  0.760100  0.612800  0.562600  1.0  0.7611
  C  C26  1  0.886500  0.553000  0.534300  1.0  -0.0515
  C  C27  1  0.071200  0.533000  0.566200  1.0  0.3253
  C  C28  1  0.821000  0.518700  0.470900  1.0  0.0353
  C  C29  1  0.322700  0.562600  0.824600  1.0  0.7378
  C  C30  1  0.420800  0.534300  0.912700  1.0  0.0076
  C  C31  1  0.637400  0.566200  0.900800  1.0  0.3339
  C  C32  1  0.291900  0.470900  0.010400  1.0  0.1669
  C  C33  1  0.147300  0.824600  0.612800  1.0  0.0819
  C  C34  1  0.333500  0.912700  0.553000  1.0  0.07
  C  C35  1  0.538200  0.900800  0.533000  1.0  0.3016
  C  C36  1  0.302300  0.010400  0.518700  1.0  0.0187
  N  N37  1  0.381000  0.176700  0.243700  1.0  -0.3484
  N  N38  1  0.624700  0.243700  0.579600  1.0  -0.3483
  N  N39  1  0.204300  0.579600  0.176700  1.0  -0.3502
  N  N40  1  0.619000  0.823300  0.756300  1.0  -0.348
  N  N41  1  0.375300  0.756300  0.420400  1.0  -0.3168
  N  N42  1  0.795700  0.420400  0.823300  1.0  -0.3444
  O  O43  1  0.173000  0.348000  0.385000  1.0  -0.584
  O  O44  1  0.375400  0.358500  0.478300  1.0  -0.4793
  O  O45  1  0.862400  0.452600  0.359400  1.0  -0.5849
  O  O46  1  0.462600  0.189800  0.144000  1.0  -0.3075
  O  O47  1  0.558000  0.385000  0.267000  1.0  -0.5847
  O  O48  1  0.853700  0.478300  0.163200  1.0  -0.4782
  O  O49  1  0.221800  0.359400  0.188000  1.0  -0.6108
  O  O50  1  0.606600  0.144000  0.666200  1.0  -0.3145
  O  O51  1  0.825000  0.267000  0.348000  1.0  -0.582
  O  O52  1  0.016900  0.163200  0.358500  1.0  -0.4797
  O  O53  1  0.409800  0.188000  0.452600  1.0  -0.5827
  O  O54  1  0.272800  0.666200  0.189800  1.0  -0.3173
  O  O55  1  0.827000  0.652000  0.615000  1.0  -0.6109
  O  O56  1  0.624600  0.641500  0.521700  1.0  -0.481
  O  O57  1  0.137600  0.547400  0.640600  1.0  -0.5839
  O  O58  1  0.537400  0.810200  0.856000  1.0  -0.305
  O  O59  1  0.442000  0.615000  0.733000  1.0  -0.5824
  O  O60  1  0.146300  0.521700  0.836800  1.0  -0.4552
  O  O61  1  0.778200  0.640600  0.812000  1.0  -0.5868
  O  O62  1  0.393400  0.856000  0.333800  1.0  -0.3365
  O  O63  1  0.175000  0.733000  0.652000  1.0  -0.5968
  O  O64  1  0.983100  0.836800  0.641500  1.0  -0.544
  O  O65  1  0.590200  0.812000  0.547400  1.0  -0.5805
  O  O66  1  0.727200  0.333800  0.810200  1.0  -0.3158
