# generated using pymatgen
data_CuH10(C9O2)2
_symmetry_space_group_name_H-M   'P 1'
_cell_length_a   23.33630000
_cell_length_b   23.33630000
_cell_length_c   23.33630000
_cell_angle_alpha   109.47100000
_cell_angle_beta   109.47100000
_cell_angle_gamma   109.47100000
_symmetry_Int_Tables_number   1
_chemical_formula_structural   CuH10(C9O2)2
_chemical_formula_sum   'Cu12 H120 C216 O48'
_cell_volume   9783.12617011
_cell_formula_units_Z   12
loop_
 _symmetry_equiv_pos_site_id
 _symmetry_equiv_pos_as_xyz
  1  'x, y, z'
loop_
 _atom_site_type_symbol
 _atom_site_label
 _atom_site_symmetry_multiplicity
 _atom_site_fract_x
 _atom_site_fract_y
 _atom_site_fract_z
 _atom_site_occupancy
 _atom_site_charge
  Cu  Cu1  1  0.500000  0.142190  0.642190  1.0  0.9016
  Cu  Cu2  1  0.500000  0.240150  0.740150  1.0  0.9145
  Cu  Cu3  1  0.500000  0.857810  0.357810  1.0  0.9021
  Cu  Cu4  1  0.500000  0.759850  0.259850  1.0  0.9127
  Cu  Cu5  1  0.357810  0.500000  0.857810  1.0  0.9033
  Cu  Cu6  1  0.259850  0.500000  0.759850  1.0  0.9146
  Cu  Cu7  1  0.642190  0.500000  0.142190  1.0  0.9031
  Cu  Cu8  1  0.740150  0.500000  0.240150  1.0  0.9152
  Cu  Cu9  1  0.857810  0.357810  0.500000  1.0  0.9025
  Cu  Cu10  1  0.759850  0.259850  0.500000  1.0  0.9139
  Cu  Cu11  1  0.142190  0.642190  0.500000  1.0  0.9017
  Cu  Cu12  1  0.240150  0.740150  0.500000  1.0  0.9138
  H  H13  1  0.525800  0.018200  0.744400  1.0  0.1124
  H  H14  1  0.553800  0.978100  0.822100  1.0  0.1239
  H  H15  1  0.554600  0.133400  0.966000  1.0  0.0894
  H  H16  1  0.526400  0.174600  0.889000  1.0  0.1183
  H  H17  1  0.511500  0.922100  0.879600  1.0  0.1159
  H  H18  1  0.273800  0.781400  0.255600  1.0  0.114
  H  H19  1  0.156000  0.731700  0.177900  1.0  0.1239
  H  H20  1  0.167400  0.588600  0.034000  1.0  0.0988
  H  H21  1  0.285600  0.637400  0.111000  1.0  0.1206
  H  H22  1  0.042500  0.631900  0.120400  1.0  0.1169
  H  H23  1  0.726200  0.981800  0.507600  1.0  0.1134
  H  H24  1  0.844000  0.021900  0.575700  1.0  0.1238
  H  H25  1  0.832600  0.866600  0.421200  1.0  0.099
  H  H26  1  0.714400  0.825400  0.351800  1.0  0.1192
  H  H27  1  0.957500  0.077900  0.589400  1.0  0.1155
  H  H28  1  0.474200  0.218600  0.492400  1.0  0.1135
  H  H29  1  0.446200  0.268300  0.424300  1.0  0.1249
  H  H30  1  0.445400  0.411400  0.578800  1.0  0.0941
  H  H31  1  0.473600  0.362600  0.648200  1.0  0.1184
  H  H32  1  0.488500  0.368100  0.410600  1.0  0.1169
  H  H33  1  0.507600  0.726200  0.981800  1.0  0.1132
  H  H34  1  0.575700  0.844000  0.021900  1.0  0.1224
  H  H35  1  0.421200  0.832600  0.866600  1.0  0.0994
  H  H36  1  0.351800  0.714400  0.825400  1.0  0.1193
  H  H37  1  0.589400  0.957500  0.077900  1.0  0.115
  H  H38  1  0.492400  0.474200  0.218600  1.0  0.112
  H  H39  1  0.424300  0.446200  0.268300  1.0  0.1249
  H  H40  1  0.578800  0.445400  0.411400  1.0  0.0925
  H  H41  1  0.648200  0.473600  0.362600  1.0  0.1186
  H  H42  1  0.410600  0.488500  0.368100  1.0  0.1183
  H  H43  1  0.744400  0.525800  0.018200  1.0  0.1128
  H  H44  1  0.822100  0.553800  0.978100  1.0  0.124
  H  H45  1  0.966000  0.554600  0.133400  1.0  0.0911
  H  H46  1  0.889000  0.526400  0.174600  1.0  0.1188
  H  H47  1  0.879600  0.511500  0.922100  1.0  0.1167
  H  H48  1  0.255600  0.273800  0.781400  1.0  0.1136
  H  H49  1  0.177900  0.156000  0.731700  1.0  0.1236
  H  H50  1  0.034000  0.167400  0.588600  1.0  0.0985
  H  H51  1  0.111000  0.285600  0.637400  1.0  0.1194
  H  H52  1  0.120400  0.042500  0.631900  1.0  0.1182
  H  H53  1  0.781400  0.255600  0.273800  1.0  0.1145
  H  H54  1  0.731700  0.177900  0.156000  1.0  0.1242
  H  H55  1  0.588600  0.034000  0.167400  1.0  0.0991
  H  H56  1  0.637400  0.111000  0.285600  1.0  0.1202
  H  H57  1  0.631900  0.120400  0.042500  1.0  0.1167
  H  H58  1  0.018200  0.744400  0.525800  1.0  0.1134
  H  H59  1  0.978100  0.822100  0.553800  1.0  0.1237
  H  H60  1  0.133400  0.966000  0.554600  1.0  0.0909
  H  H61  1  0.174600  0.889000  0.526400  1.0  0.1185
  H  H62  1  0.922100  0.879600  0.511500  1.0  0.1176
  H  H63  1  0.218600  0.492400  0.474200  1.0  0.1128
  H  H64  1  0.268300  0.424300  0.446200  1.0  0.1234
  H  H65  1  0.411400  0.578800  0.445400  1.0  0.093
  H  H66  1  0.362600  0.648200  0.473600  1.0  0.1187
  H  H67  1  0.368100  0.410600  0.488500  1.0  0.1196
  H  H68  1  0.981800  0.507600  0.726200  1.0  0.1126
  H  H69  1  0.021900  0.575700  0.844000  1.0  0.125
  H  H70  1  0.866600  0.421200  0.832600  1.0  0.1005
  H  H71  1  0.825400  0.351800  0.714400  1.0  0.1193
  H  H72  1  0.077900  0.589400  0.957500  1.0  0.1152
  H  H73  1  0.474200  0.981800  0.255600  1.0  0.1125
  H  H74  1  0.446200  0.021900  0.177900  1.0  0.1247
  H  H75  1  0.445400  0.866600  0.034000  1.0  0.0892
  H  H76  1  0.473600  0.825400  0.111000  1.0  0.1185
  H  H77  1  0.488500  0.077900  0.120400  1.0  0.1147
  H  H78  1  0.726200  0.218600  0.744400  1.0  0.1138
  H  H79  1  0.844000  0.268300  0.822100  1.0  0.1242
  H  H80  1  0.832600  0.411400  0.966000  1.0  0.0982
  H  H81  1  0.714400  0.362600  0.889000  1.0  0.1206
  H  H82  1  0.957500  0.368100  0.879600  1.0  0.1181
  H  H83  1  0.273800  0.018200  0.492400  1.0  0.113
  H  H84  1  0.156000  0.978100  0.424300  1.0  0.1235
  H  H85  1  0.167400  0.133400  0.578800  1.0  0.0987
  H  H86  1  0.285600  0.174600  0.648200  1.0  0.1194
  H  H87  1  0.042500  0.922100  0.410600  1.0  0.1154
  H  H88  1  0.525800  0.781400  0.507600  1.0  0.1136
  H  H89  1  0.553800  0.731700  0.575700  1.0  0.1247
  H  H90  1  0.554600  0.588600  0.421200  1.0  0.0937
  H  H91  1  0.526400  0.637400  0.351800  1.0  0.1188
  H  H92  1  0.511500  0.631900  0.589400  1.0  0.1171
  H  H93  1  0.492400  0.273800  0.018200  1.0  0.1135
  H  H94  1  0.424300  0.156000  0.978100  1.0  0.1226
  H  H95  1  0.578800  0.167400  0.133400  1.0  0.1003
  H  H96  1  0.648200  0.285600  0.174600  1.0  0.1193
  H  H97  1  0.410600  0.042500  0.922100  1.0  0.1177
  H  H98  1  0.507600  0.525800  0.781400  1.0  0.112
  H  H99  1  0.575700  0.553800  0.731700  1.0  0.1246
  H  H100  1  0.421200  0.554600  0.588600  1.0  0.093
  H  H101  1  0.351800  0.526400  0.637400  1.0  0.1185
  H  H102  1  0.589400  0.511500  0.631900  1.0  0.1171
  H  H103  1  0.255600  0.474200  0.981800  1.0  0.1126
  H  H104  1  0.177900  0.446200  0.021900  1.0  0.1232
  H  H105  1  0.034000  0.445400  0.866600  1.0  0.0902
  H  H106  1  0.111000  0.473600  0.825400  1.0  0.1185
  H  H107  1  0.120400  0.488500  0.077900  1.0  0.1163
  H  H108  1  0.744400  0.726200  0.218600  1.0  0.1133
  H  H109  1  0.822100  0.844000  0.268300  1.0  0.1241
  H  H110  1  0.966000  0.832600  0.411400  1.0  0.0977
  H  H111  1  0.889000  0.714400  0.362600  1.0  0.1193
  H  H112  1  0.879600  0.957500  0.368100  1.0  0.1188
  H  H113  1  0.218600  0.744400  0.726200  1.0  0.1144
  H  H114  1  0.268300  0.822100  0.844000  1.0  0.1247
  H  H115  1  0.411400  0.966000  0.832600  1.0  0.0987
  H  H116  1  0.362600  0.889000  0.714400  1.0  0.1205
  H  H117  1  0.368100  0.879600  0.957500  1.0  0.1164
  H  H118  1  0.981800  0.255600  0.474200  1.0  0.1129
  H  H119  1  0.021900  0.177900  0.446200  1.0  0.1234
  H  H120  1  0.866600  0.034000  0.445400  1.0  0.0906
  H  H121  1  0.825400  0.111000  0.473600  1.0  0.1186
  H  H122  1  0.077900  0.120400  0.488500  1.0  0.1184
  H  H123  1  0.781400  0.507600  0.525800  1.0  0.1129
  H  H124  1  0.731700  0.575700  0.553800  1.0  0.1241
  H  H125  1  0.588600  0.421200  0.554600  1.0  0.092
  H  H126  1  0.637400  0.351800  0.526400  1.0  0.119
  H  H127  1  0.631900  0.589400  0.511500  1.0  0.1204
  H  H128  1  0.018200  0.492400  0.273800  1.0  0.1126
  H  H129  1  0.978100  0.424300  0.156000  1.0  0.1239
  H  H130  1  0.133400  0.578800  0.167400  1.0  0.0995
  H  H131  1  0.174600  0.648200  0.285600  1.0  0.1194
  H  H132  1  0.922100  0.410600  0.042500  1.0  0.1147
  C  C133  1  0.506900  0.129900  0.761800  1.0  0.7121
  C  C134  1  0.523400  0.100600  0.809000  1.0  -0.1289
  C  C135  1  0.531800  0.041900  0.789700  1.0  -0.0248
  C  C136  1  0.548800  0.018500  0.835700  1.0  -0.1152
  C  C137  1  0.559100  0.054500  0.904200  1.0  0.0745
  C  C138  1  0.549400  0.110100  0.920900  1.0  -0.1316
  C  C139  1  0.532200  0.134600  0.875200  1.0  -0.1106
  C  C140  1  0.572800  0.025600  0.953800  1.0  0.0244
  C  C141  1  0.541700  0.953900  0.929200  1.0  -0.1799
  C  C142  1  0.368100  0.745100  0.238200  1.0  0.7083
  C  C143  1  0.291600  0.714400  0.191000  1.0  -0.1342
  C  C144  1  0.252200  0.742100  0.210300  1.0  -0.0343
  C  C145  1  0.182800  0.713100  0.164300  1.0  -0.113
  C  C146  1  0.150300  0.654900  0.095800  1.0  0.0775
  C  C147  1  0.189200  0.628500  0.079100  1.0  -0.123
  C  C148  1  0.259400  0.657000  0.124800  1.0  -0.104
  C  C149  1  0.071800  0.619000  0.046200  1.0  0.0311
  C  C150  1  0.024700  0.612500  0.070800  1.0  -0.1835
  C  C151  1  0.631900  0.870100  0.377000  1.0  0.7128
  C  C152  1  0.708400  0.899400  0.422800  1.0  -0.131
  C  C153  1  0.747800  0.958100  0.489900  1.0  -0.0339
  C  C154  1  0.817200  0.981500  0.530300  1.0  -0.1148
  C  C155  1  0.849700  0.945500  0.504600  1.0  0.0797
  C  C156  1  0.810800  0.889900  0.439300  1.0  -0.1257
  C  C157  1  0.740600  0.865400  0.397600  1.0  -0.1125
  C  C158  1  0.928200  0.974400  0.547200  1.0  0.0361
  C  C159  1  0.975300  0.046100  0.587800  1.0  -0.1763
  C  C160  1  0.493100  0.254900  0.623000  1.0  0.7123
  C  C161  1  0.476600  0.285600  0.577200  1.0  -0.1354
  C  C162  1  0.468200  0.257900  0.510100  1.0  -0.0342
  C  C163  1  0.451200  0.286900  0.469700  1.0  -0.113
  C  C164  1  0.440900  0.345100  0.495400  1.0  0.0727
  C  C165  1  0.450600  0.371500  0.560700  1.0  -0.128
  C  C166  1  0.467800  0.343000  0.602400  1.0  -0.1112
  C  C167  1  0.427200  0.381000  0.452800  1.0  0.0231
  C  C168  1  0.458300  0.387500  0.412200  1.0  -0.1818
  C  C169  1  0.377000  0.631900  0.870100  1.0  0.7142
  C  C170  1  0.422800  0.708400  0.899400  1.0  -0.1325
  C  C171  1  0.489900  0.747800  0.958100  1.0  -0.0341
  C  C172  1  0.530300  0.817200  0.981500  1.0  -0.1175
  C  C173  1  0.504600  0.849700  0.945500  1.0  0.0781
  C  C174  1  0.439300  0.810800  0.889900  1.0  -0.1208
  C  C175  1  0.397600  0.740600  0.865400  1.0  -0.1066
  C  C176  1  0.547200  0.928200  0.974400  1.0  0.0295
  C  C177  1  0.587800  0.975300  0.046100  1.0  -0.1779
  C  C178  1  0.623000  0.493100  0.254900  1.0  0.711
  C  C179  1  0.577200  0.476600  0.285600  1.0  -0.13
  C  C180  1  0.510100  0.468200  0.257900  1.0  -0.025
  C  C181  1  0.469700  0.451200  0.286900  1.0  -0.1108
  C  C182  1  0.495400  0.440900  0.345100  1.0  0.0718
  C  C183  1  0.560700  0.450600  0.371500  1.0  -0.13
  C  C184  1  0.602400  0.467800  0.343000  1.0  -0.1071
  C  C185  1  0.452800  0.427200  0.381000  1.0  0.0231
  C  C186  1  0.412200  0.458300  0.387500  1.0  -0.1769
  C  C187  1  0.761800  0.506900  0.129900  1.0  0.7127
  C  C188  1  0.809000  0.523400  0.100600  1.0  -0.1333
  C  C189  1  0.789700  0.531800  0.041900  1.0  -0.0263
  C  C190  1  0.835700  0.548800  0.018500  1.0  -0.1175
  C  C191  1  0.904200  0.559100  0.054500  1.0  0.0726
  C  C192  1  0.920900  0.549400  0.110100  1.0  -0.1301
  C  C193  1  0.875200  0.532200  0.134600  1.0  -0.1094
  C  C194  1  0.953800  0.572800  0.025600  1.0  0.0268
  C  C195  1  0.929200  0.541700  0.953900  1.0  -0.1816
  C  C196  1  0.238200  0.368100  0.745100  1.0  0.7087
  C  C197  1  0.191000  0.291600  0.714400  1.0  -0.1323
  C  C198  1  0.210300  0.252200  0.742100  1.0  -0.0314
  C  C199  1  0.164300  0.182800  0.713100  1.0  -0.1124
  C  C200  1  0.095800  0.150300  0.654900  1.0  0.0808
  C  C201  1  0.079100  0.189200  0.628500  1.0  -0.1228
  C  C202  1  0.124800  0.259400  0.657000  1.0  -0.1062
  C  C203  1  0.046200  0.071800  0.619000  1.0  0.0311
  C  C204  1  0.070800  0.024700  0.612500  1.0  -0.182
  C  C205  1  0.745100  0.238200  0.368100  1.0  0.709
  C  C206  1  0.714400  0.191000  0.291600  1.0  -0.1362
  C  C207  1  0.742100  0.210300  0.252200  1.0  -0.033
  C  C208  1  0.713100  0.164300  0.182800  1.0  -0.1128
  C  C209  1  0.654900  0.095800  0.150300  1.0  0.077
  C  C210  1  0.628500  0.079100  0.189200  1.0  -0.1207
  C  C211  1  0.657000  0.124800  0.259400  1.0  -0.1066
  C  C212  1  0.619000  0.046200  0.071800  1.0  0.0256
  C  C213  1  0.612500  0.070800  0.024700  1.0  -0.1871
  C  C214  1  0.129900  0.761800  0.506900  1.0  0.7108
  C  C215  1  0.100600  0.809000  0.523400  1.0  -0.1329
  C  C216  1  0.041900  0.789700  0.531800  1.0  -0.0288
  C  C217  1  0.018500  0.835700  0.548800  1.0  -0.1167
  C  C218  1  0.054500  0.904200  0.559100  1.0  0.0756
  C  C219  1  0.110100  0.920900  0.549400  1.0  -0.1243
  C  C220  1  0.134600  0.875200  0.532200  1.0  -0.1074
  C  C221  1  0.025600  0.953800  0.572800  1.0  0.03
  C  C222  1  0.953900  0.929200  0.541700  1.0  -0.1794
  C  C223  1  0.254900  0.623000  0.493100  1.0  0.7115
  C  C224  1  0.285600  0.577200  0.476600  1.0  -0.1303
  C  C225  1  0.257900  0.510100  0.468200  1.0  -0.0326
  C  C226  1  0.286900  0.469700  0.451200  1.0  -0.113
  C  C227  1  0.345100  0.495400  0.440900  1.0  0.0724
  C  C228  1  0.371500  0.560700  0.450600  1.0  -0.1254
  C  C229  1  0.343000  0.602400  0.467800  1.0  -0.1114
  C  C230  1  0.381000  0.452800  0.427200  1.0  0.0213
  C  C231  1  0.387500  0.412200  0.458300  1.0  -0.1746
  C  C232  1  0.870100  0.377000  0.631900  1.0  0.7134
  C  C233  1  0.899400  0.422800  0.708400  1.0  -0.1325
  C  C234  1  0.958100  0.489900  0.747800  1.0  -0.0317
  C  C235  1  0.981500  0.530300  0.817200  1.0  -0.1186
  C  C236  1  0.945500  0.504600  0.849700  1.0  0.0755
  C  C237  1  0.889900  0.439300  0.810800  1.0  -0.1196
  C  C238  1  0.865400  0.397600  0.740600  1.0  -0.1082
  C  C239  1  0.974400  0.547200  0.928200  1.0  0.0331
  C  C240  1  0.046100  0.587800  0.975300  1.0  -0.1762
  C  C241  1  0.493100  0.870100  0.238200  1.0  0.7121
  C  C242  1  0.476600  0.899400  0.191000  1.0  -0.1299
  C  C243  1  0.468200  0.958100  0.210300  1.0  -0.0263
  C  C244  1  0.451200  0.981500  0.164300  1.0  -0.1153
  C  C245  1  0.440900  0.945500  0.095800  1.0  0.073
  C  C246  1  0.450600  0.889900  0.079100  1.0  -0.1335
  C  C247  1  0.467800  0.865400  0.124800  1.0  -0.1129
  C  C248  1  0.427200  0.974400  0.046200  1.0  0.0228
  C  C249  1  0.458300  0.046100  0.070800  1.0  -0.1825
  C  C250  1  0.631900  0.254900  0.761800  1.0  0.7081
  C  C251  1  0.708400  0.285600  0.809000  1.0  -0.1347
  C  C252  1  0.747800  0.257900  0.789700  1.0  -0.0351
  C  C253  1  0.817200  0.286900  0.835700  1.0  -0.1132
  C  C254  1  0.849700  0.345100  0.904200  1.0  0.0782
  C  C255  1  0.810800  0.371500  0.920900  1.0  -0.1244
  C  C256  1  0.740600  0.343000  0.875200  1.0  -0.1058
  C  C257  1  0.928200  0.381000  0.953800  1.0  0.0312
  C  C258  1  0.975300  0.387500  0.929200  1.0  -0.1849
  C  C259  1  0.368100  0.129900  0.623000  1.0  0.7131
  C  C260  1  0.291600  0.100600  0.577200  1.0  -0.1311
  C  C261  1  0.252200  0.041900  0.510100  1.0  -0.0325
  C  C262  1  0.182800  0.018500  0.469700  1.0  -0.118
  C  C263  1  0.150300  0.054500  0.495400  1.0  0.0809
  C  C264  1  0.189200  0.110100  0.560700  1.0  -0.1212
  C  C265  1  0.259400  0.134600  0.602400  1.0  -0.11
  C  C266  1  0.071800  0.025600  0.452800  1.0  0.0317
  C  C267  1  0.024700  0.953900  0.412200  1.0  -0.1759
  C  C268  1  0.506900  0.745100  0.377000  1.0  0.7119
  C  C269  1  0.523400  0.714400  0.422800  1.0  -0.1345
  C  C270  1  0.531800  0.742100  0.489900  1.0  -0.0331
  C  C271  1  0.548800  0.713100  0.530300  1.0  -0.1129
  C  C272  1  0.559100  0.654900  0.504600  1.0  0.0719
  C  C273  1  0.549400  0.628500  0.439300  1.0  -0.129
  C  C274  1  0.532200  0.657000  0.397600  1.0  -0.1101
  C  C275  1  0.572800  0.619000  0.547200  1.0  0.0223
  C  C276  1  0.541700  0.612500  0.587800  1.0  -0.1826
  C  C277  1  0.623000  0.368100  0.129900  1.0  0.7134
  C  C278  1  0.577200  0.291600  0.100600  1.0  -0.1307
  C  C279  1  0.510100  0.252200  0.041900  1.0  -0.0356
  C  C280  1  0.469700  0.182800  0.018500  1.0  -0.1163
  C  C281  1  0.495400  0.150300  0.054500  1.0  0.0765
  C  C282  1  0.560700  0.189200  0.110100  1.0  -0.1215
  C  C283  1  0.602400  0.259400  0.134600  1.0  -0.1055
  C  C284  1  0.452800  0.071800  0.025600  1.0  0.0322
  C  C285  1  0.412200  0.024700  0.953900  1.0  -0.1752
  C  C286  1  0.377000  0.506900  0.745100  1.0  0.7125
  C  C287  1  0.422800  0.523400  0.714400  1.0  -0.1299
  C  C288  1  0.489900  0.531800  0.742100  1.0  -0.0301
  C  C289  1  0.530300  0.548800  0.713100  1.0  -0.1091
  C  C290  1  0.504600  0.559100  0.654900  1.0  0.0731
  C  C291  1  0.439300  0.549400  0.628500  1.0  -0.1284
  C  C292  1  0.397600  0.532200  0.657000  1.0  -0.1102
  C  C293  1  0.547200  0.572800  0.619000  1.0  0.0217
  C  C294  1  0.587800  0.541700  0.612500  1.0  -0.179
  C  C295  1  0.238200  0.493100  0.870100  1.0  0.7116
  C  C296  1  0.191000  0.476600  0.899400  1.0  -0.1331
  C  C297  1  0.210300  0.468200  0.958100  1.0  -0.0255
  C  C298  1  0.164300  0.451200  0.981500  1.0  -0.1166
  C  C299  1  0.095800  0.440900  0.945500  1.0  0.0749
  C  C300  1  0.079100  0.450600  0.889900  1.0  -0.1295
  C  C301  1  0.124800  0.467800  0.865400  1.0  -0.1074
  C  C302  1  0.046200  0.427200  0.974400  1.0  0.0272
  C  C303  1  0.070800  0.458300  0.046100  1.0  -0.1802
  C  C304  1  0.761800  0.631900  0.254900  1.0  0.7084
  C  C305  1  0.809000  0.708400  0.285600  1.0  -0.1343
  C  C306  1  0.789700  0.747800  0.257900  1.0  -0.0311
  C  C307  1  0.835700  0.817200  0.286900  1.0  -0.1175
  C  C308  1  0.904200  0.849700  0.345100  1.0  0.0828
  C  C309  1  0.920900  0.810800  0.371500  1.0  -0.1238
  C  C310  1  0.875200  0.740600  0.343000  1.0  -0.1061
  C  C311  1  0.953800  0.928200  0.381000  1.0  0.0281
  C  C312  1  0.929200  0.975300  0.387500  1.0  -0.1848
  C  C313  1  0.254900  0.761800  0.631900  1.0  0.7095
  C  C314  1  0.285600  0.809000  0.708400  1.0  -0.1375
  C  C315  1  0.257900  0.789700  0.747800  1.0  -0.0322
  C  C316  1  0.286900  0.835700  0.817200  1.0  -0.1103
  C  C317  1  0.345100  0.904200  0.849700  1.0  0.0752
  C  C318  1  0.371500  0.920900  0.810800  1.0  -0.1227
  C  C319  1  0.343000  0.875200  0.740600  1.0  -0.1063
  C  C320  1  0.381000  0.953800  0.928200  1.0  0.0269
  C  C321  1  0.387500  0.929200  0.975300  1.0  -0.1855
  C  C322  1  0.870100  0.238200  0.493100  1.0  0.7114
  C  C323  1  0.899400  0.191000  0.476600  1.0  -0.1308
  C  C324  1  0.958100  0.210300  0.468200  1.0  -0.0271
  C  C325  1  0.981500  0.164300  0.451200  1.0  -0.1184
  C  C326  1  0.945500  0.095800  0.440900  1.0  0.077
  C  C327  1  0.889900  0.079100  0.450600  1.0  -0.1254
  C  C328  1  0.865400  0.124800  0.467800  1.0  -0.1101
  C  C329  1  0.974400  0.046200  0.427200  1.0  0.0266
  C  C330  1  0.046100  0.070800  0.458300  1.0  -0.1815
  C  C331  1  0.745100  0.377000  0.506900  1.0  0.7105
  C  C332  1  0.714400  0.422800  0.523400  1.0  -0.1305
  C  C333  1  0.742100  0.489900  0.531800  1.0  -0.0323
  C  C334  1  0.713100  0.530300  0.548800  1.0  -0.113
  C  C335  1  0.654900  0.504600  0.559100  1.0  0.0728
  C  C336  1  0.628500  0.439300  0.549400  1.0  -0.1225
  C  C337  1  0.657000  0.397600  0.532200  1.0  -0.1116
  C  C338  1  0.619000  0.547200  0.572800  1.0  0.0215
  C  C339  1  0.612500  0.587800  0.541700  1.0  -0.1777
  C  C340  1  0.129900  0.623000  0.368100  1.0  0.7134
  C  C341  1  0.100600  0.577200  0.291600  1.0  -0.1306
  C  C342  1  0.041900  0.510100  0.252200  1.0  -0.0353
  C  C343  1  0.018500  0.469700  0.182800  1.0  -0.119
  C  C344  1  0.054500  0.495400  0.150300  1.0  0.0777
  C  C345  1  0.110100  0.560700  0.189200  1.0  -0.1212
  C  C346  1  0.134600  0.602400  0.259400  1.0  -0.1072
  C  C347  1  0.025600  0.452800  0.071800  1.0  0.0313
  C  C348  1  0.953900  0.412200  0.024700  1.0  -0.1784
  O  O349  1  0.501520  0.099180  0.702360  1.0  -0.5816
  O  O350  1  0.501120  0.182530  0.783850  1.0  -0.5636
  O  O351  1  0.396820  0.799160  0.297640  1.0  -0.5836
  O  O352  1  0.398680  0.717270  0.216150  1.0  -0.5665
  O  O353  1  0.603180  0.900820  0.402340  1.0  -0.5834
  O  O354  1  0.601320  0.817470  0.318590  1.0  -0.5638
  O  O355  1  0.498480  0.200840  0.597660  1.0  -0.5811
  O  O356  1  0.498880  0.282730  0.681410  1.0  -0.5625
  O  O357  1  0.402340  0.603180  0.900820  1.0  -0.5814
  O  O358  1  0.318590  0.601320  0.817470  1.0  -0.5612
  O  O359  1  0.597660  0.498480  0.200840  1.0  -0.5809
  O  O360  1  0.681410  0.498880  0.282730  1.0  -0.5639
  O  O361  1  0.702360  0.501520  0.099180  1.0  -0.5808
  O  O362  1  0.783850  0.501120  0.182530  1.0  -0.5631
  O  O363  1  0.297640  0.396820  0.799160  1.0  -0.5807
  O  O364  1  0.216150  0.398680  0.717270  1.0  -0.5651
  O  O365  1  0.799160  0.297640  0.396820  1.0  -0.5815
  O  O366  1  0.717270  0.216150  0.398680  1.0  -0.5652
  O  O367  1  0.099180  0.702360  0.501520  1.0  -0.581
  O  O368  1  0.182530  0.783850  0.501120  1.0  -0.5649
  O  O369  1  0.200840  0.597660  0.498480  1.0  -0.5822
  O  O370  1  0.282730  0.681410  0.498880  1.0  -0.563
  O  O371  1  0.900820  0.402340  0.603180  1.0  -0.5826
  O  O372  1  0.817470  0.318590  0.601320  1.0  -0.5616
  O  O373  1  0.498480  0.900820  0.297640  1.0  -0.5821
  O  O374  1  0.498880  0.817470  0.216150  1.0  -0.5633
  O  O375  1  0.603180  0.200840  0.702360  1.0  -0.5826
  O  O376  1  0.601320  0.282730  0.783850  1.0  -0.5653
  O  O377  1  0.396820  0.099180  0.597660  1.0  -0.5844
  O  O378  1  0.398680  0.182530  0.681410  1.0  -0.5619
  O  O379  1  0.501520  0.799160  0.402340  1.0  -0.5819
  O  O380  1  0.501120  0.717270  0.318590  1.0  -0.5633
  O  O381  1  0.597660  0.396820  0.099180  1.0  -0.582
  O  O382  1  0.681410  0.398680  0.182530  1.0  -0.5613
  O  O383  1  0.402340  0.501520  0.799160  1.0  -0.5798
  O  O384  1  0.318590  0.501120  0.717270  1.0  -0.5617
  O  O385  1  0.297640  0.498480  0.900820  1.0  -0.5806
  O  O386  1  0.216150  0.498880  0.817470  1.0  -0.5631
  O  O387  1  0.702360  0.603180  0.200840  1.0  -0.5828
  O  O388  1  0.783850  0.601320  0.282730  1.0  -0.5642
  O  O389  1  0.200840  0.702360  0.603180  1.0  -0.5821
  O  O390  1  0.282730  0.783850  0.601320  1.0  -0.5652
  O  O391  1  0.900820  0.297640  0.498480  1.0  -0.5802
  O  O392  1  0.817470  0.216150  0.498880  1.0  -0.5628
  O  O393  1  0.799160  0.402340  0.501520  1.0  -0.5824
  O  O394  1  0.717270  0.318590  0.501120  1.0  -0.5629
  O  O395  1  0.099180  0.597660  0.396820  1.0  -0.584
  O  O396  1  0.182530  0.681410  0.398680  1.0  -0.5613
