# generated using pymatgen
data_K4U4C20I2N4O31
_symmetry_space_group_name_H-M   'P 1'
_cell_length_a   34.07400000
_cell_length_b   16.22110000
_cell_length_c   28.27800000
_cell_angle_alpha   90.00000000
_cell_angle_beta   124.74300000
_cell_angle_gamma   90.00000000
_symmetry_Int_Tables_number   1
_chemical_formula_structural   K4U4C20I2N4O31
_chemical_formula_sum   'K32 U32 C160 I16 N32 O248'
_cell_volume   12843.22690830
_cell_formula_units_Z   8
loop_
 _symmetry_equiv_pos_site_id
 _symmetry_equiv_pos_as_xyz
  1  'x, y, z'
loop_
 _atom_site_type_symbol
 _atom_site_label
 _atom_site_symmetry_multiplicity
 _atom_site_fract_x
 _atom_site_fract_y
 _atom_site_fract_z
 _atom_site_occupancy
 _atom_site_charge
  K  K1  1  0.158500  0.325920  0.937190  1.0  0.993
  K  K2  1  0.984130  0.287400  0.630930  1.0  1.0079
  K  K3  1  0.196860  0.296500  0.731570  1.0  1.0169
  K  K4  1  0.981730  0.538300  0.594600  1.0  1.012
  K  K5  1  0.658500  0.825920  0.937190  1.0  0.993
  K  K6  1  0.484130  0.787400  0.630930  1.0  1.0079
  K  K7  1  0.696860  0.796500  0.731570  1.0  1.0169
  K  K8  1  0.481730  0.038300  0.594600  1.0  1.012
  K  K9  1  0.841500  0.325920  0.562810  1.0  0.9948
  K  K10  1  0.015870  0.287400  0.869070  1.0  1.0086
  K  K11  1  0.803140  0.296500  0.768430  1.0  1.0166
  K  K12  1  0.018270  0.538300  0.905400  1.0  1.0097
  K  K13  1  0.341500  0.825920  0.562810  1.0  0.9948
  K  K14  1  0.515870  0.787400  0.869070  1.0  1.0086
  K  K15  1  0.303140  0.796500  0.768430  1.0  1.0166
  K  K16  1  0.518270  0.038300  0.905400  1.0  1.0097
  K  K17  1  0.841500  0.674080  0.062810  1.0  0.9946
  K  K18  1  0.015870  0.712600  0.369070  1.0  1.0086
  K  K19  1  0.803140  0.703500  0.268430  1.0  1.0165
  K  K20  1  0.018270  0.461700  0.405400  1.0  1.0099
  K  K21  1  0.341500  0.174080  0.062810  1.0  0.9946
  K  K22  1  0.515870  0.212600  0.369070  1.0  1.0086
  K  K23  1  0.303140  0.203500  0.268430  1.0  1.0165
  K  K24  1  0.518270  0.961700  0.405400  1.0  1.0099
  K  K25  1  0.158500  0.674080  0.437190  1.0  0.993
  K  K26  1  0.984130  0.712600  0.130930  1.0  1.009
  K  K27  1  0.196860  0.703500  0.231570  1.0  1.0171
  K  K28  1  0.981730  0.461700  0.094600  1.0  1.0118
  K  K29  1  0.658500  0.174080  0.437190  1.0  0.993
  K  K30  1  0.484130  0.212600  0.130930  1.0  1.009
  K  K31  1  0.696860  0.203500  0.231570  1.0  1.0171
  K  K32  1  0.481730  0.961700  0.094600  1.0  1.0118
  U  U33  1  0.056240  0.271840  0.561290  1.0  2.3158
  U  U34  1  0.274330  0.379830  0.912340  1.0  2.238
  U  U35  1  0.208660  0.143990  0.862250  1.0  2.2105
  U  U36  1  0.119780  0.503860  0.611150  1.0  2.2878
  U  U37  1  0.556240  0.771840  0.561290  1.0  2.3158
  U  U38  1  0.774330  0.879830  0.912340  1.0  2.238
  U  U39  1  0.708660  0.643990  0.862250  1.0  2.2105
  U  U40  1  0.619780  0.003860  0.611150  1.0  2.2878
  U  U41  1  0.943760  0.271840  0.938710  1.0  2.3171
  U  U42  1  0.725670  0.379830  0.587660  1.0  2.2373
  U  U43  1  0.791340  0.143990  0.637750  1.0  2.2119
  U  U44  1  0.880220  0.503860  0.888850  1.0  2.2913
  U  U45  1  0.443760  0.771840  0.938710  1.0  2.3171
  U  U46  1  0.225670  0.879830  0.587660  1.0  2.2373
  U  U47  1  0.291340  0.643990  0.637750  1.0  2.2119
  U  U48  1  0.380220  0.003860  0.888850  1.0  2.2913
  U  U49  1  0.943760  0.728160  0.438710  1.0  2.3139
  U  U50  1  0.725670  0.620170  0.087660  1.0  2.2368
  U  U51  1  0.791340  0.856010  0.137750  1.0  2.2137
  U  U52  1  0.880220  0.496140  0.388850  1.0  2.2905
  U  U53  1  0.443760  0.228160  0.438710  1.0  2.3139
  U  U54  1  0.225670  0.120170  0.087660  1.0  2.2368
  U  U55  1  0.291340  0.356010  0.137750  1.0  2.2137
  U  U56  1  0.380220  0.996140  0.388850  1.0  2.2905
  U  U57  1  0.056240  0.728160  0.061290  1.0  2.3121
  U  U58  1  0.274330  0.620170  0.412340  1.0  2.2377
  U  U59  1  0.208660  0.856010  0.362250  1.0  2.2129
  U  U60  1  0.119780  0.496140  0.111150  1.0  2.2868
  U  U61  1  0.556240  0.228160  0.061290  1.0  2.3121
  U  U62  1  0.774330  0.120170  0.412340  1.0  2.2377
  U  U63  1  0.708660  0.356010  0.362250  1.0  2.2129
  U  U64  1  0.619780  0.996140  0.111150  1.0  2.2868
  C  C65  1  0.999600  0.097400  0.557000  1.0  0.734
  C  C66  1  0.872700  0.340000  0.462800  1.0  0.0158
  C  C67  1  0.285100  0.020800  0.970700  1.0  0.7807
  C  C68  1  0.926300  0.306000  0.433300  1.0  -0.0091
  C  C69  1  0.838700  0.296800  0.365700  1.0  0.0254
  C  C70  1  0.934800  0.217000  0.456100  1.0  0.0314
  C  C71  1  0.987500  0.099200  0.494000  1.0  0.0145
  C  C72  1  0.905100  0.404900  0.506500  1.0  0.7335
  C  C73  1  0.126600  0.146700  0.955200  1.0  0.7248
  C  C74  1  0.987300  0.182100  0.425200  1.0  0.0256
  C  C75  1  0.005300  0.264600  0.419300  1.0  0.759
  C  C76  1  0.252000  0.955200  0.930300  1.0  0.0134
  C  C77  1  0.121200  0.054100  0.962500  1.0  0.0143
  C  C78  1  0.197500  0.017000  0.971900  1.0  -0.0383
  C  C79  1  0.837100  0.324400  0.312500  1.0  0.7226
  C  C80  1  0.177100  0.941100  0.835800  1.0  0.0036
  C  C81  1  0.165200  0.937100  0.019100  1.0  -0.0119
  C  C82  1  0.213800  0.914700  0.076100  1.0  0.7309
  C  C83  1  0.173000  0.972300  0.913000  1.0  0.0575
  C  C84  1  0.132500  0.989900  0.791500  1.0  0.6903
  C  C85  1  0.499600  0.597400  0.557000  1.0  0.734
  C  C86  1  0.372700  0.840000  0.462800  1.0  0.0158
  C  C87  1  0.785100  0.520800  0.970700  1.0  0.7807
  C  C88  1  0.426300  0.806000  0.433300  1.0  -0.0091
  C  C89  1  0.338700  0.796800  0.365700  1.0  0.0254
  C  C90  1  0.434800  0.717000  0.456100  1.0  0.0314
  C  C91  1  0.487500  0.599200  0.494000  1.0  0.0145
  C  C92  1  0.405100  0.904900  0.506500  1.0  0.7335
  C  C93  1  0.626600  0.646700  0.955200  1.0  0.7248
  C  C94  1  0.487300  0.682100  0.425200  1.0  0.0256
  C  C95  1  0.505300  0.764600  0.419300  1.0  0.759
  C  C96  1  0.752000  0.455200  0.930300  1.0  0.0134
  C  C97  1  0.621200  0.554100  0.962500  1.0  0.0143
  C  C98  1  0.697500  0.517000  0.971900  1.0  -0.0383
  C  C99  1  0.337100  0.824400  0.312500  1.0  0.7226
  C  C100  1  0.677100  0.441100  0.835800  1.0  0.0036
  C  C101  1  0.665200  0.437100  0.019100  1.0  -0.0119
  C  C102  1  0.713800  0.414700  0.076100  1.0  0.7309
  C  C103  1  0.673000  0.472300  0.913000  1.0  0.0575
  C  C104  1  0.632500  0.489900  0.791500  1.0  0.6903
  C  C105  1  0.000400  0.097400  0.943000  1.0  0.7336
  C  C106  1  0.127300  0.340000  0.037200  1.0  0.0188
  C  C107  1  0.714900  0.020800  0.529300  1.0  0.7808
  C  C108  1  0.073700  0.306000  0.066700  1.0  -0.0118
  C  C109  1  0.161300  0.296800  0.134300  1.0  0.0265
  C  C110  1  0.065200  0.217000  0.043900  1.0  0.0332
  C  C111  1  0.012500  0.099200  0.006000  1.0  0.0099
  C  C112  1  0.094900  0.404900  0.993500  1.0  0.7338
  C  C113  1  0.873400  0.146700  0.544800  1.0  0.7247
  C  C114  1  0.012700  0.182100  0.074800  1.0  0.0222
  C  C115  1  0.994700  0.264600  0.080700  1.0  0.7617
  C  C116  1  0.748000  0.955200  0.569700  1.0  0.0107
  C  C117  1  0.878800  0.054100  0.537500  1.0  0.0139
  C  C118  1  0.802500  0.017000  0.528100  1.0  -0.0389
  C  C119  1  0.162900  0.324400  0.187500  1.0  0.7231
  C  C120  1  0.822900  0.941100  0.664200  1.0  -0.0
  C  C121  1  0.834800  0.937100  0.480900  1.0  -0.0122
  C  C122  1  0.786200  0.914700  0.423900  1.0  0.7276
  C  C123  1  0.827000  0.972300  0.587000  1.0  0.0597
  C  C124  1  0.867500  0.989900  0.708500  1.0  0.6924
  C  C125  1  0.500400  0.597400  0.943000  1.0  0.7336
  C  C126  1  0.627300  0.840000  0.037200  1.0  0.0188
  C  C127  1  0.214900  0.520800  0.529300  1.0  0.7808
  C  C128  1  0.573700  0.806000  0.066700  1.0  -0.0118
  C  C129  1  0.661300  0.796800  0.134300  1.0  0.0265
  C  C130  1  0.565200  0.717000  0.043900  1.0  0.0332
  C  C131  1  0.512500  0.599200  0.006000  1.0  0.0099
  C  C132  1  0.594900  0.904900  0.993500  1.0  0.7338
  C  C133  1  0.373400  0.646700  0.544800  1.0  0.7247
  C  C134  1  0.512700  0.682100  0.074800  1.0  0.0222
  C  C135  1  0.494700  0.764600  0.080700  1.0  0.7617
  C  C136  1  0.248000  0.455200  0.569700  1.0  0.0107
  C  C137  1  0.378800  0.554100  0.537500  1.0  0.0139
  C  C138  1  0.302500  0.517000  0.528100  1.0  -0.0389
  C  C139  1  0.662900  0.824400  0.187500  1.0  0.7231
  C  C140  1  0.322900  0.441100  0.664200  1.0  -0.0
  C  C141  1  0.334800  0.437100  0.480900  1.0  -0.0122
  C  C142  1  0.286200  0.414700  0.423900  1.0  0.7276
  C  C143  1  0.327000  0.472300  0.587000  1.0  0.0597
  C  C144  1  0.367500  0.489900  0.708500  1.0  0.6924
  C  C145  1  0.000400  0.902600  0.443000  1.0  0.7326
  C  C146  1  0.127300  0.660000  0.537200  1.0  0.019
  C  C147  1  0.714900  0.979200  0.029300  1.0  0.7825
  C  C148  1  0.073700  0.694000  0.566700  1.0  -0.0123
  C  C149  1  0.161300  0.703200  0.634300  1.0  0.0262
  C  C150  1  0.065200  0.783000  0.543900  1.0  0.0331
  C  C151  1  0.012500  0.900800  0.506000  1.0  0.011
  C  C152  1  0.094900  0.595100  0.493500  1.0  0.734
  C  C153  1  0.873400  0.853300  0.044800  1.0  0.7257
  C  C154  1  0.012700  0.817900  0.574800  1.0  0.0251
  C  C155  1  0.994700  0.735400  0.580700  1.0  0.7611
  C  C156  1  0.748000  0.044800  0.069700  1.0  0.0115
  C  C157  1  0.878800  0.945900  0.037500  1.0  0.0134
  C  C158  1  0.802500  0.983000  0.028100  1.0  -0.0394
  C  C159  1  0.162900  0.675600  0.687500  1.0  0.7227
  C  C160  1  0.822900  0.058900  0.164200  1.0  0.0043
  C  C161  1  0.834800  0.062900  0.980900  1.0  -0.0129
  C  C162  1  0.786200  0.085300  0.923900  1.0  0.7278
  C  C163  1  0.827000  0.027700  0.087000  1.0  0.0592
  C  C164  1  0.867500  0.010100  0.208500  1.0  0.6931
  C  C165  1  0.500400  0.402600  0.443000  1.0  0.7326
  C  C166  1  0.627300  0.160000  0.537200  1.0  0.019
  C  C167  1  0.214900  0.479200  0.029300  1.0  0.7825
  C  C168  1  0.573700  0.194000  0.566700  1.0  -0.0123
  C  C169  1  0.661300  0.203200  0.634300  1.0  0.0262
  C  C170  1  0.565200  0.283000  0.543900  1.0  0.0331
  C  C171  1  0.512500  0.400800  0.506000  1.0  0.011
  C  C172  1  0.594900  0.095100  0.493500  1.0  0.734
  C  C173  1  0.373400  0.353300  0.044800  1.0  0.7257
  C  C174  1  0.512700  0.317900  0.574800  1.0  0.0251
  C  C175  1  0.494700  0.235400  0.580700  1.0  0.7611
  C  C176  1  0.248000  0.544800  0.069700  1.0  0.0115
  C  C177  1  0.378800  0.445900  0.037500  1.0  0.0134
  C  C178  1  0.302500  0.483000  0.028100  1.0  -0.0394
  C  C179  1  0.662900  0.175600  0.687500  1.0  0.7227
  C  C180  1  0.322900  0.558900  0.164200  1.0  0.0043
  C  C181  1  0.334800  0.562900  0.980900  1.0  -0.0129
  C  C182  1  0.286200  0.585300  0.923900  1.0  0.7278
  C  C183  1  0.327000  0.527700  0.087000  1.0  0.0592
  C  C184  1  0.367500  0.510100  0.208500  1.0  0.6931
  C  C185  1  0.999600  0.902600  0.057000  1.0  0.7327
  C  C186  1  0.872700  0.660000  0.962800  1.0  0.0149
  C  C187  1  0.285100  0.979200  0.470700  1.0  0.7826
  C  C188  1  0.926300  0.694000  0.933300  1.0  -0.0098
  C  C189  1  0.838700  0.703200  0.865700  1.0  0.026
  C  C190  1  0.934800  0.783000  0.956100  1.0  0.0305
  C  C191  1  0.987500  0.900800  0.994000  1.0  0.0152
  C  C192  1  0.905100  0.595100  0.006500  1.0  0.7341
  C  C193  1  0.126600  0.853300  0.455200  1.0  0.7256
  C  C194  1  0.987300  0.817900  0.925200  1.0  0.0249
  C  C195  1  0.005300  0.735400  0.919300  1.0  0.7594
  C  C196  1  0.252000  0.044800  0.430300  1.0  0.013
  C  C197  1  0.121200  0.945900  0.462500  1.0  0.0153
  C  C198  1  0.197500  0.983000  0.471900  1.0  -0.0392
  C  C199  1  0.837100  0.675600  0.812500  1.0  0.7231
  C  C200  1  0.177100  0.058900  0.335800  1.0  0.0056
  C  C201  1  0.165200  0.062900  0.519100  1.0  -0.0108
  C  C202  1  0.213800  0.085300  0.576100  1.0  0.7298
  C  C203  1  0.173000  0.027700  0.413000  1.0  0.0577
  C  C204  1  0.132500  0.010100  0.291500  1.0  0.6913
  C  C205  1  0.499600  0.402600  0.057000  1.0  0.7327
  C  C206  1  0.372700  0.160000  0.962800  1.0  0.0149
  C  C207  1  0.785100  0.479200  0.470700  1.0  0.7826
  C  C208  1  0.426300  0.194000  0.933300  1.0  -0.0098
  C  C209  1  0.338700  0.203200  0.865700  1.0  0.026
  C  C210  1  0.434800  0.283000  0.956100  1.0  0.0305
  C  C211  1  0.487500  0.400800  0.994000  1.0  0.0152
  C  C212  1  0.405100  0.095100  0.006500  1.0  0.7341
  C  C213  1  0.626600  0.353300  0.455200  1.0  0.7256
  C  C214  1  0.487300  0.317900  0.925200  1.0  0.0249
  C  C215  1  0.505300  0.235400  0.919300  1.0  0.7594
  C  C216  1  0.752000  0.544800  0.430300  1.0  0.013
  C  C217  1  0.621200  0.445900  0.462500  1.0  0.0153
  C  C218  1  0.697500  0.483000  0.471900  1.0  -0.0392
  C  C219  1  0.337100  0.175600  0.812500  1.0  0.7231
  C  C220  1  0.677100  0.558900  0.335800  1.0  0.0056
  C  C221  1  0.665200  0.562900  0.519100  1.0  -0.0108
  C  C222  1  0.713800  0.585300  0.576100  1.0  0.7298
  C  C223  1  0.673000  0.527700  0.413000  1.0  0.0577
  C  C224  1  0.632500  0.510100  0.291500  1.0  0.6913
  I  I225  1  0.098000  0.171830  0.707520  1.0  0.1388
  I  I226  1  0.185180  0.506410  0.775070  1.0  0.1311
  I  I227  1  0.598000  0.671830  0.707520  1.0  0.1388
  I  I228  1  0.685180  0.006410  0.775070  1.0  0.1306
  I  I229  1  0.902000  0.171830  0.792480  1.0  0.1382
  I  I230  1  0.814820  0.506410  0.724930  1.0  0.1289
  I  I231  1  0.402000  0.671830  0.792480  1.0  0.1382
  I  I232  1  0.314820  0.006410  0.724930  1.0  0.1284
  I  I233  1  0.902000  0.828170  0.292480  1.0  0.1371
  I  I234  1  0.814820  0.493590  0.224930  1.0  0.1254
  I  I235  1  0.402000  0.328170  0.292480  1.0  0.1371
  I  I236  1  0.314820  0.993590  0.224930  1.0  0.1254
  I  I237  1  0.098000  0.828170  0.207520  1.0  0.1379
  I  I238  1  0.185180  0.493590  0.275070  1.0  0.1281
  I  I239  1  0.598000  0.328170  0.207520  1.0  0.1379
  I  I240  1  0.685180  0.993590  0.275070  1.0  0.1281
  N  N241  1  0.983000  0.185400  0.474200  1.0  -0.0462
  N  N242  1  0.169700  0.015700  0.000000  1.0  -0.0218
  N  N243  1  0.202400  0.989600  0.890400  1.0  -0.0636
  N  N244  1  0.879200  0.339100  0.415800  1.0  -0.0359
  N  N245  1  0.483000  0.685400  0.474200  1.0  -0.0462
  N  N246  1  0.669700  0.515700  0.000000  1.0  -0.0218
  N  N247  1  0.702400  0.489600  0.890400  1.0  -0.0636
  N  N248  1  0.379200  0.839100  0.415800  1.0  -0.0359
  N  N249  1  0.017000  0.185400  0.025800  1.0  -0.045
  N  N250  1  0.830300  0.015700  0.500000  1.0  -0.0216
  N  N251  1  0.797600  0.989600  0.609600  1.0  -0.0625
  N  N252  1  0.120800  0.339100  0.084200  1.0  -0.0359
  N  N253  1  0.517000  0.685400  0.025800  1.0  -0.045
  N  N254  1  0.330300  0.515700  0.500000  1.0  -0.0216
  N  N255  1  0.297600  0.489600  0.609600  1.0  -0.0625
  N  N256  1  0.620800  0.839100  0.084200  1.0  -0.0359
  N  N257  1  0.017000  0.814600  0.525800  1.0  -0.046
  N  N258  1  0.830300  0.984300  0.000000  1.0  -0.0217
  N  N259  1  0.797600  0.010400  0.109600  1.0  -0.0651
  N  N260  1  0.120800  0.660900  0.584200  1.0  -0.0357
  N  N261  1  0.517000  0.314600  0.525800  1.0  -0.046
  N  N262  1  0.330300  0.484300  0.000000  1.0  -0.0217
  N  N263  1  0.297600  0.510400  0.109600  1.0  -0.0651
  N  N264  1  0.620800  0.160900  0.584200  1.0  -0.0357
  N  N265  1  0.983000  0.814600  0.974200  1.0  -0.0474
  N  N266  1  0.169700  0.984300  0.500000  1.0  -0.0227
  N  N267  1  0.202400  0.010400  0.390400  1.0  -0.0654
  N  N268  1  0.879200  0.660900  0.915800  1.0  -0.0355
  N  N269  1  0.483000  0.314600  0.974200  1.0  -0.0474
  N  N270  1  0.669700  0.484300  0.500000  1.0  -0.0227
  N  N271  1  0.702400  0.510400  0.390400  1.0  -0.0654
  N  N272  1  0.379200  0.160900  0.915800  1.0  -0.0355
  O  O273  1  0.015000  0.340700  0.559600  1.0  -0.7068
  O  O274  1  0.099600  0.380100  0.556400  1.0  -0.7229
  O  O275  1  0.150300  0.213700  0.772500  1.0  -0.7365
  O  O276  1  0.121400  0.358600  0.617700  1.0  -0.7459
  O  O277  1  0.272900  0.235000  0.908300  1.0  -0.7625
  O  O278  1  0.028300  0.311300  0.463800  1.0  -0.6352
  O  O279  1  0.062700  0.511600  0.597900  1.0  -0.7223
  O  O280  1  0.238000  0.267900  0.850000  1.0  -0.7825
  O  O281  1  0.165600  0.180700  0.995300  1.0  -0.6596
  O  O282  1  0.918300  0.397400  0.558300  1.0  -0.6288
  O  O283  1  0.020700  0.164200  0.586800  1.0  -0.6169
  O  O284  1  0.916300  0.467300  0.488500  1.0  -0.6325
  O  O285  1  0.855400  0.389600  0.314800  1.0  -0.4932
  O  O286  1  0.092100  0.258500  0.663800  1.0  -0.7064
  O  O287  1  0.052600  0.197600  0.718700  1.0  -0.6706
  O  O288  1  0.231500  0.379200  0.929200  1.0  -0.8006
  O  O289  1  0.273000  0.095200  0.955000  1.0  -0.6606
  O  O290  1  0.133700  0.066700  0.797700  1.0  -0.5251
  O  O291  1  0.322200  0.001700  0.017700  1.0  -0.5377
  O  O292  1  0.092100  0.184900  0.913900  1.0  -0.6197
  O  O293  1  0.153000  0.452700  0.707300  1.0  -0.7154
  O  O294  1  0.243000  0.971200  0.104100  1.0  -0.5836
  O  O295  1  0.989200  0.038000  0.573200  1.0  -0.3783
  O  O296  1  0.216100  0.413800  0.813500  1.0  -0.737
  O  O297  1  0.180500  0.188900  0.893500  1.0  -0.7911
  O  O298  1  0.140200  0.508500  0.788600  1.0  -0.4396
  O  O299  1  0.998400  0.284000  0.373900  1.0  -0.4784
  O  O300  1  0.815000  0.274400  0.268500  1.0  -0.3944
  O  O301  1  0.220500  0.839000  0.087700  1.0  -0.3973
  O  O302  1  0.099300  0.949500  0.744600  1.0  -0.4015
  O  O303  1  0.048000  0.418900  0.684000  1.0  -0.5139
  O  O304  1  0.515000  0.840700  0.559600  1.0  -0.7068
  O  O305  1  0.599600  0.880100  0.556400  1.0  -0.7229
  O  O306  1  0.650300  0.713700  0.772500  1.0  -0.7365
  O  O307  1  0.621400  0.858600  0.617700  1.0  -0.7459
  O  O308  1  0.772900  0.735000  0.908300  1.0  -0.7625
  O  O309  1  0.528300  0.811300  0.463800  1.0  -0.6352
  O  O310  1  0.562700  0.011600  0.597900  1.0  -0.7223
  O  O311  1  0.738000  0.767900  0.850000  1.0  -0.7825
  O  O312  1  0.665600  0.680700  0.995300  1.0  -0.6596
  O  O313  1  0.418300  0.897400  0.558300  1.0  -0.6288
  O  O314  1  0.520700  0.664200  0.586800  1.0  -0.6169
  O  O315  1  0.416300  0.967300  0.488500  1.0  -0.6325
  O  O316  1  0.355400  0.889600  0.314800  1.0  -0.4932
  O  O317  1  0.592100  0.758500  0.663800  1.0  -0.7064
  O  O318  1  0.552600  0.697600  0.718700  1.0  -0.6706
  O  O319  1  0.731500  0.879200  0.929200  1.0  -0.8006
  O  O320  1  0.773000  0.595200  0.955000  1.0  -0.6606
  O  O321  1  0.633700  0.566700  0.797700  1.0  -0.5251
  O  O322  1  0.822200  0.501700  0.017700  1.0  -0.5377
  O  O323  1  0.592100  0.684900  0.913900  1.0  -0.6197
  O  O324  1  0.653000  0.952700  0.707300  1.0  -0.7154
  O  O325  1  0.743000  0.471200  0.104100  1.0  -0.5836
  O  O326  1  0.489200  0.538000  0.573200  1.0  -0.3783
  O  O327  1  0.716100  0.913800  0.813500  1.0  -0.737
  O  O328  1  0.680500  0.688900  0.893500  1.0  -0.7911
  O  O329  1  0.640200  0.008500  0.788600  1.0  -0.4396
  O  O330  1  0.498400  0.784000  0.373900  1.0  -0.4784
  O  O331  1  0.315000  0.774400  0.268500  1.0  -0.3944
  O  O332  1  0.720500  0.339000  0.087700  1.0  -0.3966
  O  O333  1  0.599300  0.449500  0.744600  1.0  -0.4015
  O  O334  1  0.548000  0.918900  0.684000  1.0  -0.5139
  O  O335  1  0.985000  0.340700  0.940400  1.0  -0.707
  O  O336  1  0.900400  0.380100  0.943600  1.0  -0.7253
  O  O337  1  0.849700  0.213700  0.727500  1.0  -0.7369
  O  O338  1  0.878600  0.358600  0.882300  1.0  -0.7424
  O  O339  1  0.727100  0.235000  0.591700  1.0  -0.7632
  O  O340  1  0.971700  0.311300  0.036200  1.0  -0.6331
  O  O341  1  0.937300  0.511600  0.902100  1.0  -0.7212
  O  O342  1  0.762000  0.267900  0.650000  1.0  -0.7823
  O  O343  1  0.834400  0.180700  0.504700  1.0  -0.6589
  O  O344  1  0.081700  0.397400  0.941700  1.0  -0.6292
  O  O345  1  0.979300  0.164200  0.913200  1.0  -0.616
  O  O346  1  0.083700  0.467300  0.011500  1.0  -0.6353
  O  O347  1  0.144600  0.389600  0.185200  1.0  -0.4927
  O  O348  1  0.907900  0.258500  0.836200  1.0  -0.7055
  O  O349  1  0.947400  0.197600  0.781300  1.0  -0.6679
  O  O350  1  0.768500  0.379200  0.570800  1.0  -0.8025
  O  O351  1  0.727000  0.095200  0.545000  1.0  -0.6618
  O  O352  1  0.866300  0.066700  0.702300  1.0  -0.5232
  O  O353  1  0.677800  0.001700  0.482300  1.0  -0.5386
  O  O354  1  0.907900  0.184900  0.586100  1.0  -0.6193
  O  O355  1  0.847000  0.452700  0.792700  1.0  -0.7148
  O  O356  1  0.757000  0.971200  0.395900  1.0  -0.5847
  O  O357  1  0.010800  0.038000  0.926800  1.0  -0.382
  O  O358  1  0.783900  0.413800  0.686500  1.0  -0.7358
  O  O359  1  0.819500  0.188900  0.606500  1.0  -0.7893
  O  O360  1  0.859800  0.508500  0.711400  1.0  -0.4384
  O  O361  1  0.001600  0.284000  0.126100  1.0  -0.4826
  O  O362  1  0.185000  0.274400  0.231500  1.0  -0.3939
  O  O363  1  0.779500  0.839000  0.412300  1.0  -0.3971
  O  O364  1  0.900700  0.949500  0.755400  1.0  -0.3992
  O  O365  1  0.952000  0.418900  0.816000  1.0  -0.5113
  O  O366  1  0.485000  0.840700  0.940400  1.0  -0.707
  O  O367  1  0.400400  0.880100  0.943600  1.0  -0.7253
  O  O368  1  0.349700  0.713700  0.727500  1.0  -0.7369
  O  O369  1  0.378600  0.858600  0.882300  1.0  -0.7424
  O  O370  1  0.227100  0.735000  0.591700  1.0  -0.7632
  O  O371  1  0.471700  0.811300  0.036200  1.0  -0.6331
  O  O372  1  0.437300  0.011600  0.902100  1.0  -0.7212
  O  O373  1  0.262000  0.767900  0.650000  1.0  -0.7823
  O  O374  1  0.334400  0.680700  0.504700  1.0  -0.6589
  O  O375  1  0.581700  0.897400  0.941700  1.0  -0.6292
  O  O376  1  0.479300  0.664200  0.913200  1.0  -0.616
  O  O377  1  0.583700  0.967300  0.011500  1.0  -0.6353
  O  O378  1  0.644600  0.889600  0.185200  1.0  -0.4927
  O  O379  1  0.407900  0.758500  0.836200  1.0  -0.7055
  O  O380  1  0.447400  0.697600  0.781300  1.0  -0.6679
  O  O381  1  0.268500  0.879200  0.570800  1.0  -0.8025
  O  O382  1  0.227000  0.595200  0.545000  1.0  -0.6618
  O  O383  1  0.366300  0.566700  0.702300  1.0  -0.5232
  O  O384  1  0.177800  0.501700  0.482300  1.0  -0.5386
  O  O385  1  0.407900  0.684900  0.586100  1.0  -0.6193
  O  O386  1  0.347000  0.952700  0.792700  1.0  -0.7148
  O  O387  1  0.257000  0.471200  0.395900  1.0  -0.5847
  O  O388  1  0.510800  0.538000  0.926800  1.0  -0.382
  O  O389  1  0.283900  0.913800  0.686500  1.0  -0.7358
  O  O390  1  0.319500  0.688900  0.606500  1.0  -0.7893
  O  O391  1  0.359800  0.008500  0.711400  1.0  -0.4384
  O  O392  1  0.501600  0.784000  0.126100  1.0  -0.4826
  O  O393  1  0.685000  0.774400  0.231500  1.0  -0.3939
  O  O394  1  0.279500  0.339000  0.412300  1.0  -0.3964
  O  O395  1  0.400700  0.449500  0.755400  1.0  -0.3992
  O  O396  1  0.452000  0.918900  0.816000  1.0  -0.5113
  O  O397  1  0.985000  0.659300  0.440400  1.0  -0.7083
  O  O398  1  0.900400  0.619900  0.443600  1.0  -0.7253
  O  O399  1  0.849700  0.786300  0.227500  1.0  -0.7373
  O  O400  1  0.878600  0.641400  0.382300  1.0  -0.742
  O  O401  1  0.727100  0.765000  0.091700  1.0  -0.763
  O  O402  1  0.971700  0.688700  0.536200  1.0  -0.6321
  O  O403  1  0.937300  0.488400  0.402100  1.0  -0.7218
  O  O404  1  0.762000  0.732100  0.150000  1.0  -0.7827
  O  O405  1  0.834400  0.819300  0.004700  1.0  -0.658
  O  O406  1  0.081700  0.602600  0.441700  1.0  -0.6317
  O  O407  1  0.979300  0.835800  0.413200  1.0  -0.6172
  O  O408  1  0.083700  0.532700  0.511500  1.0  -0.6353
  O  O409  1  0.144600  0.610400  0.685200  1.0  -0.4927
  O  O410  1  0.907900  0.741500  0.336200  1.0  -0.7052
  O  O411  1  0.947400  0.802400  0.281300  1.0  -0.6681
  O  O412  1  0.768500  0.620800  0.070800  1.0  -0.8026
  O  O413  1  0.727000  0.904800  0.045000  1.0  -0.6619
  O  O414  1  0.866300  0.933300  0.202300  1.0  -0.5236
  O  O415  1  0.677800  0.998300  0.982300  1.0  -0.5385
  O  O416  1  0.907900  0.815100  0.086100  1.0  -0.6193
  O  O417  1  0.847000  0.547300  0.292700  1.0  -0.7142
  O  O418  1  0.757000  0.028800  0.895900  1.0  -0.5841
  O  O419  1  0.010800  0.962000  0.426800  1.0  -0.3836
  O  O420  1  0.783900  0.586200  0.186500  1.0  -0.7364
  O  O421  1  0.819500  0.811100  0.106500  1.0  -0.7893
  O  O422  1  0.859800  0.491500  0.211400  1.0  -0.4379
  O  O423  1  0.001600  0.716000  0.626100  1.0  -0.4819
  O  O424  1  0.185000  0.725600  0.731500  1.0  -0.3946
  O  O425  1  0.779500  0.161000  0.912300  1.0  -0.3999
  O  O426  1  0.900700  0.050500  0.255400  1.0  -0.4001
  O  O427  1  0.952000  0.581100  0.316000  1.0  -0.5111
  O  O428  1  0.485000  0.159300  0.440400  1.0  -0.7083
  O  O429  1  0.400400  0.119900  0.443600  1.0  -0.7253
  O  O430  1  0.349700  0.286300  0.227500  1.0  -0.7373
  O  O431  1  0.378600  0.141400  0.382300  1.0  -0.742
  O  O432  1  0.227100  0.265000  0.091700  1.0  -0.763
  O  O433  1  0.471700  0.188700  0.536200  1.0  -0.6321
  O  O434  1  0.437300  0.988400  0.402100  1.0  -0.7218
  O  O435  1  0.262000  0.232100  0.150000  1.0  -0.7827
  O  O436  1  0.334400  0.319300  0.004700  1.0  -0.658
  O  O437  1  0.581700  0.102600  0.441700  1.0  -0.6317
  O  O438  1  0.479300  0.335800  0.413200  1.0  -0.6172
  O  O439  1  0.583700  0.032700  0.511500  1.0  -0.6353
  O  O440  1  0.644600  0.110400  0.685200  1.0  -0.4927
  O  O441  1  0.407900  0.241500  0.336200  1.0  -0.7052
  O  O442  1  0.447400  0.302400  0.281300  1.0  -0.6681
  O  O443  1  0.268500  0.120800  0.070800  1.0  -0.8026
  O  O444  1  0.227000  0.404800  0.045000  1.0  -0.6619
  O  O445  1  0.366300  0.433300  0.202300  1.0  -0.5236
  O  O446  1  0.177800  0.498300  0.982300  1.0  -0.5385
  O  O447  1  0.407900  0.315100  0.086100  1.0  -0.6193
  O  O448  1  0.347000  0.047300  0.292700  1.0  -0.7142
  O  O449  1  0.257000  0.528800  0.895900  1.0  -0.5841
  O  O450  1  0.510800  0.462000  0.426800  1.0  -0.3836
  O  O451  1  0.283900  0.086200  0.186500  1.0  -0.7364
  O  O452  1  0.319500  0.311100  0.106500  1.0  -0.7893
  O  O453  1  0.359800  0.991500  0.211400  1.0  -0.4379
  O  O454  1  0.501600  0.216000  0.626100  1.0  -0.4819
  O  O455  1  0.685000  0.225600  0.731500  1.0  -0.3946
  O  O456  1  0.279500  0.661000  0.912300  1.0  -0.3991
  O  O457  1  0.400700  0.550500  0.255400  1.0  -0.4001
  O  O458  1  0.452000  0.081100  0.316000  1.0  -0.5111
  O  O459  1  0.015000  0.659300  0.059600  1.0  -0.7082
  O  O460  1  0.099600  0.619900  0.056400  1.0  -0.723
  O  O461  1  0.150300  0.786300  0.272500  1.0  -0.7368
  O  O462  1  0.121400  0.641400  0.117700  1.0  -0.7449
  O  O463  1  0.272900  0.765000  0.408300  1.0  -0.7626
  O  O464  1  0.028300  0.688700  0.963800  1.0  -0.6339
  O  O465  1  0.062700  0.488400  0.097900  1.0  -0.7223
  O  O466  1  0.238000  0.732100  0.350000  1.0  -0.783
  O  O467  1  0.165600  0.819300  0.495300  1.0  -0.6588
  O  O468  1  0.918300  0.602600  0.058300  1.0  -0.6288
  O  O469  1  0.020700  0.835800  0.086800  1.0  -0.6186
  O  O470  1  0.916300  0.532700  0.988500  1.0  -0.6335
  O  O471  1  0.855400  0.610400  0.814800  1.0  -0.4931
  O  O472  1  0.092100  0.741500  0.163800  1.0  -0.7066
  O  O473  1  0.052600  0.802400  0.218700  1.0  -0.6707
  O  O474  1  0.231500  0.620800  0.429200  1.0  -0.8007
  O  O475  1  0.273000  0.904800  0.455000  1.0  -0.661
  O  O476  1  0.133700  0.933300  0.297700  1.0  -0.5247
  O  O477  1  0.322200  0.998300  0.517700  1.0  -0.5381
  O  O478  1  0.092100  0.815100  0.413900  1.0  -0.6204
  O  O479  1  0.153000  0.547300  0.207300  1.0  -0.7144
  O  O480  1  0.243000  0.028800  0.604100  1.0  -0.5829
  O  O481  1  0.989200  0.962000  0.073200  1.0  -0.3831
  O  O482  1  0.216100  0.586200  0.313500  1.0  -0.7374
  O  O483  1  0.180500  0.811100  0.393500  1.0  -0.791
  O  O484  1  0.140200  0.491500  0.288600  1.0  -0.4395
  O  O485  1  0.998400  0.716000  0.873900  1.0  -0.479
  O  O486  1  0.815000  0.725600  0.768500  1.0  -0.3951
  O  O487  1  0.220500  0.161000  0.587700  1.0  -0.3995
  O  O488  1  0.099300  0.050500  0.244600  1.0  -0.4018
  O  O489  1  0.048000  0.581100  0.184000  1.0  -0.5142
  O  O490  1  0.515000  0.159300  0.059600  1.0  -0.7082
  O  O491  1  0.599600  0.119900  0.056400  1.0  -0.723
  O  O492  1  0.650300  0.286300  0.272500  1.0  -0.7368
  O  O493  1  0.621400  0.141400  0.117700  1.0  -0.7449
  O  O494  1  0.772900  0.265000  0.408300  1.0  -0.7626
  O  O495  1  0.528300  0.188700  0.963800  1.0  -0.6339
  O  O496  1  0.562700  0.988400  0.097900  1.0  -0.7223
  O  O497  1  0.738000  0.232100  0.350000  1.0  -0.783
  O  O498  1  0.665600  0.319300  0.495300  1.0  -0.6588
  O  O499  1  0.418300  0.102600  0.058300  1.0  -0.6288
  O  O500  1  0.520700  0.335800  0.086800  1.0  -0.6186
  O  O501  1  0.416300  0.032700  0.988500  1.0  -0.6335
  O  O502  1  0.355400  0.110400  0.814800  1.0  -0.4931
  O  O503  1  0.592100  0.241500  0.163800  1.0  -0.7066
  O  O504  1  0.552600  0.302400  0.218700  1.0  -0.6707
  O  O505  1  0.731500  0.120800  0.429200  1.0  -0.8007
  O  O506  1  0.773000  0.404800  0.455000  1.0  -0.661
  O  O507  1  0.633700  0.433300  0.297700  1.0  -0.5247
  O  O508  1  0.822200  0.498300  0.517700  1.0  -0.5381
  O  O509  1  0.592100  0.315100  0.413900  1.0  -0.6204
  O  O510  1  0.653000  0.047300  0.207300  1.0  -0.7144
  O  O511  1  0.743000  0.528800  0.604100  1.0  -0.5829
  O  O512  1  0.489200  0.462000  0.073200  1.0  -0.3831
  O  O513  1  0.716100  0.086200  0.313500  1.0  -0.7374
  O  O514  1  0.680500  0.311100  0.393500  1.0  -0.791
  O  O515  1  0.640200  0.991500  0.288600  1.0  -0.4395
  O  O516  1  0.498400  0.216000  0.873900  1.0  -0.479
  O  O517  1  0.315000  0.225600  0.768500  1.0  -0.3951
  O  O518  1  0.720500  0.661000  0.587700  1.0  -0.3988
  O  O519  1  0.599300  0.550500  0.244600  1.0  -0.4018
  O  O520  1  0.548000  0.081100  0.184000  1.0  -0.5142
