# generated using pymatgen
data_Cu4H6C5N20O
_symmetry_space_group_name_H-M   'P 1'
_cell_length_a   12.01600000
_cell_length_b   12.16700000
_cell_length_c   13.85000000
_cell_angle_alpha   90.00000000
_cell_angle_beta   90.00000000
_cell_angle_gamma   90.00000000
_symmetry_Int_Tables_number   1
_chemical_formula_structural   Cu4H6C5N20O
_chemical_formula_sum   'Cu16 H24 C20 N80 O4'
_cell_volume   2024.85160720
_cell_formula_units_Z   4
loop_
 _symmetry_equiv_pos_site_id
 _symmetry_equiv_pos_as_xyz
  1  'x, y, z'
loop_
 _atom_site_type_symbol
 _atom_site_label
 _atom_site_symmetry_multiplicity
 _atom_site_fract_x
 _atom_site_fract_y
 _atom_site_fract_z
 _atom_site_occupancy
 _atom_site_charge
  Cu  Cu1  1  0.530880  0.333570  0.117200  1.0  0.826
  Cu  Cu2  1  0.759410  0.247330  0.251950  1.0  0.6027
  Cu  Cu3  1  0.469120  0.666430  0.117200  1.0  0.8249
  Cu  Cu4  1  0.240590  0.752670  0.251950  1.0  0.6015
  Cu  Cu5  1  0.969120  0.833570  0.382800  1.0  0.8265
  Cu  Cu6  1  0.740590  0.747330  0.248050  1.0  0.601
  Cu  Cu7  1  0.030880  0.166430  0.382800  1.0  0.8251
  Cu  Cu8  1  0.259410  0.252670  0.248050  1.0  0.6002
  Cu  Cu9  1  0.469120  0.666430  0.882800  1.0  0.8253
  Cu  Cu10  1  0.240590  0.752670  0.748050  1.0  0.6001
  Cu  Cu11  1  0.530880  0.333570  0.882800  1.0  0.8261
  Cu  Cu12  1  0.759410  0.247330  0.748050  1.0  0.6011
  Cu  Cu13  1  0.030880  0.166430  0.617200  1.0  0.8252
  Cu  Cu14  1  0.259410  0.252670  0.751950  1.0  0.6017
  Cu  Cu15  1  0.969120  0.833570  0.617200  1.0  0.8262
  Cu  Cu16  1  0.740590  0.747330  0.751950  1.0  0.6024
  H  H17  1  0.169500  0.495000  0.306900  1.0  0.0786
  H  H18  1  0.405400  0.128800  0.408400  1.0  0.07
  H  H19  1  0.830500  0.505000  0.306900  1.0  0.0791
  H  H20  1  0.594600  0.871200  0.408400  1.0  0.0698
  H  H21  1  0.330500  0.995000  0.193100  1.0  0.0783
  H  H22  1  0.094600  0.628800  0.091600  1.0  0.0695
  H  H23  1  0.669500  0.005000  0.193100  1.0  0.0785
  H  H24  1  0.905400  0.371200  0.091600  1.0  0.0687
  H  H25  1  0.830500  0.505000  0.693100  1.0  0.0782
  H  H26  1  0.594600  0.871200  0.591600  1.0  0.0697
  H  H27  1  0.169500  0.495000  0.693100  1.0  0.0783
  H  H28  1  0.405400  0.128800  0.591600  1.0  0.0695
  H  H29  1  0.669500  0.005000  0.806900  1.0  0.0788
  H  H30  1  0.905400  0.371200  0.908400  1.0  0.0691
  H  H31  1  0.330500  0.995000  0.806900  1.0  0.0794
  H  H32  1  0.094600  0.628800  0.908400  1.0  0.0697
  H  H33  1  0.184400  0.163700  0.000000  1.0  0.0529
  H  H34  1  0.610800  0.458300  0.000000  1.0  0.3775
  H  H35  1  0.815600  0.836300  0.000000  1.0  0.0525
  H  H36  1  0.389200  0.541700  0.000000  1.0  0.3787
  H  H37  1  0.315600  0.663700  0.500000  1.0  0.0517
  H  H38  1  0.889200  0.958300  0.500000  1.0  0.3773
  H  H39  1  0.684400  0.336300  0.500000  1.0  0.0527
  H  H40  1  0.110800  0.041700  0.500000  1.0  0.3792
  C  C41  1  0.233400  0.499500  0.269200  1.0  0.2212
  C  C42  1  0.452500  0.161000  0.363300  1.0  0.2632
  C  C43  1  0.766600  0.500500  0.269200  1.0  0.2219
  C  C44  1  0.547500  0.839000  0.363300  1.0  0.2618
  C  C45  1  0.266600  0.999500  0.230800  1.0  0.2213
  C  C46  1  0.047500  0.661000  0.136700  1.0  0.2617
  C  C47  1  0.733400  0.000500  0.230800  1.0  0.2212
  C  C48  1  0.952500  0.339000  0.136700  1.0  0.2631
  C  C49  1  0.766600  0.500500  0.730800  1.0  0.2215
  C  C50  1  0.547500  0.839000  0.636700  1.0  0.2614
  C  C51  1  0.233400  0.499500  0.730800  1.0  0.2214
  C  C52  1  0.452500  0.161000  0.636700  1.0  0.2632
  C  C53  1  0.733400  0.000500  0.769200  1.0  0.2209
  C  C54  1  0.952500  0.339000  0.863300  1.0  0.2627
  C  C55  1  0.266600  0.999500  0.769200  1.0  0.2218
  C  C56  1  0.047500  0.661000  0.863300  1.0  0.2624
  C  C57  1  0.255300  0.194300  0.000000  1.0  0.314
  C  C58  1  0.744700  0.805700  0.000000  1.0  0.3134
  C  C59  1  0.244700  0.694300  0.500000  1.0  0.3131
  C  C60  1  0.755300  0.305700  0.500000  1.0  0.3132
  N  N61  1  0.291400  0.414200  0.237600  1.0  -0.2444
  N  N62  1  0.375900  0.453900  0.186200  1.0  -0.2268
  N  N63  1  0.368600  0.560900  0.187300  1.0  -0.071
  N  N64  1  0.280100  0.592700  0.239100  1.0  -0.2647
  N  N65  1  0.597100  0.213200  0.289100  1.0  -0.0257
  N  N66  1  0.510900  0.247900  0.240500  1.0  -0.072
  N  N67  1  0.418400  0.217300  0.285900  1.0  -0.3156
  N  N68  1  0.563400  0.157300  0.367000  1.0  -0.3291
  N  N69  1  0.406900  0.256700  0.048100  1.0  -0.0773
  N  N70  1  0.310500  0.218100  0.080100  1.0  -0.3159
  N  N71  1  0.708600  0.585800  0.237600  1.0  -0.2438
  N  N72  1  0.624100  0.546100  0.186200  1.0  -0.2268
  N  N73  1  0.631400  0.439100  0.187300  1.0  -0.0702
  N  N74  1  0.719900  0.407300  0.239100  1.0  -0.2638
  N  N75  1  0.402900  0.786800  0.289100  1.0  -0.0262
  N  N76  1  0.489100  0.752100  0.240500  1.0  -0.0726
  N  N77  1  0.581600  0.782700  0.285900  1.0  -0.3156
  N  N78  1  0.436600  0.842700  0.367000  1.0  -0.3296
  N  N79  1  0.593100  0.743300  0.048100  1.0  -0.0779
  N  N80  1  0.689500  0.781900  0.080100  1.0  -0.3149
  N  N81  1  0.208600  0.914200  0.262400  1.0  -0.2446
  N  N82  1  0.124100  0.953900  0.313800  1.0  -0.2274
  N  N83  1  0.131400  0.060900  0.312700  1.0  -0.0696
  N  N84  1  0.219900  0.092700  0.260900  1.0  -0.2648
  N  N85  1  0.902900  0.713200  0.210900  1.0  -0.0266
  N  N86  1  0.989100  0.747900  0.259500  1.0  -0.072
  N  N87  1  0.081600  0.717300  0.214100  1.0  -0.315
  N  N88  1  0.936600  0.657300  0.133000  1.0  -0.3307
  N  N89  1  0.093100  0.756700  0.451900  1.0  -0.0781
  N  N90  1  0.189500  0.718100  0.419900  1.0  -0.3169
  N  N91  1  0.791400  0.085800  0.262400  1.0  -0.2449
  N  N92  1  0.875900  0.046100  0.313800  1.0  -0.2271
  N  N93  1  0.868600  0.939100  0.312700  1.0  -0.07
  N  N94  1  0.780100  0.907300  0.260900  1.0  -0.2646
  N  N95  1  0.097100  0.286800  0.210900  1.0  -0.0259
  N  N96  1  0.010900  0.252100  0.259500  1.0  -0.0716
  N  N97  1  0.918400  0.282700  0.214100  1.0  -0.315
  N  N98  1  0.063400  0.342700  0.133000  1.0  -0.3298
  N  N99  1  0.906900  0.243300  0.451900  1.0  -0.0773
  N  N100  1  0.810500  0.281900  0.419900  1.0  -0.3155
  N  N101  1  0.708600  0.585800  0.762400  1.0  -0.244
  N  N102  1  0.624100  0.546100  0.813800  1.0  -0.227
  N  N103  1  0.631400  0.439100  0.812700  1.0  -0.0696
  N  N104  1  0.719900  0.407300  0.760900  1.0  -0.2642
  N  N105  1  0.402900  0.786800  0.710900  1.0  -0.0264
  N  N106  1  0.489100  0.752100  0.759500  1.0  -0.0721
  N  N107  1  0.581600  0.782700  0.714100  1.0  -0.3161
  N  N108  1  0.436600  0.842700  0.633000  1.0  -0.33
  N  N109  1  0.593100  0.743300  0.951900  1.0  -0.0781
  N  N110  1  0.689500  0.781900  0.919900  1.0  -0.3158
  N  N111  1  0.291400  0.414200  0.762400  1.0  -0.2454
  N  N112  1  0.375900  0.453900  0.813800  1.0  -0.2271
  N  N113  1  0.368600  0.560900  0.812700  1.0  -0.0706
  N  N114  1  0.280100  0.592700  0.760900  1.0  -0.265
  N  N115  1  0.597100  0.213200  0.710900  1.0  -0.0261
  N  N116  1  0.510900  0.247900  0.759500  1.0  -0.0715
  N  N117  1  0.418400  0.217300  0.714100  1.0  -0.316
  N  N118  1  0.563400  0.157300  0.633000  1.0  -0.3304
  N  N119  1  0.406900  0.256700  0.951900  1.0  -0.077
  N  N120  1  0.310500  0.218100  0.919900  1.0  -0.3168
  N  N121  1  0.791400  0.085800  0.737600  1.0  -0.2447
  N  N122  1  0.875900  0.046100  0.686200  1.0  -0.2268
  N  N123  1  0.868600  0.939100  0.687300  1.0  -0.0706
  N  N124  1  0.780100  0.907300  0.739100  1.0  -0.2642
  N  N125  1  0.097100  0.286800  0.789100  1.0  -0.0256
  N  N126  1  0.010900  0.252100  0.740500  1.0  -0.0721
  N  N127  1  0.918400  0.282700  0.785900  1.0  -0.3146
  N  N128  1  0.063400  0.342700  0.867000  1.0  -0.3292
  N  N129  1  0.906900  0.243300  0.548100  1.0  -0.0773
  N  N130  1  0.810500  0.281900  0.580100  1.0  -0.3152
  N  N131  1  0.208600  0.914200  0.737600  1.0  -0.2438
  N  N132  1  0.124100  0.953900  0.686200  1.0  -0.2271
  N  N133  1  0.131400  0.060900  0.687300  1.0  -0.0701
  N  N134  1  0.219900  0.092700  0.739100  1.0  -0.2644
  N  N135  1  0.902900  0.713200  0.789100  1.0  -0.0264
  N  N136  1  0.989100  0.747900  0.740500  1.0  -0.0725
  N  N137  1  0.081600  0.717300  0.785900  1.0  -0.3142
  N  N138  1  0.936600  0.657300  0.867000  1.0  -0.3298
  N  N139  1  0.093100  0.756700  0.548100  1.0  -0.0783
  N  N140  1  0.189500  0.718100  0.580100  1.0  -0.3156
  O  O141  1  0.561500  0.410600  0.000000  1.0  -0.9764
  O  O142  1  0.438500  0.589400  0.000000  1.0  -0.9766
  O  O143  1  0.938500  0.910600  0.500000  1.0  -0.9757
  O  O144  1  0.061500  0.089400  0.500000  1.0  -0.9759
