# generated using pymatgen
data_Ni3H8(C10O9)2
_symmetry_space_group_name_H-M   'P 1'
_cell_length_a   15.52590000
_cell_length_b   11.86700000
_cell_length_c   9.41290000
_cell_angle_alpha   90.00000000
_cell_angle_beta   113.08900000
_cell_angle_gamma   90.00000000
_symmetry_Int_Tables_number   1
_chemical_formula_structural   Ni3H8(C10O9)2
_chemical_formula_sum   'Ni6 H16 C40 O36'
_cell_volume   1595.36581434
_cell_formula_units_Z   2
loop_
 _symmetry_equiv_pos_site_id
 _symmetry_equiv_pos_as_xyz
  1  'x, y, z'
loop_
 _atom_site_type_symbol
 _atom_site_label
 _atom_site_symmetry_multiplicity
 _atom_site_fract_x
 _atom_site_fract_y
 _atom_site_fract_z
 _atom_site_occupancy
 _atom_site_charge
  Ni  Ni1  1  0.772960  0.000000  0.005690  1.0  0.9703
  Ni  Ni2  1  0.272960  0.500000  0.005690  1.0  0.9703
  Ni  Ni3  1  0.227040  0.000000  0.994310  1.0  0.9751
  Ni  Ni4  1  0.727040  0.500000  0.994310  1.0  0.9751
  Ni  Ni5  1  0.000000  0.000000  0.000000  1.0  0.9229
  Ni  Ni6  1  0.500000  0.500000  0.000000  1.0  0.9229
  H  H7  1  0.921600  0.057100  0.184100  1.0  0.4641
  H  H8  1  0.870500  0.878400  0.552800  1.0  0.1343
  H  H9  1  0.421600  0.557100  0.184100  1.0  0.4641
  H  H10  1  0.370500  0.378400  0.552800  1.0  0.1343
  H  H11  1  0.078400  0.057100  0.815900  1.0  0.4659
  H  H12  1  0.129500  0.878400  0.447200  1.0  0.1344
  H  H13  1  0.578400  0.557100  0.815900  1.0  0.4659
  H  H14  1  0.629500  0.378400  0.447200  1.0  0.1344
  H  H15  1  0.078400  0.942900  0.815900  1.0  0.4639
  H  H16  1  0.129500  0.121600  0.447200  1.0  0.1347
  H  H17  1  0.578400  0.442900  0.815900  1.0  0.4639
  H  H18  1  0.629500  0.621600  0.447200  1.0  0.1347
  H  H19  1  0.921600  0.942900  0.184100  1.0  0.4649
  H  H20  1  0.870500  0.121600  0.552800  1.0  0.135
  H  H21  1  0.421600  0.442900  0.184100  1.0  0.4649
  H  H22  1  0.370500  0.621600  0.552800  1.0  0.135
  C  C23  1  0.821800  0.827000  0.531500  1.0  -0.0089
  C  C24  1  0.794900  0.793500  0.649300  1.0  -0.0711
  C  C25  1  0.722800  0.715200  0.618900  1.0  -0.0443
  C  C26  1  0.838000  0.853500  0.802800  1.0  0.7265
  C  C27  1  0.693400  0.666100  0.741400  1.0  0.7445
  C  C28  1  0.321800  0.327000  0.531500  1.0  -0.0089
  C  C29  1  0.294900  0.293500  0.649300  1.0  -0.0711
  C  C30  1  0.222800  0.215200  0.618900  1.0  -0.0443
  C  C31  1  0.338000  0.353500  0.802800  1.0  0.7265
  C  C32  1  0.193400  0.166100  0.741400  1.0  0.7445
  C  C33  1  0.178200  0.827000  0.468500  1.0  -0.0098
  C  C34  1  0.205100  0.793500  0.350700  1.0  -0.0706
  C  C35  1  0.277200  0.715200  0.381100  1.0  -0.0442
  C  C36  1  0.162000  0.853500  0.197200  1.0  0.7272
  C  C37  1  0.306600  0.666100  0.258600  1.0  0.7452
  C  C38  1  0.678200  0.327000  0.468500  1.0  -0.0098
  C  C39  1  0.705100  0.293500  0.350700  1.0  -0.0706
  C  C40  1  0.777200  0.215200  0.381100  1.0  -0.0442
  C  C41  1  0.662000  0.353500  0.197200  1.0  0.7272
  C  C42  1  0.806600  0.166100  0.258600  1.0  0.7452
  C  C43  1  0.178200  0.173000  0.468500  1.0  -0.0091
  C  C44  1  0.205100  0.206500  0.350700  1.0  -0.0683
  C  C45  1  0.277200  0.284800  0.381100  1.0  -0.0442
  C  C46  1  0.162000  0.146500  0.197200  1.0  0.7273
  C  C47  1  0.306600  0.333900  0.258600  1.0  0.7456
  C  C48  1  0.678200  0.673000  0.468500  1.0  -0.0091
  C  C49  1  0.705100  0.706500  0.350700  1.0  -0.0683
  C  C50  1  0.777200  0.784800  0.381100  1.0  -0.0442
  C  C51  1  0.662000  0.646500  0.197200  1.0  0.7273
  C  C52  1  0.806600  0.833900  0.258600  1.0  0.7456
  C  C53  1  0.821800  0.173000  0.531500  1.0  -0.0081
  C  C54  1  0.794900  0.206500  0.649300  1.0  -0.0691
  C  C55  1  0.722800  0.284800  0.618900  1.0  -0.0442
  C  C56  1  0.838000  0.146500  0.802800  1.0  0.7265
  C  C57  1  0.693400  0.333900  0.741400  1.0  0.7452
  C  C58  1  0.321800  0.673000  0.531500  1.0  -0.0081
  C  C59  1  0.294900  0.706500  0.649300  1.0  -0.0691
  C  C60  1  0.222800  0.784800  0.618900  1.0  -0.0442
  C  C61  1  0.338000  0.646500  0.802800  1.0  0.7265
  C  C62  1  0.193400  0.833900  0.741400  1.0  0.7452
  O  O63  1  0.784300  0.874200  0.868600  1.0  -0.5843
  O  O64  1  0.923200  0.879100  0.848500  1.0  -0.5828
  O  O65  1  0.753700  0.616500  0.852800  1.0  -0.5465
  O  O66  1  0.607700  0.671800  0.717200  1.0  -0.5676
  O  O67  1  0.284300  0.374200  0.868600  1.0  -0.5843
  O  O68  1  0.423200  0.379100  0.848500  1.0  -0.5828
  O  O69  1  0.253700  0.116500  0.852800  1.0  -0.5465
  O  O70  1  0.107700  0.171800  0.717200  1.0  -0.5676
  O  O71  1  0.215700  0.874200  0.131400  1.0  -0.5852
  O  O72  1  0.076800  0.879100  0.151500  1.0  -0.5824
  O  O73  1  0.246300  0.616500  0.147200  1.0  -0.5463
  O  O74  1  0.392300  0.671800  0.282800  1.0  -0.568
  O  O75  1  0.715700  0.374200  0.131400  1.0  -0.5852
  O  O76  1  0.576800  0.379100  0.151500  1.0  -0.5824
  O  O77  1  0.746300  0.116500  0.147200  1.0  -0.5463
  O  O78  1  0.892300  0.171800  0.282800  1.0  -0.568
  O  O79  1  0.215700  0.125800  0.131400  1.0  -0.5847
  O  O80  1  0.076800  0.120900  0.151500  1.0  -0.5817
  O  O81  1  0.246300  0.383500  0.147200  1.0  -0.5461
  O  O82  1  0.392300  0.328200  0.282800  1.0  -0.5675
  O  O83  1  0.715700  0.625800  0.131400  1.0  -0.5847
  O  O84  1  0.576800  0.620900  0.151500  1.0  -0.5817
  O  O85  1  0.746300  0.883500  0.147200  1.0  -0.5461
  O  O86  1  0.892300  0.828200  0.282800  1.0  -0.5675
  O  O87  1  0.784300  0.125800  0.868600  1.0  -0.5841
  O  O88  1  0.923200  0.120900  0.848500  1.0  -0.5825
  O  O89  1  0.753700  0.383500  0.852800  1.0  -0.5465
  O  O90  1  0.607700  0.328200  0.717200  1.0  -0.5679
  O  O91  1  0.284300  0.625800  0.868600  1.0  -0.5841
  O  O92  1  0.423200  0.620900  0.848500  1.0  -0.5825
  O  O93  1  0.253700  0.883500  0.852800  1.0  -0.5465
  O  O94  1  0.107700  0.828200  0.717200  1.0  -0.5679
  O  O95  1  0.916900  0.000000  0.130000  1.0  -0.7693
  O  O96  1  0.416900  0.500000  0.130000  1.0  -0.7693
  O  O97  1  0.083100  0.000000  0.870000  1.0  -0.7681
  O  O98  1  0.583100  0.500000  0.870000  1.0  -0.7681
