# generated using pymatgen
data_ZnH12C16(NO2)2
_symmetry_space_group_name_H-M   'P 1'
_cell_length_a   12.00500000
_cell_length_b   12.47100000
_cell_length_c   13.80400000
_cell_angle_alpha   90.00000000
_cell_angle_beta   90.00000000
_cell_angle_gamma   90.00000000
_symmetry_Int_Tables_number   1
_chemical_formula_structural   ZnH12C16(NO2)2
_chemical_formula_sum   'Zn4 H48 C64 N8 O16'
_cell_volume   2066.65695642
_cell_formula_units_Z   4
loop_
 _symmetry_equiv_pos_site_id
 _symmetry_equiv_pos_as_xyz
  1  'x, y, z'
loop_
 _atom_site_type_symbol
 _atom_site_label
 _atom_site_symmetry_multiplicity
 _atom_site_fract_x
 _atom_site_fract_y
 _atom_site_fract_z
 _atom_site_occupancy
 _atom_site_charge
  Zn  Zn1  1  0.803460  0.250000  0.000000  1.0  0.8198
  Zn  Zn2  1  0.303460  0.750000  0.500000  1.0  0.8198
  Zn  Zn3  1  0.696540  0.250000  0.500000  1.0  0.8202
  Zn  Zn4  1  0.196540  0.750000  0.000000  1.0  0.8202
  H  H5  1  0.429000  0.613800  0.181500  1.0  0.1189
  H  H6  1  0.332300  0.715900  0.289200  1.0  0.0921
  H  H7  1  0.521600  0.623000  0.500700  1.0  0.0903
  H  H8  1  0.625400  0.519900  0.397600  1.0  0.123
  H  H9  1  0.653000  0.433700  0.242200  1.0  0.0891
  H  H10  1  0.544100  0.519400  0.086300  1.0  0.1016
  H  H11  1  0.429000  0.886200  0.818500  1.0  0.119
  H  H12  1  0.332300  0.784100  0.710800  1.0  0.0915
  H  H13  1  0.521600  0.877000  0.499300  1.0  0.0914
  H  H14  1  0.625400  0.980100  0.602400  1.0  0.1234
  H  H15  1  0.653000  0.066300  0.757800  1.0  0.0888
  H  H16  1  0.544100  0.980600  0.913700  1.0  0.1013
  H  H17  1  0.929000  0.113800  0.318500  1.0  0.1191
  H  H18  1  0.832300  0.215900  0.210800  1.0  0.0918
  H  H19  1  0.021600  0.123000  0.999300  1.0  0.091
  H  H20  1  0.125400  0.019900  0.102400  1.0  0.1237
  H  H21  1  0.153000  0.933700  0.257800  1.0  0.0892
  H  H22  1  0.044100  0.019400  0.413700  1.0  0.1015
  H  H23  1  0.929000  0.386200  0.681500  1.0  0.119
  H  H24  1  0.832300  0.284100  0.789200  1.0  0.0918
  H  H25  1  0.021600  0.377000  0.000700  1.0  0.0906
  H  H26  1  0.125400  0.480100  0.897600  1.0  0.1231
  H  H27  1  0.153000  0.566300  0.742200  1.0  0.0887
  H  H28  1  0.044100  0.480600  0.586300  1.0  0.1015
  H  H29  1  0.071000  0.886200  0.681500  1.0  0.1192
  H  H30  1  0.167700  0.784100  0.789200  1.0  0.0922
  H  H31  1  0.978400  0.877000  0.000700  1.0  0.0907
  H  H32  1  0.874600  0.980100  0.897600  1.0  0.1228
  H  H33  1  0.847000  0.066300  0.742200  1.0  0.0874
  H  H34  1  0.955900  0.980600  0.586300  1.0  0.1015
  H  H35  1  0.071000  0.613800  0.318500  1.0  0.1191
  H  H36  1  0.167700  0.715900  0.210800  1.0  0.092
  H  H37  1  0.978400  0.623000  0.999300  1.0  0.0913
  H  H38  1  0.874600  0.519900  0.102400  1.0  0.1238
  H  H39  1  0.847000  0.433700  0.257800  1.0  0.0876
  H  H40  1  0.955900  0.519400  0.413700  1.0  0.1014
  H  H41  1  0.571000  0.386200  0.818500  1.0  0.1191
  H  H42  1  0.667700  0.284100  0.710800  1.0  0.0919
  H  H43  1  0.478400  0.377000  0.499300  1.0  0.0917
  H  H44  1  0.374600  0.480100  0.602400  1.0  0.1234
  H  H45  1  0.347000  0.566300  0.757800  1.0  0.0874
  H  H46  1  0.455900  0.480600  0.913700  1.0  0.1013
  H  H47  1  0.571000  0.113800  0.181500  1.0  0.119
  H  H48  1  0.667700  0.215900  0.289200  1.0  0.0921
  H  H49  1  0.478400  0.123000  0.500700  1.0  0.0904
  H  H50  1  0.374600  0.019900  0.397600  1.0  0.1229
  H  H51  1  0.347000  0.933700  0.242200  1.0  0.0877
  H  H52  1  0.455900  0.019400  0.086300  1.0  0.1015
  C  C53  1  0.448900  0.612900  0.246600  1.0  -0.2017
  C  C54  1  0.390500  0.673600  0.311900  1.0  0.1812
  C  C55  1  0.501200  0.619700  0.435800  1.0  0.1731
  C  C56  1  0.564300  0.557400  0.373800  1.0  -0.2032
  C  C57  1  0.537100  0.550600  0.277000  1.0  0.1331
  C  C58  1  0.602100  0.479400  0.212700  1.0  -0.101
  C  C59  1  0.594600  0.474500  0.117500  1.0  -0.2178
  C  C60  1  0.663400  0.400200  0.057400  1.0  0.7097
  C  C61  1  0.448900  0.887100  0.753400  1.0  -0.2027
  C  C62  1  0.390500  0.826400  0.688100  1.0  0.181
  C  C63  1  0.501200  0.880300  0.564200  1.0  0.1727
  C  C64  1  0.564300  0.942600  0.626200  1.0  -0.2024
  C  C65  1  0.537100  0.949400  0.723000  1.0  0.1325
  C  C66  1  0.602100  0.020600  0.787300  1.0  -0.1021
  C  C67  1  0.594600  0.025500  0.882500  1.0  -0.2169
  C  C68  1  0.663400  0.099800  0.942600  1.0  0.7092
  C  C69  1  0.948900  0.112900  0.253400  1.0  -0.2025
  C  C70  1  0.890500  0.173600  0.188100  1.0  0.1815
  C  C71  1  0.001200  0.119700  0.064200  1.0  0.1734
  C  C72  1  0.064300  0.057400  0.126200  1.0  -0.203
  C  C73  1  0.037100  0.050600  0.223000  1.0  0.1332
  C  C74  1  0.102100  0.979400  0.287300  1.0  -0.1013
  C  C75  1  0.094600  0.974500  0.382500  1.0  -0.2187
  C  C76  1  0.163400  0.900200  0.442600  1.0  0.7089
  C  C77  1  0.948900  0.387100  0.746600  1.0  -0.2013
  C  C78  1  0.890500  0.326400  0.811900  1.0  0.1808
  C  C79  1  0.001200  0.380300  0.935800  1.0  0.1734
  C  C80  1  0.064300  0.442600  0.873800  1.0  -0.203
  C  C81  1  0.037100  0.449400  0.777000  1.0  0.1327
  C  C82  1  0.102100  0.520600  0.712700  1.0  -0.1021
  C  C83  1  0.094600  0.525500  0.617500  1.0  -0.2166
  C  C84  1  0.163400  0.599800  0.557400  1.0  0.7102
  C  C85  1  0.051100  0.887100  0.746600  1.0  -0.2016
  C  C86  1  0.109500  0.826400  0.811900  1.0  0.1805
  C  C87  1  0.998800  0.880300  0.935800  1.0  0.1733
  C  C88  1  0.935700  0.942600  0.873800  1.0  -0.2027
  C  C89  1  0.962900  0.949400  0.777000  1.0  0.1327
  C  C90  1  0.897900  0.020600  0.712700  1.0  -0.1008
  C  C91  1  0.905400  0.025500  0.617500  1.0  -0.2151
  C  C92  1  0.836600  0.099800  0.557400  1.0  0.711
  C  C93  1  0.051100  0.612900  0.253400  1.0  -0.203
  C  C94  1  0.109500  0.673600  0.188100  1.0  0.181
  C  C95  1  0.998800  0.619700  0.064200  1.0  0.1724
  C  C96  1  0.935700  0.557400  0.126200  1.0  -0.2033
  C  C97  1  0.962900  0.550600  0.223000  1.0  0.1333
  C  C98  1  0.897900  0.479400  0.287300  1.0  -0.1005
  C  C99  1  0.905400  0.474500  0.382500  1.0  -0.2163
  C  C100  1  0.836600  0.400200  0.442600  1.0  0.7105
  C  C101  1  0.551100  0.387100  0.753400  1.0  -0.2032
  C  C102  1  0.609500  0.326400  0.688100  1.0  0.1805
  C  C103  1  0.498800  0.380300  0.564200  1.0  0.1713
  C  C104  1  0.435700  0.442600  0.626200  1.0  -0.2022
  C  C105  1  0.462900  0.449400  0.723000  1.0  0.1326
  C  C106  1  0.397900  0.520600  0.787300  1.0  -0.1007
  C  C107  1  0.405400  0.525500  0.882500  1.0  -0.2152
  C  C108  1  0.336600  0.599800  0.942600  1.0  0.7107
  C  C109  1  0.551100  0.112900  0.246600  1.0  -0.202
  C  C110  1  0.609500  0.173600  0.311900  1.0  0.181
  C  C111  1  0.498800  0.119700  0.435800  1.0  0.173
  C  C112  1  0.435700  0.057400  0.373800  1.0  -0.2033
  C  C113  1  0.462900  0.050600  0.277000  1.0  0.1332
  C  C114  1  0.397900  0.979400  0.212700  1.0  -0.1003
  C  C115  1  0.405400  0.974500  0.117500  1.0  -0.2157
  C  C116  1  0.336600  0.900200  0.057400  1.0  0.7105
  N  N117  1  0.413200  0.674900  0.406800  1.0  -0.2946
  N  N118  1  0.413200  0.825100  0.593200  1.0  -0.2949
  N  N119  1  0.913200  0.174900  0.093200  1.0  -0.2946
  N  N120  1  0.913200  0.325100  0.906800  1.0  -0.2947
  N  N121  1  0.086800  0.825100  0.906800  1.0  -0.2949
  N  N122  1  0.086800  0.674900  0.093200  1.0  -0.2955
  N  N123  1  0.586800  0.325100  0.593200  1.0  -0.2954
  N  N124  1  0.586800  0.174900  0.406800  1.0  -0.2952
  O  O125  1  0.650800  0.398500  0.969500  1.0  -0.6278
  O  O126  1  0.737200  0.344300  0.098700  1.0  -0.5754
  O  O127  1  0.650800  0.101500  0.030500  1.0  -0.6287
  O  O128  1  0.737200  0.155700  0.901300  1.0  -0.5757
  O  O129  1  0.150800  0.898500  0.530500  1.0  -0.6289
  O  O130  1  0.237200  0.844300  0.401300  1.0  -0.5759
  O  O131  1  0.150800  0.601500  0.469500  1.0  -0.6282
  O  O132  1  0.237200  0.655700  0.598700  1.0  -0.5753
  O  O133  1  0.849200  0.101500  0.469500  1.0  -0.6284
  O  O134  1  0.762800  0.155700  0.598700  1.0  -0.5752
  O  O135  1  0.849200  0.398500  0.530500  1.0  -0.629
  O  O136  1  0.762800  0.344300  0.401300  1.0  -0.5757
  O  O137  1  0.349200  0.601500  0.030500  1.0  -0.629
  O  O138  1  0.262800  0.655700  0.901300  1.0  -0.5754
  O  O139  1  0.349200  0.898500  0.969500  1.0  -0.628
  O  O140  1  0.262800  0.844300  0.098700  1.0  -0.5753
