# generated using pymatgen
data_CuH24(C3N)8
_symmetry_space_group_name_H-M   'P 1'
_cell_length_a   13.66200000
_cell_length_b   18.91400000
_cell_length_c   23.19700000
_cell_angle_alpha   90.00000000
_cell_angle_beta   90.00000000
_cell_angle_gamma   110.07400000
_symmetry_Int_Tables_number   1
_chemical_formula_structural   CuH24(C3N)8
_chemical_formula_sum   'Cu6 H144 C144 N48'
_cell_volume   5630.03039705
_cell_formula_units_Z   6
loop_
 _symmetry_equiv_pos_site_id
 _symmetry_equiv_pos_as_xyz
  1  'x, y, z'
loop_
 _atom_site_type_symbol
 _atom_site_label
 _atom_site_symmetry_multiplicity
 _atom_site_fract_x
 _atom_site_fract_y
 _atom_site_fract_z
 _atom_site_occupancy
 _atom_site_charge
  Cu  Cu1  1  0.627180  0.006360  0.788130  1.0  0.5149
  Cu  Cu2  1  0.372820  0.493640  0.288130  1.0  0.5148
  Cu  Cu3  1  0.372820  0.993640  0.211870  1.0  0.5145
  Cu  Cu4  1  0.627180  0.506360  0.711870  1.0  0.5145
  Cu  Cu5  1  0.000000  0.500000  0.500000  1.0  0.591
  Cu  Cu6  1  0.000000  0.000000  0.000000  1.0  0.591
  H  H7  1  0.177800  0.616500  0.869400  1.0  0.0373
  H  H8  1  0.027100  0.617400  0.705100  1.0  0.0457
  H  H9  1  0.321400  0.767800  0.724200  1.0  0.0792
  H  H10  1  0.327800  0.757200  0.876700  1.0  0.0634
  H  H11  1  0.370000  0.692100  0.861600  1.0  0.0657
  H  H12  1  0.443000  0.885600  0.849000  1.0  0.0524
  H  H13  1  0.631300  0.845600  0.738100  1.0  0.0478
  H  H14  1  0.504000  0.711300  0.760700  1.0  -0.012
  H  H15  1  0.123600  0.743400  0.643900  1.0  0.0483
  H  H16  1  0.245600  0.767300  0.643900  1.0  0.0455
  H  H17  1  0.024900  0.630300  0.583900  1.0  0.0495
  H  H18  1  0.247600  0.553100  0.541500  1.0  0.0539
  H  H19  1  0.321700  0.661200  0.606400  1.0  0.0616
  H  H20  1  0.028700  0.501900  0.818200  1.0  0.0601
  H  H21  1  0.975800  0.556700  0.843400  1.0  0.0714
  H  H22  1  0.435500  0.441900  0.790100  1.0  0.0462
  H  H23  1  0.483400  0.603500  0.665100  1.0  0.033
  H  H24  1  0.286400  0.576200  0.728300  1.0  0.0697
  H  H25  1  0.278000  0.449300  0.844300  1.0  0.0689
  H  H26  1  0.228300  0.508200  0.823200  1.0  0.0582
  H  H27  1  0.235000  0.404300  0.705200  1.0  0.0484
  H  H28  1  0.921700  0.250200  0.721000  1.0  0.0453
  H  H29  1  0.078100  0.399000  0.867000  1.0  -0.1016
  H  H30  1  0.872200  0.329300  0.844000  1.0  0.06
  H  H31  1  0.914100  0.267800  0.868500  1.0  0.0714
  H  H32  1  0.632700  0.158100  0.718900  1.0  0.0445
  H  H33  1  0.771900  0.301200  0.740300  1.0  -0.0434
  H  H34  1  0.801900  0.134900  0.850300  1.0  0.0561
  H  H35  1  0.815300  0.561000  0.794000  1.0  0.0514
  H  H36  1  0.956200  0.444600  0.724700  1.0  0.17
  H  H37  1  0.776700  0.416700  0.658000  1.0  0.056
  H  H38  1  0.806700  0.345700  0.560100  1.0  0.0632
  H  H39  1  0.861100  0.260600  0.624900  1.0  0.0588
  H  H40  1  0.138300  0.420600  0.575900  1.0  0.0508
  H  H41  1  0.051700  0.243600  0.641000  1.0  0.0684
  H  H42  1  0.152800  0.313100  0.629300  1.0  0.0507
  H  H43  1  0.822200  0.883500  0.369400  1.0  0.0382
  H  H44  1  0.972900  0.882600  0.205100  1.0  0.046
  H  H45  1  0.678600  0.732200  0.224200  1.0  0.0782
  H  H46  1  0.672200  0.742800  0.376700  1.0  0.0652
  H  H47  1  0.630000  0.807900  0.361600  1.0  0.0654
  H  H48  1  0.557000  0.614400  0.349000  1.0  0.0528
  H  H49  1  0.368700  0.654400  0.238100  1.0  0.0478
  H  H50  1  0.496000  0.788700  0.260700  1.0  -0.0131
  H  H51  1  0.876400  0.756600  0.143900  1.0  0.0495
  H  H52  1  0.754400  0.732700  0.143900  1.0  0.045
  H  H53  1  0.975100  0.869700  0.083900  1.0  0.0471
  H  H54  1  0.752400  0.946900  0.041500  1.0  0.0543
  H  H55  1  0.678300  0.838800  0.106400  1.0  0.0611
  H  H56  1  0.971300  0.998100  0.318200  1.0  0.0591
  H  H57  1  0.024200  0.943300  0.343400  1.0  0.0708
  H  H58  1  0.564500  0.058100  0.290100  1.0  0.0466
  H  H59  1  0.516600  0.896500  0.165100  1.0  0.0327
  H  H60  1  0.713600  0.923800  0.228300  1.0  0.0685
  H  H61  1  0.722000  0.050700  0.344300  1.0  0.0688
  H  H62  1  0.771700  0.991800  0.323200  1.0  0.0596
  H  H63  1  0.765000  0.095700  0.205200  1.0  0.0482
  H  H64  1  0.078300  0.249800  0.221000  1.0  0.0462
  H  H65  1  0.921900  0.101000  0.367000  1.0  -0.1015
  H  H66  1  0.127800  0.170700  0.344000  1.0  0.0596
  H  H67  1  0.085900  0.232200  0.368500  1.0  0.0706
  H  H68  1  0.367300  0.341900  0.218900  1.0  0.0441
  H  H69  1  0.228100  0.198800  0.240300  1.0  -0.0426
  H  H70  1  0.198100  0.365100  0.350300  1.0  0.0555
  H  H71  1  0.184700  0.939000  0.294000  1.0  0.0513
  H  H72  1  0.043800  0.055400  0.224700  1.0  0.17
  H  H73  1  0.223300  0.083300  0.158000  1.0  0.0565
  H  H74  1  0.193300  0.154300  0.060100  1.0  0.0619
  H  H75  1  0.138900  0.239400  0.124900  1.0  0.0599
  H  H76  1  0.861700  0.079400  0.075900  1.0  0.0504
  H  H77  1  0.948300  0.256400  0.141000  1.0  0.0697
  H  H78  1  0.847200  0.186900  0.129300  1.0  0.0489
  H  H79  1  0.822200  0.383500  0.130600  1.0  0.0401
  H  H80  1  0.972900  0.382600  0.294900  1.0  0.046
  H  H81  1  0.678600  0.232200  0.275800  1.0  0.0795
  H  H82  1  0.672200  0.242800  0.123300  1.0  0.063
  H  H83  1  0.630000  0.307900  0.138400  1.0  0.0651
  H  H84  1  0.557000  0.114400  0.151000  1.0  0.0526
  H  H85  1  0.368700  0.154400  0.261900  1.0  0.0486
  H  H86  1  0.496000  0.288700  0.239300  1.0  -0.0132
  H  H87  1  0.876400  0.256600  0.356100  1.0  0.0499
  H  H88  1  0.754400  0.232700  0.356100  1.0  0.0467
  H  H89  1  0.975100  0.369700  0.416100  1.0  0.0468
  H  H90  1  0.752400  0.446900  0.458500  1.0  0.0542
  H  H91  1  0.678300  0.338800  0.393600  1.0  0.0615
  H  H92  1  0.971300  0.498100  0.181800  1.0  0.0601
  H  H93  1  0.024200  0.443300  0.156600  1.0  0.0707
  H  H94  1  0.564500  0.558100  0.209900  1.0  0.0464
  H  H95  1  0.516600  0.396500  0.334900  1.0  0.0344
  H  H96  1  0.713600  0.423800  0.271700  1.0  0.0686
  H  H97  1  0.722000  0.550700  0.155700  1.0  0.0676
  H  H98  1  0.771700  0.491800  0.176800  1.0  0.0584
  H  H99  1  0.765000  0.595700  0.294800  1.0  0.0488
  H  H100  1  0.078300  0.749800  0.279000  1.0  0.0462
  H  H101  1  0.921900  0.601000  0.133000  1.0  -0.1015
  H  H102  1  0.127800  0.670700  0.156000  1.0  0.0596
  H  H103  1  0.085900  0.732200  0.131500  1.0  0.0699
  H  H104  1  0.367300  0.841900  0.281100  1.0  0.0444
  H  H105  1  0.228100  0.698800  0.259700  1.0  -0.0419
  H  H106  1  0.198100  0.865100  0.149700  1.0  0.0564
  H  H107  1  0.184700  0.439000  0.206000  1.0  0.0514
  H  H108  1  0.043800  0.555400  0.275300  1.0  0.1695
  H  H109  1  0.223300  0.583300  0.342000  1.0  0.0567
  H  H110  1  0.193300  0.654300  0.439900  1.0  0.0618
  H  H111  1  0.138900  0.739400  0.375100  1.0  0.0597
  H  H112  1  0.861700  0.579400  0.424100  1.0  0.0506
  H  H113  1  0.948300  0.756400  0.359000  1.0  0.069
  H  H114  1  0.847200  0.686900  0.370700  1.0  0.0508
  H  H115  1  0.177800  0.116500  0.630600  1.0  0.0387
  H  H116  1  0.027100  0.117400  0.794900  1.0  0.0457
  H  H117  1  0.321400  0.267800  0.775800  1.0  0.0798
  H  H118  1  0.327800  0.257200  0.623300  1.0  0.0627
  H  H119  1  0.370000  0.192100  0.638400  1.0  0.0655
  H  H120  1  0.443000  0.385600  0.651000  1.0  0.0534
  H  H121  1  0.631300  0.345600  0.761900  1.0  0.0487
  H  H122  1  0.504000  0.211300  0.739300  1.0  -0.0122
  H  H123  1  0.123600  0.243400  0.856100  1.0  0.0492
  H  H124  1  0.245600  0.267300  0.856100  1.0  0.0454
  H  H125  1  0.024900  0.130300  0.916100  1.0  0.0495
  H  H126  1  0.247600  0.053100  0.958500  1.0  0.0539
  H  H127  1  0.321700  0.161200  0.893600  1.0  0.0613
  H  H128  1  0.028700  0.001900  0.681800  1.0  0.0589
  H  H129  1  0.975800  0.056700  0.656600  1.0  0.0698
  H  H130  1  0.435500  0.941900  0.709900  1.0  0.0466
  H  H131  1  0.483400  0.103500  0.834900  1.0  0.0339
  H  H132  1  0.286400  0.076200  0.771700  1.0  0.0691
  H  H133  1  0.278000  0.949300  0.655700  1.0  0.0684
  H  H134  1  0.228300  0.008200  0.676800  1.0  0.0589
  H  H135  1  0.235000  0.904300  0.794800  1.0  0.0486
  H  H136  1  0.921700  0.750200  0.779000  1.0  0.0457
  H  H137  1  0.078100  0.899000  0.633000  1.0  -0.1009
  H  H138  1  0.872200  0.829300  0.656000  1.0  0.0595
  H  H139  1  0.914100  0.767800  0.631500  1.0  0.0684
  H  H140  1  0.632700  0.658100  0.781100  1.0  0.0447
  H  H141  1  0.771900  0.801200  0.759700  1.0  -0.0428
  H  H142  1  0.801900  0.634900  0.649700  1.0  0.0564
  H  H143  1  0.815300  0.061000  0.706000  1.0  0.0508
  H  H144  1  0.956200  0.944600  0.775300  1.0  0.17
  H  H145  1  0.776700  0.916700  0.842000  1.0  0.0572
  H  H146  1  0.806700  0.845700  0.939900  1.0  0.0632
  H  H147  1  0.861100  0.760600  0.875100  1.0  0.0598
  H  H148  1  0.138300  0.920600  0.924100  1.0  0.0502
  H  H149  1  0.051700  0.743600  0.859000  1.0  0.0699
  H  H150  1  0.152800  0.813100  0.870700  1.0  0.0495
  C  C151  1  0.176100  0.640100  0.822600  1.0  0.1044
  C  C152  1  0.091400  0.608600  0.785500  1.0  0.0174
  C  C153  1  0.093800  0.636400  0.730300  1.0  -0.1756
  C  C154  1  0.178100  0.695600  0.711200  1.0  -0.0256
  C  C155  1  0.262200  0.728600  0.748700  1.0  -0.0848
  C  C156  1  0.262000  0.700700  0.803200  1.0  -0.0093
  C  C157  1  0.350800  0.732800  0.845400  1.0  -0.1342
  C  C158  1  0.474400  0.861000  0.824400  1.0  0.0701
  C  C159  1  0.576600  0.838700  0.763800  1.0  -0.0206
  C  C160  1  0.507500  0.771800  0.778200  1.0  0.3651
  C  C161  1  0.181300  0.725400  0.649700  1.0  -0.1078
  C  C162  1  0.089300  0.623900  0.581500  1.0  0.0661
  C  C163  1  0.211600  0.581600  0.558200  1.0  -0.0856
  C  C164  1  0.252800  0.641600  0.594100  1.0  -0.1922
  C  C165  1  0.002200  0.541800  0.808400  1.0  -0.1349
  C  C166  1  0.424800  0.479300  0.767600  1.0  0.0514
  C  C167  1  0.443300  0.565800  0.704200  1.0  0.1563
  C  C168  1  0.351100  0.554600  0.731700  1.0  -0.0781
  C  C169  1  0.253800  0.468800  0.810500  1.0  -0.1516
  C  C170  1  0.163600  0.405300  0.783200  1.0  0.0132
  C  C171  1  0.167500  0.380600  0.727800  1.0  -0.1649
  C  C172  1  0.082200  0.322100  0.705000  1.0  -0.0412
  C  C173  1  0.993100  0.290000  0.740200  1.0  -0.1592
  C  C174  1  0.989100  0.316200  0.794300  1.0  0.0242
  C  C175  1  0.075500  0.373800  0.817300  1.0  0.3033
  C  C176  1  0.895000  0.287700  0.833500  1.0  -0.1248
  C  C177  1  0.682900  0.169300  0.747800  1.0  -0.0013
  C  C178  1  0.749800  0.237900  0.758900  1.0  0.328
  C  C179  1  0.775400  0.155400  0.820200  1.0  0.0556
  C  C180  1  0.830000  0.529200  0.767500  1.0  0.0604
  C  C181  1  0.908100  0.464400  0.721800  1.0  -0.0366
  C  C182  1  0.817500  0.453100  0.696400  1.0  0.1669
  C  C183  1  0.893600  0.357500  0.565900  1.0  0.0262
  C  C184  1  0.915800  0.306000  0.600700  1.0  -0.0357
  C  C185  1  0.060000  0.396100  0.578700  1.0  0.0318
  C  C186  1  0.081700  0.298000  0.643400  1.0  -0.102
  C  C187  1  0.823900  0.859900  0.322600  1.0  0.1043
  C  C188  1  0.908600  0.891400  0.285500  1.0  0.0172
  C  C189  1  0.906200  0.863600  0.230300  1.0  -0.1715
  C  C190  1  0.821900  0.804400  0.211200  1.0  -0.0243
  C  C191  1  0.737800  0.771400  0.248700  1.0  -0.0878
  C  C192  1  0.738000  0.799300  0.303200  1.0  -0.0093
  C  C193  1  0.649200  0.767200  0.345400  1.0  -0.1348
  C  C194  1  0.525600  0.639000  0.324400  1.0  0.0698
  C  C195  1  0.423400  0.661300  0.263800  1.0  -0.0211
  C  C196  1  0.492500  0.728200  0.278200  1.0  0.3646
  C  C197  1  0.818700  0.774600  0.149700  1.0  -0.1089
  C  C198  1  0.910700  0.876100  0.081500  1.0  0.0667
  C  C199  1  0.788400  0.918400  0.058200  1.0  -0.0861
  C  C200  1  0.747200  0.858400  0.094100  1.0  -0.1965
  C  C201  1  0.997800  0.958200  0.308400  1.0  -0.1319
  C  C202  1  0.575200  0.020700  0.267600  1.0  0.0515
  C  C203  1  0.556700  0.934200  0.204200  1.0  0.1552
  C  C204  1  0.648900  0.945400  0.231700  1.0  -0.0772
  C  C205  1  0.746200  0.031200  0.310500  1.0  -0.1538
  C  C206  1  0.836400  0.094700  0.283200  1.0  0.0131
  C  C207  1  0.832500  0.119400  0.227800  1.0  -0.1684
  C  C208  1  0.917800  0.177900  0.205000  1.0  -0.041
  C  C209  1  0.006900  0.210000  0.240200  1.0  -0.1573
  C  C210  1  0.010900  0.183800  0.294300  1.0  0.0242
  C  C211  1  0.924500  0.126200  0.317300  1.0  0.3032
  C  C212  1  0.105000  0.212300  0.333500  1.0  -0.1247
  C  C213  1  0.317100  0.330700  0.247800  1.0  -0.0009
  C  C214  1  0.250200  0.262100  0.258900  1.0  0.3295
  C  C215  1  0.224600  0.344600  0.320200  1.0  0.0551
  C  C216  1  0.170000  0.970800  0.267500  1.0  0.0607
  C  C217  1  0.091900  0.035600  0.221800  1.0  -0.0329
  C  C218  1  0.182500  0.046900  0.196400  1.0  0.1675
  C  C219  1  0.106400  0.142500  0.065900  1.0  0.0287
  C  C220  1  0.084200  0.194000  0.100700  1.0  -0.0368
  C  C221  1  0.940000  0.103900  0.078700  1.0  0.0323
  C  C222  1  0.918300  0.202000  0.143400  1.0  -0.1003
  C  C223  1  0.823900  0.359900  0.177400  1.0  0.0982
  C  C224  1  0.908600  0.391400  0.214500  1.0  0.0151
  C  C225  1  0.906200  0.363600  0.269700  1.0  -0.173
  C  C226  1  0.821900  0.304400  0.288800  1.0  -0.0242
  C  C227  1  0.737800  0.271400  0.251300  1.0  -0.0884
  C  C228  1  0.738000  0.299300  0.196800  1.0  -0.0095
  C  C229  1  0.649200  0.267200  0.154600  1.0  -0.1344
  C  C230  1  0.525600  0.139000  0.175600  1.0  0.0684
  C  C231  1  0.423400  0.161300  0.236200  1.0  -0.0209
  C  C232  1  0.492500  0.228200  0.221800  1.0  0.3657
  C  C233  1  0.818700  0.274600  0.350300  1.0  -0.1099
  C  C234  1  0.910700  0.376100  0.418500  1.0  0.0675
  C  C235  1  0.788400  0.418400  0.441800  1.0  -0.0859
  C  C236  1  0.747200  0.358400  0.405900  1.0  -0.1964
  C  C237  1  0.997800  0.458200  0.191600  1.0  -0.13
  C  C238  1  0.575200  0.520700  0.232400  1.0  0.0497
  C  C239  1  0.556700  0.434200  0.295800  1.0  0.1548
  C  C240  1  0.648900  0.445400  0.268300  1.0  -0.0776
  C  C241  1  0.746200  0.531200  0.189500  1.0  -0.1533
  C  C242  1  0.836400  0.594700  0.216800  1.0  0.0135
  C  C243  1  0.832500  0.619400  0.272200  1.0  -0.1701
  C  C244  1  0.917800  0.677900  0.295000  1.0  -0.0408
  C  C245  1  0.006900  0.710000  0.259800  1.0  -0.1571
  C  C246  1  0.010900  0.683800  0.205700  1.0  0.023
  C  C247  1  0.924500  0.626200  0.182700  1.0  0.3021
  C  C248  1  0.105000  0.712300  0.166500  1.0  -0.1232
  C  C249  1  0.317100  0.830700  0.252200  1.0  -0.0003
  C  C250  1  0.250200  0.762100  0.241100  1.0  0.3289
  C  C251  1  0.224600  0.844600  0.179800  1.0  0.0562
  C  C252  1  0.170000  0.470800  0.232500  1.0  0.0596
  C  C253  1  0.091900  0.535600  0.278200  1.0  -0.0341
  C  C254  1  0.182500  0.546900  0.303600  1.0  0.1688
  C  C255  1  0.106400  0.642500  0.434100  1.0  0.0287
  C  C256  1  0.084200  0.694000  0.399300  1.0  -0.0378
  C  C257  1  0.940000  0.603900  0.421300  1.0  0.0315
  C  C258  1  0.918300  0.702000  0.356600  1.0  -0.1003
  C  C259  1  0.176100  0.140100  0.677400  1.0  0.0981
  C  C260  1  0.091400  0.108600  0.714500  1.0  0.0157
  C  C261  1  0.093800  0.136400  0.769700  1.0  -0.1773
  C  C262  1  0.178100  0.195600  0.788800  1.0  -0.0254
  C  C263  1  0.262200  0.228600  0.751300  1.0  -0.0855
  C  C264  1  0.262000  0.200700  0.696800  1.0  -0.0097
  C  C265  1  0.350800  0.232800  0.654600  1.0  -0.1341
  C  C266  1  0.474400  0.361000  0.675600  1.0  0.0707
  C  C267  1  0.576600  0.338700  0.736200  1.0  -0.0203
  C  C268  1  0.507500  0.271800  0.721800  1.0  0.3661
  C  C269  1  0.181300  0.225400  0.850300  1.0  -0.1109
  C  C270  1  0.089300  0.123900  0.918500  1.0  0.0666
  C  C271  1  0.211600  0.081600  0.941800  1.0  -0.0859
  C  C272  1  0.252800  0.141600  0.905900  1.0  -0.1935
  C  C273  1  0.002200  0.041800  0.691600  1.0  -0.1295
  C  C274  1  0.424800  0.979300  0.732400  1.0  0.0493
  C  C275  1  0.443300  0.065800  0.795800  1.0  0.1567
  C  C276  1  0.351100  0.054600  0.768300  1.0  -0.0795
  C  C277  1  0.253800  0.968800  0.689500  1.0  -0.1535
  C  C278  1  0.163600  0.905300  0.716800  1.0  0.0133
  C  C279  1  0.167500  0.880600  0.772200  1.0  -0.1668
  C  C280  1  0.082200  0.822100  0.795000  1.0  -0.0409
  C  C281  1  0.993100  0.790000  0.759800  1.0  -0.1591
  C  C282  1  0.989100  0.816200  0.705700  1.0  0.0232
  C  C283  1  0.075500  0.873800  0.682700  1.0  0.3026
  C  C284  1  0.895000  0.787700  0.666500  1.0  -0.1232
  C  C285  1  0.682900  0.669300  0.752200  1.0  -0.0008
  C  C286  1  0.749800  0.737900  0.741100  1.0  0.3279
  C  C287  1  0.775400  0.655400  0.679800  1.0  0.0546
  C  C288  1  0.830000  0.029200  0.732500  1.0  0.0599
  C  C289  1  0.908100  0.964400  0.778200  1.0  -0.0369
  C  C290  1  0.817500  0.953100  0.803600  1.0  0.1686
  C  C291  1  0.893600  0.857500  0.934100  1.0  0.0265
  C  C292  1  0.915800  0.806000  0.899300  1.0  -0.037
  C  C293  1  0.060000  0.896100  0.921300  1.0  0.0316
  C  C294  1  0.081700  0.798000  0.856600  1.0  -0.1005
  N  N295  1  0.442500  0.787300  0.817800  1.0  0.0262
  N  N296  1  0.556200  0.895800  0.792000  1.0  -0.448
  N  N297  1  0.174900  0.667600  0.608600  1.0  -0.0004
  N  N298  1  0.106900  0.570400  0.550900  1.0  -0.4324
  N  N299  1  0.489200  0.518000  0.727700  1.0  -0.4112
  N  N300  1  0.341300  0.501200  0.771400  1.0  0.0223
  N  N301  1  0.698200  0.116900  0.784800  1.0  -0.4088
  N  N302  1  0.808400  0.228400  0.805100  1.0  -0.0361
  N  N303  1  0.766100  0.494900  0.724400  1.0  -0.4727
  N  N304  1  0.916500  0.512400  0.767800  1.0  -0.0021
  N  N305  1  0.984300  0.413800  0.552800  1.0  -0.4088
  N  N306  1  0.021900  0.331500  0.607400  1.0  -0.0018
  N  N307  1  0.557500  0.712700  0.317800  1.0  0.0254
  N  N308  1  0.443800  0.604200  0.292000  1.0  -0.4483
  N  N309  1  0.825100  0.832400  0.108600  1.0  -0.0024
  N  N310  1  0.893100  0.929600  0.050900  1.0  -0.4328
  N  N311  1  0.510800  0.982000  0.227700  1.0  -0.412
  N  N312  1  0.658700  0.998800  0.271400  1.0  0.0234
  N  N313  1  0.301800  0.383100  0.284800  1.0  -0.4084
  N  N314  1  0.191600  0.271600  0.305100  1.0  -0.0353
  N  N315  1  0.233900  0.005100  0.224400  1.0  -0.4704
  N  N316  1  0.083500  0.987600  0.267800  1.0  -0.0015
  N  N317  1  0.015700  0.086200  0.052800  1.0  -0.4096
  N  N318  1  0.978100  0.168500  0.107400  1.0  -0.0019
  N  N319  1  0.557500  0.212700  0.182200  1.0  0.0234
  N  N320  1  0.443800  0.104200  0.208000  1.0  -0.4481
  N  N321  1  0.825100  0.332400  0.391400  1.0  -0.002
  N  N322  1  0.893100  0.429600  0.449100  1.0  -0.4332
  N  N323  1  0.510800  0.482000  0.272300  1.0  -0.4117
  N  N324  1  0.658700  0.498800  0.228600  1.0  0.0234
  N  N325  1  0.301800  0.883100  0.215200  1.0  -0.4091
  N  N326  1  0.191600  0.771600  0.194900  1.0  -0.0376
  N  N327  1  0.233900  0.505100  0.275600  1.0  -0.4696
  N  N328  1  0.083500  0.487600  0.232200  1.0  -0.0011
  N  N329  1  0.015700  0.586200  0.447200  1.0  -0.41
  N  N330  1  0.978100  0.668500  0.392600  1.0  -0.0036
  N  N331  1  0.442500  0.287300  0.682200  1.0  0.0235
  N  N332  1  0.556200  0.395800  0.708000  1.0  -0.4477
  N  N333  1  0.174900  0.167600  0.891400  1.0  -0.0019
  N  N334  1  0.106900  0.070400  0.949100  1.0  -0.432
  N  N335  1  0.489200  0.018000  0.772300  1.0  -0.411
  N  N336  1  0.341300  0.001200  0.728600  1.0  0.0234
  N  N337  1  0.698200  0.616900  0.715200  1.0  -0.4089
  N  N338  1  0.808400  0.728400  0.694900  1.0  -0.0371
  N  N339  1  0.766100  0.994900  0.775600  1.0  -0.472
  N  N340  1  0.916500  0.012400  0.732200  1.0  -0.0017
  N  N341  1  0.984300  0.913800  0.947200  1.0  -0.4094
  N  N342  1  0.021900  0.831500  0.892600  1.0  -0.0011
