# generated using pymatgen
data_CuH8C14(N4O3)2
_symmetry_space_group_name_H-M   'P 1'
_cell_length_a   9.54540000
_cell_length_b   14.67190000
_cell_length_c   9.47900000
_cell_angle_alpha   90.00000000
_cell_angle_beta   110.41900000
_cell_angle_gamma   90.00000000
_symmetry_Int_Tables_number   1
_chemical_formula_structural   CuH8C14(N4O3)2
_chemical_formula_sum   'Cu2 H16 C28 N16 O12'
_cell_volume   1244.11262951
_cell_formula_units_Z   2
loop_
 _symmetry_equiv_pos_site_id
 _symmetry_equiv_pos_as_xyz
  1  'x, y, z'
loop_
 _atom_site_type_symbol
 _atom_site_label
 _atom_site_symmetry_multiplicity
 _atom_site_fract_x
 _atom_site_fract_y
 _atom_site_fract_z
 _atom_site_occupancy
 _atom_site_charge
  Cu  Cu1  1  0.000000  0.500000  0.500000  1.0  0.8282
  Cu  Cu2  1  0.000000  0.000000  0.000000  1.0  0.8282
  H  H3  1  0.631600  0.780700  0.646600  1.0  0.2767
  H  H4  1  0.724000  0.624300  0.461500  1.0  0.1071
  H  H5  1  0.987500  0.770100  0.804600  1.0  0.1131
  H  H6  1  0.557400  0.104100  0.696800  1.0  0.1104
  H  H7  1  0.368400  0.280700  0.853400  1.0  0.2763
  H  H8  1  0.276000  0.124300  0.038500  1.0  0.1074
  H  H9  1  0.012500  0.270100  0.695400  1.0  0.1128
  H  H10  1  0.442600  0.604100  0.803200  1.0  0.1101
  H  H11  1  0.368400  0.219300  0.353400  1.0  0.2769
  H  H12  1  0.276000  0.375700  0.538500  1.0  0.1072
  H  H13  1  0.012500  0.229900  0.195400  1.0  0.1123
  H  H14  1  0.442600  0.895900  0.303200  1.0  0.1105
  H  H15  1  0.631600  0.719300  0.146600  1.0  0.2765
  H  H16  1  0.724000  0.875700  0.961500  1.0  0.1068
  H  H17  1  0.987500  0.729900  0.304600  1.0  0.1134
  H  H18  1  0.557400  0.395900  0.196800  1.0  0.1104
  C  C19  1  0.808100  0.645300  0.543000  1.0  0.1105
  C  C20  1  0.951700  0.724000  0.730300  1.0  0.1455
  C  C21  1  0.698700  0.850300  0.502600  1.0  0.5832
  C  C22  1  0.596100  0.928300  0.503300  1.0  -0.0864
  C  C23  1  0.633300  0.990700  0.624700  1.0  -0.1317
  C  C24  1  0.534100  0.061400  0.616500  1.0  -0.0359
  C  C25  1  0.780000  0.981900  0.753000  1.0  0.6283
  C  C26  1  0.191900  0.145300  0.957000  1.0  0.1104
  C  C27  1  0.048300  0.224000  0.769700  1.0  0.1424
  C  C28  1  0.301300  0.350300  0.997400  1.0  0.5819
  C  C29  1  0.403900  0.428300  0.996700  1.0  -0.0868
  C  C30  1  0.366700  0.490700  0.875300  1.0  -0.1315
  C  C31  1  0.465900  0.561400  0.883500  1.0  -0.0358
  C  C32  1  0.220000  0.481900  0.747000  1.0  0.6268
  C  C33  1  0.191900  0.354700  0.457000  1.0  0.1095
  C  C34  1  0.048300  0.276000  0.269700  1.0  0.1423
  C  C35  1  0.301300  0.149700  0.497400  1.0  0.5825
  C  C36  1  0.403900  0.071700  0.496700  1.0  -0.0869
  C  C37  1  0.366700  0.009300  0.375300  1.0  -0.1324
  C  C38  1  0.465900  0.938600  0.383500  1.0  -0.0358
  C  C39  1  0.220000  0.018100  0.247000  1.0  0.6287
  C  C40  1  0.808100  0.854700  0.043000  1.0  0.1096
  C  C41  1  0.951700  0.776000  0.230300  1.0  0.1453
  C  C42  1  0.698700  0.649700  0.002600  1.0  0.5829
  C  C43  1  0.596100  0.571700  0.003300  1.0  -0.0866
  C  C44  1  0.633300  0.509300  0.124700  1.0  -0.1325
  C  C45  1  0.534100  0.438600  0.116500  1.0  -0.035
  C  C46  1  0.780000  0.518100  0.253000  1.0  0.6301
  N  N47  1  0.938500  0.608000  0.589900  1.0  -0.1827
  N  N48  1  0.030500  0.655400  0.710000  1.0  -0.2493
  N  N49  1  0.810900  0.718600  0.628200  1.0  0.0745
  N  N50  1  0.698500  0.783000  0.602200  1.0  -0.2463
  N  N51  1  0.061500  0.108000  0.910100  1.0  -0.1842
  N  N52  1  0.969500  0.155400  0.790000  1.0  -0.2487
  N  N53  1  0.189100  0.218600  0.871800  1.0  0.0741
  N  N54  1  0.301500  0.283000  0.897800  1.0  -0.2464
  N  N55  1  0.061500  0.392000  0.410100  1.0  -0.1831
  N  N56  1  0.969500  0.344600  0.290000  1.0  -0.2481
  N  N57  1  0.189100  0.281400  0.371800  1.0  0.0739
  N  N58  1  0.301500  0.217000  0.397800  1.0  -0.2466
  N  N59  1  0.938500  0.892000  0.089900  1.0  -0.1825
  N  N60  1  0.030500  0.844600  0.210000  1.0  -0.2493
  N  N61  1  0.810900  0.781400  0.128200  1.0  0.0746
  N  N62  1  0.698500  0.717000  0.102200  1.0  -0.246
  O  O63  1  0.765300  0.845400  0.414500  1.0  -0.4684
  O  O64  1  0.881700  0.936400  0.739400  1.0  -0.5705
  O  O65  1  0.784300  0.021700  0.873100  1.0  -0.5886
  O  O66  1  0.234700  0.345400  0.085500  1.0  -0.4694
  O  O67  1  0.118300  0.436400  0.760600  1.0  -0.573
  O  O68  1  0.215700  0.521700  0.626900  1.0  -0.5884
  O  O69  1  0.234700  0.154600  0.585500  1.0  -0.4677
  O  O70  1  0.118300  0.063600  0.260600  1.0  -0.5727
  O  O71  1  0.215700  0.978300  0.126900  1.0  -0.5872
  O  O72  1  0.765300  0.654600  0.914500  1.0  -0.4679
  O  O73  1  0.881700  0.563600  0.239400  1.0  -0.5708
  O  O74  1  0.784300  0.478300  0.373100  1.0  -0.5869
