# generated using pymatgen
data_CdH8C14(N4O3)2
_symmetry_space_group_name_H-M   'P 1'
_cell_length_a   9.37600000
_cell_length_b   14.91900000
_cell_length_c   19.13800000
_cell_angle_alpha   90.00000000
_cell_angle_beta   90.00000000
_cell_angle_gamma   90.00000000
_symmetry_Int_Tables_number   1
_chemical_formula_structural   CdH8C14(N4O3)2
_chemical_formula_sum   'Cd4 H32 C56 N32 O24'
_cell_volume   2677.03385107
_cell_formula_units_Z   4
loop_
 _symmetry_equiv_pos_site_id
 _symmetry_equiv_pos_as_xyz
  1  'x, y, z'
loop_
 _atom_site_type_symbol
 _atom_site_label
 _atom_site_symmetry_multiplicity
 _atom_site_fract_x
 _atom_site_fract_y
 _atom_site_fract_z
 _atom_site_occupancy
 _atom_site_charge
  Cd  Cd1  1  0.690590  0.500000  0.250000  1.0  0.9763
  Cd  Cd2  1  0.309410  0.500000  0.750000  1.0  0.9759
  Cd  Cd3  1  0.809410  0.000000  0.750000  1.0  0.9762
  Cd  Cd4  1  0.190590  0.000000  0.250000  1.0  0.9766
  H  H5  1  0.882000  0.287200  0.233600  1.0  0.0906
  H  H6  1  0.903200  0.717000  0.437000  1.0  0.2653
  H  H7  1  0.096800  0.717000  0.937000  1.0  0.2655
  H  H8  1  0.601200  0.374700  0.109200  1.0  0.1206
  H  H9  1  0.398800  0.625300  0.890800  1.0  0.1186
  H  H10  1  0.898800  0.125300  0.609200  1.0  0.1203
  H  H11  1  0.172300  0.391500  0.975900  1.0  0.1174
  H  H12  1  0.618000  0.787200  0.766400  1.0  0.0911
  H  H13  1  0.596800  0.783000  0.937000  1.0  0.2657
  H  H14  1  0.403200  0.783000  0.437000  1.0  0.2654
  H  H15  1  0.118000  0.712800  0.766400  1.0  0.0917
  H  H16  1  0.172300  0.608500  0.524100  1.0  0.1176
  H  H17  1  0.882000  0.712800  0.266400  1.0  0.0917
  H  H18  1  0.672300  0.891500  0.524100  1.0  0.1174
  H  H19  1  0.118000  0.287200  0.733600  1.0  0.0905
  H  H20  1  0.898800  0.874700  0.890800  1.0  0.1188
  H  H21  1  0.382000  0.787200  0.266400  1.0  0.0913
  H  H22  1  0.327700  0.891500  0.024100  1.0  0.118
  H  H23  1  0.903200  0.283000  0.063000  1.0  0.2643
  H  H24  1  0.596800  0.217000  0.563000  1.0  0.2651
  H  H25  1  0.618000  0.212800  0.733600  1.0  0.0913
  H  H26  1  0.382000  0.212800  0.233600  1.0  0.0914
  H  H27  1  0.601200  0.625300  0.390800  1.0  0.1192
  H  H28  1  0.096800  0.283000  0.563000  1.0  0.2651
  H  H29  1  0.672300  0.108500  0.975900  1.0  0.1175
  H  H30  1  0.101200  0.874700  0.390800  1.0  0.1192
  H  H31  1  0.398800  0.374700  0.609200  1.0  0.1206
  H  H32  1  0.827700  0.391500  0.475900  1.0  0.1177
  H  H33  1  0.827700  0.608500  0.024100  1.0  0.1183
  H  H34  1  0.403200  0.217000  0.063000  1.0  0.2642
  H  H35  1  0.101200  0.125300  0.109200  1.0  0.1207
  H  H36  1  0.327700  0.108500  0.475900  1.0  0.1181
  C  C37  1  0.944600  0.150100  0.649100  1.0  0.0807
  C  C38  1  0.601900  0.935600  0.514400  1.0  -0.0377
  C  C39  1  0.924600  0.497200  0.062800  1.0  -0.1322
  C  C40  1  0.027100  0.432100  0.047700  1.0  -0.0564
  C  C41  1  0.936000  0.762400  0.282800  1.0  0.1252
  C  C42  1  0.601900  0.064400  0.985600  1.0  -0.0385
  C  C43  1  0.937300  0.642400  0.902300  1.0  0.59
  C  C44  1  0.436000  0.262400  0.217200  1.0  0.1234
  C  C45  1  0.562700  0.142400  0.097700  1.0  0.5891
  C  C46  1  0.343100  0.001800  0.130900  1.0  0.6784
  C  C47  1  0.972900  0.567900  0.952300  1.0  -0.0572
  C  C48  1  0.064000  0.237600  0.717200  1.0  0.126
  C  C49  1  0.055400  0.150100  0.149100  1.0  0.0816
  C  C50  1  0.527100  0.067900  0.047700  1.0  -0.0567
  C  C51  1  0.937300  0.357600  0.597700  1.0  0.5898
  C  C52  1  0.398100  0.064400  0.485600  1.0  -0.0396
  C  C53  1  0.656900  0.001800  0.630900  1.0  0.6797
  C  C54  1  0.936000  0.237600  0.217200  1.0  0.1239
  C  C55  1  0.472900  0.067900  0.547700  1.0  -0.0569
  C  C56  1  0.343100  0.998200  0.369100  1.0  0.6801
  C  C57  1  0.398100  0.935600  0.014400  1.0  -0.0386
  C  C58  1  0.972900  0.432100  0.547700  1.0  -0.0568
  C  C59  1  0.555400  0.349900  0.149100  1.0  0.083
  C  C60  1  0.437300  0.142400  0.597700  1.0  0.5895
  C  C61  1  0.027100  0.567900  0.452300  1.0  -0.0568
  C  C62  1  0.898100  0.564400  0.014400  1.0  -0.0389
  C  C63  1  0.562700  0.857600  0.402300  1.0  0.5887
  C  C64  1  0.472900  0.932100  0.952300  1.0  -0.057
  C  C65  1  0.564000  0.262400  0.717200  1.0  0.1253
  C  C66  1  0.656900  0.998200  0.869100  1.0  0.6803
  C  C67  1  0.156900  0.498200  0.630900  1.0  0.6783
  C  C68  1  0.444600  0.650100  0.850900  1.0  0.0816
  C  C69  1  0.437300  0.857600  0.902300  1.0  0.5899
  C  C70  1  0.101900  0.435600  0.985600  1.0  -0.0375
  C  C71  1  0.924600  0.502800  0.437200  1.0  -0.1337
  C  C72  1  0.575400  0.997200  0.937200  1.0  -0.1334
  C  C73  1  0.527100  0.932100  0.452300  1.0  -0.0565
  C  C74  1  0.944600  0.849900  0.850900  1.0  0.0818
  C  C75  1  0.424600  0.997200  0.437200  1.0  -0.1328
  C  C76  1  0.898100  0.435600  0.485600  1.0  -0.0392
  C  C77  1  0.575400  0.002800  0.562800  1.0  -0.1328
  C  C78  1  0.075400  0.497200  0.562800  1.0  -0.1324
  C  C79  1  0.064000  0.762400  0.782800  1.0  0.1258
  C  C80  1  0.444600  0.349900  0.649100  1.0  0.0819
  C  C81  1  0.062700  0.642400  0.402300  1.0  0.5889
  C  C82  1  0.075400  0.502800  0.937200  1.0  -0.1338
  C  C83  1  0.436000  0.737600  0.282800  1.0  0.125
  C  C84  1  0.424600  0.002800  0.062800  1.0  -0.133
  C  C85  1  0.156900  0.501800  0.869100  1.0  0.6798
  C  C86  1  0.555400  0.650100  0.350900  1.0  0.0824
  C  C87  1  0.062700  0.357600  0.097700  1.0  0.5892
  C  C88  1  0.101900  0.564400  0.514400  1.0  -0.0381
  C  C89  1  0.055400  0.849900  0.350900  1.0  0.083
  C  C90  1  0.564000  0.737600  0.782800  1.0  0.1258
  C  C91  1  0.843100  0.498200  0.130900  1.0  0.6782
  C  C92  1  0.843100  0.501800  0.369100  1.0  0.6802
  N  N93  1  0.978800  0.171100  0.255900  1.0  -0.2866
  N  N94  1  0.032200  0.288100  0.596100  1.0  -0.2491
  N  N95  1  0.967800  0.288100  0.096100  1.0  -0.2488
  N  N96  1  0.520600  0.726200  0.849900  1.0  0.071
  N  N97  1  0.478800  0.671100  0.244100  1.0  -0.2803
  N  N98  1  0.479400  0.726200  0.349900  1.0  0.0702
  N  N99  1  0.556100  0.615600  0.288200  1.0  -0.194
  N  N100  1  0.467800  0.788100  0.403900  1.0  -0.2486
  N  N101  1  0.979400  0.773800  0.349900  1.0  0.07
  N  N102  1  0.478800  0.328900  0.255900  1.0  -0.285
  N  N103  1  0.943900  0.884400  0.788200  1.0  -0.1936
  N  N104  1  0.021200  0.171100  0.755900  1.0  -0.2853
  N  N105  1  0.443900  0.615600  0.788200  1.0  -0.1951
  N  N106  1  0.967800  0.711900  0.403900  1.0  -0.248
  N  N107  1  0.521200  0.671100  0.744100  1.0  -0.2789
  N  N108  1  0.056100  0.884400  0.288200  1.0  -0.1936
  N  N109  1  0.532200  0.211900  0.596100  1.0  -0.2484
  N  N110  1  0.021200  0.828900  0.744100  1.0  -0.2789
  N  N111  1  0.556100  0.384400  0.211800  1.0  -0.1931
  N  N112  1  0.056100  0.115600  0.211800  1.0  -0.1936
  N  N113  1  0.943900  0.115600  0.711800  1.0  -0.1942
  N  N114  1  0.520600  0.273800  0.650100  1.0  0.0699
  N  N115  1  0.978800  0.828900  0.244100  1.0  -0.2798
  N  N116  1  0.979400  0.226200  0.150100  1.0  0.0697
  N  N117  1  0.443900  0.384400  0.711800  1.0  -0.1929
  N  N118  1  0.467800  0.211900  0.096100  1.0  -0.2482
  N  N119  1  0.532200  0.788100  0.903900  1.0  -0.2483
  N  N120  1  0.020600  0.773800  0.849900  1.0  0.0705
  N  N121  1  0.032200  0.711900  0.903900  1.0  -0.2475
  N  N122  1  0.020600  0.226200  0.650100  1.0  0.0704
  N  N123  1  0.521200  0.328900  0.755900  1.0  -0.2836
  N  N124  1  0.479400  0.273800  0.150100  1.0  0.0672
  O  O125  1  0.671200  0.144400  0.132800  1.0  -0.5007
  O  O126  1  0.624300  0.058400  0.677000  1.0  -0.5834
  O  O127  1  0.671200  0.855600  0.367200  1.0  -0.5
  O  O128  1  0.124300  0.441600  0.677000  1.0  -0.5839
  O  O129  1  0.745000  0.554400  0.139300  1.0  -0.5904
  O  O130  1  0.375700  0.941600  0.323000  1.0  -0.5828
  O  O131  1  0.375700  0.058400  0.177000  1.0  -0.5825
  O  O132  1  0.828800  0.644400  0.867200  1.0  -0.4992
  O  O133  1  0.875700  0.441600  0.177000  1.0  -0.5835
  O  O134  1  0.875700  0.558400  0.323000  1.0  -0.5825
  O  O135  1  0.624300  0.941600  0.823000  1.0  -0.5828
  O  O136  1  0.171200  0.355600  0.132800  1.0  -0.501
  O  O137  1  0.171200  0.644400  0.367200  1.0  -0.5005
  O  O138  1  0.245000  0.945600  0.139300  1.0  -0.5926
  O  O139  1  0.828800  0.355600  0.632800  1.0  -0.4991
  O  O140  1  0.255000  0.445600  0.860700  1.0  -0.5923
  O  O141  1  0.755000  0.054400  0.860700  1.0  -0.5933
  O  O142  1  0.328800  0.855600  0.867200  1.0  -0.4994
  O  O143  1  0.255000  0.554400  0.639300  1.0  -0.592
  O  O144  1  0.245000  0.054400  0.360700  1.0  -0.5922
  O  O145  1  0.124300  0.558400  0.823000  1.0  -0.5826
  O  O146  1  0.745000  0.445600  0.360700  1.0  -0.5903
  O  O147  1  0.328800  0.144400  0.632800  1.0  -0.4982
  O  O148  1  0.755000  0.945600  0.639300  1.0  -0.5939
