# generated using pymatgen
data_ZnH8C14(N4O3)2
_symmetry_space_group_name_H-M   'P 1'
_cell_length_a   10.32650000
_cell_length_b   14.19760000
_cell_length_c   18.24770000
_cell_angle_alpha   90.00000000
_cell_angle_beta   93.75900000
_cell_angle_gamma   90.00000000
_symmetry_Int_Tables_number   1
_chemical_formula_structural   ZnH8C14(N4O3)2
_chemical_formula_sum   'Zn4 H32 C56 N32 O24'
_cell_volume   2669.56737811
_cell_formula_units_Z   4
loop_
 _symmetry_equiv_pos_site_id
 _symmetry_equiv_pos_as_xyz
  1  'x, y, z'
loop_
 _atom_site_type_symbol
 _atom_site_label
 _atom_site_symmetry_multiplicity
 _atom_site_fract_x
 _atom_site_fract_y
 _atom_site_fract_z
 _atom_site_occupancy
 _atom_site_charge
  Zn  Zn1  1  0.219480  0.989430  0.239270  1.0  0.9516
  Zn  Zn2  1  0.719480  0.510570  0.239270  1.0  0.9517
  Zn  Zn3  1  0.280520  0.489430  0.760730  1.0  0.9523
  Zn  Zn4  1  0.780520  0.010570  0.760730  1.0  0.9522
  H  H5  1  0.860500  0.624000  0.025800  1.0  0.1157
  H  H6  1  0.549400  0.221800  0.577000  1.0  0.2575
  H  H7  1  0.914400  0.716800  0.242300  1.0  0.0974
  H  H8  1  0.160100  0.792500  0.789500  1.0  0.0912
  H  H9  1  0.639500  0.124000  0.974200  1.0  0.1147
  H  H10  1  0.908000  0.265900  0.051200  1.0  0.2634
  H  H11  1  0.654300  0.364200  0.108800  1.0  0.1081
  H  H12  1  0.139500  0.376000  0.974200  1.0  0.1148
  H  H13  1  0.085600  0.283200  0.757700  1.0  0.0973
  H  H14  1  0.655500  0.635500  0.377100  1.0  0.1177
  H  H15  1  0.326400  0.104200  0.479000  1.0  0.1205
  H  H16  1  0.092000  0.734100  0.948800  1.0  0.264
  H  H17  1  0.049400  0.278200  0.577000  1.0  0.2573
  H  H18  1  0.660100  0.707500  0.789500  1.0  0.0915
  H  H19  1  0.585600  0.216800  0.757700  1.0  0.098
  H  H20  1  0.408000  0.234100  0.051200  1.0  0.2635
  H  H21  1  0.844500  0.135500  0.622900  1.0  0.1179
  H  H22  1  0.345700  0.635800  0.891200  1.0  0.1089
  H  H23  1  0.839900  0.207500  0.210500  1.0  0.0916
  H  H24  1  0.360500  0.876000  0.025800  1.0  0.1152
  H  H25  1  0.950600  0.721800  0.423000  1.0  0.258
  H  H26  1  0.592000  0.765900  0.948800  1.0  0.2639
  H  H27  1  0.173600  0.604200  0.521000  1.0  0.1206
  H  H28  1  0.673600  0.895800  0.521000  1.0  0.1208
  H  H29  1  0.450600  0.778200  0.423000  1.0  0.2578
  H  H30  1  0.845700  0.864200  0.891200  1.0  0.1088
  H  H31  1  0.154300  0.135800  0.108800  1.0  0.1084
  H  H32  1  0.155500  0.864500  0.377100  1.0  0.1175
  H  H33  1  0.344500  0.364500  0.622900  1.0  0.1181
  H  H34  1  0.414400  0.783200  0.242300  1.0  0.0967
  H  H35  1  0.826400  0.395800  0.479000  1.0  0.1198
  H  H36  1  0.339900  0.292500  0.210500  1.0  0.0914
  C  C37  1  0.588200  0.362460  0.142590  1.0  0.1339
  C  C38  1  0.433500  0.001420  0.064370  1.0  -0.1337
  C  C39  1  0.569000  0.998400  0.568490  1.0  -0.1228
  C  C40  1  0.474500  0.736700  0.260300  1.0  0.1574
  C  C41  1  0.911800  0.862460  0.857410  1.0  0.1317
  C  C42  1  0.603000  0.938100  0.512670  1.0  -0.0725
  C  C43  1  0.916900  0.573640  0.015370  1.0  -0.0229
  C  C44  1  0.411800  0.637540  0.857410  1.0  0.1318
  C  C45  1  0.482800  0.924950  0.951340  1.0  -0.0684
  C  C46  1  0.105500  0.843500  0.334710  1.0  0.1154
  C  C47  1  0.965600  0.439880  0.554690  1.0  -0.0839
  C  C48  1  0.416500  0.324200  0.198250  1.0  0.1307
  C  C49  1  0.858900  0.496760  0.132210  1.0  0.6792
  C  C50  1  0.576200  0.870500  0.388660  1.0  0.5588
  C  C51  1  0.894500  0.156500  0.665290  1.0  0.1149
  C  C52  1  0.083500  0.824200  0.801750  1.0  0.134
  C  C53  1  0.025500  0.236700  0.739700  1.0  0.1556
  C  C54  1  0.431000  0.001600  0.431510  1.0  -0.1233
  C  C55  1  0.034400  0.560120  0.445310  1.0  -0.0845
  C  C56  1  0.394500  0.343500  0.665290  1.0  0.1148
  C  C57  1  0.017200  0.424950  0.048660  1.0  -0.0678
  C  C58  1  0.566500  0.998580  0.935630  1.0  -0.1325
  C  C59  1  0.954100  0.655530  0.898910  1.0  0.5817
  C  C60  1  0.933500  0.498580  0.064370  1.0  -0.1332
  C  C61  1  0.141100  0.503240  0.867790  1.0  0.6785
  C  C62  1  0.356300  0.000500  0.357630  1.0  0.6682
  C  C63  1  0.076200  0.629500  0.388660  1.0  0.559
  C  C64  1  0.931000  0.498400  0.431510  1.0  -0.1234
  C  C65  1  0.083100  0.426360  0.984630  1.0  -0.022
  C  C66  1  0.143700  0.500500  0.642370  1.0  0.6689
  C  C67  1  0.088200  0.137540  0.142590  1.0  0.1332
  C  C68  1  0.916500  0.175800  0.198250  1.0  0.1312
  C  C69  1  0.525500  0.263300  0.739700  1.0  0.1558
  C  C70  1  0.358900  0.003240  0.132210  1.0  0.6815
  C  C71  1  0.897000  0.438100  0.487330  1.0  -0.0724
  C  C72  1  0.465600  0.060120  0.554690  1.0  -0.0839
  C  C73  1  0.982800  0.575050  0.951340  1.0  -0.0683
  C  C74  1  0.856300  0.499500  0.357630  1.0  0.6692
  C  C75  1  0.423800  0.129500  0.611340  1.0  0.559
  C  C76  1  0.643700  0.999500  0.642370  1.0  0.6709
  C  C77  1  0.066500  0.501420  0.935630  1.0  -0.1326
  C  C78  1  0.641100  0.996760  0.867790  1.0  0.6806
  C  C79  1  0.923800  0.370500  0.611340  1.0  0.5588
  C  C80  1  0.517200  0.075050  0.048660  1.0  -0.0677
  C  C81  1  0.974500  0.763300  0.260300  1.0  0.1577
  C  C82  1  0.545900  0.155530  0.101090  1.0  0.5825
  C  C83  1  0.103000  0.561900  0.512670  1.0  -0.0719
  C  C84  1  0.045900  0.344470  0.101090  1.0  0.5814
  C  C85  1  0.583500  0.675800  0.801750  1.0  0.1339
  C  C86  1  0.069000  0.501600  0.568490  1.0  -0.1224
  C  C87  1  0.397000  0.061900  0.487330  1.0  -0.0723
  C  C88  1  0.583100  0.073640  0.984630  1.0  -0.0221
  C  C89  1  0.454100  0.844470  0.898910  1.0  0.5812
  C  C90  1  0.416900  0.926360  0.015370  1.0  -0.0234
  C  C91  1  0.605500  0.656500  0.334710  1.0  0.1161
  C  C92  1  0.534400  0.939880  0.445310  1.0  -0.0843
  N  N93  1  0.028000  0.892630  0.763930  1.0  -0.2902
  N  N94  1  0.515500  0.695140  0.861680  1.0  0.0484
  N  N95  1  0.015500  0.804860  0.861680  1.0  0.0476
  N  N96  1  0.966500  0.268270  0.088450  1.0  -0.2451
  N  N97  1  0.972000  0.107370  0.236070  1.0  -0.2902
  N  N98  1  0.106700  0.880220  0.268700  1.0  -0.2234
  N  N99  1  0.975600  0.170900  0.779440  1.0  -0.2962
  N  N100  1  0.893300  0.119780  0.731300  1.0  -0.2235
  N  N101  1  0.524400  0.670900  0.220560  1.0  -0.2952
  N  N102  1  0.475600  0.329100  0.779440  1.0  -0.2958
  N  N103  1  0.984500  0.195140  0.138320  1.0  0.0491
  N  N104  1  0.495400  0.209950  0.611200  1.0  -0.2354
  N  N105  1  0.995400  0.290050  0.611200  1.0  -0.2358
  N  N106  1  0.033500  0.731730  0.911550  1.0  -0.2457
  N  N107  1  0.021800  0.771740  0.331930  1.0  0.059
  N  N108  1  0.083300  0.084330  0.200730  1.0  -0.2147
  N  N109  1  0.533500  0.768270  0.911550  1.0  -0.2453
  N  N110  1  0.466500  0.231730  0.088450  1.0  -0.2454
  N  N111  1  0.978200  0.228260  0.668070  1.0  0.0591
  N  N112  1  0.024400  0.829100  0.220560  1.0  -0.2952
  N  N113  1  0.472000  0.392630  0.236070  1.0  -0.2905
  N  N114  1  0.606700  0.619780  0.268700  1.0  -0.2235
  N  N115  1  0.478200  0.271740  0.668070  1.0  0.0585
  N  N116  1  0.916700  0.915670  0.799270  1.0  -0.2157
  N  N117  1  0.583300  0.415670  0.200730  1.0  -0.2161
  N  N118  1  0.504600  0.790050  0.388800  1.0  -0.2361
  N  N119  1  0.416700  0.584330  0.799270  1.0  -0.2162
  N  N120  1  0.484500  0.304860  0.138320  1.0  0.0482
  N  N121  1  0.393300  0.380220  0.731300  1.0  -0.2242
  N  N122  1  0.521800  0.728260  0.331930  1.0  0.059
  N  N123  1  0.004600  0.709950  0.388800  1.0  -0.2364
  N  N124  1  0.528000  0.607370  0.763930  1.0  -0.2883
  O  O125  1  0.132370  0.573940  0.826870  1.0  -0.5897
  O  O126  1  0.287300  0.933720  0.144590  1.0  -0.5738
  O  O127  1  0.667700  0.881130  0.351310  1.0  -0.4558
  O  O128  1  0.332300  0.118870  0.648690  1.0  -0.459
  O  O129  1  0.867630  0.426060  0.173130  1.0  -0.5893
  O  O130  1  0.861110  0.655610  0.854860  1.0  -0.5164
  O  O131  1  0.212700  0.433720  0.855410  1.0  -0.5739
  O  O132  1  0.265800  0.055600  0.346010  1.0  -0.5444
  O  O133  1  0.632370  0.926060  0.826870  1.0  -0.59
  O  O134  1  0.367630  0.073940  0.173130  1.0  -0.5886
  O  O135  1  0.113800  0.443160  0.689750  1.0  -0.5674
  O  O136  1  0.386200  0.943160  0.310250  1.0  -0.5675
  O  O137  1  0.787300  0.566280  0.144590  1.0  -0.5738
  O  O138  1  0.886200  0.556840  0.310250  1.0  -0.5676
  O  O139  1  0.734200  0.944400  0.653990  1.0  -0.5441
  O  O140  1  0.765800  0.444400  0.346010  1.0  -0.5435
  O  O141  1  0.712700  0.066280  0.855410  1.0  -0.5732
  O  O142  1  0.832300  0.381130  0.648690  1.0  -0.4589
  O  O143  1  0.613800  0.056840  0.689750  1.0  -0.5675
  O  O144  1  0.167700  0.618870  0.351310  1.0  -0.4569
  O  O145  1  0.138890  0.344390  0.145140  1.0  -0.5172
  O  O146  1  0.361110  0.844390  0.854860  1.0  -0.5167
  O  O147  1  0.638890  0.155610  0.145140  1.0  -0.5172
  O  O148  1  0.234200  0.555600  0.653990  1.0  -0.5433
