# generated using pymatgen
data_CdH2C3O4
_symmetry_space_group_name_H-M   'P 1'
_cell_length_a   10.68230000
_cell_length_b   10.68230000
_cell_length_c   10.68230000
_cell_angle_alpha   106.00400000
_cell_angle_beta   106.00400000
_cell_angle_gamma   106.00400000
_symmetry_Int_Tables_number   1
_chemical_formula_structural   CdH2C3O4
_chemical_formula_sum   'Cd6 H12 C18 O24'
_cell_volume   1041.52500176
_cell_formula_units_Z   6
loop_
 _symmetry_equiv_pos_site_id
 _symmetry_equiv_pos_as_xyz
  1  'x, y, z'
loop_
 _atom_site_type_symbol
 _atom_site_label
 _atom_site_symmetry_multiplicity
 _atom_site_fract_x
 _atom_site_fract_y
 _atom_site_fract_z
 _atom_site_occupancy
 _atom_site_charge
  Cd  Cd1  1  0.250490  0.715450  0.984930  1.0  1.1648
  Cd  Cd2  1  0.984930  0.250490  0.715450  1.0  1.1626
  Cd  Cd3  1  0.715450  0.984930  0.250490  1.0  1.1635
  Cd  Cd4  1  0.749510  0.284550  0.015070  1.0  1.1635
  Cd  Cd5  1  0.015070  0.749510  0.284550  1.0  1.1649
  Cd  Cd6  1  0.284550  0.015070  0.749510  1.0  1.162
  H  H7  1  0.856900  0.701500  0.629900  1.0  0.1513
  H  H8  1  0.945400  0.886300  0.711800  1.0  0.1637
  H  H9  1  0.629900  0.856900  0.701500  1.0  0.1524
  H  H10  1  0.711800  0.945400  0.886300  1.0  0.1653
  H  H11  1  0.701500  0.629900  0.856900  1.0  0.1534
  H  H12  1  0.886300  0.711800  0.945400  1.0  0.1633
  H  H13  1  0.143100  0.298500  0.370100  1.0  0.1563
  H  H14  1  0.054600  0.113700  0.288200  1.0  0.1638
  H  H15  1  0.370100  0.143100  0.298500  1.0  0.1546
  H  H16  1  0.288200  0.054600  0.113700  1.0  0.162
  H  H17  1  0.298500  0.370100  0.143100  1.0  0.1549
  H  H18  1  0.113700  0.288200  0.054600  1.0  0.1613
  C  C19  1  0.065400  0.764400  0.782700  1.0  0.7677
  C  C20  1  0.951700  0.775100  0.669700  1.0  -0.5246
  C  C21  1  0.982900  0.775700  0.539200  1.0  0.777
  C  C22  1  0.782700  0.065400  0.764400  1.0  0.7711
  C  C23  1  0.669700  0.951700  0.775100  1.0  -0.5279
  C  C24  1  0.539200  0.982900  0.775700  1.0  0.7722
  C  C25  1  0.764400  0.782700  0.065400  1.0  0.7724
  C  C26  1  0.775100  0.669700  0.951700  1.0  -0.5216
  C  C27  1  0.775700  0.539200  0.982900  1.0  0.7763
  C  C28  1  0.934600  0.235600  0.217300  1.0  0.762
  C  C29  1  0.048300  0.224900  0.330300  1.0  -0.5284
  C  C30  1  0.017100  0.224300  0.460800  1.0  0.7779
  C  C31  1  0.217300  0.934600  0.235600  1.0  0.7739
  C  C32  1  0.330300  0.048300  0.224900  1.0  -0.5281
  C  C33  1  0.460800  0.017100  0.224300  1.0  0.772
  C  C34  1  0.235600  0.217300  0.934600  1.0  0.7736
  C  C35  1  0.224900  0.330300  0.048300  1.0  -0.5317
  C  C36  1  0.224300  0.460800  0.017100  1.0  0.7774
  O  O37  1  0.189100  0.855300  0.835700  1.0  -0.6592
  O  O38  1  0.033200  0.666667  0.823500  1.0  -0.5911
  O  O39  1  0.134800  0.451600  0.907900  1.0  -0.6442
  O  O40  1  0.317000  0.578600  0.105700  1.0  -0.6019
  O  O41  1  0.835700  0.189100  0.855300  1.0  -0.664
  O  O42  1  0.823500  0.033200  0.666667  1.0  -0.5903
  O  O43  1  0.907900  0.134800  0.451600  1.0  -0.6452
  O  O44  1  0.105700  0.317000  0.578600  1.0  -0.6002
  O  O45  1  0.855300  0.835700  0.189100  1.0  -0.6642
  O  O46  1  0.666667  0.823500  0.033200  1.0  -0.5888
  O  O47  1  0.451600  0.907900  0.134800  1.0  -0.6438
  O  O48  1  0.578600  0.105700  0.317000  1.0  -0.602
  O  O49  1  0.810900  0.144700  0.164300  1.0  -0.66
  O  O50  1  0.966800  0.333333  0.176500  1.0  -0.5879
  O  O51  1  0.865200  0.548400  0.092100  1.0  -0.6451
  O  O52  1  0.683000  0.421400  0.894300  1.0  -0.6043
  O  O53  1  0.164300  0.810900  0.144700  1.0  -0.6628
  O  O54  1  0.176500  0.966800  0.333333  1.0  -0.5908
  O  O55  1  0.092100  0.865200  0.548400  1.0  -0.6454
  O  O56  1  0.894300  0.683000  0.421400  1.0  -0.6027
  O  O57  1  0.144700  0.164300  0.810900  1.0  -0.6628
  O  O58  1  0.333333  0.176500  0.966800  1.0  -0.5905
  O  O59  1  0.548400  0.092100  0.865200  1.0  -0.6446
  O  O60  1  0.421400  0.894300  0.683000  1.0  -0.6029
