# generated using pymatgen
data_CdH2C3O4
_symmetry_space_group_name_H-M   'P 1'
_cell_length_a   10.66780000
_cell_length_b   10.66780000
_cell_length_c   10.66780000
_cell_angle_alpha   105.96500000
_cell_angle_beta   105.96500000
_cell_angle_gamma   105.96500000
_symmetry_Int_Tables_number   1
_chemical_formula_structural   CdH2C3O4
_chemical_formula_sum   'Cd6 H12 C18 O24'
_cell_volume   1038.26865404
_cell_formula_units_Z   6
loop_
 _symmetry_equiv_pos_site_id
 _symmetry_equiv_pos_as_xyz
  1  'x, y, z'
loop_
 _atom_site_type_symbol
 _atom_site_label
 _atom_site_symmetry_multiplicity
 _atom_site_fract_x
 _atom_site_fract_y
 _atom_site_fract_z
 _atom_site_occupancy
 _atom_site_charge
  Cd  Cd1  1  0.985070  0.250330  0.715440  1.0  1.1545
  Cd  Cd2  1  0.715440  0.985070  0.250330  1.0  1.155
  Cd  Cd3  1  0.250330  0.715440  0.985070  1.0  1.1554
  Cd  Cd4  1  0.014930  0.749670  0.284560  1.0  1.1568
  Cd  Cd5  1  0.284560  0.014930  0.749670  1.0  1.1551
  Cd  Cd6  1  0.749670  0.284560  0.014930  1.0  1.1554
  H  H7  1  0.301200  0.357900  0.136000  1.0  0.1737
  H  H8  1  0.136900  0.290800  0.060800  1.0  0.1749
  H  H9  1  0.136000  0.301200  0.357900  1.0  0.1742
  H  H10  1  0.060800  0.136900  0.290800  1.0  0.1749
  H  H11  1  0.357900  0.136000  0.301200  1.0  0.1732
  H  H12  1  0.290800  0.060800  0.136900  1.0  0.1773
  H  H13  1  0.698800  0.642100  0.864000  1.0  0.1736
  H  H14  1  0.863100  0.709200  0.939200  1.0  0.1745
  H  H15  1  0.864000  0.698800  0.642100  1.0  0.1732
  H  H16  1  0.939200  0.863100  0.709200  1.0  0.1757
  H  H17  1  0.642100  0.864000  0.698800  1.0  0.1732
  H  H18  1  0.709200  0.939200  0.863100  1.0  0.1774
  C  C19  1  0.235300  0.217700  0.934700  1.0  0.7606
  C  C20  1  0.223700  0.330700  0.048100  1.0  -0.532
  C  C21  1  0.225300  0.461200  0.018300  1.0  0.7786
  C  C22  1  0.934700  0.235300  0.217700  1.0  0.7543
  C  C23  1  0.048100  0.223700  0.330700  1.0  -0.5314
  C  C24  1  0.018300  0.225300  0.461200  1.0  0.78
  C  C25  1  0.217700  0.934700  0.235300  1.0  0.7626
  C  C26  1  0.330700  0.048100  0.223700  1.0  -0.5326
  C  C27  1  0.461200  0.018300  0.225300  1.0  0.7753
  C  C28  1  0.764700  0.782300  0.065300  1.0  0.7605
  C  C29  1  0.776300  0.669300  0.951900  1.0  -0.5307
  C  C30  1  0.774700  0.538800  0.981700  1.0  0.7775
  C  C31  1  0.065300  0.764700  0.782300  1.0  0.7567
  C  C32  1  0.951900  0.776300  0.669300  1.0  -0.5314
  C  C33  1  0.981700  0.774700  0.538800  1.0  0.7789
  C  C34  1  0.782300  0.065300  0.764700  1.0  0.7624
  C  C35  1  0.669300  0.951900  0.776300  1.0  -0.531
  C  C36  1  0.538800  0.981700  0.774700  1.0  0.7748
  O  O37  1  0.144600  0.164200  0.811000  1.0  -0.6725
  O  O38  1  0.333700  0.177100  0.967800  1.0  -0.5822
  O  O39  1  0.134300  0.451400  0.907600  1.0  -0.6676
  O  O40  1  0.316700  0.578100  0.105500  1.0  -0.5889
  O  O41  1  0.811000  0.144600  0.164200  1.0  -0.6688
  O  O42  1  0.967800  0.333700  0.177100  1.0  -0.581
  O  O43  1  0.907600  0.134300  0.451400  1.0  -0.6687
  O  O44  1  0.105500  0.316700  0.578100  1.0  -0.588
  O  O45  1  0.164200  0.811000  0.144600  1.0  -0.6718
  O  O46  1  0.177100  0.967800  0.333700  1.0  -0.5824
  O  O47  1  0.451400  0.907600  0.134300  1.0  -0.6671
  O  O48  1  0.578100  0.105500  0.316700  1.0  -0.5874
  O  O49  1  0.855400  0.835800  0.189000  1.0  -0.6725
  O  O50  1  0.666300  0.822900  0.032200  1.0  -0.582
  O  O51  1  0.865700  0.548600  0.092400  1.0  -0.6695
  O  O52  1  0.683300  0.421900  0.894500  1.0  -0.5912
  O  O53  1  0.189000  0.855400  0.835800  1.0  -0.6683
  O  O54  1  0.032200  0.666300  0.822900  1.0  -0.5821
  O  O55  1  0.092400  0.865700  0.548600  1.0  -0.6696
  O  O56  1  0.894500  0.683300  0.421900  1.0  -0.5883
  O  O57  1  0.835800  0.189000  0.855400  1.0  -0.6732
  O  O58  1  0.822900  0.032200  0.666300  1.0  -0.583
  O  O59  1  0.548600  0.092400  0.865700  1.0  -0.6684
  O  O60  1  0.421900  0.894500  0.683300  1.0  -0.587
