# generated using pymatgen
data_CdH2C3O4
_symmetry_space_group_name_H-M   'P 1'
_cell_length_a   10.69010000
_cell_length_b   10.69010000
_cell_length_c   10.69010000
_cell_angle_alpha   105.94200000
_cell_angle_beta   105.94200000
_cell_angle_gamma   105.94200000
_symmetry_Int_Tables_number   1
_chemical_formula_structural   CdH2C3O4
_chemical_formula_sum   'Cd6 H12 C18 O24'
_cell_volume   1045.37287234
_cell_formula_units_Z   6
loop_
 _symmetry_equiv_pos_site_id
 _symmetry_equiv_pos_as_xyz
  1  'x, y, z'
loop_
 _atom_site_type_symbol
 _atom_site_label
 _atom_site_symmetry_multiplicity
 _atom_site_fract_x
 _atom_site_fract_y
 _atom_site_fract_z
 _atom_site_occupancy
 _atom_site_charge
  Cd  Cd1  1  0.750650  0.485160  0.215570  1.0  1.1565
  Cd  Cd2  1  0.215570  0.750650  0.485160  1.0  1.1556
  Cd  Cd3  1  0.485160  0.215570  0.750650  1.0  1.1567
  Cd  Cd4  1  0.249350  0.514840  0.784430  1.0  1.1572
  Cd  Cd5  1  0.784430  0.249350  0.514840  1.0  1.1571
  Cd  Cd6  1  0.514840  0.784430  0.249350  1.0  1.1537
  H  H7  1  0.364800  0.144600  0.199600  1.0  0.1715
  H  H8  1  0.440300  0.210900  0.363500  1.0  0.1773
  H  H9  1  0.199600  0.364800  0.144600  1.0  0.1709
  H  H10  1  0.363500  0.440300  0.210900  1.0  0.1846
  H  H11  1  0.144600  0.199600  0.364800  1.0  0.1721
  H  H12  1  0.210900  0.363500  0.440300  1.0  0.1756
  H  H13  1  0.635200  0.855400  0.800400  1.0  0.1722
  H  H14  1  0.559700  0.789100  0.636500  1.0  0.1778
  H  H15  1  0.800400  0.635200  0.855400  1.0  0.1723
  H  H16  1  0.636500  0.559700  0.789100  1.0  0.183
  H  H17  1  0.855400  0.800400  0.635200  1.0  0.1725
  H  H18  1  0.789100  0.636500  0.559700  1.0  0.1744
  C  C19  1  0.566000  0.282400  0.265000  1.0  0.7639
  C  C20  1  0.481300  0.038000  0.274300  1.0  0.7633
  C  C21  1  0.452500  0.170900  0.276700  1.0  -0.523
  C  C22  1  0.265000  0.566000  0.282400  1.0  0.7623
  C  C23  1  0.274300  0.481300  0.038000  1.0  0.7689
  C  C24  1  0.276700  0.452500  0.170900  1.0  -0.5236
  C  C25  1  0.282400  0.265000  0.566000  1.0  0.763
  C  C26  1  0.038000  0.274300  0.481300  1.0  0.7648
  C  C27  1  0.170900  0.276700  0.452500  1.0  -0.5228
  C  C28  1  0.434000  0.717600  0.735000  1.0  0.7627
  C  C29  1  0.518700  0.962000  0.725700  1.0  0.7643
  C  C30  1  0.547500  0.829100  0.723300  1.0  -0.5232
  C  C31  1  0.735000  0.434000  0.717600  1.0  0.7584
  C  C32  1  0.725700  0.518700  0.962000  1.0  0.7699
  C  C33  1  0.723300  0.547500  0.829100  1.0  -0.5242
  C  C34  1  0.717600  0.735000  0.434000  1.0  0.7639
  C  C35  1  0.962000  0.725700  0.518700  1.0  0.7655
  C  C36  1  0.829100  0.723300  0.547500  1.0  -0.5236
  O  O37  1  0.689300  0.336000  0.355400  1.0  -0.6674
  O  O38  1  0.592600  0.048600  0.365700  1.0  -0.662
  O  O39  1  0.532100  0.322800  0.166400  1.0  -0.5995
  O  O40  1  0.394700  0.921100  0.183500  1.0  -0.5745
  O  O41  1  0.355400  0.689300  0.336000  1.0  -0.6729
  O  O42  1  0.365700  0.592600  0.048600  1.0  -0.6662
  O  O43  1  0.166400  0.532100  0.322800  1.0  -0.6051
  O  O44  1  0.183500  0.394700  0.921100  1.0  -0.5753
  O  O45  1  0.336000  0.355400  0.689300  1.0  -0.671
  O  O46  1  0.048600  0.365700  0.592600  1.0  -0.6647
  O  O47  1  0.322800  0.166400  0.532100  1.0  -0.6082
  O  O48  1  0.921100  0.183500  0.394700  1.0  -0.5735
  O  O49  1  0.310700  0.664000  0.644600  1.0  -0.6674
  O  O50  1  0.407400  0.951400  0.634300  1.0  -0.6624
  O  O51  1  0.467900  0.677200  0.833600  1.0  -0.6026
  O  O52  1  0.605300  0.078900  0.816500  1.0  -0.5725
  O  O53  1  0.644600  0.310700  0.664000  1.0  -0.6712
  O  O54  1  0.634300  0.407400  0.951400  1.0  -0.6631
  O  O55  1  0.833600  0.467900  0.677200  1.0  -0.6053
  O  O56  1  0.816500  0.605300  0.078900  1.0  -0.5744
  O  O57  1  0.664000  0.644600  0.310700  1.0  -0.6717
  O  O58  1  0.951400  0.634300  0.407400  1.0  -0.6639
  O  O59  1  0.677200  0.833600  0.467900  1.0  -0.6037
  O  O60  1  0.078900  0.816500  0.605300  1.0  -0.5729
