# generated using pymatgen
data_Na5Sm4Cu8H48C48(NO6)8
_symmetry_space_group_name_H-M   'P 1'
_cell_length_a   17.04100000
_cell_length_b   17.04100000
_cell_length_c   25.37100000
_cell_angle_alpha   90.00000000
_cell_angle_beta   90.00000000
_cell_angle_gamma   90.00000000
_symmetry_Int_Tables_number   1
_chemical_formula_structural   Na5Sm4Cu8H48C48(NO6)8
_chemical_formula_sum   'Na10 Sm8 Cu16 H96 C96 N16 O96'
_cell_volume   7367.62882265
_cell_formula_units_Z   2
loop_
 _symmetry_equiv_pos_site_id
 _symmetry_equiv_pos_as_xyz
  1  'x, y, z'
loop_
 _atom_site_type_symbol
 _atom_site_label
 _atom_site_symmetry_multiplicity
 _atom_site_fract_x
 _atom_site_fract_y
 _atom_site_fract_z
 _atom_site_occupancy
 _atom_site_charge
  Na  Na1  1  0.233600  0.194300  0.113890  1.0  0.9476
  Na  Na2  1  0.766400  0.805700  0.113890  1.0  0.9516
  Na  Na3  1  0.194300  0.766400  0.886110  1.0  0.9492
  Na  Na4  1  0.805700  0.233600  0.886110  1.0  0.9515
  Na  Na5  1  0.266400  0.694300  0.386110  1.0  0.9484
  Na  Na6  1  0.733600  0.305700  0.386110  1.0  0.95
  Na  Na7  1  0.305700  0.266400  0.613890  1.0  0.9482
  Na  Na8  1  0.694300  0.733600  0.613890  1.0  0.9527
  Na  Na9  1  0.000000  0.000000  0.000000  1.0  0.8937
  Na  Na10  1  0.500000  0.500000  0.500000  1.0  0.8937
  Sm  Sm11  1  0.275530  0.118190  0.808080  1.0  2.0825
  Sm  Sm12  1  0.724470  0.881810  0.808080  1.0  2.0819
  Sm  Sm13  1  0.118190  0.724470  0.191920  1.0  2.0816
  Sm  Sm14  1  0.881810  0.275530  0.191920  1.0  2.0817
  Sm  Sm15  1  0.224470  0.618190  0.691920  1.0  2.0813
  Sm  Sm16  1  0.775530  0.381810  0.691920  1.0  2.0817
  Sm  Sm17  1  0.381810  0.224470  0.308080  1.0  2.0825
  Sm  Sm18  1  0.618190  0.775530  0.308080  1.0  2.0823
  Cu  Cu19  1  0.128960  0.378500  0.168240  1.0  0.7633
  Cu  Cu20  1  0.119990  0.185170  0.008640  1.0  0.7955
  Cu  Cu21  1  0.871040  0.621500  0.168240  1.0  0.7615
  Cu  Cu22  1  0.880010  0.814830  0.008640  1.0  0.7963
  Cu  Cu23  1  0.378500  0.871040  0.831760  1.0  0.7647
  Cu  Cu24  1  0.185170  0.880010  0.991360  1.0  0.7965
  Cu  Cu25  1  0.621500  0.128960  0.831760  1.0  0.7651
  Cu  Cu26  1  0.814830  0.119990  0.991360  1.0  0.7965
  Cu  Cu27  1  0.371040  0.878500  0.331760  1.0  0.7621
  Cu  Cu28  1  0.380010  0.685170  0.491360  1.0  0.7957
  Cu  Cu29  1  0.628960  0.121500  0.331760  1.0  0.7625
  Cu  Cu30  1  0.619990  0.314830  0.491360  1.0  0.7983
  Cu  Cu31  1  0.121500  0.371040  0.668240  1.0  0.7647
  Cu  Cu32  1  0.314830  0.380010  0.508640  1.0  0.7947
  Cu  Cu33  1  0.878500  0.628960  0.668240  1.0  0.7657
  Cu  Cu34  1  0.685170  0.619990  0.508640  1.0  0.7958
  H  H35  1  0.341100  0.905900  0.690200  1.0  0.0424
  H  H36  1  0.276800  0.863500  0.724100  1.0  0.0387
  H  H37  1  0.361600  0.751600  0.714100  1.0  0.0378
  H  H38  1  0.418900  0.738200  0.761800  1.0  0.0545
  H  H39  1  0.463600  0.926600  0.719200  1.0  0.0657
  H  H40  1  0.485700  0.838300  0.709700  1.0  0.0536
  H  H41  1  0.033600  0.373400  0.006300  1.0  0.0628
  H  H42  1  0.122900  0.383400  0.993100  1.0  0.0468
  H  H43  1  0.998300  0.264800  0.913500  1.0  0.0534
  H  H44  1  0.966800  0.309000  0.963100  1.0  0.0628
  H  H45  1  0.102600  0.309200  0.892900  1.0  0.0606
  H  H46  1  0.174700  0.322300  0.930400  1.0  0.0471
  H  H47  1  0.658900  0.094100  0.690200  1.0  0.0437
  H  H48  1  0.723200  0.136500  0.724100  1.0  0.0386
  H  H49  1  0.638400  0.248400  0.714100  1.0  0.0373
  H  H50  1  0.581100  0.261800  0.761800  1.0  0.0549
  H  H51  1  0.536400  0.073400  0.719200  1.0  0.0654
  H  H52  1  0.514300  0.161700  0.709700  1.0  0.054
  H  H53  1  0.966400  0.626600  0.006300  1.0  0.06
  H  H54  1  0.877100  0.616600  0.993100  1.0  0.0464
  H  H55  1  0.001700  0.735200  0.913500  1.0  0.0543
  H  H56  1  0.033200  0.691000  0.963100  1.0  0.0604
  H  H57  1  0.897400  0.690800  0.892900  1.0  0.0604
  H  H58  1  0.825300  0.677700  0.930400  1.0  0.0468
  H  H59  1  0.905900  0.658900  0.309800  1.0  0.0419
  H  H60  1  0.863500  0.723200  0.275900  1.0  0.0387
  H  H61  1  0.751600  0.638400  0.285900  1.0  0.039
  H  H62  1  0.738200  0.581100  0.238200  1.0  0.0535
  H  H63  1  0.926600  0.536400  0.280800  1.0  0.0628
  H  H64  1  0.838300  0.514300  0.290300  1.0  0.0525
  H  H65  1  0.373400  0.966400  0.993700  1.0  0.064
  H  H66  1  0.383400  0.877100  0.006900  1.0  0.0467
  H  H67  1  0.264800  0.001700  0.086500  1.0  0.051
  H  H68  1  0.309000  0.033200  0.036900  1.0  0.0609
  H  H69  1  0.309200  0.897400  0.107100  1.0  0.0612
  H  H70  1  0.322300  0.825300  0.069600  1.0  0.0468
  H  H71  1  0.094100  0.341100  0.309800  1.0  0.0428
  H  H72  1  0.136500  0.276800  0.275900  1.0  0.0368
  H  H73  1  0.248400  0.361600  0.285900  1.0  0.0382
  H  H74  1  0.261800  0.418900  0.238200  1.0  0.0537
  H  H75  1  0.073400  0.463600  0.280800  1.0  0.062
  H  H76  1  0.161700  0.485700  0.290300  1.0  0.0516
  H  H77  1  0.626600  0.033600  0.993700  1.0  0.0613
  H  H78  1  0.616600  0.122900  0.006900  1.0  0.0476
  H  H79  1  0.735200  0.998300  0.086500  1.0  0.0507
  H  H80  1  0.691000  0.966800  0.036900  1.0  0.0603
  H  H81  1  0.690800  0.102600  0.107100  1.0  0.0609
  H  H82  1  0.677700  0.174700  0.069600  1.0  0.0471
  H  H83  1  0.158900  0.405900  0.809800  1.0  0.0422
  H  H84  1  0.223200  0.363500  0.775900  1.0  0.0378
  H  H85  1  0.138400  0.251600  0.785900  1.0  0.0376
  H  H86  1  0.081100  0.238200  0.738200  1.0  0.0542
  H  H87  1  0.036400  0.426600  0.780800  1.0  0.0656
  H  H88  1  0.014300  0.338300  0.790300  1.0  0.0538
  H  H89  1  0.466400  0.873400  0.493700  1.0  0.0627
  H  H90  1  0.377100  0.883400  0.506900  1.0  0.0467
  H  H91  1  0.501700  0.764800  0.586500  1.0  0.0527
  H  H92  1  0.533200  0.809000  0.536900  1.0  0.0626
  H  H93  1  0.397400  0.809200  0.607100  1.0  0.06
  H  H94  1  0.325300  0.822300  0.569600  1.0  0.0475
  H  H95  1  0.841100  0.594100  0.809800  1.0  0.0431
  H  H96  1  0.776800  0.636500  0.775900  1.0  0.0386
  H  H97  1  0.861600  0.748400  0.785900  1.0  0.0371
  H  H98  1  0.918900  0.761800  0.738200  1.0  0.0552
  H  H99  1  0.963600  0.573400  0.780800  1.0  0.0651
  H  H100  1  0.985700  0.661700  0.790300  1.0  0.0534
  H  H101  1  0.533600  0.126600  0.493700  1.0  0.0624
  H  H102  1  0.622900  0.116600  0.506900  1.0  0.0467
  H  H103  1  0.498300  0.235200  0.586500  1.0  0.0538
  H  H104  1  0.466800  0.191000  0.536900  1.0  0.0608
  H  H105  1  0.602600  0.190800  0.607100  1.0  0.0605
  H  H106  1  0.674700  0.177700  0.569600  1.0  0.0479
  H  H107  1  0.594100  0.158900  0.190200  1.0  0.0428
  H  H108  1  0.636500  0.223200  0.224100  1.0  0.0397
  H  H109  1  0.748400  0.138400  0.214100  1.0  0.039
  H  H110  1  0.761800  0.081100  0.261800  1.0  0.0537
  H  H111  1  0.573400  0.036400  0.219200  1.0  0.0631
  H  H112  1  0.661700  0.014300  0.209700  1.0  0.0518
  H  H113  1  0.126600  0.466400  0.506300  1.0  0.0621
  H  H114  1  0.116600  0.377100  0.493100  1.0  0.0476
  H  H115  1  0.235200  0.501700  0.413500  1.0  0.0518
  H  H116  1  0.191000  0.533200  0.463100  1.0  0.061
  H  H117  1  0.190800  0.397400  0.392900  1.0  0.061
  H  H118  1  0.177700  0.325300  0.430400  1.0  0.0463
  H  H119  1  0.405900  0.841100  0.190200  1.0  0.0428
  H  H120  1  0.363500  0.776800  0.224100  1.0  0.037
  H  H121  1  0.251600  0.861600  0.214100  1.0  0.0391
  H  H122  1  0.238200  0.918900  0.261800  1.0  0.0542
  H  H123  1  0.426600  0.963600  0.219200  1.0  0.0626
  H  H124  1  0.338300  0.985700  0.209700  1.0  0.0522
  H  H125  1  0.873400  0.533600  0.506300  1.0  0.0613
  H  H126  1  0.883400  0.622900  0.493100  1.0  0.0477
  H  H127  1  0.764800  0.498300  0.413500  1.0  0.0509
  H  H128  1  0.809000  0.466800  0.463100  1.0  0.059
  H  H129  1  0.809200  0.602600  0.392900  1.0  0.0614
  H  H130  1  0.822300  0.674700  0.430400  1.0  0.0473
  C  C131  1  0.306700  0.971300  0.754200  1.0  0.7014
  C  C132  1  0.324100  0.894900  0.725900  1.0  -0.2358
  C  C133  1  0.305000  0.743700  0.784100  1.0  0.6315
  C  C134  1  0.372300  0.766100  0.750400  1.0  -0.1135
  C  C135  1  0.523100  0.878800  0.781000  1.0  0.7253
  C  C136  1  0.466600  0.875400  0.735700  1.0  -0.2108
  C  C137  1  0.104300  0.324200  0.060800  1.0  0.6827
  C  C138  1  0.083900  0.346600  0.006000  1.0  -0.1865
  C  C139  1  0.961000  0.191200  0.970600  1.0  0.7066
  C  C140  1  0.998900  0.265200  0.951700  1.0  -0.1803
  C  C141  1  0.164000  0.209700  0.906400  1.0  0.685
  C  C142  1  0.131800  0.286900  0.922100  1.0  -0.1889
  C  C143  1  0.693300  0.028700  0.754200  1.0  0.698
  C  C144  1  0.675900  0.105100  0.725900  1.0  -0.2359
  C  C145  1  0.695000  0.256300  0.784100  1.0  0.6318
  C  C146  1  0.627700  0.233900  0.750400  1.0  -0.114
  C  C147  1  0.476900  0.121200  0.781000  1.0  0.7306
  C  C148  1  0.533400  0.124600  0.735700  1.0  -0.2107
  C  C149  1  0.895700  0.675800  0.060800  1.0  0.6826
  C  C150  1  0.916100  0.653400  0.006000  1.0  -0.1829
  C  C151  1  0.039000  0.808800  0.970600  1.0  0.7061
  C  C152  1  0.001100  0.734800  0.951700  1.0  -0.1795
  C  C153  1  0.836000  0.790300  0.906400  1.0  0.6899
  C  C154  1  0.868200  0.713100  0.922100  1.0  -0.1905
  C  C155  1  0.971300  0.693300  0.245800  1.0  0.699
  C  C156  1  0.894900  0.675900  0.274100  1.0  -0.2389
  C  C157  1  0.743700  0.695000  0.215900  1.0  0.632
  C  C158  1  0.766100  0.627700  0.249600  1.0  -0.1134
  C  C159  1  0.878800  0.476900  0.219000  1.0  0.7328
  C  C160  1  0.875400  0.533400  0.264300  1.0  -0.218
  C  C161  1  0.324200  0.895700  0.939200  1.0  0.6837
  C  C162  1  0.346600  0.916100  0.994000  1.0  -0.1779
  C  C163  1  0.191200  0.039000  0.029400  1.0  0.7059
  C  C164  1  0.265200  0.001100  0.048300  1.0  -0.1838
  C  C165  1  0.209700  0.836000  0.093600  1.0  0.6849
  C  C166  1  0.286900  0.868200  0.077900  1.0  -0.19
  C  C167  1  0.028700  0.306700  0.245800  1.0  0.7016
  C  C168  1  0.105100  0.324100  0.274100  1.0  -0.2371
  C  C169  1  0.256300  0.305000  0.215900  1.0  0.6266
  C  C170  1  0.233900  0.372300  0.249600  1.0  -0.1116
  C  C171  1  0.121200  0.523100  0.219000  1.0  0.7347
  C  C172  1  0.124600  0.466600  0.264300  1.0  -0.2181
  C  C173  1  0.675800  0.104300  0.939200  1.0  0.6854
  C  C174  1  0.653400  0.083900  0.994000  1.0  -0.177
  C  C175  1  0.808800  0.961000  0.029400  1.0  0.7047
  C  C176  1  0.734800  0.998900  0.048300  1.0  -0.1822
  C  C177  1  0.790300  0.164000  0.093600  1.0  0.685
  C  C178  1  0.713100  0.131800  0.077900  1.0  -0.1921
  C  C179  1  0.193300  0.471300  0.745800  1.0  0.6947
  C  C180  1  0.175900  0.394900  0.774100  1.0  -0.2382
  C  C181  1  0.195000  0.243700  0.715900  1.0  0.6318
  C  C182  1  0.127700  0.266100  0.749600  1.0  -0.1135
  C  C183  1  0.976900  0.378800  0.719000  1.0  0.7309
  C  C184  1  0.033400  0.375400  0.764300  1.0  -0.2154
  C  C185  1  0.395700  0.824200  0.439200  1.0  0.6845
  C  C186  1  0.416100  0.846600  0.494000  1.0  -0.1855
  C  C187  1  0.539000  0.691200  0.529400  1.0  0.7059
  C  C188  1  0.501100  0.765200  0.548300  1.0  -0.1795
  C  C189  1  0.336000  0.709700  0.593600  1.0  0.6857
  C  C190  1  0.368200  0.786900  0.577900  1.0  -0.1889
  C  C191  1  0.806700  0.528700  0.745800  1.0  0.6962
  C  C192  1  0.824100  0.605100  0.774100  1.0  -0.239
  C  C193  1  0.805000  0.756300  0.715900  1.0  0.6349
  C  C194  1  0.872300  0.733900  0.749600  1.0  -0.1137
  C  C195  1  0.023100  0.621200  0.719000  1.0  0.7264
  C  C196  1  0.966600  0.624600  0.764300  1.0  -0.2161
  C  C197  1  0.604300  0.175800  0.439200  1.0  0.6839
  C  C198  1  0.583900  0.153400  0.494000  1.0  -0.1845
  C  C199  1  0.461000  0.308800  0.529400  1.0  0.7076
  C  C200  1  0.498900  0.234800  0.548300  1.0  -0.1798
  C  C201  1  0.664000  0.290300  0.593600  1.0  0.6851
  C  C202  1  0.631800  0.213100  0.577900  1.0  -0.1892
  C  C203  1  0.528700  0.193300  0.254200  1.0  0.7054
  C  C204  1  0.605100  0.175900  0.225900  1.0  -0.2362
  C  C205  1  0.756300  0.195000  0.284100  1.0  0.6267
  C  C206  1  0.733900  0.127700  0.250400  1.0  -0.1111
  C  C207  1  0.621200  0.976900  0.281000  1.0  0.7326
  C  C208  1  0.624600  0.033400  0.235700  1.0  -0.2135
  C  C209  1  0.175800  0.395700  0.560800  1.0  0.684
  C  C210  1  0.153400  0.416100  0.506000  1.0  -0.1756
  C  C211  1  0.308800  0.539000  0.470600  1.0  0.7047
  C  C212  1  0.234800  0.501100  0.451700  1.0  -0.184
  C  C213  1  0.290300  0.336000  0.406400  1.0  0.686
  C  C214  1  0.213100  0.368200  0.422100  1.0  -0.1892
  C  C215  1  0.471300  0.806700  0.254200  1.0  0.7032
  C  C216  1  0.394900  0.824100  0.225900  1.0  -0.2329
  C  C217  1  0.243700  0.805000  0.284100  1.0  0.6304
  C  C218  1  0.266100  0.872300  0.250400  1.0  -0.1129
  C  C219  1  0.378800  0.023100  0.281000  1.0  0.7333
  C  C220  1  0.375400  0.966600  0.235700  1.0  -0.2132
  C  C221  1  0.824200  0.604300  0.560800  1.0  0.6827
  C  C222  1  0.846600  0.583900  0.506000  1.0  -0.1783
  C  C223  1  0.691200  0.461000  0.470600  1.0  0.7068
  C  C224  1  0.765200  0.498900  0.451700  1.0  -0.1838
  C  C225  1  0.709700  0.664000  0.406400  1.0  0.6887
  C  C226  1  0.786900  0.631800  0.422100  1.0  -0.1901
  N  N227  1  0.385700  0.850900  0.753800  1.0  -0.1021
  N  N228  1  0.079300  0.279500  0.968900  1.0  -0.1071
  N  N229  1  0.614300  0.149100  0.753800  1.0  -0.102
  N  N230  1  0.920700  0.720500  0.968900  1.0  -0.1069
  N  N231  1  0.850900  0.614300  0.246200  1.0  -0.1033
  N  N232  1  0.279500  0.920700  0.031100  1.0  -0.1074
  N  N233  1  0.149100  0.385700  0.246200  1.0  -0.1042
  N  N234  1  0.720500  0.079300  0.031100  1.0  -0.106
  N  N235  1  0.114300  0.350900  0.746200  1.0  -0.1024
  N  N236  1  0.420700  0.779500  0.531100  1.0  -0.1067
  N  N237  1  0.885700  0.649100  0.746200  1.0  -0.103
  N  N238  1  0.579300  0.220500  0.531100  1.0  -0.106
  N  N239  1  0.649100  0.114300  0.253800  1.0  -0.103
  N  N240  1  0.220500  0.420700  0.468900  1.0  -0.1071
  N  N241  1  0.350900  0.885700  0.253800  1.0  -0.1031
  N  N242  1  0.779500  0.579300  0.468900  1.0  -0.1075
  O  O243  1  0.322600  0.976300  0.802800  1.0  -0.6877
  O  O244  1  0.276400  0.025200  0.728900  1.0  -0.6736
  O  O245  1  0.297600  0.784100  0.826900  1.0  -0.7129
  O  O246  1  0.261100  0.688800  0.771600  1.0  -0.7293
  O  O247  1  0.593700  0.880200  0.769500  1.0  -0.7536
  O  O248  1  0.496500  0.884900  0.827400  1.0  -0.6381
  O  O249  1  0.107900  0.379600  0.093800  1.0  -0.6702
  O  O250  1  0.115200  0.252500  0.072200  1.0  -0.6819
  O  O251  1  0.999300  0.145000  0.998900  1.0  -0.6627
  O  O252  1  0.893100  0.179000  0.953600  1.0  -0.7092
  O  O253  1  0.196500  0.204200  0.862600  1.0  -0.6896
  O  O254  1  0.159200  0.154100  0.939500  1.0  -0.6375
  O  O255  1  0.677400  0.023700  0.802800  1.0  -0.6882
  O  O256  1  0.723600  0.974800  0.728900  1.0  -0.6755
  O  O257  1  0.702400  0.215900  0.826900  1.0  -0.7111
  O  O258  1  0.738900  0.311200  0.771600  1.0  -0.7297
  O  O259  1  0.406300  0.119800  0.769500  1.0  -0.7508
  O  O260  1  0.503500  0.115100  0.827400  1.0  -0.6373
  O  O261  1  0.892100  0.620400  0.093800  1.0  -0.6705
  O  O262  1  0.884800  0.747500  0.072200  1.0  -0.6825
  O  O263  1  0.000700  0.855000  0.998900  1.0  -0.6635
  O  O264  1  0.106900  0.821000  0.953600  1.0  -0.71
  O  O265  1  0.803500  0.795800  0.862600  1.0  -0.6881
  O  O266  1  0.840800  0.845900  0.939500  1.0  -0.64
  O  O267  1  0.976300  0.677400  0.197200  1.0  -0.6858
  O  O268  1  0.025200  0.723600  0.271100  1.0  -0.6719
  O  O269  1  0.784100  0.702400  0.173100  1.0  -0.7176
  O  O270  1  0.688800  0.738900  0.228400  1.0  -0.7337
  O  O271  1  0.880200  0.406300  0.230500  1.0  -0.749
  O  O272  1  0.884900  0.503500  0.172600  1.0  -0.6402
  O  O273  1  0.379600  0.892100  0.906200  1.0  -0.6712
  O  O274  1  0.252500  0.884800  0.927800  1.0  -0.6806
  O  O275  1  0.145000  0.000700  0.001100  1.0  -0.6655
  O  O276  1  0.179000  0.106900  0.046400  1.0  -0.71
  O  O277  1  0.204200  0.803500  0.137400  1.0  -0.6869
  O  O278  1  0.154100  0.840800  0.060500  1.0  -0.6384
  O  O279  1  0.023700  0.322600  0.197200  1.0  -0.6853
  O  O280  1  0.974800  0.276400  0.271100  1.0  -0.6733
  O  O281  1  0.215900  0.297600  0.173100  1.0  -0.7152
  O  O282  1  0.311200  0.261100  0.228400  1.0  -0.7328
  O  O283  1  0.119800  0.593700  0.230500  1.0  -0.7471
  O  O284  1  0.115100  0.496500  0.172600  1.0  -0.6418
  O  O285  1  0.620400  0.107900  0.906200  1.0  -0.6713
  O  O286  1  0.747500  0.115200  0.927800  1.0  -0.6821
  O  O287  1  0.855000  0.999300  0.001100  1.0  -0.6627
  O  O288  1  0.821000  0.893100  0.046400  1.0  -0.7072
  O  O289  1  0.795800  0.196500  0.137400  1.0  -0.6869
  O  O290  1  0.845900  0.159200  0.060500  1.0  -0.6396
  O  O291  1  0.177400  0.476300  0.697200  1.0  -0.6875
  O  O292  1  0.223600  0.525200  0.771100  1.0  -0.675
  O  O293  1  0.202400  0.284100  0.673100  1.0  -0.7119
  O  O294  1  0.238900  0.188800  0.728400  1.0  -0.7293
  O  O295  1  0.906300  0.380200  0.730500  1.0  -0.7509
  O  O296  1  0.003500  0.384900  0.672600  1.0  -0.6383
  O  O297  1  0.392100  0.879600  0.406200  1.0  -0.6716
  O  O298  1  0.384800  0.752500  0.427800  1.0  -0.6811
  O  O299  1  0.500700  0.645000  0.501100  1.0  -0.6618
  O  O300  1  0.606900  0.679000  0.546400  1.0  -0.7089
  O  O301  1  0.303500  0.704200  0.637400  1.0  -0.6865
  O  O302  1  0.340800  0.654100  0.560500  1.0  -0.6376
  O  O303  1  0.822600  0.523700  0.697200  1.0  -0.6874
  O  O304  1  0.776400  0.474800  0.771100  1.0  -0.6699
  O  O305  1  0.797600  0.715900  0.673100  1.0  -0.7153
  O  O306  1  0.761100  0.811200  0.728400  1.0  -0.7291
  O  O307  1  0.093700  0.619800  0.730500  1.0  -0.7557
  O  O308  1  0.996500  0.615100  0.672600  1.0  -0.641
  O  O309  1  0.607900  0.120400  0.406200  1.0  -0.6719
  O  O310  1  0.615200  0.247500  0.427800  1.0  -0.6824
  O  O311  1  0.499300  0.355000  0.501100  1.0  -0.6632
  O  O312  1  0.393100  0.321000  0.546400  1.0  -0.7097
  O  O313  1  0.696500  0.295800  0.637400  1.0  -0.688
  O  O314  1  0.659200  0.345900  0.560500  1.0  -0.6389
  O  O315  1  0.523700  0.177400  0.302800  1.0  -0.6874
  O  O316  1  0.474800  0.223600  0.228900  1.0  -0.6729
  O  O317  1  0.715900  0.202400  0.326900  1.0  -0.7151
  O  O318  1  0.811200  0.238900  0.271600  1.0  -0.7334
  O  O319  1  0.619800  0.906300  0.269500  1.0  -0.7475
  O  O320  1  0.615100  0.003500  0.327400  1.0  -0.6398
  O  O321  1  0.120400  0.392100  0.593800  1.0  -0.6697
  O  O322  1  0.247500  0.384800  0.572200  1.0  -0.6808
  O  O323  1  0.355000  0.500700  0.498900  1.0  -0.6633
  O  O324  1  0.321000  0.606900  0.453600  1.0  -0.7087
  O  O325  1  0.295800  0.303500  0.362600  1.0  -0.6866
  O  O326  1  0.345900  0.340800  0.439500  1.0  -0.6381
  O  O327  1  0.476300  0.822600  0.302800  1.0  -0.6863
  O  O328  1  0.525200  0.776400  0.228900  1.0  -0.6731
  O  O329  1  0.284100  0.797600  0.326900  1.0  -0.7137
  O  O330  1  0.188800  0.761100  0.271600  1.0  -0.7349
  O  O331  1  0.380200  0.093700  0.269500  1.0  -0.7482
  O  O332  1  0.384900  0.996500  0.327400  1.0  -0.6395
  O  O333  1  0.879600  0.607900  0.593800  1.0  -0.6702
  O  O334  1  0.752500  0.615200  0.572200  1.0  -0.6818
  O  O335  1  0.645000  0.499300  0.498900  1.0  -0.6648
  O  O336  1  0.679000  0.393100  0.453600  1.0  -0.7088
  O  O337  1  0.704200  0.696500  0.362600  1.0  -0.6874
  O  O338  1  0.654100  0.659200  0.439500  1.0  -0.6398
