# generated using pymatgen
data_Ag2H8C8N5O2
_symmetry_space_group_name_H-M   'P 1'
_cell_length_a   18.50550000
_cell_length_b   18.50550000
_cell_length_c   22.55600000
_cell_angle_alpha   90.00000000
_cell_angle_beta   90.00000000
_cell_angle_gamma   120.00000000
_symmetry_Int_Tables_number   1
_chemical_formula_structural   Ag2H8C8N5O2
_chemical_formula_sum   'Ag36 H144 C144 N90 O36'
_cell_volume   6689.51089186
_cell_formula_units_Z   18
loop_
 _symmetry_equiv_pos_site_id
 _symmetry_equiv_pos_as_xyz
  1  'x, y, z'
loop_
 _atom_site_type_symbol
 _atom_site_label
 _atom_site_symmetry_multiplicity
 _atom_site_fract_x
 _atom_site_fract_y
 _atom_site_fract_z
 _atom_site_occupancy
 _atom_site_charge
  Ag  Ag1  1  0.892870  0.146680  0.345710  1.0  0.3476
  Ag  Ag2  1  0.473970  0.900880  0.385190  1.0  0.323
  Ag  Ag3  1  0.820120  0.002730  0.598680  1.0  0.3924
  Ag  Ag4  1  0.835400  0.839100  0.473390  1.0  0.3593
  Ag  Ag5  1  0.559540  0.480010  0.679040  1.0  0.3477
  Ag  Ag6  1  0.140640  0.234210  0.718520  1.0  0.323
  Ag  Ag7  1  0.486790  0.336060  0.932010  1.0  0.3924
  Ag  Ag8  1  0.502070  0.172430  0.806720  1.0  0.3593
  Ag  Ag9  1  0.226200  0.813350  0.012380  1.0  0.3468
  Ag  Ag10  1  0.807300  0.567550  0.051860  1.0  0.323
  Ag  Ag11  1  0.153450  0.669400  0.265350  1.0  0.3924
  Ag  Ag12  1  0.168730  0.505770  0.140060  1.0  0.3593
  Ag  Ag13  1  0.853320  0.746190  0.345710  1.0  0.346
  Ag  Ag14  1  0.099120  0.573090  0.385190  1.0  0.3233
  Ag  Ag15  1  0.997270  0.817390  0.598680  1.0  0.3954
  Ag  Ag16  1  0.160900  0.996300  0.473390  1.0  0.358
  Ag  Ag17  1  0.519990  0.079520  0.679040  1.0  0.346
  Ag  Ag18  1  0.765790  0.906420  0.718520  1.0  0.3233
  Ag  Ag19  1  0.663940  0.150720  0.932010  1.0  0.3954
  Ag  Ag20  1  0.827570  0.329630  0.806720  1.0  0.358
  Ag  Ag21  1  0.186650  0.412860  0.012380  1.0  0.346
  Ag  Ag22  1  0.432450  0.239760  0.051860  1.0  0.3233
  Ag  Ag23  1  0.330600  0.484060  0.265350  1.0  0.3954
  Ag  Ag24  1  0.494230  0.662970  0.140060  1.0  0.3579
  Ag  Ag25  1  0.253810  0.107130  0.345710  1.0  0.3465
  Ag  Ag26  1  0.426910  0.526030  0.385190  1.0  0.3233
  Ag  Ag27  1  0.182610  0.179880  0.598680  1.0  0.3931
  Ag  Ag28  1  0.003700  0.164600  0.473390  1.0  0.3627
  Ag  Ag29  1  0.920480  0.440460  0.679040  1.0  0.3465
  Ag  Ag30  1  0.093580  0.859360  0.718520  1.0  0.3233
  Ag  Ag31  1  0.849280  0.513210  0.932010  1.0  0.3931
  Ag  Ag32  1  0.670370  0.497930  0.806720  1.0  0.3627
  Ag  Ag33  1  0.587140  0.773800  0.012380  1.0  0.3465
  Ag  Ag34  1  0.760240  0.192700  0.051860  1.0  0.3233
  Ag  Ag35  1  0.515940  0.846550  0.265350  1.0  0.3931
  Ag  Ag36  1  0.337030  0.831270  0.140060  1.0  0.3627
  H  H37  1  0.685300  0.754500  0.497800  1.0  0.0788
  H  H38  1  0.589200  0.693800  0.481400  1.0  0.0863
  H  H39  1  0.726600  0.093900  0.334000  1.0  0.3179
  H  H40  1  0.636600  0.033200  0.351600  1.0  0.2999
  H  H41  1  0.548000  0.744500  0.563600  1.0  0.1033
  H  H42  1  0.602200  0.703800  0.584700  1.0  0.1087
  H  H43  1  0.722200  0.109900  0.479900  1.0  0.1096
  H  H44  1  0.769000  0.206800  0.496500  1.0  0.1109
  H  H45  1  0.880700  0.995000  0.404300  1.0  0.0494
  H  H46  1  0.796100  0.291700  0.602700  1.0  0.0677
  H  H47  1  0.095100  0.354600  0.740500  1.0  0.3224
  H  H48  1  0.041100  0.391700  0.722400  1.0  0.2988
  H  H49  1  0.982500  0.103900  0.667600  1.0  0.0605
  H  H50  1  0.695700  0.127800  0.580600  1.0  0.094
  H  H51  1  0.743500  0.075700  0.577200  1.0  0.122
  H  H52  1  0.505200  0.780900  0.464600  1.0  0.069
  H  H53  1  0.351970  0.087830  0.831130  1.0  0.0788
  H  H54  1  0.255870  0.027130  0.814730  1.0  0.0863
  H  H55  1  0.393270  0.427230  0.667330  1.0  0.3179
  H  H56  1  0.303270  0.366530  0.684930  1.0  0.2999
  H  H57  1  0.214670  0.077830  0.896930  1.0  0.1049
  H  H58  1  0.268870  0.037130  0.918030  1.0  0.109
  H  H59  1  0.388870  0.443230  0.813230  1.0  0.1096
  H  H60  1  0.435670  0.540130  0.829830  1.0  0.1109
  H  H61  1  0.547370  0.328330  0.737630  1.0  0.0494
  H  H62  1  0.462770  0.625030  0.936030  1.0  0.0644
  H  H63  1  0.761770  0.687930  0.073830  1.0  0.3224
  H  H64  1  0.707770  0.725030  0.055730  1.0  0.2988
  H  H65  1  0.649170  0.437230  0.000930  1.0  0.061
  H  H66  1  0.362370  0.461130  0.913930  1.0  0.094
  H  H67  1  0.410170  0.409030  0.910530  1.0  0.1219
  H  H68  1  0.171870  0.114230  0.797930  1.0  0.069
  H  H69  1  0.018630  0.421170  0.164470  1.0  0.0787
  H  H70  1  0.922530  0.360470  0.148070  1.0  0.0864
  H  H71  1  0.059930  0.760570  0.000670  1.0  0.3179
  H  H72  1  0.969930  0.699870  0.018270  1.0  0.3
  H  H73  1  0.881330  0.411170  0.230270  1.0  0.1033
  H  H74  1  0.935530  0.370470  0.251370  1.0  0.1087
  H  H75  1  0.055530  0.776570  0.146570  1.0  0.1096
  H  H76  1  0.102330  0.873470  0.163170  1.0  0.1133
  H  H77  1  0.214030  0.661670  0.070970  1.0  0.0447
  H  H78  1  0.129430  0.958370  0.269370  1.0  0.0677
  H  H79  1  0.428430  0.021270  0.407170  1.0  0.3224
  H  H80  1  0.374430  0.058370  0.389070  1.0  0.2988
  H  H81  1  0.315830  0.770570  0.334270  1.0  0.0605
  H  H82  1  0.029030  0.794470  0.247270  1.0  0.094
  H  H83  1  0.076830  0.742370  0.243870  1.0  0.122
  H  H84  1  0.838530  0.447570  0.131270  1.0  0.0697
  H  H85  1  0.245500  0.930800  0.497800  1.0  0.0847
  H  H86  1  0.306200  0.895400  0.481400  1.0  0.0856
  H  H87  1  0.906100  0.632700  0.334000  1.0  0.3219
  H  H88  1  0.966800  0.603400  0.351600  1.0  0.3003
  H  H89  1  0.255500  0.803500  0.563600  1.0  0.1089
  H  H90  1  0.296200  0.898400  0.584700  1.0  0.1083
  H  H91  1  0.890100  0.612300  0.479900  1.0  0.1089
  H  H92  1  0.793200  0.562200  0.496500  1.0  0.1099
  H  H93  1  0.005000  0.885700  0.404300  1.0  0.0443
  H  H94  1  0.708300  0.504400  0.602700  1.0  0.0672
  H  H95  1  0.645400  0.740500  0.740500  1.0  0.3224
  H  H96  1  0.608300  0.649400  0.722400  1.0  0.2992
  H  H97  1  0.896100  0.878600  0.667600  1.0  0.0622
  H  H98  1  0.872200  0.567900  0.580600  1.0  0.0935
  H  H99  1  0.924300  0.667800  0.577200  1.0  0.1234
  H  H100  1  0.219100  0.724300  0.464600  1.0  0.0741
  H  H101  1  0.912170  0.264130  0.831130  1.0  0.0847
  H  H102  1  0.972870  0.228730  0.814730  1.0  0.0856
  H  H103  1  0.572770  0.966030  0.667330  1.0  0.3219
  H  H104  1  0.633470  0.936730  0.684930  1.0  0.3003
  H  H105  1  0.922170  0.136830  0.896930  1.0  0.1077
  H  H106  1  0.962870  0.231730  0.918030  1.0  0.1086
  H  H107  1  0.556770  0.945630  0.813230  1.0  0.1089
  H  H108  1  0.459870  0.895530  0.829830  1.0  0.1099
  H  H109  1  0.671670  0.219030  0.737630  1.0  0.0443
  H  H110  1  0.374970  0.837730  0.936030  1.0  0.0684
  H  H111  1  0.312070  0.073830  0.073830  1.0  0.3223
  H  H112  1  0.274970  0.982730  0.055730  1.0  0.2992
  H  H113  1  0.562770  0.211930  0.000930  1.0  0.0606
  H  H114  1  0.538870  0.901230  0.913930  1.0  0.0935
  H  H115  1  0.590970  0.001130  0.910530  1.0  0.1234
  H  H116  1  0.885770  0.057630  0.797930  1.0  0.0741
  H  H117  1  0.578830  0.597470  0.164470  1.0  0.0847
  H  H118  1  0.639530  0.562070  0.148070  1.0  0.0856
  H  H119  1  0.239430  0.299370  0.000670  1.0  0.3219
  H  H120  1  0.300130  0.270070  0.018270  1.0  0.3002
  H  H121  1  0.588830  0.470170  0.230270  1.0  0.1089
  H  H122  1  0.629530  0.565070  0.251370  1.0  0.1083
  H  H123  1  0.223430  0.278970  0.146570  1.0  0.1089
  H  H124  1  0.126530  0.228870  0.163170  1.0  0.1101
  H  H125  1  0.338330  0.552370  0.070970  1.0  0.0475
  H  H126  1  0.041630  0.171070  0.269370  1.0  0.0672
  H  H127  1  0.978730  0.407170  0.407170  1.0  0.3224
  H  H128  1  0.941630  0.316070  0.389070  1.0  0.2992
  H  H129  1  0.229430  0.545270  0.334270  1.0  0.0622
  H  H130  1  0.205530  0.234570  0.247270  1.0  0.0935
  H  H131  1  0.257630  0.334470  0.243870  1.0  0.1234
  H  H132  1  0.552430  0.390970  0.131270  1.0  0.0701
  H  H133  1  0.069200  0.314700  0.497800  1.0  0.0833
  H  H134  1  0.104600  0.410800  0.481400  1.0  0.0864
  H  H135  1  0.367300  0.273400  0.334000  1.0  0.3224
  H  H136  1  0.396600  0.363400  0.351600  1.0  0.301
  H  H137  1  0.196500  0.452000  0.563600  1.0  0.1083
  H  H138  1  0.101600  0.397800  0.584700  1.0  0.1075
  H  H139  1  0.387700  0.277800  0.479900  1.0  0.1099
  H  H140  1  0.437800  0.231000  0.496500  1.0  0.106
  H  H141  1  0.114300  0.119300  0.404300  1.0  0.0472
  H  H142  1  0.495600  0.203900  0.602700  1.0  0.0647
  H  H143  1  0.259500  0.904900  0.740500  1.0  0.3218
  H  H144  1  0.350600  0.958900  0.722400  1.0  0.3001
  H  H145  1  0.121400  0.017500  0.667600  1.0  0.06
  H  H146  1  0.432100  0.304300  0.580600  1.0  0.0923
  H  H147  1  0.332200  0.256500  0.577200  1.0  0.1245
  H  H148  1  0.275700  0.494800  0.464600  1.0  0.0702
  H  H149  1  0.735870  0.648030  0.831130  1.0  0.0833
  H  H150  1  0.771270  0.744130  0.814730  1.0  0.0863
  H  H151  1  0.033970  0.606730  0.667330  1.0  0.3224
  H  H152  1  0.063270  0.696730  0.684930  1.0  0.301
  H  H153  1  0.863170  0.785330  0.896930  1.0  0.1088
  H  H154  1  0.768270  0.731130  0.918030  1.0  0.1078
  H  H155  1  0.054370  0.611130  0.813230  1.0  0.1099
  H  H156  1  0.104470  0.564330  0.829830  1.0  0.106
  H  H157  1  0.780970  0.452630  0.737630  1.0  0.0472
  H  H158  1  0.162270  0.537230  0.936030  1.0  0.0657
  H  H159  1  0.926170  0.238230  0.073830  1.0  0.3218
  H  H160  1  0.017270  0.292230  0.055730  1.0  0.3001
  H  H161  1  0.788070  0.350830  0.000930  1.0  0.0615
  H  H162  1  0.098770  0.637630  0.913930  1.0  0.0923
  H  H163  1  0.998870  0.589830  0.910530  1.0  0.1245
  H  H164  1  0.942370  0.828130  0.797930  1.0  0.0702
  H  H165  1  0.402530  0.981370  0.164470  1.0  0.0833
  H  H166  1  0.437930  0.077470  0.148070  1.0  0.0864
  H  H167  1  0.700630  0.940070  0.000670  1.0  0.3224
  H  H168  1  0.729930  0.030070  0.018270  1.0  0.301
  H  H169  1  0.529830  0.118670  0.230270  1.0  0.1083
  H  H170  1  0.434930  0.064470  0.251370  1.0  0.1075
  H  H171  1  0.721030  0.944470  0.146570  1.0  0.1099
  H  H172  1  0.771130  0.897670  0.163170  1.0  0.1027
  H  H173  1  0.447630  0.785970  0.070970  1.0  0.0478
  H  H174  1  0.828930  0.870570  0.269370  1.0  0.0647
  H  H175  1  0.592830  0.571570  0.407170  1.0  0.3218
  H  H176  1  0.683930  0.625570  0.389070  1.0  0.3001
  H  H177  1  0.454730  0.684170  0.334270  1.0  0.06
  H  H178  1  0.765430  0.970970  0.247270  1.0  0.0923
  H  H179  1  0.665530  0.923170  0.243870  1.0  0.1245
  H  H180  1  0.609030  0.161470  0.131270  1.0  0.0735
  C  C181  1  0.714100  0.999900  0.378900  1.0  0.4752
  C  C182  1  0.629100  0.748700  0.498800  1.0  -0.0477
  C  C183  1  0.663300  0.831100  0.595700  1.0  0.7264
  C  C184  1  0.693700  0.881400  0.436400  1.0  0.2943
  C  C185  1  0.604700  0.751600  0.563100  1.0  -0.4133
  C  C186  1  0.660300  0.924500  0.408700  1.0  0.013
  C  C187  1  0.767900  0.153500  0.503900  1.0  -0.379
  C  C188  1  0.851000  0.162300  0.483300  1.0  0.7158
  C  C189  1  0.822500  0.975600  0.406000  1.0  0.307
  C  C190  1  0.831300  0.272300  0.617700  1.0  0.1531
  C  C191  1  0.930200  0.267600  0.661800  1.0  -0.0233
  C  C192  1  0.002000  0.281800  0.692100  1.0  0.4478
  C  C193  1  0.883000  0.191900  0.634500  1.0  0.2671
  C  C194  1  0.968200  0.146500  0.665400  1.0  0.2794
  C  C195  1  0.749100  0.131000  0.569900  1.0  -0.0948
  C  C196  1  0.559400  0.819900  0.450500  1.0  0.1303
  C  C197  1  0.380770  0.333230  0.712230  1.0  0.4752
  C  C198  1  0.295770  0.082030  0.832130  1.0  -0.0477
  C  C199  1  0.329970  0.164430  0.929030  1.0  0.7264
  C  C200  1  0.360370  0.214730  0.769730  1.0  0.2943
  C  C201  1  0.271370  0.084930  0.896430  1.0  -0.4132
  C  C202  1  0.326970  0.257830  0.742030  1.0  0.013
  C  C203  1  0.434570  0.486830  0.837230  1.0  -0.3786
  C  C204  1  0.517670  0.495630  0.816630  1.0  0.7158
  C  C205  1  0.489170  0.308930  0.739330  1.0  0.307
  C  C206  1  0.497970  0.605630  0.951030  1.0  0.1533
  C  C207  1  0.596870  0.600930  0.995130  1.0  -0.0233
  C  C208  1  0.668670  0.615130  0.025430  1.0  0.4478
  C  C209  1  0.549670  0.525230  0.967830  1.0  0.2671
  C  C210  1  0.634870  0.479830  0.998730  1.0  0.2793
  C  C211  1  0.415770  0.464330  0.903230  1.0  -0.0948
  C  C212  1  0.226070  0.153230  0.783830  1.0  0.1303
  C  C213  1  0.047430  0.666570  0.045570  1.0  0.4751
  C  C214  1  0.962430  0.415370  0.165470  1.0  -0.0477
  C  C215  1  0.996630  0.497770  0.262370  1.0  0.7264
  C  C216  1  0.027030  0.548070  0.103070  1.0  0.2945
  C  C217  1  0.938030  0.418270  0.229770  1.0  -0.4132
  C  C218  1  0.993630  0.591170  0.075370  1.0  0.0129
  C  C219  1  0.101230  0.820170  0.170570  1.0  -0.3786
  C  C220  1  0.184330  0.828970  0.149970  1.0  0.7158
  C  C221  1  0.155830  0.642270  0.072670  1.0  0.307
  C  C222  1  0.164630  0.938970  0.284370  1.0  0.1531
  C  C223  1  0.263530  0.934270  0.328470  1.0  -0.0233
  C  C224  1  0.335330  0.948470  0.358770  1.0  0.4478
  C  C225  1  0.216330  0.858570  0.301170  1.0  0.2671
  C  C226  1  0.301530  0.813170  0.332070  1.0  0.2794
  C  C227  1  0.082430  0.797670  0.236570  1.0  -0.0948
  C  C228  1  0.892730  0.486570  0.117170  1.0  0.1304
  C  C229  1  0.000100  0.714200  0.378900  1.0  0.4771
  C  C230  1  0.251300  0.880400  0.498800  1.0  -0.0451
  C  C231  1  0.168900  0.832200  0.595700  1.0  0.7243
  C  C232  1  0.118600  0.812300  0.436400  1.0  0.2943
  C  C233  1  0.248400  0.853100  0.563100  1.0  -0.4144
  C  C234  1  0.075500  0.735800  0.408700  1.0  0.0147
  C  C235  1  0.846500  0.614400  0.503900  1.0  -0.3788
  C  C236  1  0.837700  0.688700  0.483300  1.0  0.7163
  C  C237  1  0.024400  0.846900  0.406000  1.0  0.3065
  C  C238  1  0.727700  0.559000  0.617700  1.0  0.1572
  C  C239  1  0.732400  0.662600  0.661800  1.0  -0.0274
  C  C240  1  0.718200  0.720200  0.692100  1.0  0.4481
  C  C241  1  0.808100  0.691100  0.634500  1.0  0.2678
  C  C242  1  0.853500  0.821700  0.665400  1.0  0.2834
  C  C243  1  0.869000  0.618100  0.569900  1.0  -0.0916
  C  C244  1  0.180100  0.739500  0.450500  1.0  0.1313
  C  C245  1  0.666770  0.047530  0.712230  1.0  0.4771
  C  C246  1  0.917970  0.213730  0.832130  1.0  -0.0451
  C  C247  1  0.835570  0.165530  0.929030  1.0  0.7243
  C  C248  1  0.785270  0.145630  0.769730  1.0  0.2943
  C  C249  1  0.915070  0.186430  0.896430  1.0  -0.4144
  C  C250  1  0.742170  0.069130  0.742030  1.0  0.0147
  C  C251  1  0.513170  0.947730  0.837230  1.0  -0.3788
  C  C252  1  0.504370  0.022030  0.816630  1.0  0.7163
  C  C253  1  0.691070  0.180230  0.739330  1.0  0.3065
  C  C254  1  0.394370  0.892330  0.951030  1.0  0.1574
  C  C255  1  0.399070  0.995930  0.995130  1.0  -0.0274
  C  C256  1  0.384870  0.053530  0.025430  1.0  0.4481
  C  C257  1  0.474770  0.024430  0.967830  1.0  0.2678
  C  C258  1  0.520170  0.155030  0.998730  1.0  0.2834
  C  C259  1  0.535670  0.951430  0.903230  1.0  -0.0916
  C  C260  1  0.846770  0.072830  0.783830  1.0  0.1313
  C  C261  1  0.333430  0.380870  0.045570  1.0  0.477
  C  C262  1  0.584630  0.547070  0.165470  1.0  -0.0451
  C  C263  1  0.502230  0.498870  0.262370  1.0  0.7243
  C  C264  1  0.451930  0.478970  0.103070  1.0  0.2945
  C  C265  1  0.581730  0.519770  0.229770  1.0  -0.4144
  C  C266  1  0.408830  0.402470  0.075370  1.0  0.0146
  C  C267  1  0.179830  0.281070  0.170570  1.0  -0.3788
  C  C268  1  0.171030  0.355370  0.149970  1.0  0.7163
  C  C269  1  0.357730  0.513570  0.072670  1.0  0.3063
  C  C270  1  0.061030  0.225670  0.284370  1.0  0.1572
  C  C271  1  0.065730  0.329270  0.328470  1.0  -0.0274
  C  C272  1  0.051530  0.386870  0.358770  1.0  0.4481
  C  C273  1  0.141430  0.357770  0.301170  1.0  0.2678
  C  C274  1  0.186830  0.488370  0.332070  1.0  0.2834
  C  C275  1  0.202330  0.284770  0.236570  1.0  -0.0916
  C  C276  1  0.513430  0.406170  0.117170  1.0  0.1313
  C  C277  1  0.285800  0.285900  0.378900  1.0  0.4762
  C  C278  1  0.119600  0.370900  0.498800  1.0  -0.0409
  C  C279  1  0.167800  0.336700  0.595700  1.0  0.7246
  C  C280  1  0.187700  0.306300  0.436400  1.0  0.2944
  C  C281  1  0.146900  0.395300  0.563100  1.0  -0.419
  C  C282  1  0.264200  0.339700  0.408700  1.0  0.0153
  C  C283  1  0.385600  0.232100  0.503900  1.0  -0.3803
  C  C284  1  0.311300  0.149000  0.483300  1.0  0.7152
  C  C285  1  0.153100  0.177500  0.406000  1.0  0.311
  C  C286  1  0.441000  0.168700  0.617700  1.0  0.1576
  C  C287  1  0.337400  0.069800  0.661800  1.0  -0.0248
  C  C288  1  0.279800  0.998000  0.692100  1.0  0.4469
  C  C289  1  0.308900  0.117000  0.634500  1.0  0.2682
  C  C290  1  0.178300  0.031800  0.665400  1.0  0.2821
  C  C291  1  0.381900  0.250900  0.569900  1.0  -0.0984
  C  C292  1  0.260500  0.440600  0.450500  1.0  0.1304
  C  C293  1  0.952470  0.619230  0.712230  1.0  0.4762
  C  C294  1  0.786270  0.704230  0.832130  1.0  -0.0409
  C  C295  1  0.834470  0.670030  0.929030  1.0  0.7246
  C  C296  1  0.854370  0.639630  0.769730  1.0  0.2944
  C  C297  1  0.813570  0.728630  0.896430  1.0  -0.4189
  C  C298  1  0.930870  0.673030  0.742030  1.0  0.0153
  C  C299  1  0.052270  0.565430  0.837230  1.0  -0.38
  C  C300  1  0.977970  0.482330  0.816630  1.0  0.7152
  C  C301  1  0.819770  0.510830  0.739330  1.0  0.311
  C  C302  1  0.107670  0.502030  0.951030  1.0  0.1577
  C  C303  1  0.004070  0.403130  0.995130  1.0  -0.0248
  C  C304  1  0.946470  0.331330  0.025430  1.0  0.4469
  C  C305  1  0.975570  0.450330  0.967830  1.0  0.2682
  C  C306  1  0.844970  0.365130  0.998730  1.0  0.2821
  C  C307  1  0.048570  0.584230  0.903230  1.0  -0.0984
  C  C308  1  0.927170  0.773930  0.783830  1.0  0.1304
  C  C309  1  0.619130  0.952570  0.045570  1.0  0.4761
  C  C310  1  0.452930  0.037570  0.165470  1.0  -0.0409
  C  C311  1  0.501130  0.003370  0.262370  1.0  0.7246
  C  C312  1  0.521030  0.972970  0.103070  1.0  0.2945
  C  C313  1  0.480230  0.061970  0.229770  1.0  -0.4189
  C  C314  1  0.597530  0.006370  0.075370  1.0  0.0153
  C  C315  1  0.718930  0.898770  0.170570  1.0  -0.38
  C  C316  1  0.644630  0.815670  0.149970  1.0  0.7152
  C  C317  1  0.486430  0.844170  0.072670  1.0  0.311
  C  C318  1  0.774330  0.835370  0.284370  1.0  0.1576
  C  C319  1  0.670730  0.736470  0.328470  1.0  -0.0248
  C  C320  1  0.613130  0.664670  0.358770  1.0  0.4469
  C  C321  1  0.642230  0.783670  0.301170  1.0  0.2682
  C  C322  1  0.511630  0.698470  0.332070  1.0  0.2821
  C  C323  1  0.715230  0.917570  0.236570  1.0  -0.0984
  C  C324  1  0.593830  0.107270  0.117170  1.0  0.1304
  N  N325  1  0.629500  0.814600  0.463100  1.0  -0.0097
  N  N326  1  0.574500  0.883000  0.417900  1.0  -0.4304
  N  N327  1  0.689700  0.047700  0.351800  1.0  -0.682
  N  N328  1  0.775900  0.904500  0.435000  1.0  -0.4213
  N  N329  1  0.896200  0.318400  0.649800  1.0  -0.4309
  N  N330  1  0.051600  0.350300  0.721600  1.0  -0.6916
  N  N331  1  0.897000  0.126900  0.635800  1.0  -0.4421
  N  N332  1  0.020000  0.218100  0.691800  1.0  -0.3454
  N  N333  1  0.817400  0.194900  0.607000  1.0  -0.0637
  N  N334  1  0.796000  0.022900  0.378900  1.0  -0.4024
  N  N335  1  0.296170  0.147930  0.796430  1.0  -0.0097
  N  N336  1  0.241170  0.216330  0.751230  1.0  -0.4304
  N  N337  1  0.356370  0.381030  0.685130  1.0  -0.682
  N  N338  1  0.442570  0.237830  0.768330  1.0  -0.4213
  N  N339  1  0.562870  0.651730  0.983130  1.0  -0.4307
  N  N340  1  0.718270  0.683630  0.054930  1.0  -0.6918
  N  N341  1  0.563670  0.460230  0.969130  1.0  -0.4421
  N  N342  1  0.686670  0.551430  0.025130  1.0  -0.3454
  N  N343  1  0.484070  0.528230  0.940330  1.0  -0.0637
  N  N344  1  0.462670  0.356230  0.712230  1.0  -0.4024
  N  N345  1  0.962830  0.481270  0.129770  1.0  -0.0098
  N  N346  1  0.907830  0.549670  0.084570  1.0  -0.4304
  N  N347  1  0.023030  0.714370  0.018470  1.0  -0.682
  N  N348  1  0.109230  0.571170  0.101670  1.0  -0.4213
  N  N349  1  0.229530  0.985070  0.316470  1.0  -0.4309
  N  N350  1  0.384930  0.016970  0.388270  1.0  -0.6916
  N  N351  1  0.230330  0.793570  0.302470  1.0  -0.4421
  N  N352  1  0.353330  0.884770  0.358470  1.0  -0.3454
  N  N353  1  0.150730  0.861570  0.273670  1.0  -0.0637
  N  N354  1  0.129330  0.689570  0.045570  1.0  -0.403
  N  N355  1  0.185400  0.814900  0.463100  1.0  -0.0099
  N  N356  1  0.117000  0.691500  0.417900  1.0  -0.4321
  N  N357  1  0.952300  0.642000  0.351800  1.0  -0.6815
  N  N358  1  0.095500  0.871400  0.435000  1.0  -0.4241
  N  N359  1  0.681600  0.577800  0.649800  1.0  -0.4325
  N  N360  1  0.649700  0.701300  0.721600  1.0  -0.6896
  N  N361  1  0.873100  0.770100  0.635800  1.0  -0.4496
  N  N362  1  0.781900  0.801900  0.691800  1.0  -0.3427
  N  N363  1  0.805100  0.622500  0.607000  1.0  -0.0635
  N  N364  1  0.977100  0.773100  0.378900  1.0  -0.4013
  N  N365  1  0.852070  0.148230  0.796430  1.0  -0.0098
  N  N366  1  0.783670  0.024830  0.751230  1.0  -0.4321
  N  N367  1  0.618970  0.975330  0.685130  1.0  -0.6815
  N  N368  1  0.762170  0.204730  0.768330  1.0  -0.4241
  N  N369  1  0.348270  0.911130  0.983130  1.0  -0.4325
  N  N370  1  0.316370  0.034630  0.054930  1.0  -0.6896
  N  N371  1  0.539770  0.103430  0.969130  1.0  -0.4496
  N  N372  1  0.448570  0.135230  0.025130  1.0  -0.3427
  N  N373  1  0.471770  0.955830  0.940330  1.0  -0.0635
  N  N374  1  0.643770  0.106430  0.712230  1.0  -0.4013
  N  N375  1  0.518730  0.481570  0.129770  1.0  -0.0099
  N  N376  1  0.450330  0.358170  0.084570  1.0  -0.432
  N  N377  1  0.285630  0.308670  0.018470  1.0  -0.6815
  N  N378  1  0.428830  0.538070  0.101670  1.0  -0.4241
  N  N379  1  0.014930  0.244470  0.316470  1.0  -0.4325
  N  N380  1  0.983030  0.367970  0.388270  1.0  -0.6896
  N  N381  1  0.206430  0.436770  0.302470  1.0  -0.4496
  N  N382  1  0.115230  0.468570  0.358470  1.0  -0.3427
  N  N383  1  0.138430  0.289170  0.273670  1.0  -0.0635
  N  N384  1  0.310430  0.439770  0.045570  1.0  -0.4018
  N  N385  1  0.185100  0.370500  0.463100  1.0  -0.0098
  N  N386  1  0.308500  0.425500  0.417900  1.0  -0.4327
  N  N387  1  0.358000  0.310300  0.351800  1.0  -0.6832
  N  N388  1  0.128600  0.224100  0.435000  1.0  -0.4272
  N  N389  1  0.422200  0.103800  0.649800  1.0  -0.4285
  N  N390  1  0.298700  0.948400  0.721600  1.0  -0.6924
  N  N391  1  0.229900  0.103000  0.635800  1.0  -0.4382
  N  N392  1  0.198100  0.980000  0.691800  1.0  -0.3455
  N  N393  1  0.377500  0.182600  0.607000  1.0  -0.0629
  N  N394  1  0.226900  0.204000  0.378900  1.0  -0.4025
  N  N395  1  0.851770  0.703830  0.796430  1.0  -0.0098
  N  N396  1  0.975170  0.758830  0.751230  1.0  -0.4326
  N  N397  1  0.024670  0.643630  0.685130  1.0  -0.6832
  N  N398  1  0.795270  0.557430  0.768330  1.0  -0.4272
  N  N399  1  0.088870  0.437130  0.983130  1.0  -0.4285
  N  N400  1  0.965370  0.281730  0.054930  1.0  -0.6924
  N  N401  1  0.896570  0.436330  0.969130  1.0  -0.4382
  N  N402  1  0.864770  0.313330  0.025130  1.0  -0.3455
  N  N403  1  0.044170  0.515930  0.940330  1.0  -0.0629
  N  N404  1  0.893570  0.537330  0.712230  1.0  -0.4025
  N  N405  1  0.518430  0.037170  0.129770  1.0  -0.0098
  N  N406  1  0.641830  0.092170  0.084570  1.0  -0.4327
  N  N407  1  0.691330  0.976970  0.018470  1.0  -0.6832
  N  N408  1  0.461930  0.890770  0.101670  1.0  -0.4272
  N  N409  1  0.755530  0.770470  0.316470  1.0  -0.4285
  N  N410  1  0.632030  0.615070  0.388270  1.0  -0.6924
  N  N411  1  0.563230  0.769670  0.302470  1.0  -0.4382
  N  N412  1  0.531430  0.646670  0.358470  1.0  -0.3455
  N  N413  1  0.710830  0.849270  0.273670  1.0  -0.0629
  N  N414  1  0.560230  0.870670  0.045570  1.0  -0.4025
  O  O415  1  0.640000  0.840200  0.645800  1.0  -0.6586
  O  O416  1  0.876800  0.118800  0.506400  1.0  -0.65
  O  O417  1  0.891700  0.215100  0.444500  1.0  -0.739
  O  O418  1  0.731100  0.878800  0.570500  1.0  -0.6196
  O  O419  1  0.306670  0.173530  0.979130  1.0  -0.6583
  O  O420  1  0.543470  0.452130  0.839730  1.0  -0.65
  O  O421  1  0.558370  0.548430  0.777830  1.0  -0.739
  O  O422  1  0.397770  0.212130  0.903830  1.0  -0.6198
  O  O423  1  0.973330  0.506870  0.312470  1.0  -0.6586
  O  O424  1  0.210130  0.785470  0.173070  1.0  -0.65
  O  O425  1  0.225030  0.881770  0.111170  1.0  -0.7391
  O  O426  1  0.064430  0.545470  0.237170  1.0  -0.6197
  O  O427  1  0.159800  0.799800  0.645800  1.0  -0.6601
  O  O428  1  0.881200  0.758000  0.506400  1.0  -0.6491
  O  O429  1  0.784900  0.676600  0.444500  1.0  -0.735
  O  O430  1  0.121200  0.852300  0.570500  1.0  -0.6204
  O  O431  1  0.826470  0.133130  0.979130  1.0  -0.66
  O  O432  1  0.547870  0.091330  0.839730  1.0  -0.6491
  O  O433  1  0.451570  0.009930  0.777830  1.0  -0.735
  O  O434  1  0.787870  0.185630  0.903830  1.0  -0.6204
  O  O435  1  0.493130  0.466470  0.312470  1.0  -0.6601
  O  O436  1  0.214530  0.424670  0.173070  1.0  -0.6491
  O  O437  1  0.118230  0.343270  0.111170  1.0  -0.735
  O  O438  1  0.454530  0.518970  0.237170  1.0  -0.6204
  O  O439  1  0.200200  0.360000  0.645800  1.0  -0.6582
  O  O440  1  0.242000  0.123200  0.506400  1.0  -0.6499
  O  O441  1  0.323400  0.108300  0.444500  1.0  -0.7361
  O  O442  1  0.147700  0.268900  0.570500  1.0  -0.6195
  O  O443  1  0.866870  0.693330  0.979130  1.0  -0.6579
  O  O444  1  0.908670  0.456530  0.839730  1.0  -0.6499
  O  O445  1  0.990070  0.441630  0.777830  1.0  -0.7361
  O  O446  1  0.814370  0.602230  0.903830  1.0  -0.6195
  O  O447  1  0.533530  0.026670  0.312470  1.0  -0.6582
  O  O448  1  0.575330  0.789870  0.173070  1.0  -0.6499
  O  O449  1  0.656730  0.774970  0.111170  1.0  -0.7347
  O  O450  1  0.481030  0.935570  0.237170  1.0  -0.6195
