# generated using pymatgen
data_ZnH6C12(NO2)2
_symmetry_space_group_name_H-M   'P 1'
_cell_length_a   26.30600000
_cell_length_b   19.93900000
_cell_length_c   26.33600000
_cell_angle_alpha   90.00000000
_cell_angle_beta   100.09500000
_cell_angle_gamma   90.00000000
_symmetry_Int_Tables_number   1
_chemical_formula_structural   ZnH6C12(NO2)2
_chemical_formula_sum   'Zn16 H96 C192 N32 O64'
_cell_volume   13599.77975481
_cell_formula_units_Z   16
loop_
 _symmetry_equiv_pos_site_id
 _symmetry_equiv_pos_as_xyz
  1  'x, y, z'
loop_
 _atom_site_type_symbol
 _atom_site_label
 _atom_site_symmetry_multiplicity
 _atom_site_fract_x
 _atom_site_fract_y
 _atom_site_fract_z
 _atom_site_occupancy
 _atom_site_charge
  Zn  Zn1  1  0.095620  0.431640  0.842700  1.0  1.0361
  Zn  Zn2  1  0.105690  0.182700  0.641300  1.0  0.9491
  Zn  Zn3  1  0.595620  0.931640  0.342700  1.0  1.0361
  Zn  Zn4  1  0.605690  0.682700  0.141300  1.0  0.9491
  Zn  Zn5  1  0.404380  0.431640  0.157300  1.0  1.0349
  Zn  Zn6  1  0.394310  0.182700  0.358700  1.0  0.9515
  Zn  Zn7  1  0.904380  0.931640  0.657300  1.0  1.0349
  Zn  Zn8  1  0.894310  0.682700  0.858700  1.0  0.9515
  Zn  Zn9  1  0.904380  0.568360  0.157300  1.0  1.0353
  Zn  Zn10  1  0.894310  0.817300  0.358700  1.0  0.9515
  Zn  Zn11  1  0.404380  0.068360  0.657300  1.0  1.0353
  Zn  Zn12  1  0.394310  0.317300  0.858700  1.0  0.9515
  Zn  Zn13  1  0.595620  0.568360  0.842700  1.0  1.035
  Zn  Zn14  1  0.605690  0.817300  0.641300  1.0  0.9494
  Zn  Zn15  1  0.095620  0.068360  0.342700  1.0  1.035
  Zn  Zn16  1  0.105690  0.317300  0.141300  1.0  0.9494
  H  H17  1  0.212800  0.362400  0.852900  1.0  0.1198
  H  H18  1  0.312200  0.519200  0.875900  1.0  0.1223
  H  H19  1  0.242700  0.592900  0.874200  1.0  0.1211
  H  H20  1  0.178700  0.655200  0.892300  1.0  0.1196
  H  H21  1  0.101900  0.713900  0.893700  1.0  0.1176
  H  H22  1  0.019600  0.546200  0.847300  1.0  0.1228
  H  H23  1  0.101500  0.293500  0.718900  1.0  0.1232
  H  H24  1  0.116300  0.469900  0.646400  1.0  0.1129
  H  H25  1  0.123000  0.411900  0.570700  1.0  0.1178
  H  H26  1  0.112900  0.341400  0.497300  1.0  0.1169
  H  H27  1  0.108000  0.264000  0.429800  1.0  0.1102
  H  H28  1  0.099500  0.111900  0.530100  1.0  0.1146
  H  H29  1  0.712800  0.862400  0.352900  1.0  0.1198
  H  H30  1  0.812200  0.019200  0.375900  1.0  0.1223
  H  H31  1  0.742700  0.092900  0.374200  1.0  0.1211
  H  H32  1  0.678700  0.155200  0.392300  1.0  0.1196
  H  H33  1  0.601900  0.213900  0.393700  1.0  0.1176
  H  H34  1  0.519600  0.046200  0.347300  1.0  0.1228
  H  H35  1  0.601500  0.793500  0.218900  1.0  0.1232
  H  H36  1  0.616300  0.969900  0.146400  1.0  0.1102
  H  H37  1  0.623000  0.911900  0.070700  1.0  0.1178
  H  H38  1  0.612900  0.841400  0.997300  1.0  0.1169
  H  H39  1  0.608000  0.764000  0.929800  1.0  0.1102
  H  H40  1  0.599500  0.611900  0.030100  1.0  0.1146
  H  H41  1  0.287200  0.362400  0.147100  1.0  0.1197
  H  H42  1  0.187800  0.519200  0.124100  1.0  0.1223
  H  H43  1  0.257300  0.592900  0.125800  1.0  0.1212
  H  H44  1  0.321300  0.655200  0.107700  1.0  0.1207
  H  H45  1  0.398100  0.713900  0.106300  1.0  0.1184
  H  H46  1  0.480400  0.546200  0.152700  1.0  0.1235
  H  H47  1  0.398500  0.293500  0.281100  1.0  0.123
  H  H48  1  0.383700  0.469900  0.353600  1.0  0.113
  H  H49  1  0.377000  0.411900  0.429300  1.0  0.1178
  H  H50  1  0.387100  0.341400  0.502700  1.0  0.1176
  H  H51  1  0.392000  0.264000  0.570200  1.0  0.1099
  H  H52  1  0.400500  0.111900  0.469900  1.0  0.1143
  H  H53  1  0.787200  0.862400  0.647100  1.0  0.1197
  H  H54  1  0.687800  0.019200  0.624100  1.0  0.1223
  H  H55  1  0.757300  0.092900  0.625800  1.0  0.1212
  H  H56  1  0.821300  0.155200  0.607700  1.0  0.1207
  H  H57  1  0.898100  0.213900  0.606300  1.0  0.1184
  H  H58  1  0.980400  0.046200  0.652700  1.0  0.1235
  H  H59  1  0.898500  0.793500  0.781100  1.0  0.123
  H  H60  1  0.883700  0.969900  0.853600  1.0  0.1106
  H  H61  1  0.877000  0.911900  0.929300  1.0  0.1178
  H  H62  1  0.887100  0.841400  0.002700  1.0  0.1176
  H  H63  1  0.892000  0.764000  0.070200  1.0  0.1099
  H  H64  1  0.900500  0.611900  0.969900  1.0  0.1143
  H  H65  1  0.787200  0.637600  0.147100  1.0  0.1197
  H  H66  1  0.687800  0.480800  0.124100  1.0  0.1226
  H  H67  1  0.757300  0.407100  0.125800  1.0  0.1212
  H  H68  1  0.821300  0.344800  0.107700  1.0  0.1198
  H  H69  1  0.898100  0.286100  0.106300  1.0  0.1187
  H  H70  1  0.980400  0.453800  0.152700  1.0  0.1235
  H  H71  1  0.898500  0.706500  0.281100  1.0  0.1231
  H  H72  1  0.883700  0.530100  0.353600  1.0  0.1131
  H  H73  1  0.877000  0.588100  0.429300  1.0  0.1179
  H  H74  1  0.887100  0.658600  0.502700  1.0  0.1167
  H  H75  1  0.892000  0.736000  0.570200  1.0  0.1098
  H  H76  1  0.900500  0.888100  0.469900  1.0  0.1148
  H  H77  1  0.287200  0.137600  0.647100  1.0  0.1197
  H  H78  1  0.187800  0.980800  0.624100  1.0  0.1226
  H  H79  1  0.257300  0.907100  0.625800  1.0  0.1212
  H  H80  1  0.321300  0.844800  0.607700  1.0  0.1198
  H  H81  1  0.398100  0.786100  0.606300  1.0  0.1187
  H  H82  1  0.480400  0.953800  0.652700  1.0  0.1235
  H  H83  1  0.398500  0.206500  0.781100  1.0  0.1231
  H  H84  1  0.383700  0.030100  0.853600  1.0  0.1108
  H  H85  1  0.377000  0.088100  0.929300  1.0  0.1179
  H  H86  1  0.387100  0.158600  0.002700  1.0  0.1167
  H  H87  1  0.392000  0.236000  0.070200  1.0  0.1098
  H  H88  1  0.400500  0.388100  0.969900  1.0  0.1148
  H  H89  1  0.712800  0.637600  0.852900  1.0  0.1198
  H  H90  1  0.812200  0.480800  0.875900  1.0  0.1219
  H  H91  1  0.742700  0.407100  0.874200  1.0  0.121
  H  H92  1  0.678700  0.344800  0.892300  1.0  0.119
  H  H93  1  0.601900  0.286100  0.893700  1.0  0.1179
  H  H94  1  0.519600  0.453800  0.847300  1.0  0.1231
  H  H95  1  0.601500  0.706500  0.718900  1.0  0.1236
  H  H96  1  0.616300  0.530100  0.646400  1.0  0.1135
  H  H97  1  0.623000  0.588100  0.570700  1.0  0.1177
  H  H98  1  0.612900  0.658600  0.497300  1.0  0.1169
  H  H99  1  0.608000  0.736000  0.429800  1.0  0.1099
  H  H100  1  0.599500  0.888100  0.530100  1.0  0.1149
  H  H101  1  0.212800  0.137600  0.352900  1.0  0.1198
  H  H102  1  0.312200  0.980800  0.375900  1.0  0.1219
  H  H103  1  0.242700  0.907100  0.374200  1.0  0.121
  H  H104  1  0.178700  0.844800  0.392300  1.0  0.119
  H  H105  1  0.101900  0.786100  0.393700  1.0  0.1179
  H  H106  1  0.019600  0.953800  0.347300  1.0  0.1231
  H  H107  1  0.101500  0.206500  0.218900  1.0  0.1236
  H  H108  1  0.116300  0.030100  0.146400  1.0  0.1109
  H  H109  1  0.123000  0.088100  0.070700  1.0  0.1177
  H  H110  1  0.112900  0.158600  0.997300  1.0  0.1169
  H  H111  1  0.108000  0.236000  0.929800  1.0  0.1099
  H  H112  1  0.099500  0.388100  0.030100  1.0  0.1149
  C  C113  1  0.218800  0.409200  0.857300  1.0  0.1279
  C  C114  1  0.269000  0.433900  0.864600  1.0  -0.1559
  C  C115  1  0.277900  0.502400  0.870900  1.0  -0.0726
  C  C116  1  0.236600  0.546100  0.869900  1.0  -0.1085
  C  C117  1  0.186400  0.521500  0.862500  1.0  0.1577
  C  C118  1  0.144800  0.565900  0.869000  1.0  0.1274
  C  C119  1  0.146400  0.633100  0.883200  1.0  -0.0964
  C  C120  1  0.100800  0.668000  0.884000  1.0  -0.0573
  C  C121  1  0.053500  0.635600  0.870600  1.0  -0.1389
  C  C122  1  0.051900  0.568400  0.856400  1.0  0.1544
  C  C123  1  0.105900  0.317500  0.688800  1.0  0.1523
  C  C124  1  0.108300  0.387200  0.689800  1.0  -0.1301
  C  C125  1  0.114700  0.422300  0.645800  1.0  -0.0558
  C  C126  1  0.118700  0.387800  0.600800  1.0  -0.0914
  C  C127  1  0.116300  0.318200  0.599800  1.0  0.0586
  C  C128  1  0.109100  0.272600  0.553800  1.0  0.0804
  C  C129  1  0.110200  0.294800  0.504000  1.0  -0.1111
  C  C130  1  0.107300  0.248900  0.463900  1.0  -0.0651
  C  C131  1  0.103300  0.180700  0.473600  1.0  -0.1852
  C  C132  1  0.102200  0.158500  0.523400  1.0  0.1489
  C  C133  1  0.303600  0.368000  0.859500  1.0  0.3301
  C  C134  1  0.006500  0.680700  0.877900  1.0  0.6165
  C  C135  1  0.101100  0.430500  0.738700  1.0  0.614
  C  C136  1  0.103500  0.127500  0.433400  1.0  0.6781
  C  C137  1  0.718800  0.909200  0.357300  1.0  0.1279
  C  C138  1  0.769000  0.933900  0.364600  1.0  -0.1559
  C  C139  1  0.777900  0.002400  0.370900  1.0  -0.0726
  C  C140  1  0.736600  0.046100  0.369900  1.0  -0.1085
  C  C141  1  0.686400  0.021500  0.362500  1.0  0.1577
  C  C142  1  0.644800  0.065900  0.369000  1.0  0.1274
  C  C143  1  0.646400  0.133100  0.383200  1.0  -0.0964
  C  C144  1  0.600800  0.168000  0.384000  1.0  -0.0573
  C  C145  1  0.553500  0.135600  0.370600  1.0  -0.1389
  C  C146  1  0.551900  0.068400  0.356400  1.0  0.1544
  C  C147  1  0.605900  0.817500  0.188800  1.0  0.1523
  C  C148  1  0.608300  0.887200  0.189800  1.0  -0.1301
  C  C149  1  0.614700  0.922300  0.145800  1.0  -0.0558
  C  C150  1  0.618700  0.887800  0.100800  1.0  -0.0914
  C  C151  1  0.616300  0.818200  0.099800  1.0  0.0586
  C  C152  1  0.609100  0.772600  0.053800  1.0  0.0804
  C  C153  1  0.610200  0.794800  0.004000  1.0  -0.1111
  C  C154  1  0.607300  0.748900  0.963900  1.0  -0.0651
  C  C155  1  0.603300  0.680700  0.973600  1.0  -0.1852
  C  C156  1  0.602200  0.658500  0.023400  1.0  0.1489
  C  C157  1  0.803600  0.868000  0.359500  1.0  0.3301
  C  C158  1  0.506500  0.180700  0.377900  1.0  0.6165
  C  C159  1  0.601100  0.930500  0.238700  1.0  0.614
  C  C160  1  0.603500  0.627500  0.933400  1.0  0.6781
  C  C161  1  0.281200  0.409200  0.142700  1.0  0.128
  C  C162  1  0.231000  0.433900  0.135400  1.0  -0.155
  C  C163  1  0.222100  0.502400  0.129100  1.0  -0.0753
  C  C164  1  0.263400  0.546100  0.130100  1.0  -0.1088
  C  C165  1  0.313600  0.521500  0.137500  1.0  0.1573
  C  C166  1  0.355200  0.565900  0.131000  1.0  0.1276
  C  C167  1  0.353600  0.633100  0.116800  1.0  -0.0974
  C  C168  1  0.399200  0.668000  0.116000  1.0  -0.0593
  C  C169  1  0.446500  0.635600  0.129400  1.0  -0.1401
  C  C170  1  0.448100  0.568400  0.143600  1.0  0.1553
  C  C171  1  0.394100  0.317500  0.311200  1.0  0.1515
  C  C172  1  0.391700  0.387200  0.310200  1.0  -0.1311
  C  C173  1  0.385300  0.422300  0.354200  1.0  -0.0558
  C  C174  1  0.381300  0.387800  0.399200  1.0  -0.0916
  C  C175  1  0.383700  0.318200  0.400200  1.0  0.06
  C  C176  1  0.390900  0.272600  0.446200  1.0  0.0813
  C  C177  1  0.389800  0.294800  0.496000  1.0  -0.1103
  C  C178  1  0.392700  0.248900  0.536100  1.0  -0.0649
  C  C179  1  0.396700  0.180700  0.526400  1.0  -0.1833
  C  C180  1  0.397800  0.158500  0.476600  1.0  0.1481
  C  C181  1  0.196400  0.368000  0.140500  1.0  0.3297
  C  C182  1  0.493500  0.680700  0.122100  1.0  0.6162
  C  C183  1  0.398900  0.430500  0.261300  1.0  0.6133
  C  C184  1  0.396500  0.127500  0.566600  1.0  0.6788
  C  C185  1  0.781200  0.909200  0.642700  1.0  0.128
  C  C186  1  0.731000  0.933900  0.635400  1.0  -0.155
  C  C187  1  0.722100  0.002400  0.629100  1.0  -0.0753
  C  C188  1  0.763400  0.046100  0.630100  1.0  -0.1088
  C  C189  1  0.813600  0.021500  0.637500  1.0  0.1573
  C  C190  1  0.855200  0.065900  0.631000  1.0  0.1276
  C  C191  1  0.853600  0.133100  0.616800  1.0  -0.0974
  C  C192  1  0.899200  0.168000  0.616000  1.0  -0.0593
  C  C193  1  0.946500  0.135600  0.629400  1.0  -0.1401
  C  C194  1  0.948100  0.068400  0.643600  1.0  0.1553
  C  C195  1  0.894100  0.817500  0.811200  1.0  0.1515
  C  C196  1  0.891700  0.887200  0.810200  1.0  -0.1311
  C  C197  1  0.885300  0.922300  0.854200  1.0  -0.0558
  C  C198  1  0.881300  0.887800  0.899200  1.0  -0.0916
  C  C199  1  0.883700  0.818200  0.900200  1.0  0.06
  C  C200  1  0.890900  0.772600  0.946200  1.0  0.0813
  C  C201  1  0.889800  0.794800  0.996000  1.0  -0.1103
  C  C202  1  0.892700  0.748900  0.036100  1.0  -0.0649
  C  C203  1  0.896700  0.680700  0.026400  1.0  -0.1833
  C  C204  1  0.897800  0.658500  0.976600  1.0  0.1481
  C  C205  1  0.696400  0.868000  0.640500  1.0  0.3297
  C  C206  1  0.993500  0.180700  0.622100  1.0  0.6162
  C  C207  1  0.898900  0.930500  0.761300  1.0  0.6133
  C  C208  1  0.896500  0.627500  0.066600  1.0  0.6788
  C  C209  1  0.781200  0.590800  0.142700  1.0  0.127
  C  C210  1  0.731000  0.566100  0.135400  1.0  -0.1546
  C  C211  1  0.722100  0.497600  0.129100  1.0  -0.0745
  C  C212  1  0.763400  0.453900  0.130100  1.0  -0.1088
  C  C213  1  0.813600  0.478500  0.137500  1.0  0.1574
  C  C214  1  0.855200  0.434100  0.131000  1.0  0.1269
  C  C215  1  0.853600  0.366900  0.116800  1.0  -0.0953
  C  C216  1  0.899200  0.332000  0.116000  1.0  -0.0598
  C  C217  1  0.946500  0.364400  0.129400  1.0  -0.1408
  C  C218  1  0.948100  0.431600  0.143600  1.0  0.1545
  C  C219  1  0.894100  0.682500  0.311200  1.0  0.1523
  C  C220  1  0.891700  0.612800  0.310200  1.0  -0.1323
  C  C221  1  0.885300  0.577700  0.354200  1.0  -0.0582
  C  C222  1  0.881300  0.612200  0.399200  1.0  -0.0912
  C  C223  1  0.883700  0.681800  0.400200  1.0  0.0601
  C  C224  1  0.890900  0.727400  0.446200  1.0  0.0808
  C  C225  1  0.889800  0.705200  0.496000  1.0  -0.1105
  C  C226  1  0.892700  0.751100  0.536100  1.0  -0.0645
  C  C227  1  0.896700  0.819300  0.526400  1.0  -0.184
  C  C228  1  0.897800  0.841500  0.476600  1.0  0.1471
  C  C229  1  0.696400  0.632000  0.140500  1.0  0.3291
  C  C230  1  0.993500  0.319300  0.122100  1.0  0.6174
  C  C231  1  0.898900  0.569500  0.261300  1.0  0.613
  C  C232  1  0.896500  0.872500  0.566600  1.0  0.6784
  C  C233  1  0.281200  0.090800  0.642700  1.0  0.127
  C  C234  1  0.231000  0.066100  0.635400  1.0  -0.1546
  C  C235  1  0.222100  0.997600  0.629100  1.0  -0.0745
  C  C236  1  0.263400  0.953900  0.630100  1.0  -0.1088
  C  C237  1  0.313600  0.978500  0.637500  1.0  0.1574
  C  C238  1  0.355200  0.934100  0.631000  1.0  0.1269
  C  C239  1  0.353600  0.866900  0.616800  1.0  -0.0953
  C  C240  1  0.399200  0.832000  0.616000  1.0  -0.0598
  C  C241  1  0.446500  0.864400  0.629400  1.0  -0.1408
  C  C242  1  0.448100  0.931600  0.643600  1.0  0.1545
  C  C243  1  0.394100  0.182500  0.811200  1.0  0.1523
  C  C244  1  0.391700  0.112800  0.810200  1.0  -0.1323
  C  C245  1  0.385300  0.077700  0.854200  1.0  -0.0582
  C  C246  1  0.381300  0.112200  0.899200  1.0  -0.0912
  C  C247  1  0.383700  0.181800  0.900200  1.0  0.0601
  C  C248  1  0.390900  0.227400  0.946200  1.0  0.0808
  C  C249  1  0.389800  0.205200  0.996000  1.0  -0.1105
  C  C250  1  0.392700  0.251100  0.036100  1.0  -0.0645
  C  C251  1  0.396700  0.319300  0.026400  1.0  -0.184
  C  C252  1  0.397800  0.341500  0.976600  1.0  0.1471
  C  C253  1  0.196400  0.132000  0.640500  1.0  0.3291
  C  C254  1  0.493500  0.819300  0.622100  1.0  0.6174
  C  C255  1  0.398900  0.069500  0.761300  1.0  0.613
  C  C256  1  0.396500  0.372500  0.066600  1.0  0.6784
  C  C257  1  0.718800  0.590800  0.857300  1.0  0.1276
  C  C258  1  0.769000  0.566100  0.864600  1.0  -0.1562
  C  C259  1  0.777900  0.497600  0.870900  1.0  -0.0731
  C  C260  1  0.736600  0.453900  0.869900  1.0  -0.1086
  C  C261  1  0.686400  0.478500  0.862500  1.0  0.1576
  C  C262  1  0.644800  0.434100  0.869000  1.0  0.1268
  C  C263  1  0.646400  0.366900  0.883200  1.0  -0.0961
  C  C264  1  0.600800  0.332000  0.884000  1.0  -0.0597
  C  C265  1  0.553500  0.364400  0.870600  1.0  -0.1403
  C  C266  1  0.551900  0.431600  0.856400  1.0  0.1541
  C  C267  1  0.605900  0.682500  0.688800  1.0  0.1517
  C  C268  1  0.608300  0.612800  0.689800  1.0  -0.1302
  C  C269  1  0.614700  0.577700  0.645800  1.0  -0.059
  C  C270  1  0.618700  0.612200  0.600800  1.0  -0.0921
  C  C271  1  0.616300  0.681800  0.599800  1.0  0.0588
  C  C272  1  0.609100  0.727400  0.553800  1.0  0.08
  C  C273  1  0.610200  0.705200  0.504000  1.0  -0.1106
  C  C274  1  0.607300  0.751100  0.463900  1.0  -0.0649
  C  C275  1  0.603300  0.819300  0.473600  1.0  -0.184
  C  C276  1  0.602200  0.841500  0.523400  1.0  0.1483
  C  C277  1  0.803600  0.632000  0.859500  1.0  0.3292
  C  C278  1  0.506500  0.319300  0.877900  1.0  0.6176
  C  C279  1  0.601100  0.569500  0.738700  1.0  0.614
  C  C280  1  0.603500  0.872500  0.433400  1.0  0.6778
  C  C281  1  0.218800  0.090800  0.357300  1.0  0.1276
  C  C282  1  0.269000  0.066100  0.364600  1.0  -0.1562
  C  C283  1  0.277900  0.997600  0.370900  1.0  -0.0731
  C  C284  1  0.236600  0.953900  0.369900  1.0  -0.1086
  C  C285  1  0.186400  0.978500  0.362500  1.0  0.1576
  C  C286  1  0.144800  0.934100  0.369000  1.0  0.1268
  C  C287  1  0.146400  0.866900  0.383200  1.0  -0.0961
  C  C288  1  0.100800  0.832000  0.384000  1.0  -0.0597
  C  C289  1  0.053500  0.864400  0.370600  1.0  -0.1403
  C  C290  1  0.051900  0.931600  0.356400  1.0  0.1541
  C  C291  1  0.105900  0.182500  0.188800  1.0  0.1517
  C  C292  1  0.108300  0.112800  0.189800  1.0  -0.1302
  C  C293  1  0.114700  0.077700  0.145800  1.0  -0.059
  C  C294  1  0.118700  0.112200  0.100800  1.0  -0.0921
  C  C295  1  0.116300  0.181800  0.099800  1.0  0.0588
  C  C296  1  0.109100  0.227400  0.053800  1.0  0.08
  C  C297  1  0.110200  0.205200  0.004000  1.0  -0.1106
  C  C298  1  0.107300  0.251100  0.963900  1.0  -0.0649
  C  C299  1  0.103300  0.319300  0.973600  1.0  -0.184
  C  C300  1  0.102200  0.341500  0.023400  1.0  0.1483
  C  C301  1  0.303600  0.132000  0.359500  1.0  0.3292
  C  C302  1  0.006500  0.819300  0.377900  1.0  0.6176
  C  C303  1  0.101100  0.069500  0.238700  1.0  0.614
  C  C304  1  0.103500  0.372500  0.933400  1.0  0.6778
  N  N305  1  0.177500  0.453000  0.856200  1.0  -0.3124
  N  N306  1  0.097500  0.533500  0.855600  1.0  -0.3054
  N  N307  1  0.109900  0.283000  0.643800  1.0  -0.31
  N  N308  1  0.105100  0.204400  0.563500  1.0  -0.3032
  N  N309  1  0.677500  0.953000  0.356200  1.0  -0.3124
  N  N310  1  0.597500  0.033500  0.355600  1.0  -0.3054
  N  N311  1  0.609900  0.783000  0.143800  1.0  -0.31
  N  N312  1  0.605100  0.704400  0.063500  1.0  -0.3032
  N  N313  1  0.322500  0.453000  0.143800  1.0  -0.3138
  N  N314  1  0.402500  0.533500  0.144400  1.0  -0.3043
  N  N315  1  0.390100  0.283000  0.356200  1.0  -0.3109
  N  N316  1  0.394900  0.204400  0.436500  1.0  -0.3039
  N  N317  1  0.822500  0.953000  0.643800  1.0  -0.3138
  N  N318  1  0.902500  0.033500  0.644400  1.0  -0.3043
  N  N319  1  0.890100  0.783000  0.856200  1.0  -0.3109
  N  N320  1  0.894900  0.704400  0.936500  1.0  -0.3039
  N  N321  1  0.822500  0.547000  0.143800  1.0  -0.3139
  N  N322  1  0.902500  0.466500  0.144400  1.0  -0.3046
  N  N323  1  0.890100  0.717000  0.356200  1.0  -0.3119
  N  N324  1  0.894900  0.795600  0.436500  1.0  -0.3044
  N  N325  1  0.322500  0.047000  0.643800  1.0  -0.3139
  N  N326  1  0.402500  0.966500  0.644400  1.0  -0.3046
  N  N327  1  0.390100  0.217000  0.856200  1.0  -0.3119
  N  N328  1  0.394900  0.295600  0.936500  1.0  -0.3044
  N  N329  1  0.677500  0.547000  0.856200  1.0  -0.3122
  N  N330  1  0.597500  0.466500  0.855600  1.0  -0.3041
  N  N331  1  0.609900  0.717000  0.643800  1.0  -0.3113
  N  N332  1  0.605100  0.795600  0.563500  1.0  -0.3035
  N  N333  1  0.177500  0.047000  0.356200  1.0  -0.3122
  N  N334  1  0.097500  0.966500  0.355600  1.0  -0.3041
  N  N335  1  0.109900  0.217000  0.143800  1.0  -0.3113
  N  N336  1  0.105100  0.295600  0.063500  1.0  -0.3035
  O  O337  1  0.354900  0.398400  0.864300  1.0  -0.6364
  O  O338  1  0.295500  0.314700  0.858800  1.0  -0.465
  O  O339  1  0.006300  0.735700  0.886200  1.0  -0.3646
  O  O340  1  0.966300  0.642600  0.862800  1.0  -0.6226
  O  O341  1  0.107000  0.489200  0.738900  1.0  -0.4014
  O  O342  1  0.097400  0.390000  0.773000  1.0  -0.5802
  O  O343  1  0.105000  0.156000  0.390000  1.0  -0.5843
  O  O344  1  0.097300  0.070700  0.442300  1.0  -0.4901
  O  O345  1  0.854900  0.898400  0.364300  1.0  -0.6364
  O  O346  1  0.795500  0.814700  0.358800  1.0  -0.465
  O  O347  1  0.506300  0.235700  0.386200  1.0  -0.3646
  O  O348  1  0.466300  0.142600  0.362800  1.0  -0.6226
  O  O349  1  0.607000  0.989200  0.238900  1.0  -0.4003
  O  O350  1  0.597400  0.890000  0.273000  1.0  -0.5802
  O  O351  1  0.605000  0.656000  0.890000  1.0  -0.5843
  O  O352  1  0.597300  0.570700  0.942300  1.0  -0.4901
  O  O353  1  0.145100  0.398400  0.135700  1.0  -0.6367
  O  O354  1  0.204500  0.314700  0.141200  1.0  -0.4656
  O  O355  1  0.493700  0.735700  0.113800  1.0  -0.3668
  O  O356  1  0.533700  0.642600  0.137200  1.0  -0.6214
  O  O357  1  0.393000  0.489200  0.261100  1.0  -0.402
  O  O358  1  0.402600  0.390000  0.227000  1.0  -0.5798
  O  O359  1  0.395000  0.156000  0.610000  1.0  -0.5808
  O  O360  1  0.402700  0.070700  0.557700  1.0  -0.4889
  O  O361  1  0.645100  0.898400  0.635700  1.0  -0.6367
  O  O362  1  0.704500  0.814700  0.641200  1.0  -0.4656
  O  O363  1  0.993700  0.235700  0.613800  1.0  -0.3668
  O  O364  1  0.033700  0.142600  0.637200  1.0  -0.6214
  O  O365  1  0.893000  0.989200  0.761100  1.0  -0.4014
  O  O366  1  0.902600  0.890000  0.727000  1.0  -0.5798
  O  O367  1  0.895000  0.656000  0.110000  1.0  -0.5808
  O  O368  1  0.902700  0.570700  0.057700  1.0  -0.4889
  O  O369  1  0.645100  0.601600  0.135700  1.0  -0.6391
  O  O370  1  0.704500  0.685300  0.141200  1.0  -0.465
  O  O371  1  0.993700  0.264300  0.113800  1.0  -0.367
  O  O372  1  0.033700  0.357400  0.137200  1.0  -0.6223
  O  O373  1  0.893000  0.510800  0.261100  1.0  -0.4025
  O  O374  1  0.902600  0.610000  0.227000  1.0  -0.5794
  O  O375  1  0.895000  0.844000  0.610000  1.0  -0.5804
  O  O376  1  0.902700  0.929300  0.557700  1.0  -0.4902
  O  O377  1  0.145100  0.101600  0.635700  1.0  -0.6391
  O  O378  1  0.204500  0.185300  0.641200  1.0  -0.465
  O  O379  1  0.493700  0.764300  0.613800  1.0  -0.367
  O  O380  1  0.533700  0.857400  0.637200  1.0  -0.6223
  O  O381  1  0.393000  0.010800  0.761100  1.0  -0.4015
  O  O382  1  0.402600  0.110000  0.727000  1.0  -0.5794
  O  O383  1  0.395000  0.344000  0.110000  1.0  -0.5804
  O  O384  1  0.402700  0.429300  0.057700  1.0  -0.4902
  O  O385  1  0.854900  0.601600  0.864300  1.0  -0.6376
  O  O386  1  0.795500  0.685300  0.858800  1.0  -0.465
  O  O387  1  0.506300  0.264300  0.886200  1.0  -0.3654
  O  O388  1  0.466300  0.357400  0.862800  1.0  -0.6229
  O  O389  1  0.607000  0.510800  0.738900  1.0  -0.4021
  O  O390  1  0.597400  0.610000  0.773000  1.0  -0.5809
  O  O391  1  0.605000  0.844000  0.390000  1.0  -0.583
  O  O392  1  0.597300  0.929300  0.442300  1.0  -0.4914
  O  O393  1  0.354900  0.101600  0.364300  1.0  -0.6376
  O  O394  1  0.295500  0.185300  0.358800  1.0  -0.465
  O  O395  1  0.006300  0.764300  0.386200  1.0  -0.3654
  O  O396  1  0.966300  0.857400  0.362800  1.0  -0.6229
  O  O397  1  0.107000  0.010800  0.238900  1.0  -0.4008
  O  O398  1  0.097400  0.110000  0.273000  1.0  -0.5809
  O  O399  1  0.105000  0.344000  0.890000  1.0  -0.583
  O  O400  1  0.097300  0.429300  0.942300  1.0  -0.4914
