# generated using pymatgen
data_ZnH7C14(NO2)2
_symmetry_space_group_name_H-M   'P 1'
_cell_length_a   10.10100000
_cell_length_b   10.21840000
_cell_length_c   21.05800000
_cell_angle_alpha   90.00000000
_cell_angle_beta   90.00000000
_cell_angle_gamma   106.09800000
_symmetry_Int_Tables_number   1
_chemical_formula_structural   ZnH7C14(NO2)2
_chemical_formula_sum   'Zn4 H28 C56 N8 O16'
_cell_volume   2088.29735622
_cell_formula_units_Z   4
loop_
 _symmetry_equiv_pos_site_id
 _symmetry_equiv_pos_as_xyz
  1  'x, y, z'
loop_
 _atom_site_type_symbol
 _atom_site_label
 _atom_site_symmetry_multiplicity
 _atom_site_fract_x
 _atom_site_fract_y
 _atom_site_fract_z
 _atom_site_occupancy
 _atom_site_charge
  Zn  Zn1  1  0.899520  0.376890  0.212650  1.0  0.9414
  Zn  Zn2  1  0.600480  0.123110  0.712650  1.0  0.9434
  Zn  Zn3  1  0.100480  0.623110  0.787350  1.0  0.9437
  Zn  Zn4  1  0.399520  0.876890  0.287350  1.0  0.9413
  H  H5  1  0.934700  0.658800  0.023600  1.0  0.1131
  H  H6  1  0.209600  0.037100  0.129100  1.0  0.1103
  H  H7  1  0.861100  0.810600  0.946900  1.0  0.1222
  H  H8  1  0.891700  0.284600  0.077800  1.0  0.0745
  H  H9  1  0.742100  0.151900  0.006000  1.0  0.1178
  H  H10  1  0.466400  0.037600  0.146300  1.0  0.1236
  H  H11  1  0.620100  0.178200  0.214400  1.0  0.0844
  H  H12  1  0.565300  0.841200  0.523600  1.0  0.1132
  H  H13  1  0.290400  0.462900  0.629100  1.0  0.1099
  H  H14  1  0.638900  0.689400  0.446900  1.0  0.1231
  H  H15  1  0.608300  0.215400  0.577800  1.0  0.0745
  H  H16  1  0.757900  0.348100  0.506000  1.0  0.1176
  H  H17  1  0.033600  0.462400  0.646300  1.0  0.1238
  H  H18  1  0.879900  0.321800  0.714400  1.0  0.0842
  H  H19  1  0.065300  0.341200  0.976400  1.0  0.1131
  H  H20  1  0.790400  0.962900  0.870900  1.0  0.1095
  H  H21  1  0.138900  0.189400  0.053100  1.0  0.1234
  H  H22  1  0.108300  0.715400  0.922200  1.0  0.0743
  H  H23  1  0.257900  0.848100  0.994000  1.0  0.1166
  H  H24  1  0.533600  0.962400  0.853700  1.0  0.1236
  H  H25  1  0.379900  0.821800  0.785600  1.0  0.0843
  H  H26  1  0.434700  0.158800  0.476400  1.0  0.113
  H  H27  1  0.709600  0.537100  0.370900  1.0  0.1101
  H  H28  1  0.361100  0.310600  0.553100  1.0  0.1227
  H  H29  1  0.391700  0.784600  0.422200  1.0  0.0747
  H  H30  1  0.242100  0.651900  0.494000  1.0  0.1169
  H  H31  1  0.966400  0.537600  0.353700  1.0  0.1228
  H  H32  1  0.120100  0.678200  0.285600  1.0  0.0848
  C  C33  1  0.038300  0.575400  0.122640  1.0  0.681
  C  C34  1  0.062500  0.717100  0.096910  1.0  -0.0411
  C  C35  1  0.988600  0.735000  0.044590  1.0  -0.1239
  C  C36  1  0.992100  0.865800  0.021690  1.0  0.0499
  C  C37  1  0.076700  0.983800  0.053810  1.0  0.02
  C  C38  1  0.154100  0.962100  0.107760  1.0  -0.0879
  C  C39  1  0.148900  0.835800  0.128650  1.0  -0.1062
  C  C40  1  0.916500  0.885800  0.968060  1.0  -0.1395
  C  C41  1  0.240600  0.816600  0.182290  1.0  0.6386
  C  C42  1  0.804700  0.235000  0.091480  1.0  0.1951
  C  C43  1  0.716000  0.155200  0.048210  1.0  -0.1878
  C  C44  1  0.587100  0.079900  0.068840  1.0  0.2383
  C  C45  1  0.552000  0.088000  0.131510  1.0  -0.192
  C  C46  1  0.645100  0.171700  0.172230  1.0  0.1861
  C  C47  1  0.461700  0.924600  0.622640  1.0  0.6801
  C  C48  1  0.437500  0.782900  0.596910  1.0  -0.0405
  C  C49  1  0.511400  0.765000  0.544590  1.0  -0.1245
  C  C50  1  0.507900  0.634200  0.521690  1.0  0.0504
  C  C51  1  0.423300  0.516200  0.553810  1.0  0.0203
  C  C52  1  0.345900  0.537900  0.607760  1.0  -0.0876
  C  C53  1  0.351100  0.664200  0.628650  1.0  -0.1066
  C  C54  1  0.583500  0.614200  0.468060  1.0  -0.1371
  C  C55  1  0.259400  0.683400  0.682290  1.0  0.6371
  C  C56  1  0.695300  0.265000  0.591480  1.0  0.1947
  C  C57  1  0.784000  0.344800  0.548210  1.0  -0.1878
  C  C58  1  0.912900  0.420100  0.568840  1.0  0.2387
  C  C59  1  0.948000  0.412000  0.631510  1.0  -0.1927
  C  C60  1  0.854900  0.328300  0.672230  1.0  0.1849
  C  C61  1  0.961700  0.424600  0.877360  1.0  0.6803
  C  C62  1  0.937500  0.282900  0.903090  1.0  -0.0406
  C  C63  1  0.011400  0.265000  0.955410  1.0  -0.124
  C  C64  1  0.007900  0.134200  0.978310  1.0  0.0505
  C  C65  1  0.923300  0.016200  0.946190  1.0  0.0201
  C  C66  1  0.845900  0.037900  0.892240  1.0  -0.0881
  C  C67  1  0.851100  0.164200  0.871350  1.0  -0.1066
  C  C68  1  0.083500  0.114200  0.031940  1.0  -0.1397
  C  C69  1  0.759400  0.183400  0.817710  1.0  0.638
  C  C70  1  0.195300  0.765000  0.908520  1.0  0.1942
  C  C71  1  0.284000  0.844800  0.951790  1.0  -0.1892
  C  C72  1  0.412900  0.920100  0.931160  1.0  0.2382
  C  C73  1  0.448000  0.912000  0.868490  1.0  -0.1926
  C  C74  1  0.354900  0.828300  0.827770  1.0  0.1806
  C  C75  1  0.538300  0.075400  0.377360  1.0  0.6811
  C  C76  1  0.562500  0.217100  0.403090  1.0  -0.042
  C  C77  1  0.488600  0.235000  0.455410  1.0  -0.1238
  C  C78  1  0.492100  0.365800  0.478310  1.0  0.0499
  C  C79  1  0.576700  0.483800  0.446190  1.0  0.0196
  C  C80  1  0.654100  0.462100  0.392240  1.0  -0.0883
  C  C81  1  0.648900  0.335800  0.371350  1.0  -0.1073
  C  C82  1  0.416500  0.385800  0.531940  1.0  -0.1416
  C  C83  1  0.740600  0.316600  0.317710  1.0  0.6385
  C  C84  1  0.304700  0.735000  0.408520  1.0  0.1945
  C  C85  1  0.216000  0.655200  0.451790  1.0  -0.1888
  C  C86  1  0.087100  0.579900  0.431160  1.0  0.2386
  C  C87  1  0.052000  0.588000  0.368490  1.0  -0.1921
  C  C88  1  0.145100  0.671700  0.327770  1.0  0.1824
  N  N89  1  0.770800  0.244100  0.152700  1.0  -0.3649
  N  N90  1  0.486200  0.991300  0.028610  1.0  -0.118
  N  N91  1  0.729200  0.255900  0.652700  1.0  -0.3636
  N  N92  1  0.013800  0.508700  0.528610  1.0  -0.1181
  N  N93  1  0.229200  0.755900  0.847300  1.0  -0.3657
  N  N94  1  0.513800  0.008700  0.971390  1.0  -0.1173
  N  N95  1  0.270800  0.744100  0.347300  1.0  -0.3652
  N  N96  1  0.986200  0.491300  0.471390  1.0  -0.1173
  O  O97  1  0.975900  0.558100  0.177140  1.0  -0.613
  O  O98  1  0.067900  0.485000  0.091880  1.0  -0.5676
  O  O99  1  0.275300  0.710600  0.186790  1.0  -0.5601
  O  O100  1  0.282300  0.918000  0.220170  1.0  -0.5938
  O  O101  1  0.524100  0.941900  0.677140  1.0  -0.6126
  O  O102  1  0.432100  0.015000  0.591880  1.0  -0.5672
  O  O103  1  0.224700  0.789400  0.686790  1.0  -0.5536
  O  O104  1  0.217700  0.582000  0.720170  1.0  -0.592
  O  O105  1  0.024100  0.441900  0.822860  1.0  -0.613
  O  O106  1  0.932100  0.515000  0.908120  1.0  -0.567
  O  O107  1  0.724700  0.289400  0.813210  1.0  -0.5536
  O  O108  1  0.717700  0.082000  0.779830  1.0  -0.593
  O  O109  1  0.475900  0.058100  0.322860  1.0  -0.6131
  O  O110  1  0.567900  0.985000  0.408120  1.0  -0.5677
  O  O111  1  0.775300  0.210600  0.313210  1.0  -0.5599
  O  O112  1  0.782300  0.418000  0.279830  1.0  -0.5959
