# generated using pymatgen
data_ZnH7C14NO4
_symmetry_space_group_name_H-M   'P 1'
_cell_length_a   9.86900000
_cell_length_b   11.08200000
_cell_length_c   19.78500000
_cell_angle_alpha   90.00000000
_cell_angle_beta   90.00000000
_cell_angle_gamma   111.05900000
_symmetry_Int_Tables_number   1
_chemical_formula_structural   ZnH7C14NO4
_chemical_formula_sum   'Zn4 H28 C56 N4 O16'
_cell_volume   2019.32933394
_cell_formula_units_Z   4
loop_
 _symmetry_equiv_pos_site_id
 _symmetry_equiv_pos_as_xyz
  1  'x, y, z'
loop_
 _atom_site_type_symbol
 _atom_site_label
 _atom_site_symmetry_multiplicity
 _atom_site_fract_x
 _atom_site_fract_y
 _atom_site_fract_z
 _atom_site_occupancy
 _atom_site_charge
  Zn  Zn1  1  0.336810  0.366810  0.184710  1.0  0.9267
  Zn  Zn2  1  0.163190  0.133190  0.684710  1.0  0.9254
  Zn  Zn3  1  0.663190  0.633190  0.815290  1.0  0.9254
  Zn  Zn4  1  0.836810  0.866810  0.315290  1.0  0.9268
  H  H5  1  0.192300  0.535800  0.354100  1.0  0.0975
  H  H6  1  0.864600  0.179400  0.463400  1.0  0.1101
  H  H7  1  0.166200  0.679100  0.445200  1.0  0.1187
  H  H8  1  0.063800  0.127200  0.182500  1.0  0.083
  H  H9  1  0.921300  0.979200  0.107400  1.0  0.1149
  H  H10  1  0.215000  0.140100  0.964500  1.0  0.1095
  H  H11  1  0.354900  0.277900  0.044800  1.0  0.0794
  H  H12  1  0.307700  0.964200  0.854100  1.0  0.0968
  H  H13  1  0.635400  0.320600  0.963400  1.0  0.1097
  H  H14  1  0.333800  0.820900  0.945200  1.0  0.1188
  H  H15  1  0.436200  0.372800  0.682500  1.0  0.0829
  H  H16  1  0.578700  0.520800  0.607400  1.0  0.115
  H  H17  1  0.285000  0.359900  0.464500  1.0  0.1088
  H  H18  1  0.145100  0.222100  0.544800  1.0  0.0796
  H  H19  1  0.807700  0.464200  0.645900  1.0  0.0971
  H  H20  1  0.135400  0.820600  0.536600  1.0  0.1099
  H  H21  1  0.833800  0.320900  0.554800  1.0  0.1192
  H  H22  1  0.936200  0.872800  0.817500  1.0  0.0832
  H  H23  1  0.078700  0.020800  0.892600  1.0  0.1152
  H  H24  1  0.785000  0.859900  0.035500  1.0  0.1086
  H  H25  1  0.645100  0.722100  0.955200  1.0  0.079
  H  H26  1  0.692300  0.035800  0.145900  1.0  0.0976
  H  H27  1  0.364600  0.679400  0.036600  1.0  0.1096
  H  H28  1  0.666200  0.179100  0.054800  1.0  0.1182
  H  H29  1  0.563800  0.627200  0.317500  1.0  0.0832
  H  H30  1  0.421300  0.479200  0.392600  1.0  0.1149
  H  H31  1  0.715000  0.640100  0.535500  1.0  0.1092
  H  H32  1  0.854900  0.777900  0.455200  1.0  0.0793
  C  C33  1  0.177700  0.335500  0.287020  1.0  0.6664
  C  C34  1  0.095800  0.345300  0.349450  1.0  -0.0081
  C  C35  1  0.127400  0.464800  0.376580  1.0  -0.1382
  C  C36  1  0.064300  0.485200  0.438540  1.0  0.0132
  C  C37  1  0.963200  0.375600  0.472010  1.0  0.0345
  C  C38  1  0.930400  0.251400  0.441990  1.0  -0.0248
  C  C39  1  0.992500  0.234900  0.383020  1.0  -0.1159
  C  C40  1  0.100000  0.607800  0.466920  1.0  -0.1091
  C  C41  1  0.945200  0.103600  0.351040  1.0  0.6985
  C  C42  1  0.095300  0.129500  0.138030  1.0  0.1745
  C  C43  1  0.007800  0.041400  0.092670  1.0  -0.1984
  C  C44  1  0.047200  0.044500  0.025670  1.0  0.0902
  C  C45  1  0.181300  0.135200  0.008630  1.0  -0.1871
  C  C46  1  0.264800  0.218400  0.057340  1.0  0.1705
  C  C47  1  0.322300  0.164500  0.787020  1.0  0.6668
  C  C48  1  0.404200  0.154700  0.849450  1.0  -0.0065
  C  C49  1  0.372600  0.035200  0.876580  1.0  -0.1386
  C  C50  1  0.435700  0.014800  0.938540  1.0  0.0142
  C  C51  1  0.536800  0.124400  0.972010  1.0  0.0346
  C  C52  1  0.569600  0.248600  0.941990  1.0  -0.0243
  C  C53  1  0.507500  0.265100  0.883020  1.0  -0.1173
  C  C54  1  0.400000  0.892200  0.966920  1.0  -0.1102
  C  C55  1  0.554800  0.396400  0.851040  1.0  0.6988
  C  C56  1  0.404700  0.370500  0.638030  1.0  0.1741
  C  C57  1  0.492200  0.458600  0.592670  1.0  -0.199
  C  C58  1  0.452800  0.455500  0.525670  1.0  0.0905
  C  C59  1  0.318700  0.364800  0.508630  1.0  -0.1872
  C  C60  1  0.235200  0.281600  0.557340  1.0  0.1704
  C  C61  1  0.822300  0.664500  0.712980  1.0  0.6666
  C  C62  1  0.904200  0.654700  0.650550  1.0  -0.0065
  C  C63  1  0.872600  0.535200  0.623420  1.0  -0.1381
  C  C64  1  0.935700  0.514800  0.561460  1.0  0.0149
  C  C65  1  0.036800  0.624400  0.527990  1.0  0.0345
  C  C66  1  0.069600  0.748600  0.558010  1.0  -0.0257
  C  C67  1  0.007500  0.765100  0.616980  1.0  -0.1171
  C  C68  1  0.900000  0.392200  0.533080  1.0  -0.1113
  C  C69  1  0.054800  0.896400  0.648960  1.0  0.6984
  C  C70  1  0.904700  0.870500  0.861970  1.0  0.1734
  C  C71  1  0.992200  0.958600  0.907330  1.0  -0.1984
  C  C72  1  0.952800  0.955500  0.974330  1.0  0.0902
  C  C73  1  0.818700  0.864800  0.991370  1.0  -0.1865
  C  C74  1  0.735200  0.781600  0.942660  1.0  0.1701
  C  C75  1  0.677700  0.835500  0.212980  1.0  0.667
  C  C76  1  0.595800  0.845300  0.150550  1.0  -0.0073
  C  C77  1  0.627400  0.964800  0.123420  1.0  -0.1389
  C  C78  1  0.564300  0.985200  0.061460  1.0  0.0142
  C  C79  1  0.463200  0.875600  0.027990  1.0  0.0347
  C  C80  1  0.430400  0.751400  0.058010  1.0  -0.0251
  C  C81  1  0.492500  0.734900  0.116980  1.0  -0.1165
  C  C82  1  0.600000  0.107800  0.033080  1.0  -0.1092
  C  C83  1  0.445200  0.603600  0.148960  1.0  0.6983
  C  C84  1  0.595300  0.629500  0.361970  1.0  0.1739
  C  C85  1  0.507800  0.541400  0.407330  1.0  -0.1984
  C  C86  1  0.547200  0.544500  0.474330  1.0  0.09
  C  C87  1  0.681300  0.635200  0.491370  1.0  -0.1861
  C  C88  1  0.764800  0.718400  0.442660  1.0  0.1699
  N  N89  1  0.222400  0.217400  0.121250  1.0  -0.3403
  N  N90  1  0.277600  0.282600  0.621250  1.0  -0.3408
  N  N91  1  0.777600  0.782600  0.878750  1.0  -0.3423
  N  N92  1  0.722400  0.717400  0.378750  1.0  -0.3404
  O  O93  1  0.157400  0.389500  0.233800  1.0  -0.5747
  O  O94  1  0.270800  0.284300  0.290690  1.0  -0.5711
  O  O95  1  0.959600  0.093600  0.288960  1.0  -0.653
  O  O96  1  0.885900  0.005700  0.388750  1.0  -0.5655
  O  O97  1  0.342600  0.110500  0.733800  1.0  -0.5744
  O  O98  1  0.229200  0.215700  0.790690  1.0  -0.5696
  O  O99  1  0.540400  0.406400  0.788960  1.0  -0.6529
  O  O100  1  0.614100  0.494300  0.888750  1.0  -0.5659
  O  O101  1  0.842600  0.610500  0.766200  1.0  -0.576
  O  O102  1  0.729200  0.715700  0.709310  1.0  -0.5691
  O  O103  1  0.040400  0.906400  0.711040  1.0  -0.6524
  O  O104  1  0.114100  0.994300  0.611250  1.0  -0.5648
  O  O105  1  0.657400  0.889500  0.266200  1.0  -0.5759
  O  O106  1  0.770800  0.784300  0.209310  1.0  -0.5702
  O  O107  1  0.459600  0.593600  0.211040  1.0  -0.6519
  O  O108  1  0.385900  0.505700  0.111250  1.0  -0.5651
