# generated using pymatgen
data_ZnH11C13(NO2)2
_symmetry_space_group_name_H-M   'P 1'
_cell_length_a   10.93570000
_cell_length_b   10.93570000
_cell_length_c   12.45490000
_cell_angle_alpha   101.57200000
_cell_angle_beta   101.57200000
_cell_angle_gamma   99.22710000
_symmetry_Int_Tables_number   1
_chemical_formula_structural   ZnH11C13(NO2)2
_chemical_formula_sum   'Zn4 H44 C52 N8 O16'
_cell_volume   1397.96923558
_cell_formula_units_Z   4
loop_
 _symmetry_equiv_pos_site_id
 _symmetry_equiv_pos_as_xyz
  1  'x, y, z'
loop_
 _atom_site_type_symbol
 _atom_site_label
 _atom_site_symmetry_multiplicity
 _atom_site_fract_x
 _atom_site_fract_y
 _atom_site_fract_z
 _atom_site_occupancy
 _atom_site_charge
  Zn  Zn1  1  0.736040  0.340810  0.376300  1.0  0.9421
  Zn  Zn2  1  0.659190  0.263960  0.123700  1.0  0.9422
  Zn  Zn3  1  0.263960  0.659190  0.623700  1.0  0.9421
  Zn  Zn4  1  0.340810  0.736040  0.876300  1.0  0.9423
  H  H5  1  0.067000  0.391000  0.799000  1.0  0.1339
  H  H6  1  0.983000  0.267000  0.838000  1.0  0.1341
  H  H7  1  0.053000  0.237000  0.726000  1.0  0.1251
  H  H8  1  0.517900  0.254100  0.506000  1.0  0.135
  H  H9  1  0.514800  0.253200  0.618000  1.0  0.1188
  H  H10  1  0.531300  0.369300  0.586000  1.0  0.1463
  H  H11  1  0.946300  0.359700  0.577100  1.0  0.2941
  H  H12  1  0.037200  0.244800  0.088000  1.0  0.105
  H  H13  1  0.238900  0.223100  0.077000  1.0  0.0992
  H  H14  1  0.365300  0.374700  0.411000  1.0  0.0975
  H  H15  1  0.158600  0.375800  0.422000  1.0  0.0967
  H  H16  1  0.609000  0.933000  0.701000  1.0  0.1336
  H  H17  1  0.733000  0.017000  0.662000  1.0  0.1345
  H  H18  1  0.763000  0.947000  0.774000  1.0  0.1264
  H  H19  1  0.745900  0.482100  0.994000  1.0  0.1378
  H  H20  1  0.746800  0.485200  0.882000  1.0  0.1182
  H  H21  1  0.630700  0.468700  0.914000  1.0  0.1403
  H  H22  1  0.640300  0.053700  0.922900  1.0  0.2919
  H  H23  1  0.755200  0.962800  0.412000  1.0  0.105
  H  H24  1  0.776900  0.761100  0.423000  1.0  0.0997
  H  H25  1  0.625300  0.634700  0.089000  1.0  0.0974
  H  H26  1  0.624200  0.841400  0.078000  1.0  0.097
  H  H27  1  0.933000  0.609000  0.201000  1.0  0.1346
  H  H28  1  0.017000  0.733000  0.162000  1.0  0.1345
  H  H29  1  0.947000  0.763000  0.274000  1.0  0.1252
  H  H30  1  0.482100  0.745900  0.494000  1.0  0.1369
  H  H31  1  0.485200  0.746800  0.382000  1.0  0.1184
  H  H32  1  0.468700  0.630700  0.414000  1.0  0.1412
  H  H33  1  0.053700  0.640300  0.422900  1.0  0.299
  H  H34  1  0.962800  0.755200  0.912000  1.0  0.1056
  H  H35  1  0.761100  0.776900  0.923000  1.0  0.0997
  H  H36  1  0.634700  0.625300  0.589000  1.0  0.0973
  H  H37  1  0.841400  0.624200  0.578000  1.0  0.0965
  H  H38  1  0.391000  0.067000  0.299000  1.0  0.1337
  H  H39  1  0.267000  0.983000  0.338000  1.0  0.134
  H  H40  1  0.237000  0.053000  0.226000  1.0  0.1267
  H  H41  1  0.254100  0.517900  0.006000  1.0  0.1348
  H  H42  1  0.253200  0.514800  0.118000  1.0  0.1186
  H  H43  1  0.369300  0.531300  0.086000  1.0  0.1389
  H  H44  1  0.359700  0.946300  0.077100  1.0  0.2951
  H  H45  1  0.244800  0.037200  0.588000  1.0  0.1046
  H  H46  1  0.223100  0.238900  0.577000  1.0  0.0994
  H  H47  1  0.374700  0.365300  0.911000  1.0  0.097
  H  H48  1  0.375800  0.158600  0.922000  1.0  0.0962
  C  C49  1  0.764870  0.282490  0.704510  1.0  -0.1729
  C  C50  1  0.939500  0.318040  0.267700  1.0  0.6809
  C  C51  1  0.073990  0.310810  0.259100  1.0  -0.1294
  C  C52  1  0.098800  0.267200  0.154800  1.0  -0.0541
  C  C53  1  0.223100  0.261700  0.147300  1.0  -0.0884
  C  C54  1  0.322960  0.299240  0.242600  1.0  -0.1256
  C  C55  1  0.457820  0.291580  0.235500  1.0  0.6616
  C  C56  1  0.297970  0.343230  0.346500  1.0  -0.0767
  C  C57  1  0.173940  0.347860  0.355000  1.0  -0.0566
  C  C58  1  0.887500  0.308900  0.692300  1.0  0.1917
  C  C59  1  0.006300  0.300300  0.769500  1.0  -0.3722
  C  C60  1  0.548500  0.294500  0.575800  1.0  -0.3387
  C  C61  1  0.688900  0.305900  0.605400  1.0  0.2354
  C  C62  1  0.717510  0.235130  0.795490  1.0  -0.1699
  C  C63  1  0.681960  0.060500  0.232300  1.0  0.6832
  C  C64  1  0.689190  0.926010  0.240900  1.0  -0.1271
  C  C65  1  0.732800  0.901200  0.345200  1.0  -0.0518
  C  C66  1  0.738300  0.776900  0.352700  1.0  -0.0829
  C  C67  1  0.700760  0.677040  0.257400  1.0  -0.1258
  C  C68  1  0.708420  0.542180  0.264500  1.0  0.6639
  C  C69  1  0.656770  0.702030  0.153500  1.0  -0.0755
  C  C70  1  0.652140  0.826060  0.145000  1.0  -0.0643
  C  C71  1  0.691100  0.112500  0.807700  1.0  0.1975
  C  C72  1  0.699700  0.993700  0.730500  1.0  -0.3724
  C  C73  1  0.705500  0.451500  0.924200  1.0  -0.3357
  C  C74  1  0.694100  0.311100  0.894600  1.0  0.2315
  C  C75  1  0.235130  0.717510  0.295490  1.0  -0.1697
  C  C76  1  0.060500  0.681960  0.732300  1.0  0.6806
  C  C77  1  0.926010  0.689190  0.740900  1.0  -0.1266
  C  C78  1  0.901200  0.732800  0.845200  1.0  -0.0526
  C  C79  1  0.776900  0.738300  0.852700  1.0  -0.0829
  C  C80  1  0.677040  0.700760  0.757400  1.0  -0.1264
  C  C81  1  0.542180  0.708420  0.764500  1.0  0.6614
  C  C82  1  0.702030  0.656770  0.653500  1.0  -0.0755
  C  C83  1  0.826060  0.652140  0.645000  1.0  -0.0675
  C  C84  1  0.112500  0.691100  0.307700  1.0  0.1967
  C  C85  1  0.993700  0.699700  0.230500  1.0  -0.3693
  C  C86  1  0.451500  0.705500  0.424200  1.0  -0.3359
  C  C87  1  0.311100  0.694100  0.394600  1.0  0.2367
  C  C88  1  0.282490  0.764870  0.204510  1.0  -0.1716
  C  C89  1  0.318040  0.939500  0.767700  1.0  0.6809
  C  C90  1  0.310810  0.073990  0.759100  1.0  -0.1219
  C  C91  1  0.267200  0.098800  0.654800  1.0  -0.0537
  C  C92  1  0.261700  0.223100  0.647300  1.0  -0.0869
  C  C93  1  0.299240  0.322960  0.742600  1.0  -0.1255
  C  C94  1  0.291580  0.457820  0.735500  1.0  0.6645
  C  C95  1  0.343230  0.297970  0.846500  1.0  -0.0746
  C  C96  1  0.347860  0.173940  0.855000  1.0  -0.0573
  C  C97  1  0.308900  0.887500  0.192300  1.0  0.1932
  C  C98  1  0.300300  0.006300  0.269500  1.0  -0.3691
  C  C99  1  0.294500  0.548500  0.075800  1.0  -0.3375
  C  C100  1  0.305900  0.688900  0.105400  1.0  0.237
  N  N101  1  0.769700  0.337120  0.541330  1.0  -0.3364
  N  N102  1  0.887200  0.341200  0.597600  1.0  -0.0764
  N  N103  1  0.662880  0.230300  0.958670  1.0  -0.3398
  N  N104  1  0.658800  0.112800  0.902400  1.0  -0.0765
  N  N105  1  0.230300  0.662880  0.458670  1.0  -0.3433
  N  N106  1  0.112800  0.658800  0.402400  1.0  -0.0913
  N  N107  1  0.337120  0.769700  0.041330  1.0  -0.3415
  N  N108  1  0.341200  0.887200  0.097600  1.0  -0.0902
  O  O109  1  0.854240  0.287880  0.178470  1.0  -0.6097
  O  O110  1  0.922390  0.356710  0.365650  1.0  -0.5932
  O  O111  1  0.542340  0.324220  0.325420  1.0  -0.5941
  O  O112  1  0.475190  0.250250  0.138300  1.0  -0.5728
  O  O113  1  0.712120  0.145760  0.321530  1.0  -0.6089
  O  O114  1  0.643290  0.077610  0.134350  1.0  -0.5948
  O  O115  1  0.675780  0.457660  0.174580  1.0  -0.5943
  O  O116  1  0.749750  0.524810  0.361700  1.0  -0.5731
  O  O117  1  0.145760  0.712120  0.821530  1.0  -0.6083
  O  O118  1  0.077610  0.643290  0.634350  1.0  -0.5936
  O  O119  1  0.457660  0.675780  0.674580  1.0  -0.5947
  O  O120  1  0.524810  0.749750  0.861700  1.0  -0.5728
  O  O121  1  0.287880  0.854240  0.678470  1.0  -0.6086
  O  O122  1  0.356710  0.922390  0.865650  1.0  -0.5946
  O  O123  1  0.324220  0.542340  0.825420  1.0  -0.5942
  O  O124  1  0.250250  0.475190  0.638300  1.0  -0.5737
