# generated using pymatgen
data_MgAl7(PO4)8
_symmetry_space_group_name_H-M   'P 1'
_cell_length_a   9.21870000
_cell_length_b   14.86520000
_cell_length_c   14.58110000
_cell_angle_alpha   90.00000000
_cell_angle_beta   90.00000000
_cell_angle_gamma   90.00000000
_symmetry_Int_Tables_number   1
_chemical_formula_structural   MgAl7(PO4)8
_chemical_formula_sum   'Mg2 Al14 P16 O64'
_cell_volume   1998.16214612
_cell_formula_units_Z   2
loop_
 _symmetry_equiv_pos_site_id
 _symmetry_equiv_pos_as_xyz
  1  'x, y, z'
loop_
 _atom_site_type_symbol
 _atom_site_label
 _atom_site_symmetry_multiplicity
 _atom_site_fract_x
 _atom_site_fract_y
 _atom_site_fract_z
 _atom_site_occupancy
 _atom_site_charge
  Mg  Mg1  1  0.670900  0.519000  0.250000  1.0  1.6327
  Mg  Mg2  1  0.329100  0.481000  0.750000  1.0  1.6335
  Al  Al3  1  0.148000  0.347900  0.114500  1.0  1.877
  Al  Al4  1  0.852000  0.652100  0.614500  1.0  1.8763
  Al  Al5  1  0.852000  0.847900  0.385500  1.0  1.8771
  Al  Al6  1  0.148000  0.152100  0.885500  1.0  1.8783
  Al  Al7  1  0.852000  0.652100  0.885500  1.0  1.8773
  Al  Al8  1  0.148000  0.347900  0.385500  1.0  1.878
  Al  Al9  1  0.148000  0.152100  0.614500  1.0  1.8772
  Al  Al10  1  0.852000  0.847900  0.114500  1.0  1.8762
  Al  Al11  1  0.898900  0.135300  0.250000  1.0  1.9019
  Al  Al12  1  0.329100  0.019000  0.250000  1.0  1.5924
  Al  Al13  1  0.101100  0.864700  0.750000  1.0  1.9039
  Al  Al14  1  0.670900  0.981000  0.750000  1.0  1.5912
  Al  Al15  1  0.101100  0.635300  0.250000  1.0  1.9038
  Al  Al16  1  0.898900  0.364700  0.750000  1.0  1.902
  P  P17  1  0.154800  0.135600  0.104100  1.0  2.011
  P  P18  1  0.845200  0.864400  0.604100  1.0  2.0114
  P  P19  1  0.845200  0.635600  0.395900  1.0  2.0162
  P  P20  1  0.154800  0.364400  0.895900  1.0  2.016
  P  P21  1  0.845200  0.864400  0.895900  1.0  2.0112
  P  P22  1  0.154800  0.135600  0.395900  1.0  2.0111
  P  P23  1  0.154800  0.364400  0.604100  1.0  2.016
  P  P24  1  0.845200  0.635600  0.104100  1.0  2.0163
  P  P25  1  0.889000  0.334700  0.250000  1.0  1.8712
  P  P26  1  0.685100  0.963800  0.250000  1.0  2.0057
  P  P27  1  0.111000  0.665300  0.750000  1.0  1.8722
  P  P28  1  0.314900  0.036200  0.750000  1.0  2.0139
  P  P29  1  0.111000  0.834700  0.250000  1.0  1.8686
  P  P30  1  0.314900  0.463800  0.250000  1.0  2.014
  P  P31  1  0.889000  0.165300  0.750000  1.0  1.8675
  P  P32  1  0.685100  0.536200  0.750000  1.0  2.0208
  O  O33  1  0.972500  0.359700  0.162800  1.0  -0.965
  O  O34  1  0.728000  0.926300  0.160200  1.0  -0.9372
  O  O35  1  0.267400  0.069500  0.136400  1.0  -0.9447
  O  O36  1  0.126900  0.111600  0.002600  1.0  -0.9123
  O  O37  1  0.013400  0.119100  0.152600  1.0  -1.0125
  O  O38  1  0.210200  0.232800  0.118700  1.0  -1.0289
  O  O39  1  0.027500  0.640300  0.662800  1.0  -0.9642
  O  O40  1  0.272000  0.073700  0.660200  1.0  -0.9366
  O  O41  1  0.732600  0.930500  0.636400  1.0  -0.945
  O  O42  1  0.873100  0.888400  0.502600  1.0  -0.913
  O  O43  1  0.986600  0.880900  0.652600  1.0  -1.0131
  O  O44  1  0.789800  0.767200  0.618700  1.0  -1.0296
  O  O45  1  0.027500  0.859700  0.337200  1.0  -0.9645
  O  O46  1  0.272000  0.426300  0.339800  1.0  -0.9373
  O  O47  1  0.732600  0.569500  0.363600  1.0  -0.9499
  O  O48  1  0.873100  0.611600  0.497400  1.0  -0.9127
  O  O49  1  0.986600  0.619100  0.347400  1.0  -1.0118
  O  O50  1  0.789800  0.732800  0.381300  1.0  -1.0292
  O  O51  1  0.972500  0.140300  0.837200  1.0  -0.965
  O  O52  1  0.728000  0.573700  0.839800  1.0  -0.9374
  O  O53  1  0.267400  0.430500  0.863600  1.0  -0.9507
  O  O54  1  0.126900  0.388400  0.997400  1.0  -0.9119
  O  O55  1  0.013400  0.380900  0.847400  1.0  -1.0117
  O  O56  1  0.210200  0.267200  0.881300  1.0  -1.0284
  O  O57  1  0.027500  0.640300  0.837200  1.0  -0.962
  O  O58  1  0.272000  0.073700  0.839800  1.0  -0.9366
  O  O59  1  0.732600  0.930500  0.863600  1.0  -0.9438
  O  O60  1  0.873100  0.888400  0.997400  1.0  -0.9127
  O  O61  1  0.986600  0.880900  0.847400  1.0  -1.0123
  O  O62  1  0.789800  0.767200  0.881300  1.0  -1.0293
  O  O63  1  0.972500  0.359700  0.337200  1.0  -0.9629
  O  O64  1  0.728000  0.926300  0.339800  1.0  -0.9374
  O  O65  1  0.267400  0.069500  0.363600  1.0  -0.9432
  O  O66  1  0.126900  0.111600  0.497400  1.0  -0.9121
  O  O67  1  0.013400  0.119100  0.347400  1.0  -1.0115
  O  O68  1  0.210200  0.232800  0.381300  1.0  -1.0286
  O  O69  1  0.972500  0.140300  0.662800  1.0  -0.9622
  O  O70  1  0.728000  0.573700  0.660200  1.0  -0.9374
  O  O71  1  0.267400  0.430500  0.636400  1.0  -0.9519
  O  O72  1  0.126900  0.388400  0.502600  1.0  -0.9124
  O  O73  1  0.013400  0.380900  0.652600  1.0  -1.0136
  O  O74  1  0.210200  0.267200  0.618700  1.0  -1.0292
  O  O75  1  0.027500  0.859700  0.162800  1.0  -0.9616
  O  O76  1  0.272000  0.426300  0.160200  1.0  -0.9369
  O  O77  1  0.732600  0.569500  0.136400  1.0  -0.9515
  O  O78  1  0.873100  0.611600  0.002600  1.0  -0.9127
  O  O79  1  0.986600  0.619100  0.152600  1.0  -1.0129
  O  O80  1  0.789800  0.732800  0.118700  1.0  -1.0296
  O  O81  1  0.814400  0.243000  0.250000  1.0  -0.8768
  O  O82  1  0.757200  0.394600  0.250000  1.0  -0.8474
  O  O83  1  0.756300  0.053700  0.250000  1.0  -0.9326
  O  O84  1  0.531500  0.993900  0.250000  1.0  -0.9146
  O  O85  1  0.185600  0.757000  0.750000  1.0  -0.879
  O  O86  1  0.242800  0.605400  0.750000  1.0  -0.8472
  O  O87  1  0.243700  0.946300  0.750000  1.0  -0.9319
  O  O88  1  0.468500  0.006100  0.750000  1.0  -0.9177
  O  O89  1  0.185600  0.743000  0.250000  1.0  -0.8789
  O  O90  1  0.242800  0.894600  0.250000  1.0  -0.848
  O  O91  1  0.243700  0.553700  0.250000  1.0  -0.9323
  O  O92  1  0.468500  0.493900  0.250000  1.0  -0.922
  O  O93  1  0.814400  0.257000  0.750000  1.0  -0.877
  O  O94  1  0.757200  0.105400  0.750000  1.0  -0.8482
  O  O95  1  0.756300  0.446300  0.750000  1.0  -0.9316
  O  O96  1  0.531500  0.506100  0.750000  1.0  -0.9202
