# generated using pymatgen
data_MgAl7(PO4)8
_symmetry_space_group_name_H-M   'P 1'
_cell_length_a   9.27690000
_cell_length_b   14.79840000
_cell_length_c   14.61060000
_cell_angle_alpha   90.00000000
_cell_angle_beta   90.00000000
_cell_angle_gamma   90.00000000
_symmetry_Int_Tables_number   1
_chemical_formula_structural   MgAl7(PO4)8
_chemical_formula_sum   'Mg2 Al14 P16 O64'
_cell_volume   2005.79104635
_cell_formula_units_Z   2
loop_
 _symmetry_equiv_pos_site_id
 _symmetry_equiv_pos_as_xyz
  1  'x, y, z'
loop_
 _atom_site_type_symbol
 _atom_site_label
 _atom_site_symmetry_multiplicity
 _atom_site_fract_x
 _atom_site_fract_y
 _atom_site_fract_z
 _atom_site_occupancy
 _atom_site_charge
  Mg  Mg1  1  0.667700  0.520400  0.250000  1.0  1.5872
  Mg  Mg2  1  0.332300  0.479600  0.750000  1.0  1.5847
  Al  Al3  1  0.142600  0.347000  0.115000  1.0  1.9413
  Al  Al4  1  0.857400  0.653000  0.615000  1.0  1.9389
  Al  Al5  1  0.857400  0.847000  0.385000  1.0  1.9409
  Al  Al6  1  0.142600  0.153000  0.885000  1.0  1.9404
  Al  Al7  1  0.857400  0.653000  0.885000  1.0  1.9393
  Al  Al8  1  0.142600  0.347000  0.385000  1.0  1.9419
  Al  Al9  1  0.142600  0.153000  0.615000  1.0  1.9409
  Al  Al10  1  0.857400  0.847000  0.115000  1.0  1.9403
  Al  Al11  1  0.901500  0.135600  0.250000  1.0  1.9724
  Al  Al12  1  0.332300  0.020400  0.250000  1.0  1.5661
  Al  Al13  1  0.098500  0.864400  0.750000  1.0  1.9761
  Al  Al14  1  0.667700  0.979600  0.750000  1.0  1.5683
  Al  Al15  1  0.098500  0.635600  0.250000  1.0  1.975
  Al  Al16  1  0.901500  0.364400  0.750000  1.0  1.9724
  P  P17  1  0.148200  0.133430  0.103100  1.0  2.0704
  P  P18  1  0.851800  0.866570  0.603100  1.0  2.0702
  P  P19  1  0.851800  0.633430  0.396900  1.0  2.0415
  P  P20  1  0.148200  0.366570  0.896900  1.0  2.0722
  P  P21  1  0.851800  0.866570  0.896900  1.0  2.0693
  P  P22  1  0.148200  0.133430  0.396900  1.0  2.0702
  P  P23  1  0.148200  0.366570  0.603100  1.0  2.0716
  P  P24  1  0.851800  0.633430  0.103100  1.0  2.0419
  P  P25  1  0.876500  0.343000  0.250000  1.0  2.0202
  P  P26  1  0.682000  0.972100  0.250000  1.0  1.9408
  P  P27  1  0.123500  0.657000  0.750000  1.0  2.0707
  P  P28  1  0.318000  0.027900  0.750000  1.0  1.959
  P  P29  1  0.123500  0.843000  0.250000  1.0  2.0748
  P  P30  1  0.318000  0.472100  0.250000  1.0  1.9515
  P  P31  1  0.876500  0.157000  0.750000  1.0  2.0202
  P  P32  1  0.682000  0.527900  0.750000  1.0  1.9429
  O  O33  1  0.966700  0.359200  0.163800  1.0  -1.0332
  O  O34  1  0.727900  0.921700  0.166300  1.0  -0.9685
  O  O35  1  0.256200  0.066800  0.139700  1.0  -0.8743
  O  O36  1  0.127000  0.114900  0.000700  1.0  -1.008
  O  O37  1  0.002600  0.120600  0.149000  1.0  -1.0423
  O  O38  1  0.198300  0.230800  0.116700  1.0  -1.0182
  O  O39  1  0.033300  0.640800  0.663800  1.0  -1.0311
  O  O40  1  0.272100  0.078300  0.666300  1.0  -0.9681
  O  O41  1  0.743800  0.933200  0.639700  1.0  -0.8716
  O  O42  1  0.873000  0.885100  0.500700  1.0  -1.0086
  O  O43  1  0.997400  0.879400  0.649000  1.0  -1.0422
  O  O44  1  0.801700  0.769200  0.616700  1.0  -1.0175
  O  O45  1  0.033300  0.859200  0.336200  1.0  -1.0323
  O  O46  1  0.272100  0.421700  0.333700  1.0  -0.969
  O  O47  1  0.743800  0.566800  0.360300  1.0  -0.8716
  O  O48  1  0.873000  0.614900  0.499300  1.0  -1.0078
  O  O49  1  0.997400  0.620600  0.351000  1.0  -1.0411
  O  O50  1  0.801700  0.730800  0.383300  1.0  -1.0176
  O  O51  1  0.966700  0.140800  0.836200  1.0  -1.0324
  O  O52  1  0.727900  0.578300  0.833700  1.0  -0.9694
  O  O53  1  0.256200  0.433200  0.860300  1.0  -0.8753
  O  O54  1  0.127000  0.385100  0.999300  1.0  -1.0079
  O  O55  1  0.002600  0.379400  0.851000  1.0  -1.0423
  O  O56  1  0.198300  0.269200  0.883300  1.0  -1.018
  O  O57  1  0.033300  0.640800  0.836200  1.0  -1.0314
  O  O58  1  0.272100  0.078300  0.833700  1.0  -0.9688
  O  O59  1  0.743800  0.933200  0.860300  1.0  -0.8728
  O  O60  1  0.873000  0.885100  0.999300  1.0  -1.0083
  O  O61  1  0.997400  0.879400  0.851000  1.0  -1.0421
  O  O62  1  0.801700  0.769200  0.883300  1.0  -1.0174
  O  O63  1  0.966700  0.359200  0.336200  1.0  -1.033
  O  O64  1  0.727900  0.921700  0.333700  1.0  -0.9692
  O  O65  1  0.256200  0.066800  0.360300  1.0  -0.875
  O  O66  1  0.127000  0.114900  0.499300  1.0  -1.0076
  O  O67  1  0.002600  0.120600  0.351000  1.0  -1.042
  O  O68  1  0.198300  0.230800  0.383300  1.0  -1.0182
  O  O69  1  0.966700  0.140800  0.663800  1.0  -1.032
  O  O70  1  0.727900  0.578300  0.666300  1.0  -0.9694
  O  O71  1  0.256200  0.433200  0.639700  1.0  -0.8751
  O  O72  1  0.127000  0.385100  0.500700  1.0  -1.0084
  O  O73  1  0.002600  0.379400  0.649000  1.0  -1.0424
  O  O74  1  0.198300  0.269200  0.616700  1.0  -1.018
  O  O75  1  0.033300  0.859200  0.163800  1.0  -1.0317
  O  O76  1  0.272100  0.421700  0.166300  1.0  -0.9682
  O  O77  1  0.743800  0.566800  0.139700  1.0  -0.8714
  O  O78  1  0.873000  0.614900  0.000700  1.0  -1.0081
  O  O79  1  0.997400  0.620600  0.149000  1.0  -1.0416
  O  O80  1  0.801700  0.730800  0.116700  1.0  -1.0176
  O  O81  1  0.825600  0.244400  0.250000  1.0  -0.9901
  O  O82  1  0.747100  0.401800  0.250000  1.0  -0.8847
  O  O83  1  0.755900  0.061600  0.250000  1.0  -0.9971
  O  O84  1  0.526500  0.986200  0.250000  1.0  -0.7964
  O  O85  1  0.174400  0.755600  0.750000  1.0  -0.9915
  O  O86  1  0.252900  0.598200  0.750000  1.0  -0.8867
  O  O87  1  0.244100  0.938400  0.750000  1.0  -0.996
  O  O88  1  0.473500  0.013800  0.750000  1.0  -0.801
  O  O89  1  0.174400  0.744400  0.250000  1.0  -0.991
  O  O90  1  0.252900  0.901800  0.250000  1.0  -0.878
  O  O91  1  0.244100  0.561600  0.250000  1.0  -0.9976
  O  O92  1  0.473500  0.486200  0.250000  1.0  -0.802
  O  O93  1  0.825600  0.255600  0.750000  1.0  -0.9911
  O  O94  1  0.747100  0.098200  0.750000  1.0  -0.8781
  O  O95  1  0.755900  0.438400  0.750000  1.0  -0.9957
  O  O96  1  0.526500  0.513800  0.750000  1.0  -0.7981
