# generated using pymatgen
data_Co2H9C15N5O9
_symmetry_space_group_name_H-M   'P 1'
_cell_length_a   9.46500000
_cell_length_b   12.58100000
_cell_length_c   18.98000000
_cell_angle_alpha   90.00000000
_cell_angle_beta   93.54800000
_cell_angle_gamma   90.00000000
_symmetry_Int_Tables_number   1
_chemical_formula_structural   Co2H9C15N5O9
_chemical_formula_sum   'Co8 H36 C60 N20 O36'
_cell_volume   2255.79058443
_cell_formula_units_Z   4
loop_
 _symmetry_equiv_pos_site_id
 _symmetry_equiv_pos_as_xyz
  1  'x, y, z'
loop_
 _atom_site_type_symbol
 _atom_site_label
 _atom_site_symmetry_multiplicity
 _atom_site_fract_x
 _atom_site_fract_y
 _atom_site_fract_z
 _atom_site_occupancy
 _atom_site_charge
  Co  Co1  1  0.249360  0.852990  0.241120  1.0  0.9783
  Co  Co2  1  0.062490  0.820720  0.069140  1.0  0.9049
  Co  Co3  1  0.250640  0.352990  0.258880  1.0  0.9783
  Co  Co4  1  0.437510  0.320720  0.430860  1.0  0.9031
  Co  Co5  1  0.750640  0.147010  0.758880  1.0  0.9789
  Co  Co6  1  0.937510  0.179280  0.930860  1.0  0.9029
  Co  Co7  1  0.749360  0.647010  0.741120  1.0  0.9781
  Co  Co8  1  0.562490  0.679280  0.569140  1.0  0.9045
  H  H9  1  0.332600  0.569300  0.457500  1.0  0.1114
  H  H10  1  0.247000  0.027500  0.349700  1.0  0.0508
  H  H11  1  0.723600  0.962800  0.151100  1.0  0.1152
  H  H12  1  0.771500  0.232200  0.316400  1.0  0.1092
  H  H13  1  0.254500  0.656200  0.350200  1.0  0.2524
  H  H14  1  0.396100  0.014300  0.574400  1.0  0.1029
  H  H15  1  0.405400  0.872300  0.596000  1.0  0.2772
  H  H16  1  0.307300  0.780300  0.129100  1.0  0.4412
  H  H17  1  0.314300  0.887000  0.124400  1.0  0.432
  H  H18  1  0.167400  0.069300  0.042500  1.0  0.1116
  H  H19  1  0.253000  0.527500  0.150300  1.0  0.0507
  H  H20  1  0.776400  0.462800  0.348900  1.0  0.1149
  H  H21  1  0.728500  0.732200  0.183600  1.0  0.1098
  H  H22  1  0.245500  0.156200  0.149800  1.0  0.2509
  H  H23  1  0.103900  0.514300  0.925600  1.0  0.1029
  H  H24  1  0.094600  0.372300  0.904000  1.0  0.2765
  H  H25  1  0.192700  0.280300  0.370900  1.0  0.4411
  H  H26  1  0.185700  0.387000  0.375600  1.0  0.4346
  H  H27  1  0.667400  0.430700  0.542500  1.0  0.1112
  H  H28  1  0.753000  0.972500  0.650300  1.0  0.0509
  H  H29  1  0.276400  0.037200  0.848900  1.0  0.1142
  H  H30  1  0.228500  0.767800  0.683600  1.0  0.1097
  H  H31  1  0.745500  0.343800  0.649800  1.0  0.2506
  H  H32  1  0.603900  0.985700  0.425600  1.0  0.1029
  H  H33  1  0.594600  0.127700  0.404000  1.0  0.2761
  H  H34  1  0.692700  0.219700  0.870900  1.0  0.4415
  H  H35  1  0.685700  0.113000  0.875600  1.0  0.435
  H  H36  1  0.832600  0.930700  0.957500  1.0  0.1108
  H  H37  1  0.747000  0.472500  0.849700  1.0  0.0514
  H  H38  1  0.223600  0.537200  0.651100  1.0  0.1148
  H  H39  1  0.271500  0.267800  0.816400  1.0  0.1094
  H  H40  1  0.754500  0.843800  0.850200  1.0  0.2521
  H  H41  1  0.896100  0.485700  0.074400  1.0  0.1028
  H  H42  1  0.905400  0.627700  0.096000  1.0  0.2765
  H  H43  1  0.807300  0.719700  0.629100  1.0  0.4395
  H  H44  1  0.814300  0.613000  0.624400  1.0  0.4327
  C  C45  1  0.283200  0.796600  0.399500  1.0  0.307
  C  C46  1  0.326800  0.642500  0.451000  1.0  0.2158
  C  C47  1  0.333700  0.811400  0.468600  1.0  0.0255
  C  C48  1  0.337700  0.917200  0.494800  1.0  0.4267
  C  C49  1  0.265200  0.970600  0.380200  1.0  0.3731
  C  C50  1  0.993100  0.988500  0.181800  1.0  0.6894
  C  C51  1  0.868700  0.050700  0.207100  1.0  -0.0711
  C  C52  1  0.733500  0.016300  0.184800  1.0  -0.022
  C  C53  1  0.611300  0.060300  0.211800  1.0  -0.0447
  C  C54  1  0.471600  0.008000  0.191200  1.0  0.7052
  C  C55  1  0.761900  0.177900  0.283200  1.0  -0.0543
  C  C56  1  0.884000  0.133000  0.257000  1.0  -0.0559
  C  C57  1  0.024000  0.183800  0.283600  1.0  0.7049
  C  C58  1  0.627000  0.143300  0.260700  1.0  -0.0374
  C  C59  1  0.501200  0.201700  0.288700  1.0  0.682
  C  C60  1  0.216800  0.296600  0.100500  1.0  0.3066
  C  C61  1  0.173200  0.142500  0.049000  1.0  0.2152
  C  C62  1  0.166300  0.311400  0.031400  1.0  0.0275
  C  C63  1  0.162300  0.417200  0.005200  1.0  0.4261
  C  C64  1  0.234800  0.470600  0.119800  1.0  0.3726
  C  C65  1  0.506900  0.488500  0.318200  1.0  0.6893
  C  C66  1  0.631300  0.550700  0.292900  1.0  -0.0707
  C  C67  1  0.766500  0.516300  0.315200  1.0  -0.0226
  C  C68  1  0.888700  0.560300  0.288200  1.0  -0.0443
  C  C69  1  0.028400  0.508000  0.308800  1.0  0.7077
  C  C70  1  0.738100  0.677900  0.216800  1.0  -0.0539
  C  C71  1  0.616000  0.633000  0.243000  1.0  -0.0551
  C  C72  1  0.476000  0.683800  0.216400  1.0  0.7024
  C  C73  1  0.873000  0.643300  0.239300  1.0  -0.0351
  C  C74  1  0.998800  0.701700  0.211300  1.0  0.6817
  C  C75  1  0.716800  0.203400  0.600500  1.0  0.3065
  C  C76  1  0.673200  0.357500  0.549000  1.0  0.215
  C  C77  1  0.666300  0.188600  0.531400  1.0  0.0274
  C  C78  1  0.662300  0.082800  0.505200  1.0  0.4264
  C  C79  1  0.734800  0.029400  0.619800  1.0  0.3729
  C  C80  1  0.006900  0.011500  0.818200  1.0  0.6892
  C  C81  1  0.131300  0.949300  0.792900  1.0  -0.0706
  C  C82  1  0.266500  0.983700  0.815200  1.0  -0.0218
  C  C83  1  0.388700  0.939700  0.788200  1.0  -0.0442
  C  C84  1  0.528400  0.992000  0.808800  1.0  0.7079
  C  C85  1  0.238100  0.822100  0.716800  1.0  -0.0546
  C  C86  1  0.116000  0.867000  0.743000  1.0  -0.0553
  C  C87  1  0.976000  0.816200  0.716400  1.0  0.7025
  C  C88  1  0.373000  0.856700  0.739300  1.0  -0.0351
  C  C89  1  0.498800  0.798300  0.711300  1.0  0.6815
  C  C90  1  0.783200  0.703400  0.899500  1.0  0.3069
  C  C91  1  0.826800  0.857500  0.951000  1.0  0.2151
  C  C92  1  0.833700  0.688600  0.968600  1.0  0.0253
  C  C93  1  0.837700  0.582800  0.994800  1.0  0.4272
  C  C94  1  0.765200  0.529400  0.880200  1.0  0.373
  C  C95  1  0.493100  0.511500  0.681800  1.0  0.6894
  C  C96  1  0.368700  0.449300  0.707100  1.0  -0.0713
  C  C97  1  0.233500  0.483700  0.684800  1.0  -0.0227
  C  C98  1  0.111300  0.439700  0.711800  1.0  -0.0451
  C  C99  1  0.971600  0.492000  0.691200  1.0  0.7052
  C  C100  1  0.261900  0.322100  0.783200  1.0  -0.0546
  C  C101  1  0.384000  0.367000  0.757000  1.0  -0.0558
  C  C102  1  0.524000  0.316200  0.783600  1.0  0.7047
  C  C103  1  0.127000  0.356700  0.760700  1.0  -0.0373
  C  C104  1  0.001200  0.298300  0.788700  1.0  0.682
  N  N105  1  0.251400  0.873800  0.351590  1.0  -0.374
  N  N106  1  0.277100  0.687500  0.389400  1.0  -0.2868
  N  N107  1  0.366800  0.712200  0.501700  1.0  -0.461
  N  N108  1  0.370800  0.943000  0.562200  1.0  -0.4182
  N  N109  1  0.301800  0.995500  0.447300  1.0  -0.494
  N  N110  1  0.248600  0.373800  0.148410  1.0  -0.374
  N  N111  1  0.222900  0.187500  0.110600  1.0  -0.2861
  N  N112  1  0.133200  0.212200  0.998300  1.0  -0.4594
  N  N113  1  0.129200  0.443000  0.937800  1.0  -0.4182
  N  N114  1  0.198200  0.495500  0.052700  1.0  -0.4941
  N  N115  1  0.748600  0.126200  0.648410  1.0  -0.374
  N  N116  1  0.722900  0.312500  0.610600  1.0  -0.2861
  N  N117  1  0.633200  0.287800  0.498300  1.0  -0.4594
  N  N118  1  0.629200  0.057000  0.437800  1.0  -0.4183
  N  N119  1  0.698200  0.004500  0.552700  1.0  -0.493
  N  N120  1  0.751400  0.626200  0.851590  1.0  -0.3742
  N  N121  1  0.777100  0.812500  0.889400  1.0  -0.2866
  N  N122  1  0.866800  0.787800  0.001700  1.0  -0.4619
  N  N123  1  0.870800  0.557000  0.062200  1.0  -0.418
  N  N124  1  0.801800  0.504500  0.947300  1.0  -0.4938
  O  O125  1  0.093100  0.970100  0.226070  1.0  -0.5661
  O  O126  1  0.982200  0.955300  0.117870  1.0  -0.624
  O  O127  1  0.403800  0.972600  0.241610  1.0  -0.5878
  O  O128  1  0.433900  0.998300  0.126960  1.0  -0.5876
  O  O129  1  0.085700  0.238700  0.238750  1.0  -0.5779
  O  O130  1  0.062500  0.174700  0.347460  1.0  -0.5879
  O  O131  1  0.403100  0.231900  0.245450  1.0  -0.5886
  O  O132  1  0.510000  0.221300  0.353550  1.0  -0.6293
  O  O133  1  0.261600  0.835400  0.129230  1.0  -0.8358
  O  O134  1  0.406900  0.470100  0.273930  1.0  -0.5656
  O  O135  1  0.517800  0.455300  0.382130  1.0  -0.6209
  O  O136  1  0.096200  0.472600  0.258390  1.0  -0.5887
  O  O137  1  0.066100  0.498300  0.373040  1.0  -0.5894
  O  O138  1  0.414300  0.738700  0.261250  1.0  -0.5778
  O  O139  1  0.437500  0.674700  0.152540  1.0  -0.5896
  O  O140  1  0.096900  0.731900  0.254550  1.0  -0.5893
  O  O141  1  0.990000  0.721300  0.146450  1.0  -0.6306
  O  O142  1  0.238400  0.335400  0.370770  1.0  -0.8356
  O  O143  1  0.906900  0.029900  0.773930  1.0  -0.5655
  O  O144  1  0.017800  0.044700  0.882130  1.0  -0.6207
  O  O145  1  0.596200  0.027400  0.758390  1.0  -0.5883
  O  O146  1  0.566100  0.001700  0.873040  1.0  -0.5894
  O  O147  1  0.914300  0.761300  0.761250  1.0  -0.5777
  O  O148  1  0.937500  0.825300  0.652540  1.0  -0.5905
  O  O149  1  0.596900  0.768100  0.754550  1.0  -0.5889
  O  O150  1  0.490000  0.778700  0.646450  1.0  -0.6309
  O  O151  1  0.738400  0.164600  0.870770  1.0  -0.8364
  O  O152  1  0.593100  0.529900  0.726070  1.0  -0.5661
  O  O153  1  0.482200  0.544700  0.617870  1.0  -0.6244
  O  O154  1  0.903800  0.527400  0.741610  1.0  -0.5876
  O  O155  1  0.933900  0.501700  0.626960  1.0  -0.5878
  O  O156  1  0.585700  0.261300  0.738750  1.0  -0.5779
  O  O157  1  0.562500  0.325300  0.847460  1.0  -0.5879
  O  O158  1  0.903100  0.268100  0.745450  1.0  -0.5889
  O  O159  1  0.010000  0.278700  0.853550  1.0  -0.629
  O  O160  1  0.761600  0.664600  0.629230  1.0  -0.836
