# generated using pymatgen
data_NaCuH5C7SO7
_symmetry_space_group_name_H-M   'P 1'
_cell_length_a   11.23400000
_cell_length_b   11.57670000
_cell_length_c   11.57670000
_cell_angle_alpha   109.09800000
_cell_angle_beta   100.10000000
_cell_angle_gamma   100.10000000
_symmetry_Int_Tables_number   1
_chemical_formula_structural   NaCuH5C7SO7
_chemical_formula_sum   'Na4 Cu4 H20 C28 S4 O28'
_cell_volume   1356.12516248
_cell_formula_units_Z   4
loop_
 _symmetry_equiv_pos_site_id
 _symmetry_equiv_pos_as_xyz
  1  'x, y, z'
loop_
 _atom_site_type_symbol
 _atom_site_label
 _atom_site_symmetry_multiplicity
 _atom_site_fract_x
 _atom_site_fract_y
 _atom_site_fract_z
 _atom_site_occupancy
 _atom_site_charge
  Na  Na1  1  0.750000  0.141800  0.858200  1.0  0.9538
  Na  Na2  1  0.750000  0.950700  0.049300  1.0  0.9793
  Na  Na3  1  0.250000  0.858200  0.141800  1.0  0.956
  Na  Na4  1  0.250000  0.049300  0.950700  1.0  0.9781
  Cu  Cu5  1  0.019300  0.165300  0.775700  1.0  0.8928
  Cu  Cu6  1  0.480700  0.224300  0.834700  1.0  0.8925
  Cu  Cu7  1  0.980700  0.834700  0.224300  1.0  0.8914
  Cu  Cu8  1  0.519300  0.775700  0.165300  1.0  0.8925
  H  H9  1  0.858100  0.977600  0.660600  1.0  0.4506
  H  H10  1  0.900300  0.964100  0.778500  1.0  0.4253
  H  H11  1  0.861500  0.353000  0.125600  1.0  0.0954
  H  H12  1  0.251300  0.602500  0.180900  1.0  0.116
  H  H13  1  0.223900  0.390400  0.139200  1.0  0.1233
  H  H14  1  0.641900  0.339400  0.022400  1.0  0.4527
  H  H15  1  0.599700  0.221500  0.035900  1.0  0.4265
  H  H16  1  0.638500  0.874400  0.647000  1.0  0.0944
  H  H17  1  0.248700  0.819100  0.397500  1.0  0.1153
  H  H18  1  0.276100  0.860800  0.609600  1.0  0.1238
  H  H19  1  0.141900  0.022400  0.339400  1.0  0.4513
  H  H20  1  0.099700  0.035900  0.221500  1.0  0.4285
  H  H21  1  0.138500  0.647000  0.874400  1.0  0.0963
  H  H22  1  0.748700  0.397500  0.819100  1.0  0.1159
  H  H23  1  0.776100  0.609600  0.860800  1.0  0.1232
  H  H24  1  0.358100  0.660600  0.977600  1.0  0.4487
  H  H25  1  0.400300  0.778500  0.964100  1.0  0.4256
  H  H26  1  0.361500  0.125600  0.353000  1.0  0.094
  H  H27  1  0.751300  0.180900  0.602500  1.0  0.1153
  H  H28  1  0.723900  0.139200  0.390400  1.0  0.124
  C  C29  1  0.036100  0.350500  0.122500  1.0  -0.2996
  C  C30  1  0.938800  0.403700  0.133300  1.0  0.0767
  C  C31  1  0.949600  0.533000  0.156000  1.0  -0.327
  C  C32  1  0.069300  0.611200  0.171600  1.0  0.4273
  C  C33  1  0.171600  0.552900  0.166900  1.0  -0.24
  C  C34  1  0.155900  0.425900  0.142500  1.0  0.0413
  C  C35  1  0.834100  0.579800  0.152000  1.0  0.7252
  C  C36  1  0.463900  0.877500  0.649500  1.0  -0.3035
  C  C37  1  0.561200  0.866700  0.596300  1.0  0.0737
  C  C38  1  0.550400  0.844000  0.467000  1.0  -0.3265
  C  C39  1  0.430700  0.828400  0.388800  1.0  0.4273
  C  C40  1  0.328400  0.833100  0.447100  1.0  -0.242
  C  C41  1  0.344100  0.857500  0.574100  1.0  0.0363
  C  C42  1  0.665900  0.848000  0.420200  1.0  0.7261
  C  C43  1  0.963900  0.649500  0.877500  1.0  -0.3001
  C  C44  1  0.061200  0.596300  0.866700  1.0  0.0764
  C  C45  1  0.050400  0.467000  0.844000  1.0  -0.3279
  C  C46  1  0.930700  0.388800  0.828400  1.0  0.4264
  C  C47  1  0.828400  0.447100  0.833100  1.0  -0.2413
  C  C48  1  0.844100  0.574100  0.857500  1.0  0.0413
  C  C49  1  0.165900  0.420200  0.848000  1.0  0.728
  C  C50  1  0.536100  0.122500  0.350500  1.0  -0.3032
  C  C51  1  0.438800  0.133300  0.403700  1.0  0.061
  C  C52  1  0.449600  0.156000  0.533000  1.0  -0.3234
  C  C53  1  0.569300  0.171600  0.611200  1.0  0.4235
  C  C54  1  0.671600  0.166900  0.552900  1.0  -0.2416
  C  C55  1  0.655900  0.142500  0.425900  1.0  0.0354
  C  C56  1  0.334100  0.152000  0.579800  1.0  0.7269
  S  S57  1  0.016300  0.187500  0.085100  1.0  1.4763
  S  S58  1  0.483700  0.914900  0.812500  1.0  1.4769
  S  S59  1  0.983700  0.812500  0.914900  1.0  1.4754
  S  S60  1  0.516300  0.085100  0.187500  1.0  1.4766
  O  O61  1  0.882400  0.131400  0.039800  1.0  -0.8156
  O  O62  1  0.081700  0.145500  0.986900  1.0  -0.816
  O  O63  1  0.071500  0.169900  0.199700  1.0  -0.6547
  O  O64  1  0.730400  0.502700  0.126500  1.0  -0.6004
  O  O65  1  0.839000  0.695300  0.175100  1.0  -0.5928
  O  O66  1  0.091800  0.731000  0.188600  1.0  -0.6255
  O  O67  1  0.877300  0.019500  0.736500  1.0  -0.8353
  O  O68  1  0.617600  0.960200  0.868600  1.0  -0.8129
  O  O69  1  0.418300  0.013100  0.854500  1.0  -0.8155
  O  O70  1  0.428500  0.800300  0.830100  1.0  -0.6526
  O  O71  1  0.769600  0.873500  0.497300  1.0  -0.6049
  O  O72  1  0.661000  0.824900  0.304700  1.0  -0.5927
  O  O73  1  0.408200  0.811400  0.269000  1.0  -0.6266
  O  O74  1  0.622700  0.263500  0.980500  1.0  -0.8367
  O  O75  1  0.117600  0.868600  0.960200  1.0  -0.815
  O  O76  1  0.918300  0.854500  0.013100  1.0  -0.8154
  O  O77  1  0.928500  0.830100  0.800300  1.0  -0.6543
  O  O78  1  0.269600  0.497300  0.873500  1.0  -0.5983
  O  O79  1  0.161000  0.304700  0.824900  1.0  -0.592
  O  O80  1  0.908200  0.269000  0.811400  1.0  -0.6247
  O  O81  1  0.122700  0.980500  0.263500  1.0  -0.8347
  O  O82  1  0.382400  0.039800  0.131400  1.0  -0.8143
  O  O83  1  0.581700  0.986900  0.145500  1.0  -0.816
  O  O84  1  0.571500  0.199700  0.169900  1.0  -0.6525
  O  O85  1  0.230400  0.126500  0.502700  1.0  -0.6096
  O  O86  1  0.339000  0.175100  0.695300  1.0  -0.5937
  O  O87  1  0.591800  0.188600  0.731000  1.0  -0.6252
  O  O88  1  0.377300  0.736500  0.019500  1.0  -0.8369
