# generated using pymatgen
data_ZnH15C20N4O5F3
_symmetry_space_group_name_H-M   'P 1'
_cell_length_a   29.51100000
_cell_length_b   12.05000000
_cell_length_c   13.90800000
_cell_angle_alpha   90.00000000
_cell_angle_beta   111.45700000
_cell_angle_gamma   90.00000000
_symmetry_Int_Tables_number   1
_chemical_formula_structural   ZnH15C20N4O5F3
_chemical_formula_sum   'Zn8 H120 C160 N32 O40 F24'
_cell_volume   4603.00879603
_cell_formula_units_Z   8
loop_
 _symmetry_equiv_pos_site_id
 _symmetry_equiv_pos_as_xyz
  1  'x, y, z'
loop_
 _atom_site_type_symbol
 _atom_site_label
 _atom_site_symmetry_multiplicity
 _atom_site_fract_x
 _atom_site_fract_y
 _atom_site_fract_z
 _atom_site_occupancy
 _atom_site_charge
  Zn  Zn1  1  0.151510  0.952550  0.754280  1.0  0.879
  Zn  Zn2  1  0.844380  0.037430  0.828330  1.0  0.9131
  Zn  Zn3  1  0.651510  0.452550  0.754280  1.0  0.879
  Zn  Zn4  1  0.344380  0.537430  0.828330  1.0  0.9131
  Zn  Zn5  1  0.151510  0.047450  0.254280  1.0  0.879
  Zn  Zn6  1  0.844380  0.962570  0.328330  1.0  0.9131
  Zn  Zn7  1  0.651510  0.547450  0.254280  1.0  0.879
  Zn  Zn8  1  0.344380  0.462570  0.328330  1.0  0.9131
  H  H9  1  0.382500  0.612400  0.060300  1.0  0.1001
  H  H10  1  0.299700  0.781900  0.825400  1.0  0.0929
  H  H11  1  0.318700  0.903300  0.975100  1.0  0.1162
  H  H12  1  0.404600  0.753100  0.204200  1.0  0.0916
  H  H13  1  0.394400  0.877500  0.170200  1.0  0.0865
  H  H14  1  0.329600  0.736800  0.213100  1.0  0.0961
  H  H15  1  0.358700  0.832700  0.285100  1.0  0.0721
  H  H16  1  0.340800  0.015900  0.161800  1.0  0.0565
  H  H17  1  0.327900  0.006800  0.261600  1.0  0.0666
  H  H18  1  0.245400  0.038900  0.158800  1.0  0.0828
  H  H19  1  0.278600  0.141000  0.160200  1.0  0.0907
  H  H20  1  0.201100  0.948800  0.986400  1.0  0.1008
  H  H21  1  0.250300  0.117700  0.804300  1.0  0.1085
  H  H22  1  0.299300  0.171700  0.985200  1.0  0.1283
  H  H23  1  0.053000  0.247400  0.630000  1.0  0.1016
  H  H24  1  0.012500  0.415500  0.361900  1.0  0.0883
  H  H25  1  0.057300  0.293900  0.304900  1.0  0.0949
  H  H26  1  0.971900  0.436900  0.715700  1.0  0.1032
  H  H27  1  0.917500  0.332500  0.764300  1.0  0.0918
  H  H28  1  0.943400  0.243400  0.465100  1.0  0.1131
  H  H29  1  0.791500  0.998700  0.595800  1.0  0.1056
  H  H30  1  0.750900  0.881200  0.813600  1.0  0.1006
  H  H31  1  0.701400  0.792200  0.656500  1.0  0.123
  H  H32  1  0.706100  0.788800  0.460500  1.0  0.0917
  H  H33  1  0.740000  0.880100  0.441800  1.0  0.0958
  H  H34  1  0.656900  0.924400  0.347700  1.0  0.0993
  H  H35  1  0.647400  0.928700  0.452100  1.0  0.0853
  H  H36  1  0.626300  0.384400  0.520000  1.0  0.0978
  H  H37  1  0.704400  0.220100  0.767200  1.0  0.1044
  H  H38  1  0.700800  0.106800  0.617200  1.0  0.1099
  H  H39  1  0.882500  0.112400  0.060300  1.0  0.1001
  H  H40  1  0.799700  0.281900  0.825400  1.0  0.0929
  H  H41  1  0.818700  0.403300  0.975100  1.0  0.1162
  H  H42  1  0.904600  0.253100  0.204200  1.0  0.0916
  H  H43  1  0.894400  0.377500  0.170200  1.0  0.0865
  H  H44  1  0.829600  0.236800  0.213100  1.0  0.0961
  H  H45  1  0.858700  0.332700  0.285100  1.0  0.0721
  H  H46  1  0.840800  0.515900  0.161800  1.0  0.0565
  H  H47  1  0.827900  0.506800  0.261600  1.0  0.0666
  H  H48  1  0.745400  0.538900  0.158800  1.0  0.0828
  H  H49  1  0.778600  0.641000  0.160200  1.0  0.0907
  H  H50  1  0.701100  0.448800  0.986400  1.0  0.1008
  H  H51  1  0.750300  0.617700  0.804300  1.0  0.1085
  H  H52  1  0.799300  0.671700  0.985200  1.0  0.1283
  H  H53  1  0.553000  0.747400  0.630000  1.0  0.1016
  H  H54  1  0.512500  0.915500  0.361900  1.0  0.0883
  H  H55  1  0.557300  0.793900  0.304900  1.0  0.0949
  H  H56  1  0.471900  0.936900  0.715700  1.0  0.1032
  H  H57  1  0.417500  0.832500  0.764300  1.0  0.0917
  H  H58  1  0.443400  0.743400  0.465100  1.0  0.1131
  H  H59  1  0.291500  0.498700  0.595800  1.0  0.1056
  H  H60  1  0.250900  0.381200  0.813600  1.0  0.1006
  H  H61  1  0.201400  0.292200  0.656500  1.0  0.123
  H  H62  1  0.206100  0.288800  0.460500  1.0  0.0917
  H  H63  1  0.240000  0.380100  0.441800  1.0  0.0958
  H  H64  1  0.156900  0.424400  0.347700  1.0  0.0993
  H  H65  1  0.147400  0.428700  0.452100  1.0  0.0853
  H  H66  1  0.126300  0.884400  0.520000  1.0  0.0978
  H  H67  1  0.204400  0.720100  0.767200  1.0  0.1044
  H  H68  1  0.200800  0.606800  0.617200  1.0  0.1099
  H  H69  1  0.382500  0.387600  0.560300  1.0  0.1
  H  H70  1  0.299700  0.218100  0.325400  1.0  0.093
  H  H71  1  0.318700  0.096700  0.475100  1.0  0.1154
  H  H72  1  0.404600  0.246900  0.704200  1.0  0.0922
  H  H73  1  0.394400  0.122500  0.670200  1.0  0.0859
  H  H74  1  0.329600  0.263200  0.713100  1.0  0.0952
  H  H75  1  0.358700  0.167300  0.785100  1.0  0.0714
  H  H76  1  0.340800  0.984100  0.661800  1.0  0.0563
  H  H77  1  0.327900  0.993200  0.761600  1.0  0.0668
  H  H78  1  0.245400  0.961100  0.658800  1.0  0.0828
  H  H79  1  0.278600  0.859000  0.660200  1.0  0.0897
  H  H80  1  0.201100  0.051200  0.486400  1.0  0.1006
  H  H81  1  0.250300  0.882300  0.304300  1.0  0.1084
  H  H82  1  0.299300  0.828300  0.485200  1.0  0.1279
  H  H83  1  0.053000  0.752600  0.130000  1.0  0.1009
  H  H84  1  0.012500  0.584500  0.861900  1.0  0.0882
  H  H85  1  0.057300  0.706100  0.804900  1.0  0.095
  H  H86  1  0.971900  0.563100  0.215700  1.0  0.1038
  H  H87  1  0.917500  0.667500  0.264300  1.0  0.0912
  H  H88  1  0.943400  0.756600  0.965100  1.0  0.1131
  H  H89  1  0.791500  0.001300  0.095800  1.0  0.1054
  H  H90  1  0.750900  0.118800  0.313600  1.0  0.1006
  H  H91  1  0.701400  0.207800  0.156500  1.0  0.1231
  H  H92  1  0.706100  0.211200  0.960500  1.0  0.092
  H  H93  1  0.740000  0.119900  0.941800  1.0  0.0958
  H  H94  1  0.656900  0.075600  0.847700  1.0  0.0987
  H  H95  1  0.647400  0.071300  0.952100  1.0  0.0852
  H  H96  1  0.626300  0.615600  0.020000  1.0  0.098
  H  H97  1  0.704400  0.779900  0.267200  1.0  0.1031
  H  H98  1  0.700800  0.893200  0.117200  1.0  0.11
  H  H99  1  0.882500  0.887600  0.560300  1.0  0.1
  H  H100  1  0.799700  0.718100  0.325400  1.0  0.093
  H  H101  1  0.818700  0.596700  0.475100  1.0  0.1154
  H  H102  1  0.904600  0.746900  0.704200  1.0  0.0922
  H  H103  1  0.894400  0.622500  0.670200  1.0  0.0859
  H  H104  1  0.829600  0.763200  0.713100  1.0  0.0952
  H  H105  1  0.858700  0.667300  0.785100  1.0  0.0714
  H  H106  1  0.840800  0.484100  0.661800  1.0  0.0563
  H  H107  1  0.827900  0.493200  0.761600  1.0  0.0668
  H  H108  1  0.745400  0.461100  0.658800  1.0  0.0828
  H  H109  1  0.778600  0.359000  0.660200  1.0  0.0897
  H  H110  1  0.701100  0.551200  0.486400  1.0  0.1006
  H  H111  1  0.750300  0.382300  0.304300  1.0  0.1084
  H  H112  1  0.799300  0.328300  0.485200  1.0  0.1279
  H  H113  1  0.553000  0.252600  0.130000  1.0  0.1009
  H  H114  1  0.512500  0.084500  0.861900  1.0  0.0882
  H  H115  1  0.557300  0.206100  0.804900  1.0  0.095
  H  H116  1  0.471900  0.063100  0.215700  1.0  0.1038
  H  H117  1  0.417500  0.167500  0.264300  1.0  0.0912
  H  H118  1  0.443400  0.256600  0.965100  1.0  0.1131
  H  H119  1  0.291500  0.501300  0.095800  1.0  0.1054
  H  H120  1  0.250900  0.618800  0.313600  1.0  0.1006
  H  H121  1  0.201400  0.707800  0.156500  1.0  0.1231
  H  H122  1  0.206100  0.711200  0.960500  1.0  0.092
  H  H123  1  0.240000  0.619900  0.941800  1.0  0.0958
  H  H124  1  0.156900  0.575600  0.847700  1.0  0.0987
  H  H125  1  0.147400  0.571300  0.952100  1.0  0.0852
  H  H126  1  0.126300  0.115600  0.020000  1.0  0.098
  H  H127  1  0.204400  0.279900  0.267200  1.0  0.1031
  H  H128  1  0.200800  0.393200  0.117200  1.0  0.11
  C  C129  1  0.364800  0.670300  0.019500  1.0  0.1195
  C  C130  1  0.319700  0.762800  0.892300  1.0  0.0636
  C  C131  1  0.329600  0.830900  0.974400  1.0  -0.1655
  C  C132  1  0.379400  0.805100  0.165800  1.0  -0.0063
  C  C133  1  0.342700  0.810700  0.213500  1.0  0.0249
  C  C134  1  0.315500  0.995200  0.187500  1.0  0.0912
  C  C135  1  0.271400  0.064700  0.137300  1.0  -0.0028
  C  C136  1  0.218800  0.998600  0.962800  1.0  0.1436
  C  C137  1  0.246100  0.091500  0.863400  1.0  0.028
  C  C138  1  0.273700  0.121500  0.963300  1.0  -0.1296
  C  C139  1  0.117300  0.110600  0.607600  1.0  0.6843
  C  C140  1  0.083800  0.191800  0.534100  1.0  -0.0771
  C  C141  1  0.054500  0.258500  0.565000  1.0  -0.0896
  C  C142  1  0.026000  0.344200  0.501500  1.0  0.0776
  C  C143  1  0.029000  0.357400  0.404400  1.0  -0.1647
  C  C144  1  0.056500  0.284900  0.370700  1.0  -0.0498
  C  C145  1  0.082800  0.199200  0.432800  1.0  -0.0839
  C  C146  1  0.107600  0.112200  0.386000  1.0  0.6562
  C  C147  1  0.996500  0.419300  0.544700  1.0  -0.2894
  C  C148  1  0.962300  0.350600  0.583900  1.0  0.0039
  C  C149  1  0.955100  0.377900  0.675000  1.0  -0.1692
  C  C150  1  0.922400  0.315000  0.703700  1.0  -0.0935
  C  C151  1  0.897100  0.227700  0.644300  1.0  0.0076
  C  C152  1  0.903500  0.203500  0.554100  1.0  -0.1349
  C  C153  1  0.937700  0.263300  0.524300  1.0  -0.0795
  C  C154  1  0.864600  0.166700  0.686800  1.0  0.6772
  C  C155  1  0.872400  0.114300  0.480400  1.0  0.6542
  C  C156  1  0.963100  0.498900  0.459900  1.0  0.6768
  C  C157  1  0.032700  0.493500  0.628200  1.0  0.6612
  C  C158  1  0.774800  0.960400  0.630500  1.0  0.1097
  C  C159  1  0.752500  0.894300  0.749000  1.0  0.0561
  C  C160  1  0.724900  0.846000  0.663300  1.0  -0.1059
  C  C161  1  0.715700  0.866100  0.472200  1.0  -0.0608
  C  C162  1  0.671600  0.940200  0.421100  1.0  0.0728
  C  C163  1  0.654800  0.127900  0.383400  1.0  0.1706
  C  C164  1  0.619100  0.188800  0.420800  1.0  -0.0643
  C  C165  1  0.646100  0.330400  0.562900  1.0  0.149
  C  C166  1  0.688700  0.239500  0.698200  1.0  0.0197
  C  C167  1  0.687000  0.176300  0.616300  1.0  -0.1577
  C  C168  1  0.666200  0.226800  0.416700  1.0  0.1444
  C  C169  1  0.864800  0.170300  0.019500  1.0  0.1194
  C  C170  1  0.819700  0.262800  0.892300  1.0  0.0636
  C  C171  1  0.829600  0.330900  0.974400  1.0  -0.1655
  C  C172  1  0.879400  0.305100  0.165800  1.0  -0.0063
  C  C173  1  0.842700  0.310700  0.213500  1.0  0.0249
  C  C174  1  0.815500  0.495200  0.187500  1.0  0.0912
  C  C175  1  0.771400  0.564700  0.137300  1.0  -0.0028
  C  C176  1  0.718800  0.498600  0.962800  1.0  0.1436
  C  C177  1  0.746100  0.591500  0.863400  1.0  0.028
  C  C178  1  0.773700  0.621500  0.963300  1.0  -0.1296
  C  C179  1  0.617300  0.610600  0.607600  1.0  0.6843
  C  C180  1  0.583800  0.691800  0.534100  1.0  -0.0771
  C  C181  1  0.554500  0.758500  0.565000  1.0  -0.0896
  C  C182  1  0.526000  0.844200  0.501500  1.0  0.0776
  C  C183  1  0.529000  0.857400  0.404400  1.0  -0.1647
  C  C184  1  0.556500  0.784900  0.370700  1.0  -0.0498
  C  C185  1  0.582800  0.699200  0.432800  1.0  -0.0839
  C  C186  1  0.607600  0.612200  0.386000  1.0  0.6562
  C  C187  1  0.496500  0.919300  0.544700  1.0  -0.2894
  C  C188  1  0.462300  0.850600  0.583900  1.0  0.0039
  C  C189  1  0.455100  0.877900  0.675000  1.0  -0.1692
  C  C190  1  0.422400  0.815000  0.703700  1.0  -0.0934
  C  C191  1  0.397100  0.727700  0.644300  1.0  0.0071
  C  C192  1  0.403500  0.703500  0.554100  1.0  -0.1345
  C  C193  1  0.437700  0.763300  0.524300  1.0  -0.0795
  C  C194  1  0.364600  0.666667  0.686800  1.0  0.6777
  C  C195  1  0.372400  0.614300  0.480400  1.0  0.6542
  C  C196  1  0.463100  0.998900  0.459900  1.0  0.6768
  C  C197  1  0.532700  0.993500  0.628200  1.0  0.6612
  C  C198  1  0.274800  0.460400  0.630500  1.0  0.1097
  C  C199  1  0.252500  0.394300  0.749000  1.0  0.0561
  C  C200  1  0.224900  0.346000  0.663300  1.0  -0.1059
  C  C201  1  0.215700  0.366100  0.472200  1.0  -0.0608
  C  C202  1  0.171600  0.440200  0.421100  1.0  0.0728
  C  C203  1  0.154800  0.627900  0.383400  1.0  0.1706
  C  C204  1  0.119100  0.688800  0.420800  1.0  -0.0643
  C  C205  1  0.146100  0.830400  0.562900  1.0  0.149
  C  C206  1  0.188700  0.739500  0.698200  1.0  0.0197
  C  C207  1  0.187000  0.676300  0.616300  1.0  -0.1577
  C  C208  1  0.166200  0.726800  0.416700  1.0  0.1444
  C  C209  1  0.364800  0.329700  0.519500  1.0  0.1186
  C  C210  1  0.319700  0.237200  0.392300  1.0  0.0639
  C  C211  1  0.329600  0.169100  0.474400  1.0  -0.1659
  C  C212  1  0.379400  0.194900  0.665800  1.0  -0.0071
  C  C213  1  0.342700  0.189300  0.713500  1.0  0.026
  C  C214  1  0.315500  0.004800  0.687500  1.0  0.0911
  C  C215  1  0.271400  0.935300  0.637300  1.0  -0.0038
  C  C216  1  0.218800  0.001400  0.462800  1.0  0.1433
  C  C217  1  0.246100  0.908500  0.363400  1.0  0.0267
  C  C218  1  0.273700  0.878500  0.463300  1.0  -0.1304
  C  C219  1  0.117300  0.889400  0.107600  1.0  0.6842
  C  C220  1  0.083800  0.808200  0.034100  1.0  -0.0773
  C  C221  1  0.054500  0.741500  0.065000  1.0  -0.0907
  C  C222  1  0.026000  0.655800  0.001500  1.0  0.0777
  C  C223  1  0.029000  0.642600  0.904400  1.0  -0.1641
  C  C224  1  0.056500  0.715100  0.870700  1.0  -0.0501
  C  C225  1  0.082800  0.800800  0.932800  1.0  -0.0833
  C  C226  1  0.107600  0.887800  0.886000  1.0  0.6577
  C  C227  1  0.996500  0.580700  0.044700  1.0  -0.2893
  C  C228  1  0.962300  0.649400  0.083900  1.0  0.004
  C  C229  1  0.955100  0.622100  0.175000  1.0  -0.1694
  C  C230  1  0.922400  0.685000  0.203700  1.0  -0.092
  C  C231  1  0.897100  0.772300  0.144300  1.0  0.0073
  C  C232  1  0.903500  0.796500  0.054100  1.0  -0.1347
  C  C233  1  0.937700  0.736700  0.024300  1.0  -0.0787
  C  C234  1  0.864600  0.833300  0.186800  1.0  0.6762
  C  C235  1  0.872400  0.885700  0.980400  1.0  0.6534
  C  C236  1  0.963100  0.501100  0.959900  1.0  0.6767
  C  C237  1  0.032700  0.506500  0.128200  1.0  0.6619
  C  C238  1  0.774800  0.039600  0.130500  1.0  0.1095
  C  C239  1  0.752500  0.105700  0.249000  1.0  0.0561
  C  C240  1  0.724900  0.154000  0.163300  1.0  -0.1055
  C  C241  1  0.715700  0.133900  0.972200  1.0  -0.0597
  C  C242  1  0.671600  0.059800  0.921100  1.0  0.0728
  C  C243  1  0.654800  0.872100  0.883400  1.0  0.1713
  C  C244  1  0.619100  0.811200  0.920800  1.0  -0.064
  C  C245  1  0.646100  0.669600  0.062900  1.0  0.149
  C  C246  1  0.688700  0.760500  0.198200  1.0  0.0198
  C  C247  1  0.687000  0.823700  0.116300  1.0  -0.1572
  C  C248  1  0.666200  0.773200  0.916700  1.0  0.1444
  C  C249  1  0.864800  0.829700  0.519500  1.0  0.1186
  C  C250  1  0.819700  0.737200  0.392300  1.0  0.0639
  C  C251  1  0.829600  0.669100  0.474400  1.0  -0.1659
  C  C252  1  0.879400  0.694900  0.665800  1.0  -0.0071
  C  C253  1  0.842700  0.689300  0.713500  1.0  0.026
  C  C254  1  0.815500  0.504800  0.687500  1.0  0.0911
  C  C255  1  0.771400  0.435300  0.637300  1.0  -0.0038
  C  C256  1  0.718800  0.501400  0.462800  1.0  0.1433
  C  C257  1  0.746100  0.408500  0.363400  1.0  0.0267
  C  C258  1  0.773700  0.378500  0.463300  1.0  -0.1304
  C  C259  1  0.617300  0.389400  0.107600  1.0  0.6842
  C  C260  1  0.583800  0.308200  0.034100  1.0  -0.0773
  C  C261  1  0.554500  0.241500  0.065000  1.0  -0.0907
  C  C262  1  0.526000  0.155800  0.001500  1.0  0.0777
  C  C263  1  0.529000  0.142600  0.904400  1.0  -0.1641
  C  C264  1  0.556500  0.215100  0.870700  1.0  -0.0501
  C  C265  1  0.582800  0.300800  0.932800  1.0  -0.0833
  C  C266  1  0.607600  0.387800  0.886000  1.0  0.6577
  C  C267  1  0.496500  0.080700  0.044700  1.0  -0.2893
  C  C268  1  0.462300  0.149400  0.083900  1.0  0.004
  C  C269  1  0.455100  0.122100  0.175000  1.0  -0.1694
  C  C270  1  0.422400  0.185000  0.203700  1.0  -0.0919
  C  C271  1  0.397100  0.272300  0.144300  1.0  0.0068
  C  C272  1  0.403500  0.296500  0.054100  1.0  -0.1343
  C  C273  1  0.437700  0.236700  0.024300  1.0  -0.0787
  C  C274  1  0.364600  0.333333  0.186800  1.0  0.6767
  C  C275  1  0.372400  0.385700  0.980400  1.0  0.6534
  C  C276  1  0.463100  0.001100  0.959900  1.0  0.6767
  C  C277  1  0.532700  0.006500  0.128200  1.0  0.6619
  C  C278  1  0.274800  0.539600  0.130500  1.0  0.1095
  C  C279  1  0.252500  0.605700  0.249000  1.0  0.0561
  C  C280  1  0.224900  0.654000  0.163300  1.0  -0.1055
  C  C281  1  0.215700  0.633900  0.972200  1.0  -0.0597
  C  C282  1  0.171600  0.559800  0.921100  1.0  0.0728
  C  C283  1  0.154800  0.372100  0.883400  1.0  0.1713
  C  C284  1  0.119100  0.311200  0.920800  1.0  -0.064
  C  C285  1  0.146100  0.169600  0.062900  1.0  0.149
  C  C286  1  0.188700  0.260500  0.198200  1.0  0.0198
  C  C287  1  0.187000  0.323700  0.116300  1.0  -0.1572
  C  C288  1  0.166200  0.273200  0.916700  1.0  0.1444
  N  N289  1  0.342200  0.664300  0.918000  1.0  -0.4046
  N  N290  1  0.358900  0.770300  0.056300  1.0  0.0425
  N  N291  1  0.254800  0.060600  0.023600  1.0  0.0566
  N  N292  1  0.211100  0.016000  0.865200  1.0  -0.402
  N  N293  1  0.783500  0.966100  0.730100  1.0  -0.36
  N  N294  1  0.737200  0.889100  0.586600  1.0  0.0284
  N  N295  1  0.659500  0.239800  0.530000  1.0  -0.1209
  N  N296  1  0.664000  0.336100  0.663900  1.0  -0.3476
  N  N297  1  0.842200  0.164300  0.918000  1.0  -0.4046
  N  N298  1  0.858900  0.270300  0.056300  1.0  0.0425
  N  N299  1  0.754800  0.560600  0.023600  1.0  0.0566
  N  N300  1  0.711100  0.516000  0.865200  1.0  -0.402
  N  N301  1  0.283500  0.466100  0.730100  1.0  -0.36
  N  N302  1  0.237200  0.389100  0.586600  1.0  0.0284
  N  N303  1  0.159500  0.739800  0.530000  1.0  -0.1209
  N  N304  1  0.164000  0.836100  0.663900  1.0  -0.3476
  N  N305  1  0.342200  0.335700  0.418000  1.0  -0.4053
  N  N306  1  0.358900  0.229700  0.556300  1.0  0.0427
  N  N307  1  0.254800  0.939400  0.523600  1.0  0.0563
  N  N308  1  0.211100  0.984000  0.365200  1.0  -0.4011
  N  N309  1  0.783500  0.033900  0.230100  1.0  -0.3582
  N  N310  1  0.737200  0.110900  0.086600  1.0  0.0289
  N  N311  1  0.659500  0.760200  0.030000  1.0  -0.1208
  N  N312  1  0.664000  0.663900  0.163900  1.0  -0.3474
  N  N313  1  0.842200  0.835700  0.418000  1.0  -0.4053
  N  N314  1  0.858900  0.729700  0.556300  1.0  0.0427
  N  N315  1  0.754800  0.439400  0.523600  1.0  0.0563
  N  N316  1  0.711100  0.484000  0.365200  1.0  -0.4011
  N  N317  1  0.283500  0.533900  0.230100  1.0  -0.3582
  N  N318  1  0.237200  0.610900  0.086600  1.0  0.0289
  N  N319  1  0.159500  0.260200  0.030000  1.0  -0.1208
  N  N320  1  0.164000  0.163900  0.163900  1.0  -0.3474
  O  O321  1  0.303280  0.884900  0.165600  1.0  -0.2851
  O  O322  1  0.101970  0.055100  0.669300  1.0  -0.6123
  O  O323  1  0.160580  0.104300  0.612500  1.0  -0.5989
  O  O324  1  0.101100  0.015100  0.396600  1.0  -0.5462
  O  O325  1  0.129900  0.156300  0.334500  1.0  -0.6
  O  O326  1  0.888600  0.076500  0.413300  1.0  -0.6335
  O  O327  1  0.835400  0.083700  0.490500  1.0  -0.5461
  O  O328  1  0.824820  0.205000  0.679300  1.0  -0.5571
  O  O329  1  0.881500  0.077800  0.738200  1.0  -0.6101
  O  O330  1  0.688700  0.045600  0.437000  1.0  -0.2726
  O  O331  1  0.803280  0.384900  0.165600  1.0  -0.2851
  O  O332  1  0.601970  0.555100  0.669300  1.0  -0.6123
  O  O333  1  0.660580  0.604300  0.612500  1.0  -0.5989
  O  O334  1  0.601100  0.515100  0.396600  1.0  -0.5462
  O  O335  1  0.629900  0.656300  0.334500  1.0  -0.6
  O  O336  1  0.388600  0.576500  0.413300  1.0  -0.6335
  O  O337  1  0.335400  0.583700  0.490500  1.0  -0.5461
  O  O338  1  0.324820  0.705000  0.679300  1.0  -0.5574
  O  O339  1  0.381500  0.577800  0.738200  1.0  -0.6101
  O  O340  1  0.188700  0.545600  0.437000  1.0  -0.2726
  O  O341  1  0.303280  0.115100  0.665600  1.0  -0.2842
  O  O342  1  0.101970  0.944900  0.169300  1.0  -0.6125
  O  O343  1  0.160580  0.895700  0.112500  1.0  -0.5991
  O  O344  1  0.101100  0.984900  0.896600  1.0  -0.5466
  O  O345  1  0.129900  0.843700  0.834500  1.0  -0.6005
  O  O346  1  0.888600  0.923500  0.913300  1.0  -0.6325
  O  O347  1  0.835400  0.916300  0.990500  1.0  -0.5459
  O  O348  1  0.824820  0.795000  0.179300  1.0  -0.5575
  O  O349  1  0.881500  0.922200  0.238200  1.0  -0.6094
  O  O350  1  0.688700  0.954400  0.937000  1.0  -0.271
  O  O351  1  0.803280  0.615100  0.665600  1.0  -0.2842
  O  O352  1  0.601970  0.444900  0.169300  1.0  -0.6125
  O  O353  1  0.660580  0.395700  0.112500  1.0  -0.5991
  O  O354  1  0.601100  0.484900  0.896600  1.0  -0.5466
  O  O355  1  0.629900  0.343700  0.834500  1.0  -0.6005
  O  O356  1  0.388600  0.423500  0.913300  1.0  -0.6325
  O  O357  1  0.335400  0.416300  0.990500  1.0  -0.5459
  O  O358  1  0.324820  0.295000  0.179300  1.0  -0.5577
  O  O359  1  0.381500  0.422200  0.238200  1.0  -0.6094
  O  O360  1  0.188700  0.454400  0.937000  1.0  -0.271
  F  F361  1  0.012530  0.579900  0.656900  1.0  -0.2093
  F  F362  1  0.054920  0.435700  0.714300  1.0  -0.1961
  F  F363  1  0.065500  0.535300  0.597000  1.0  -0.2199
  F  F364  1  0.988480  0.575800  0.431000  1.0  -0.2087
  F  F365  1  0.931300  0.553600  0.494400  1.0  -0.233
  F  F366  1  0.934580  0.445400  0.375800  1.0  -0.2197
  F  F367  1  0.512530  0.079900  0.656900  1.0  -0.2093
  F  F368  1  0.554920  0.935700  0.714300  1.0  -0.1961
  F  F369  1  0.565500  0.035300  0.597000  1.0  -0.2199
  F  F370  1  0.488480  0.075800  0.431000  1.0  -0.2087
  F  F371  1  0.431300  0.053600  0.494400  1.0  -0.233
  F  F372  1  0.434580  0.945400  0.375800  1.0  -0.2197
  F  F373  1  0.012530  0.420100  0.156900  1.0  -0.2085
  F  F374  1  0.054920  0.564300  0.214300  1.0  -0.1962
  F  F375  1  0.065500  0.464700  0.097000  1.0  -0.2204
  F  F376  1  0.988480  0.424200  0.931000  1.0  -0.2082
  F  F377  1  0.931300  0.446400  0.994400  1.0  -0.2325
  F  F378  1  0.934580  0.554600  0.875800  1.0  -0.2198
  F  F379  1  0.512530  0.920100  0.156900  1.0  -0.2085
  F  F380  1  0.554920  0.064300  0.214300  1.0  -0.1962
  F  F381  1  0.565500  0.964700  0.097000  1.0  -0.2204
  F  F382  1  0.488480  0.924200  0.931000  1.0  -0.2082
  F  F383  1  0.431300  0.946400  0.994400  1.0  -0.2325
  F  F384  1  0.434580  0.054600  0.875800  1.0  -0.2199
