# generated using pymatgen
data_Ag2H15C19N7O4
_symmetry_space_group_name_H-M   'P 1'
_cell_length_a   8.77260000
_cell_length_b   12.18200000
_cell_length_c   21.90070000
_cell_angle_alpha   92.17500000
_cell_angle_beta   101.55300000
_cell_angle_gamma   90.00000000
_symmetry_Int_Tables_number   1
_chemical_formula_structural   Ag2H15C19N7O4
_chemical_formula_sum   'Ag8 H60 C76 N28 O16'
_cell_volume   2291.34043462
_cell_formula_units_Z   4
loop_
 _symmetry_equiv_pos_site_id
 _symmetry_equiv_pos_as_xyz
  1  'x, y, z'
loop_
 _atom_site_type_symbol
 _atom_site_label
 _atom_site_symmetry_multiplicity
 _atom_site_fract_x
 _atom_site_fract_y
 _atom_site_fract_z
 _atom_site_occupancy
 _atom_site_charge
  Ag  Ag1  1  0.563750  0.431030  0.825940  1.0  0.4586
  Ag  Ag2  1  0.737810  0.068970  0.174060  1.0  0.4582
  Ag  Ag3  1  0.436250  0.568970  0.174060  1.0  0.4582
  Ag  Ag4  1  0.262190  0.931030  0.825940  1.0  0.4577
  Ag  Ag5  1  0.038770  0.963110  0.672160  1.0  0.4474
  Ag  Ag6  1  0.961230  0.036890  0.327840  1.0  0.446
  Ag  Ag7  1  0.366610  0.536890  0.327840  1.0  0.4457
  Ag  Ag8  1  0.633390  0.463110  0.672160  1.0  0.4472
  H  H9  1  0.495000  0.147000  0.802600  1.0  0.1035
  H  H10  1  0.184200  0.158300  0.905000  1.0  0.108
  H  H11  1  0.229600  0.430200  0.875200  1.0  0.1356
  H  H12  1  0.179800  0.366200  0.928800  1.0  0.1359
  H  H13  1  0.557000  0.328100  0.963400  1.0  0.1072
  H  H14  1  0.260600  0.572300  0.962600  1.0  0.1173
  H  H15  1  0.692400  0.353000  0.197400  1.0  0.1057
  H  H16  1  0.279200  0.341700  0.095000  1.0  0.1089
  H  H17  1  0.354400  0.069800  0.124800  1.0  0.1362
  H  H18  1  0.251000  0.133800  0.071200  1.0  0.135
  H  H19  1  0.593600  0.171900  0.036600  1.0  0.1082
  H  H20  1  0.298000  0.927700  0.037400  1.0  0.1164
  H  H21  1  0.505000  0.853000  0.197400  1.0  0.1032
  H  H22  1  0.815800  0.841700  0.095000  1.0  0.1082
  H  H23  1  0.770400  0.569800  0.124800  1.0  0.1356
  H  H24  1  0.820200  0.633800  0.071200  1.0  0.1353
  H  H25  1  0.443000  0.671900  0.036600  1.0  0.1077
  H  H26  1  0.739400  0.427700  0.037400  1.0  0.117
  H  H27  1  0.307600  0.647000  0.802600  1.0  0.1052
  H  H28  1  0.720800  0.658300  0.905000  1.0  0.1089
  H  H29  1  0.645600  0.930200  0.875200  1.0  0.1358
  H  H30  1  0.749000  0.866200  0.928800  1.0  0.1333
  H  H31  1  0.406400  0.828100  0.963400  1.0  0.1077
  H  H32  1  0.702000  0.072300  0.962600  1.0  0.1168
  H  H33  1  0.941300  0.730400  0.584200  1.0  0.1119
  H  H34  1  0.660600  0.972200  0.593800  1.0  0.0903
  H  H35  1  0.807200  0.646700  0.477200  1.0  0.1163
  H  H36  1  0.662400  0.710700  0.442400  1.0  0.1286
  H  H37  1  0.509700  0.659400  0.560800  1.0  0.0919
  H  H38  1  0.656900  0.482200  0.427000  1.0  0.1167
  H  H39  1  0.247200  0.172900  0.671800  1.0  0.0868
  H  H40  1  0.869400  0.148700  0.738800  1.0  0.0776
  H  H41  1  0.090800  0.435300  0.752800  1.0  0.1011
  H  H42  1  0.058700  0.269600  0.415800  1.0  0.1123
  H  H43  1  0.339400  0.027800  0.406200  1.0  0.0897
  H  H44  1  0.192800  0.353300  0.522800  1.0  0.1161
  H  H45  1  0.337600  0.289300  0.557600  1.0  0.1289
  H  H46  1  0.490300  0.340600  0.439200  1.0  0.0918
  H  H47  1  0.343100  0.517800  0.573000  1.0  0.116
  H  H48  1  0.752800  0.827100  0.328200  1.0  0.087
  H  H49  1  0.130600  0.851300  0.261200  1.0  0.0775
  H  H50  1  0.909200  0.564700  0.247200  1.0  0.1013
  H  H51  1  0.357100  0.769600  0.415800  1.0  0.1123
  H  H52  1  0.066800  0.527800  0.406200  1.0  0.0891
  H  H53  1  0.330000  0.853300  0.522800  1.0  0.1166
  H  H54  1  0.220000  0.789300  0.557600  1.0  0.1292
  H  H55  1  0.948900  0.840600  0.439200  1.0  0.0913
  H  H56  1  0.229900  0.017800  0.573000  1.0  0.116
  H  H57  1  0.575400  0.327100  0.328200  1.0  0.0866
  H  H58  1  0.130600  0.351300  0.261200  1.0  0.0776
  H  H59  1  0.338000  0.064700  0.247200  1.0  0.1013
  H  H60  1  0.642900  0.230400  0.584200  1.0  0.1124
  H  H61  1  0.933200  0.472200  0.593800  1.0  0.0897
  H  H62  1  0.670000  0.146700  0.477200  1.0  0.1159
  H  H63  1  0.780000  0.210700  0.442400  1.0  0.129
  H  H64  1  0.051100  0.159400  0.560800  1.0  0.0909
  H  H65  1  0.770100  0.982200  0.427000  1.0  0.1157
  H  H66  1  0.424600  0.672900  0.671800  1.0  0.0867
  H  H67  1  0.869400  0.648700  0.738800  1.0  0.078
  H  H68  1  0.662000  0.935300  0.752800  1.0  0.1012
  C  C69  1  0.428450  0.173200  0.827900  1.0  0.2899
  C  C70  1  0.260380  0.177500  0.883160  1.0  0.1495
  C  C71  1  0.266600  0.381600  0.909000  1.0  -0.1156
  C  C72  1  0.390860  0.440300  0.955720  1.0  0.0295
  C  C73  1  0.532020  0.397300  0.977640  1.0  -0.1491
  C  C74  1  0.357670  0.542000  0.977540  1.0  -0.1188
  C  C75  1  0.600550  0.326800  0.172100  1.0  0.2901
  C  C76  1  0.377220  0.322500  0.116840  1.0  0.1522
  C  C77  1  0.357600  0.118400  0.091000  1.0  -0.115
  C  C78  1  0.435140  0.059700  0.044280  1.0  0.0295
  C  C79  1  0.554380  0.102700  0.022360  1.0  -0.149
  C  C80  1  0.380130  0.958000  0.022460  1.0  -0.1197
  C  C81  1  0.571550  0.826800  0.172100  1.0  0.29
  C  C82  1  0.739620  0.822500  0.116840  1.0  0.1506
  C  C83  1  0.733400  0.618400  0.091000  1.0  -0.117
  C  C84  1  0.609140  0.559700  0.044280  1.0  0.0303
  C  C85  1  0.467980  0.602700  0.022360  1.0  -0.1481
  C  C86  1  0.642330  0.458000  0.022460  1.0  -0.1185
  C  C87  1  0.399450  0.673200  0.827900  1.0  0.2903
  C  C88  1  0.622780  0.677500  0.883160  1.0  0.15
  C  C89  1  0.642400  0.881600  0.909000  1.0  -0.1164
  C  C90  1  0.564860  0.940300  0.955720  1.0  0.0302
  C  C91  1  0.445620  0.897300  0.977640  1.0  -0.1489
  C  C92  1  0.619870  0.042000  0.977540  1.0  -0.1181
  C  C93  1  0.857030  0.777800  0.576460  1.0  0.1522
  C  C94  1  0.702950  0.907700  0.580700  1.0  0.2772
  C  C95  1  0.707850  0.677600  0.481500  1.0  -0.0983
  C  C96  1  0.601220  0.585100  0.492840  1.0  0.0316
  C  C97  1  0.506340  0.595200  0.536280  1.0  -0.1411
  C  C98  1  0.594270  0.489900  0.456540  1.0  -0.1168
  C  C99  1  0.329800  0.379500  0.699400  1.0  0.6617
  C  C100  1  0.192130  0.315400  0.710660  1.0  -0.2248
  C  C101  1  0.173750  0.205200  0.691900  1.0  0.1924
  C  C102  1  0.951420  0.191200  0.731440  1.0  0.1997
  C  C103  1  0.959850  0.299800  0.752100  1.0  -0.2315
  C  C104  1  0.082500  0.361300  0.740400  1.0  0.0355
  C  C105  1  0.838700  0.348000  0.785400  1.0  0.6832
  C  C106  1  0.142970  0.222200  0.423540  1.0  0.1517
  C  C107  1  0.297050  0.092300  0.419300  1.0  0.276
  C  C108  1  0.292150  0.322400  0.518500  1.0  -0.0988
  C  C109  1  0.398780  0.414900  0.507160  1.0  0.0316
  C  C110  1  0.493660  0.404800  0.463720  1.0  -0.139
  C  C111  1  0.405730  0.510100  0.543460  1.0  -0.1172
  C  C112  1  0.670200  0.620500  0.300600  1.0  0.6616
  C  C113  1  0.807870  0.684600  0.289340  1.0  -0.2246
  C  C114  1  0.826250  0.794800  0.308100  1.0  0.192
  C  C115  1  0.048580  0.808800  0.268560  1.0  0.1984
  C  C116  1  0.040150  0.700200  0.247900  1.0  -0.2317
  C  C117  1  0.917500  0.638700  0.259600  1.0  0.0363
  C  C118  1  0.161300  0.652000  0.214600  1.0  0.685
  C  C119  1  0.280570  0.722200  0.423540  1.0  0.1541
  C  C120  1  0.122250  0.592300  0.419300  1.0  0.2774
  C  C121  1  0.226350  0.822400  0.518500  1.0  -0.0993
  C  C122  1  0.108380  0.914900  0.507160  1.0  0.0313
  C  C123  1  0.970060  0.904800  0.463720  1.0  -0.1406
  C  C124  1  0.137730  0.010100  0.543460  1.0  -0.1158
  C  C125  1  0.630400  0.120500  0.300600  1.0  0.6623
  C  C126  1  0.481470  0.184600  0.289340  1.0  -0.2252
  C  C127  1  0.481850  0.294800  0.308100  1.0  0.1914
  C  C128  1  0.219980  0.308800  0.268560  1.0  0.1985
  C  C129  1  0.207750  0.200200  0.247900  1.0  -0.2313
  C  C130  1  0.342100  0.138700  0.259600  1.0  0.0367
  C  C131  1  0.053300  0.152000  0.214600  1.0  0.6837
  C  C132  1  0.719430  0.277800  0.576460  1.0  0.1553
  C  C133  1  0.877750  0.407700  0.580700  1.0  0.2764
  C  C134  1  0.773650  0.177600  0.481500  1.0  -0.1003
  C  C135  1  0.891620  0.085100  0.492840  1.0  0.0314
  C  C136  1  0.029940  0.095200  0.536280  1.0  -0.1411
  C  C137  1  0.862270  0.989900  0.456540  1.0  -0.1144
  C  C138  1  0.369600  0.879500  0.699400  1.0  0.6607
  C  C139  1  0.518530  0.815400  0.710660  1.0  -0.2249
  C  C140  1  0.518150  0.705200  0.691900  1.0  0.1918
  C  C141  1  0.780020  0.691200  0.731440  1.0  0.2
  C  C142  1  0.792250  0.799800  0.752100  1.0  -0.2304
  C  C143  1  0.657900  0.861300  0.740400  1.0  0.0351
  C  C144  1  0.946700  0.848000  0.785400  1.0  0.6841
  N  N145  1  0.423790  0.277000  0.846380  1.0  -0.3192
  N  N146  1  0.326260  0.108100  0.849320  1.0  -0.3894
  N  N147  1  0.315810  0.277900  0.882420  1.0  0.1451
  N  N148  1  0.577410  0.223000  0.153620  1.0  -0.3175
  N  N149  1  0.476940  0.391900  0.150680  1.0  -0.3898
  N  N150  1  0.433390  0.222100  0.117580  1.0  0.1455
  N  N151  1  0.576210  0.723000  0.153620  1.0  -0.3208
  N  N152  1  0.673740  0.891900  0.150680  1.0  -0.3904
  N  N153  1  0.684190  0.722100  0.117580  1.0  0.1452
  N  N154  1  0.422590  0.777000  0.846380  1.0  -0.3219
  N  N155  1  0.523060  0.608100  0.849320  1.0  -0.39
  N  N156  1  0.566610  0.777900  0.882420  1.0  0.1452
  N  N157  1  0.843200  0.868600  0.609600  1.0  -0.4067
  N  N158  1  0.631950  0.846300  0.532300  1.0  -0.3852
  N  N159  1  0.734970  0.763400  0.530940  1.0  0.1829
  N  N160  1  0.054670  0.143100  0.701340  1.0  -0.3465
  N  N161  1  0.156800  0.131400  0.390400  1.0  -0.4072
  N  N162  1  0.368050  0.153700  0.467700  1.0  -0.3857
  N  N163  1  0.265030  0.236600  0.469060  1.0  0.1826
  N  N164  1  0.945330  0.856900  0.298660  1.0  -0.3468
  N  N165  1  0.233600  0.631400  0.390400  1.0  -0.404
  N  N166  1  0.099650  0.653700  0.467700  1.0  -0.3868
  N  N167  1  0.204030  0.736600  0.469060  1.0  0.1827
  N  N168  1  0.353330  0.356900  0.298660  1.0  -0.3464
  N  N169  1  0.766400  0.368600  0.609600  1.0  -0.4048
  N  N170  1  0.900350  0.346300  0.532300  1.0  -0.3854
  N  N171  1  0.795970  0.263400  0.530940  1.0  0.1825
  N  N172  1  0.646670  0.643100  0.701340  1.0  -0.3456
  O  O173  1  0.338940  0.478700  0.715080  1.0  -0.6236
  O  O174  1  0.431250  0.329700  0.676500  1.0  -0.6151
  O  O175  1  0.826600  0.447300  0.790000  1.0  -0.6571
  O  O176  1  0.753500  0.286500  0.804600  1.0  -0.6283
  O  O177  1  0.661060  0.521300  0.284920  1.0  -0.6236
  O  O178  1  0.568750  0.670300  0.323500  1.0  -0.6154
  O  O179  1  0.173400  0.552700  0.210000  1.0  -0.657
  O  O180  1  0.246500  0.713500  0.195400  1.0  -0.6292
  O  O181  1  0.623860  0.021300  0.284920  1.0  -0.6237
  O  O182  1  0.754750  0.170300  0.323500  1.0  -0.6152
  O  O183  1  0.036600  0.052700  0.210000  1.0  -0.6561
  O  O184  1  0.948900  0.213500  0.195400  1.0  -0.6271
  O  O185  1  0.376140  0.978700  0.715080  1.0  -0.6232
  O  O186  1  0.245250  0.829700  0.676500  1.0  -0.6146
  O  O187  1  0.963400  0.947300  0.790000  1.0  -0.6557
  O  O188  1  0.051100  0.786500  0.804600  1.0  -0.6263
