# generated using pymatgen
data_CdH8C12(NO3)2
_symmetry_space_group_name_H-M   'P 1'
_cell_length_a   6.72100000
_cell_length_b   10.15690000
_cell_length_c   10.15690000
_cell_angle_alpha   90.40690000
_cell_angle_beta   93.07120000
_cell_angle_gamma   86.92880000
_symmetry_Int_Tables_number   1
_chemical_formula_structural   CdH8C12(NO3)2
_chemical_formula_sum   'Cd2 H16 C24 N4 O12'
_cell_volume   691.35946212
_cell_formula_units_Z   2
loop_
 _symmetry_equiv_pos_site_id
 _symmetry_equiv_pos_as_xyz
  1  'x, y, z'
loop_
 _atom_site_type_symbol
 _atom_site_label
 _atom_site_symmetry_multiplicity
 _atom_site_fract_x
 _atom_site_fract_y
 _atom_site_fract_z
 _atom_site_occupancy
 _atom_site_charge
  Cd  Cd1  1  0.750000  0.571750  0.571750  1.0  1.1441
  Cd  Cd2  1  0.250000  0.428250  0.428250  1.0  1.1437
  H  H3  1  0.874600  0.357100  0.206700  1.0  0.1325
  H  H4  1  0.786700  0.738100  0.284100  1.0  0.1222
  H  H5  1  0.779800  0.396300  0.988900  1.0  0.1057
  H  H6  1  0.666667  0.779700  0.068700  1.0  0.1293
  H  H7  1  0.625400  0.206700  0.357100  1.0  0.1333
  H  H8  1  0.713300  0.284100  0.738100  1.0  0.1232
  H  H9  1  0.720200  0.988900  0.396300  1.0  0.1065
  H  H10  1  0.833300  0.068700  0.779700  1.0  0.13
  H  H11  1  0.125400  0.642900  0.793300  1.0  0.1331
  H  H12  1  0.213300  0.261900  0.715900  1.0  0.1223
  H  H13  1  0.220200  0.603700  0.011100  1.0  0.106
  H  H14  1  0.333333  0.220300  0.931300  1.0  0.13
  H  H15  1  0.374600  0.793300  0.642900  1.0  0.133
  H  H16  1  0.286700  0.715900  0.261900  1.0  0.1233
  H  H17  1  0.279800  0.011100  0.603700  1.0  0.1053
  H  H18  1  0.166700  0.931300  0.220300  1.0  0.1299
  C  C19  1  0.713000  0.591000  0.002200  1.0  -0.0758
  C  C20  1  0.839400  0.442300  0.177500  1.0  0.013
  C  C21  1  0.783300  0.669700  0.222900  1.0  -0.0344
  C  C22  1  0.653700  0.619500  0.859700  1.0  0.6604
  C  C23  1  0.777900  0.466400  0.048200  1.0  -0.0746
  C  C24  1  0.713000  0.695100  0.093900  1.0  -0.0796
  C  C25  1  0.787000  0.002200  0.591000  1.0  -0.075
  C  C26  1  0.660600  0.177500  0.442300  1.0  0.0108
  C  C27  1  0.716700  0.222900  0.669700  1.0  -0.0342
  C  C28  1  0.846300  0.859700  0.619500  1.0  0.6581
  C  C29  1  0.722100  0.048200  0.466400  1.0  -0.0768
  C  C30  1  0.787000  0.093900  0.695100  1.0  -0.0745
  C  C31  1  0.287000  0.409000  0.997800  1.0  -0.0758
  C  C32  1  0.160600  0.557700  0.822500  1.0  0.012
  C  C33  1  0.216700  0.330300  0.777100  1.0  -0.0349
  C  C34  1  0.346300  0.380500  0.140300  1.0  0.6593
  C  C35  1  0.222100  0.533600  0.951800  1.0  -0.0765
  C  C36  1  0.287000  0.304900  0.906100  1.0  -0.081
  C  C37  1  0.213000  0.997800  0.409000  1.0  -0.0754
  C  C38  1  0.339400  0.822500  0.557700  1.0  0.0122
  C  C39  1  0.283300  0.777100  0.330300  1.0  -0.0346
  C  C40  1  0.153700  0.140300  0.380500  1.0  0.6584
  C  C41  1  0.277900  0.951800  0.533600  1.0  -0.0776
  C  C42  1  0.213000  0.906100  0.304900  1.0  -0.075
  N  N43  1  0.847000  0.545700  0.260300  1.0  0.3429
  N  N44  1  0.653000  0.260300  0.545700  1.0  0.3416
  N  N45  1  0.153000  0.454300  0.739700  1.0  0.3429
  N  N46  1  0.347000  0.739700  0.454300  1.0  0.3421
  O  O47  1  0.559000  0.721000  0.826800  1.0  -0.5734
  O  O48  1  0.923400  0.523800  0.384600  1.0  -0.5999
  O  O49  1  0.713800  0.528490  0.781170  1.0  -0.6389
  O  O50  1  0.941000  0.826800  0.721000  1.0  -0.5741
  O  O51  1  0.576600  0.384600  0.523800  1.0  -0.5989
  O  O52  1  0.786200  0.781170  0.528490  1.0  -0.6406
  O  O53  1  0.441000  0.279000  0.173200  1.0  -0.5735
  O  O54  1  0.076600  0.476200  0.615400  1.0  -0.6003
  O  O55  1  0.286200  0.471510  0.218830  1.0  -0.6378
  O  O56  1  0.059000  0.173200  0.279000  1.0  -0.5751
  O  O57  1  0.423400  0.615400  0.476200  1.0  -0.5991
  O  O58  1  0.213800  0.218830  0.471510  1.0  -0.6395
