# generated using pymatgen
data_NdRe6H14C15Se8(N3O2)3
_symmetry_space_group_name_H-M   'P 1'
_cell_length_a   20.57320000
_cell_length_b   20.57320000
_cell_length_c   20.57320000
_cell_angle_alpha   104.40900000
_cell_angle_beta   104.40900000
_cell_angle_gamma   104.40900000
_symmetry_Int_Tables_number   1
_chemical_formula_structural   NdRe6H14C15Se8(N3O2)3
_chemical_formula_sum   'Nd6 Re36 H84 C90 Se48 N54 O36'
_cell_volume   7707.28699902
_cell_formula_units_Z   6
loop_
 _symmetry_equiv_pos_site_id
 _symmetry_equiv_pos_as_xyz
  1  'x, y, z'
loop_
 _atom_site_type_symbol
 _atom_site_label
 _atom_site_symmetry_multiplicity
 _atom_site_fract_x
 _atom_site_fract_y
 _atom_site_fract_z
 _atom_site_occupancy
 _atom_site_charge
  Nd  Nd1  1  0.781390  0.477320  0.318550  1.0  2.2644
  Nd  Nd2  1  0.318550  0.781390  0.477320  1.0  2.2643
  Nd  Nd3  1  0.477320  0.318550  0.781390  1.0  2.2611
  Nd  Nd4  1  0.977320  0.281390  0.818550  1.0  2.2646
  Nd  Nd5  1  0.281390  0.818550  0.977320  1.0  2.2656
  Nd  Nd6  1  0.818550  0.977320  0.281390  1.0  2.2592
  Re  Re7  1  0.560970  0.103600  0.022230  1.0  0.0004
  Re  Re8  1  0.676800  0.216410  0.081170  1.0  0.0017
  Re  Re9  1  0.619740  0.043790  0.934920  1.0  -0.0556
  Re  Re10  1  0.611770  0.171110  0.942920  1.0  0.0127
  Re  Re11  1  0.684970  0.088940  0.073390  1.0  -0.0448
  Re  Re12  1  0.735890  0.156340  0.994370  1.0  -0.1192
  Re  Re13  1  0.022230  0.560970  0.103600  1.0  0.0007
  Re  Re14  1  0.081170  0.676800  0.216410  1.0  0.001
  Re  Re15  1  0.934920  0.619740  0.043790  1.0  -0.0549
  Re  Re16  1  0.942920  0.611770  0.171110  1.0  0.0137
  Re  Re17  1  0.073390  0.684970  0.088940  1.0  -0.0434
  Re  Re18  1  0.994370  0.735890  0.156340  1.0  -0.1195
  Re  Re19  1  0.103600  0.022230  0.560970  1.0  0.0004
  Re  Re20  1  0.216410  0.081170  0.676800  1.0  0.0015
  Re  Re21  1  0.043790  0.934920  0.619740  1.0  -0.0555
  Re  Re22  1  0.171110  0.942920  0.611770  1.0  0.0126
  Re  Re23  1  0.088940  0.073390  0.684970  1.0  -0.0441
  Re  Re24  1  0.156340  0.994370  0.735890  1.0  -0.1186
  Re  Re25  1  0.603600  0.060970  0.522230  1.0  0.0002
  Re  Re26  1  0.716410  0.176800  0.581170  1.0  0.002
  Re  Re27  1  0.543790  0.119740  0.434920  1.0  -0.0551
  Re  Re28  1  0.671110  0.111770  0.442920  1.0  0.0142
  Re  Re29  1  0.588940  0.184970  0.573390  1.0  -0.0446
  Re  Re30  1  0.656340  0.235890  0.494370  1.0  -0.1191
  Re  Re31  1  0.060970  0.522230  0.603600  1.0  0.0007
  Re  Re32  1  0.176800  0.581170  0.716410  1.0  0.0019
  Re  Re33  1  0.119740  0.434920  0.543790  1.0  -0.0552
  Re  Re34  1  0.111770  0.442920  0.671110  1.0  0.0126
  Re  Re35  1  0.184970  0.573390  0.588940  1.0  -0.0449
  Re  Re36  1  0.235890  0.494370  0.656340  1.0  -0.1194
  Re  Re37  1  0.522230  0.603600  0.060970  1.0  1e-04
  Re  Re38  1  0.581170  0.716410  0.176800  1.0  0.0008
  Re  Re39  1  0.434920  0.543790  0.119740  1.0  -0.0558
  Re  Re40  1  0.442920  0.671110  0.111770  1.0  0.0125
  Re  Re41  1  0.573390  0.588940  0.184970  1.0  -0.0442
  Re  Re42  1  0.494370  0.656340  0.235890  1.0  -0.1184
  H  H43  1  0.841200  0.399100  0.191100  1.0  0.0812
  H  H44  1  0.889100  0.356400  0.110300  1.0  0.1438
  H  H45  1  0.931200  0.307200  0.134800  1.0  0.1393
  H  H46  1  0.973200  0.386100  0.142900  1.0  0.1317
  H  H47  1  0.962000  0.413000  0.319200  1.0  0.1349
  H  H48  1  0.022900  0.425500  0.284800  1.0  0.1347
  H  H49  1  0.984500  0.348200  0.283800  1.0  0.1301
  H  H50  1  0.962400  0.566200  0.366000  1.0  0.0495
  H  H51  1  0.075800  0.651300  0.400600  1.0  0.1631
  H  H52  1  0.105700  0.680500  0.484900  1.0  0.1542
  H  H53  1  0.081600  0.729600  0.442200  1.0  0.154
  H  H54  1  0.932500  0.670000  0.502100  1.0  0.1437
  H  H55  1  0.991200  0.740000  0.508700  1.0  0.1485
  H  H56  1  0.012700  0.687800  0.548400  1.0  0.1483
  H  H57  1  0.191100  0.841200  0.399100  1.0  0.081
  H  H58  1  0.110300  0.889100  0.356400  1.0  0.1429
  H  H59  1  0.134800  0.931200  0.307200  1.0  0.1409
  H  H60  1  0.142900  0.973200  0.386100  1.0  0.1317
  H  H61  1  0.319200  0.962000  0.413000  1.0  0.1256
  H  H62  1  0.284800  0.022900  0.425500  1.0  0.1319
  H  H63  1  0.283800  0.984500  0.348200  1.0  0.1309
  H  H64  1  0.366000  0.962400  0.566200  1.0  0.05
  H  H65  1  0.400600  0.075800  0.651300  1.0  0.162
  H  H66  1  0.484900  0.105700  0.680500  1.0  0.1562
  H  H67  1  0.442200  0.081600  0.729600  1.0  0.1538
  H  H68  1  0.502100  0.932500  0.670000  1.0  0.1416
  H  H69  1  0.508700  0.991200  0.740000  1.0  0.15
  H  H70  1  0.548400  0.012700  0.687800  1.0  0.1483
  H  H71  1  0.399100  0.191100  0.841200  1.0  0.0804
  H  H72  1  0.356400  0.110300  0.889100  1.0  0.1398
  H  H73  1  0.307200  0.134800  0.931200  1.0  0.1403
  H  H74  1  0.386100  0.142900  0.973200  1.0  0.1324
  H  H75  1  0.413000  0.319200  0.962000  1.0  0.1351
  H  H76  1  0.425500  0.284800  0.022900  1.0  0.1348
  H  H77  1  0.348200  0.283800  0.984500  1.0  0.1303
  H  H78  1  0.566200  0.366000  0.962400  1.0  0.0504
  H  H79  1  0.651300  0.400600  0.075800  1.0  0.1636
  H  H80  1  0.680500  0.484900  0.105700  1.0  0.1549
  H  H81  1  0.729600  0.442200  0.081600  1.0  0.1483
  H  H82  1  0.670000  0.502100  0.932500  1.0  0.138
  H  H83  1  0.740000  0.508700  0.991200  1.0  0.1464
  H  H84  1  0.687800  0.548400  0.012700  1.0  0.1452
  H  H85  1  0.899100  0.341200  0.691100  1.0  0.0793
  H  H86  1  0.856400  0.389100  0.610300  1.0  0.1423
  H  H87  1  0.807200  0.431200  0.634800  1.0  0.1401
  H  H88  1  0.886100  0.473200  0.642900  1.0  0.1333
  H  H89  1  0.913000  0.462000  0.819200  1.0  0.1344
  H  H90  1  0.925500  0.522900  0.784800  1.0  0.1337
  H  H91  1  0.848200  0.484500  0.783800  1.0  0.1299
  H  H92  1  0.066200  0.462400  0.866000  1.0  0.0498
  H  H93  1  0.151300  0.575800  0.900600  1.0  0.1628
  H  H94  1  0.180500  0.605700  0.984900  1.0  0.1553
  H  H95  1  0.229600  0.581600  0.942200  1.0  0.1486
  H  H96  1  0.170000  0.432500  0.002100  1.0  0.1405
  H  H97  1  0.240000  0.491200  0.008700  1.0  0.1474
  H  H98  1  0.187800  0.512700  0.048400  1.0  0.149
  H  H99  1  0.341200  0.691100  0.899100  1.0  0.0808
  H  H100  1  0.389100  0.610300  0.856400  1.0  0.1422
  H  H101  1  0.431200  0.634800  0.807200  1.0  0.1406
  H  H102  1  0.473200  0.642900  0.886100  1.0  0.1332
  H  H103  1  0.462000  0.819200  0.913000  1.0  0.1376
  H  H104  1  0.522900  0.784800  0.925500  1.0  0.1321
  H  H105  1  0.484500  0.783800  0.848200  1.0  0.132
  H  H106  1  0.462400  0.866000  0.066200  1.0  0.0498
  H  H107  1  0.575800  0.900600  0.151300  1.0  0.1634
  H  H108  1  0.605700  0.984900  0.180500  1.0  0.1556
  H  H109  1  0.581600  0.942200  0.229600  1.0  0.154
  H  H110  1  0.432500  0.002100  0.170000  1.0  0.1451
  H  H111  1  0.491200  0.008700  0.240000  1.0  0.1498
  H  H112  1  0.512700  0.048400  0.187800  1.0  0.1482
  H  H113  1  0.691100  0.899100  0.341200  1.0  0.081
  H  H114  1  0.610300  0.856400  0.389100  1.0  0.141
  H  H115  1  0.634800  0.807200  0.431200  1.0  0.1395
  H  H116  1  0.642900  0.886100  0.473200  1.0  0.1314
  H  H117  1  0.819200  0.913000  0.462000  1.0  0.132
  H  H118  1  0.784800  0.925500  0.522900  1.0  0.1347
  H  H119  1  0.783800  0.848200  0.484500  1.0  0.1308
  H  H120  1  0.866000  0.066200  0.462400  1.0  0.0501
  H  H121  1  0.900600  0.151300  0.575800  1.0  0.1638
  H  H122  1  0.984900  0.180500  0.605700  1.0  0.1532
  H  H123  1  0.942200  0.229600  0.581600  1.0  0.155
  H  H124  1  0.002100  0.170000  0.432500  1.0  0.1397
  H  H125  1  0.008700  0.240000  0.491200  1.0  0.1485
  H  H126  1  0.048400  0.187800  0.512700  1.0  0.1453
  C  C127  1  0.464800  0.078300  0.040800  1.0  0.0448
  C  C128  1  0.707300  0.313800  0.163700  1.0  -0.0203
  C  C129  1  0.588400  0.946400  0.850200  1.0  0.1663
  C  C130  1  0.566600  0.221900  0.868900  1.0  0.1369
  C  C131  1  0.731200  0.043700  0.148300  1.0  0.0794
  C  C132  1  0.832700  0.183800  0.982300  1.0  0.2302
  C  C133  1  0.881200  0.406300  0.229700  1.0  0.1439
  C  C134  1  0.930100  0.355400  0.145000  1.0  -0.0916
  C  C135  1  0.978000  0.393000  0.280000  1.0  -0.0801
  C  C136  1  0.946600  0.592400  0.399400  1.0  0.2085
  C  C137  1  0.071800  0.681300  0.443000  1.0  -0.2706
  C  C138  1  0.982000  0.691000  0.506000  1.0  -0.1043
  C  C139  1  0.850000  0.352000  0.386000  1.0  0.1719
  C  C140  1  0.886000  0.246000  0.378000  1.0  -0.0203
  C  C141  1  0.767000  0.233000  0.294000  1.0  0.0018
  C  C142  1  0.040800  0.464800  0.078300  1.0  0.0446
  C  C143  1  0.163700  0.707300  0.313800  1.0  -0.0244
  C  C144  1  0.850200  0.588400  0.946400  1.0  0.1606
  C  C145  1  0.868900  0.566600  0.221900  1.0  0.1326
  C  C146  1  0.148300  0.731200  0.043700  1.0  0.0804
  C  C147  1  0.982300  0.832700  0.183800  1.0  0.232
  C  C148  1  0.229700  0.881200  0.406300  1.0  0.1468
  C  C149  1  0.145000  0.930100  0.355400  1.0  -0.0927
  C  C150  1  0.280000  0.978000  0.393000  1.0  -0.0804
  C  C151  1  0.399400  0.946600  0.592400  1.0  0.2095
  C  C152  1  0.443000  0.071800  0.681300  1.0  -0.2718
  C  C153  1  0.506000  0.982000  0.691000  1.0  -0.1032
  C  C154  1  0.386000  0.850000  0.352000  1.0  0.1708
  C  C155  1  0.378000  0.886000  0.246000  1.0  -0.0214
  C  C156  1  0.294000  0.767000  0.233000  1.0  0.0007
  C  C157  1  0.078300  0.040800  0.464800  1.0  0.0426
  C  C158  1  0.313800  0.163700  0.707300  1.0  -0.0215
  C  C159  1  0.946400  0.850200  0.588400  1.0  0.1629
  C  C160  1  0.221900  0.868900  0.566600  1.0  0.1371
  C  C161  1  0.043700  0.148300  0.731200  1.0  0.0803
  C  C162  1  0.183800  0.982300  0.832700  1.0  0.2291
  C  C163  1  0.406300  0.229700  0.881200  1.0  0.1439
  C  C164  1  0.355400  0.145000  0.930100  1.0  -0.0933
  C  C165  1  0.393000  0.280000  0.978000  1.0  -0.0823
  C  C166  1  0.592400  0.399400  0.946600  1.0  0.2073
  C  C167  1  0.681300  0.443000  0.071800  1.0  -0.275
  C  C168  1  0.691000  0.506000  0.982000  1.0  -0.1026
  C  C169  1  0.352000  0.386000  0.850000  1.0  0.1722
  C  C170  1  0.246000  0.378000  0.886000  1.0  -0.024
  C  C171  1  0.233000  0.294000  0.767000  1.0  0.002
  C  C172  1  0.578300  0.964800  0.540800  1.0  0.0445
  C  C173  1  0.813800  0.207300  0.663700  1.0  -0.0199
  C  C174  1  0.446400  0.088400  0.350200  1.0  0.1663
  C  C175  1  0.721900  0.066600  0.368900  1.0  0.1337
  C  C176  1  0.543700  0.231200  0.648300  1.0  0.0804
  C  C177  1  0.683800  0.332700  0.482300  1.0  0.23
  C  C178  1  0.906300  0.381200  0.729700  1.0  0.1461
  C  C179  1  0.855400  0.430100  0.645000  1.0  -0.0916
  C  C180  1  0.893000  0.478000  0.780000  1.0  -0.0809
  C  C181  1  0.092400  0.446600  0.899400  1.0  0.21
  C  C182  1  0.181300  0.571800  0.943000  1.0  -0.2728
  C  C183  1  0.191000  0.482000  0.006000  1.0  -0.1042
  C  C184  1  0.852000  0.350000  0.886000  1.0  0.1721
  C  C185  1  0.746000  0.386000  0.878000  1.0  -0.0216
  C  C186  1  0.733000  0.267000  0.794000  1.0  0.0021
  C  C187  1  0.964800  0.540800  0.578300  1.0  0.0453
  C  C188  1  0.207300  0.663700  0.813800  1.0  -0.0232
  C  C189  1  0.088400  0.350200  0.446400  1.0  0.1723
  C  C190  1  0.066600  0.368900  0.721900  1.0  0.1361
  C  C191  1  0.231200  0.648300  0.543700  1.0  0.0768
  C  C192  1  0.332700  0.482300  0.683800  1.0  0.2314
  C  C193  1  0.381200  0.729700  0.906300  1.0  0.1436
  C  C194  1  0.430100  0.645000  0.855400  1.0  -0.0906
  C  C195  1  0.478000  0.780000  0.893000  1.0  -0.082
  C  C196  1  0.446600  0.899400  0.092400  1.0  0.2078
  C  C197  1  0.571800  0.943000  0.181300  1.0  -0.2703
  C  C198  1  0.482000  0.006000  0.191000  1.0  -0.1021
  C  C199  1  0.350000  0.886000  0.852000  1.0  0.1722
  C  C200  1  0.386000  0.878000  0.746000  1.0  -0.0223
  C  C201  1  0.267000  0.794000  0.733000  1.0  0.0008
  C  C202  1  0.540800  0.578300  0.964800  1.0  0.042
  C  C203  1  0.663700  0.813800  0.207300  1.0  -0.0221
  C  C204  1  0.350200  0.446400  0.088400  1.0  0.1721
  C  C205  1  0.368900  0.721900  0.066600  1.0  0.136
  C  C206  1  0.648300  0.543700  0.231200  1.0  0.0829
  C  C207  1  0.482300  0.683800  0.332700  1.0  0.2292
  C  C208  1  0.729700  0.906300  0.381200  1.0  0.1448
  C  C209  1  0.645000  0.855400  0.430100  1.0  -0.0954
  C  C210  1  0.780000  0.893000  0.478000  1.0  -0.0822
  C  C211  1  0.899400  0.092400  0.446600  1.0  0.2084
  C  C212  1  0.943000  0.181300  0.571800  1.0  -0.2751
  C  C213  1  0.006000  0.191000  0.482000  1.0  -0.1041
  C  C214  1  0.886000  0.852000  0.350000  1.0  0.171
  C  C215  1  0.878000  0.746000  0.386000  1.0  -0.0221
  C  C216  1  0.794000  0.733000  0.267000  1.0  -0.0008
  Se  Se217  1  0.794360  0.198130  0.127720  1.0  0.0855
  Se  Se218  1  0.669420  0.111390  0.861650  1.0  0.0399
  Se  Se219  1  0.725150  0.277030  0.001990  1.0  0.0844
  Se  Se220  1  0.556850  0.226850  0.028800  1.0  0.049
  Se  Se221  1  0.572160  0.982550  0.013350  1.0  0.1569
  Se  Se222  1  0.627290  0.148140  0.154310  1.0  0.0646
  Se  Se223  1  0.501880  0.062310  0.889570  1.0  0.1536
  Se  Se224  1  0.740060  0.033530  0.987130  1.0  0.0401
  Se  Se225  1  0.127720  0.794360  0.198130  1.0  0.0818
  Se  Se226  1  0.861650  0.669420  0.111390  1.0  0.0398
  Se  Se227  1  0.001990  0.725150  0.277030  1.0  0.0836
  Se  Se228  1  0.028800  0.556850  0.226850  1.0  0.0515
  Se  Se229  1  0.013350  0.572160  0.982550  1.0  0.1553
  Se  Se230  1  0.154310  0.627290  0.148140  1.0  0.0642
  Se  Se231  1  0.889570  0.501880  0.062310  1.0  0.1532
  Se  Se232  1  0.987130  0.740060  0.033530  1.0  0.0382
  Se  Se233  1  0.198130  0.127720  0.794360  1.0  0.0841
  Se  Se234  1  0.111390  0.861650  0.669420  1.0  0.0395
  Se  Se235  1  0.277030  0.001990  0.725150  1.0  0.0835
  Se  Se236  1  0.226850  0.028800  0.556850  1.0  0.051
  Se  Se237  1  0.982550  0.013350  0.572160  1.0  0.1562
  Se  Se238  1  0.148140  0.154310  0.627290  1.0  0.0615
  Se  Se239  1  0.062310  0.889570  0.501880  1.0  0.1529
  Se  Se240  1  0.033530  0.987130  0.740060  1.0  0.0406
  Se  Se241  1  0.698130  0.294360  0.627720  1.0  0.0841
  Se  Se242  1  0.611390  0.169420  0.361650  1.0  0.0393
  Se  Se243  1  0.777030  0.225150  0.501990  1.0  0.0843
  Se  Se244  1  0.726850  0.056850  0.528800  1.0  0.0508
  Se  Se245  1  0.482550  0.072160  0.513350  1.0  0.1573
  Se  Se246  1  0.648140  0.127290  0.654310  1.0  0.0642
  Se  Se247  1  0.562310  0.001880  0.389570  1.0  0.1535
  Se  Se248  1  0.533530  0.240060  0.487130  1.0  0.04
  Se  Se249  1  0.294360  0.627720  0.698130  1.0  0.0834
  Se  Se250  1  0.169420  0.361650  0.611390  1.0  0.0401
  Se  Se251  1  0.225150  0.501990  0.777030  1.0  0.084
  Se  Se252  1  0.056850  0.528800  0.726850  1.0  0.0502
  Se  Se253  1  0.072160  0.513350  0.482550  1.0  0.1571
  Se  Se254  1  0.127290  0.654310  0.648140  1.0  0.0632
  Se  Se255  1  0.001880  0.389570  0.562310  1.0  0.1532
  Se  Se256  1  0.240060  0.487130  0.533530  1.0  0.0387
  Se  Se257  1  0.627720  0.698130  0.294360  1.0  0.086
  Se  Se258  1  0.361650  0.611390  0.169420  1.0  0.0387
  Se  Se259  1  0.501990  0.777030  0.225150  1.0  0.0834
  Se  Se260  1  0.528800  0.726850  0.056850  1.0  0.0503
  Se  Se261  1  0.513350  0.482550  0.072160  1.0  0.1555
  Se  Se262  1  0.654310  0.648140  0.127290  1.0  0.0642
  Se  Se263  1  0.389570  0.562310  0.001880  1.0  0.1533
  Se  Se264  1  0.487130  0.533530  0.240060  1.0  0.0389
  N  N265  1  0.413800  0.059700  0.051900  1.0  -0.399
  N  N266  1  0.725600  0.375000  0.205400  1.0  -0.3635
  N  N267  1  0.576200  0.901100  0.810800  1.0  -0.3486
  N  N268  1  0.539000  0.239700  0.830400  1.0  -0.299
  N  N269  1  0.757600  0.018600  0.186600  1.0  -0.3951
  N  N270  1  0.885500  0.195800  0.975700  1.0  -0.4295
  N  N271  1  0.925600  0.379500  0.213300  1.0  0.0497
  N  N272  1  0.994400  0.652500  0.445100  1.0  -0.0959
  N  N273  1  0.831800  0.285900  0.354200  1.0  -0.1931
  N  N274  1  0.051900  0.413800  0.059700  1.0  -0.3996
  N  N275  1  0.205400  0.725600  0.375000  1.0  -0.3627
  N  N276  1  0.810800  0.576200  0.901100  1.0  -0.3483
  N  N277  1  0.830400  0.539000  0.239700  1.0  -0.3019
  N  N278  1  0.186600  0.757600  0.018600  1.0  -0.3958
  N  N279  1  0.975700  0.885500  0.195800  1.0  -0.4314
  N  N280  1  0.213300  0.925600  0.379500  1.0  0.0496
  N  N281  1  0.445100  0.994400  0.652500  1.0  -0.0959
  N  N282  1  0.354200  0.831800  0.285900  1.0  -0.1914
  N  N283  1  0.059700  0.051900  0.413800  1.0  -0.3995
  N  N284  1  0.375000  0.205400  0.725600  1.0  -0.3663
  N  N285  1  0.901100  0.810800  0.576200  1.0  -0.3502
  N  N286  1  0.239700  0.830400  0.539000  1.0  -0.303
  N  N287  1  0.018600  0.186600  0.757600  1.0  -0.3928
  N  N288  1  0.195800  0.975700  0.885500  1.0  -0.4334
  N  N289  1  0.379500  0.213300  0.925600  1.0  0.0495
  N  N290  1  0.652500  0.445100  0.994400  1.0  -0.0965
  N  N291  1  0.285900  0.354200  0.831800  1.0  -0.1915
  N  N292  1  0.559700  0.913800  0.551900  1.0  -0.3999
  N  N293  1  0.875000  0.225600  0.705400  1.0  -0.3613
  N  N294  1  0.401100  0.076200  0.310800  1.0  -0.3468
  N  N295  1  0.739700  0.039000  0.330400  1.0  -0.3011
  N  N296  1  0.518600  0.257600  0.686600  1.0  -0.3956
  N  N297  1  0.695800  0.385500  0.475700  1.0  -0.4306
  N  N298  1  0.879500  0.425600  0.713300  1.0  0.0481
  N  N299  1  0.152500  0.494400  0.945100  1.0  -0.0961
  N  N300  1  0.785900  0.331800  0.854200  1.0  -0.1914
  N  N301  1  0.913800  0.551900  0.559700  1.0  -0.3998
  N  N302  1  0.225600  0.705400  0.875000  1.0  -0.3644
  N  N303  1  0.076200  0.310800  0.401100  1.0  -0.3492
  N  N304  1  0.039000  0.330400  0.739700  1.0  -0.3023
  N  N305  1  0.257600  0.686600  0.518600  1.0  -0.3935
  N  N306  1  0.385500  0.475700  0.695800  1.0  -0.4314
  N  N307  1  0.425600  0.713300  0.879500  1.0  0.0485
  N  N308  1  0.494400  0.945100  0.152500  1.0  -0.097
  N  N309  1  0.331800  0.854200  0.785900  1.0  -0.1914
  N  N310  1  0.551900  0.559700  0.913800  1.0  -0.3975
  N  N311  1  0.705400  0.875000  0.225600  1.0  -0.3666
  N  N312  1  0.310800  0.401100  0.076200  1.0  -0.3486
  N  N313  1  0.330400  0.739700  0.039000  1.0  -0.3047
  N  N314  1  0.686600  0.518600  0.257600  1.0  -0.3953
  N  N315  1  0.475700  0.695800  0.385500  1.0  -0.4315
  N  N316  1  0.713300  0.879500  0.425600  1.0  0.0508
  N  N317  1  0.945100  0.152500  0.494400  1.0  -0.0965
  N  N318  1  0.854200  0.785900  0.331800  1.0  -0.1923
  O  O319  1  0.881100  0.441700  0.290100  1.0  -0.6386
  O  O320  1  0.659100  0.405200  0.322700  1.0  -0.2701
  O  O321  1  0.886700  0.566800  0.394900  1.0  -0.6058
  O  O322  1  0.778200  0.505900  0.442800  1.0  -0.2755
  O  O323  1  0.798300  0.381700  0.366000  1.0  -0.6587
  O  O324  1  0.760000  0.598700  0.379300  1.0  -0.2372
  O  O325  1  0.290100  0.881100  0.441700  1.0  -0.6377
  O  O326  1  0.322700  0.659100  0.405200  1.0  -0.2725
  O  O327  1  0.394900  0.886700  0.566800  1.0  -0.6067
  O  O328  1  0.442800  0.778200  0.505900  1.0  -0.2753
  O  O329  1  0.366000  0.798300  0.381700  1.0  -0.6612
  O  O330  1  0.379300  0.760000  0.598700  1.0  -0.2429
  O  O331  1  0.441700  0.290100  0.881100  1.0  -0.6383
  O  O332  1  0.405200  0.322700  0.659100  1.0  -0.2682
  O  O333  1  0.566800  0.394900  0.886700  1.0  -0.6025
  O  O334  1  0.505900  0.442800  0.778200  1.0  -0.2754
  O  O335  1  0.381700  0.366000  0.798300  1.0  -0.6621
  O  O336  1  0.598700  0.379300  0.760000  1.0  -0.2421
  O  O337  1  0.941700  0.381100  0.790100  1.0  -0.6374
  O  O338  1  0.905200  0.159100  0.822700  1.0  -0.2723
  O  O339  1  0.066800  0.386700  0.894900  1.0  -0.608
  O  O340  1  0.005900  0.278200  0.942800  1.0  -0.2755
  O  O341  1  0.881700  0.298300  0.866000  1.0  -0.6605
  O  O342  1  0.098700  0.260000  0.879300  1.0  -0.2417
  O  O343  1  0.381100  0.790100  0.941700  1.0  -0.6374
  O  O344  1  0.159100  0.822700  0.905200  1.0  -0.2704
  O  O345  1  0.386700  0.894900  0.066800  1.0  -0.6034
  O  O346  1  0.278200  0.942800  0.005900  1.0  -0.2763
  O  O347  1  0.298300  0.866000  0.881700  1.0  -0.6609
  O  O348  1  0.260000  0.879300  0.098700  1.0  -0.2404
  O  O349  1  0.790100  0.941700  0.381100  1.0  -0.6372
  O  O350  1  0.822700  0.905200  0.159100  1.0  -0.2683
  O  O351  1  0.894900  0.066800  0.386700  1.0  -0.605
  O  O352  1  0.942800  0.005900  0.278200  1.0  -0.2742
  O  O353  1  0.866000  0.881700  0.298300  1.0  -0.6619
  O  O354  1  0.879300  0.098700  0.260000  1.0  -0.242
