# generated using pymatgen
data_Gd3Mn2C16(N12O)4
_symmetry_space_group_name_H-M   'P 1'
_cell_length_a   17.10650000
_cell_length_b   17.10650000
_cell_length_c   17.10650000
_cell_angle_alpha   90.00000000
_cell_angle_beta   90.00000000
_cell_angle_gamma   90.00000000
_symmetry_Int_Tables_number   1
_chemical_formula_structural   Gd3Mn2C16(N12O)4
_chemical_formula_sum   'Gd12 Mn8 C64 N192 O16'
_cell_volume   5005.91516270
_cell_formula_units_Z   4
loop_
 _symmetry_equiv_pos_site_id
 _symmetry_equiv_pos_as_xyz
  1  'x, y, z'
loop_
 _atom_site_type_symbol
 _atom_site_label
 _atom_site_symmetry_multiplicity
 _atom_site_fract_x
 _atom_site_fract_y
 _atom_site_fract_z
 _atom_site_occupancy
 _atom_site_charge
  Gd  Gd1  1  0.091610  0.250000  0.250000  1.0  2.2797
  Gd  Gd2  1  0.408390  0.250000  0.250000  1.0  2.2796
  Gd  Gd3  1  0.250000  0.091610  0.250000  1.0  2.2801
  Gd  Gd4  1  0.250000  0.408390  0.250000  1.0  2.2796
  Gd  Gd5  1  0.250000  0.250000  0.091610  1.0  2.281
  Gd  Gd6  1  0.250000  0.250000  0.408390  1.0  2.2809
  Gd  Gd7  1  0.908390  0.750000  0.750000  1.0  2.2796
  Gd  Gd8  1  0.591610  0.750000  0.750000  1.0  2.2797
  Gd  Gd9  1  0.750000  0.908390  0.750000  1.0  2.2796
  Gd  Gd10  1  0.750000  0.591610  0.750000  1.0  2.2801
  Gd  Gd11  1  0.750000  0.750000  0.908390  1.0  2.2809
  Gd  Gd12  1  0.750000  0.750000  0.591610  1.0  2.281
  Mn  Mn13  1  0.000000  0.500000  0.000000  1.0  0.8469
  Mn  Mn14  1  0.500000  0.000000  0.000000  1.0  0.8469
  Mn  Mn15  1  0.500000  0.500000  0.500000  1.0  0.8469
  Mn  Mn16  1  0.000000  0.000000  0.500000  1.0  0.8469
  Mn  Mn17  1  0.500000  0.000000  0.500000  1.0  0.8469
  Mn  Mn18  1  0.000000  0.500000  0.500000  1.0  0.8469
  Mn  Mn19  1  0.500000  0.500000  0.000000  1.0  0.8469
  Mn  Mn20  1  0.000000  0.000000  0.000000  1.0  0.8469
  C  C21  1  0.032800  0.403400  0.149500  1.0  0.3339
  C  C22  1  0.467200  0.096600  0.149500  1.0  0.3363
  C  C23  1  0.467200  0.403400  0.350500  1.0  0.3365
  C  C24  1  0.032800  0.096600  0.350500  1.0  0.3343
  C  C25  1  0.149500  0.032800  0.403400  1.0  0.3378
  C  C26  1  0.149500  0.467200  0.096600  1.0  0.3383
  C  C27  1  0.350500  0.467200  0.403400  1.0  0.3381
  C  C28  1  0.350500  0.032800  0.096600  1.0  0.3382
  C  C29  1  0.403400  0.149500  0.032800  1.0  0.3385
  C  C30  1  0.096600  0.149500  0.467200  1.0  0.3388
  C  C31  1  0.403400  0.350500  0.467200  1.0  0.3389
  C  C32  1  0.096600  0.350500  0.032800  1.0  0.3385
  C  C33  1  0.403400  0.032800  0.350500  1.0  0.3376
  C  C34  1  0.096600  0.467200  0.350500  1.0  0.3378
  C  C35  1  0.403400  0.467200  0.149500  1.0  0.3372
  C  C36  1  0.096600  0.032800  0.149500  1.0  0.3372
  C  C37  1  0.032800  0.149500  0.096600  1.0  0.3341
  C  C38  1  0.467200  0.149500  0.403400  1.0  0.3361
  C  C39  1  0.467200  0.350500  0.096600  1.0  0.3361
  C  C40  1  0.032800  0.350500  0.403400  1.0  0.3339
  C  C41  1  0.149500  0.403400  0.467200  1.0  0.34
  C  C42  1  0.149500  0.096600  0.032800  1.0  0.3402
  C  C43  1  0.350500  0.403400  0.032800  1.0  0.3399
  C  C44  1  0.350500  0.096600  0.467200  1.0  0.3403
  C  C45  1  0.967200  0.596600  0.850500  1.0  0.3368
  C  C46  1  0.532800  0.903400  0.850500  1.0  0.3345
  C  C47  1  0.532800  0.596600  0.649500  1.0  0.3339
  C  C48  1  0.967200  0.903400  0.649500  1.0  0.336
  C  C49  1  0.850500  0.967200  0.596600  1.0  0.3383
  C  C50  1  0.850500  0.532800  0.903400  1.0  0.338
  C  C51  1  0.649500  0.532800  0.596600  1.0  0.338
  C  C52  1  0.649500  0.967200  0.903400  1.0  0.3382
  C  C53  1  0.596600  0.850500  0.967200  1.0  0.3387
  C  C54  1  0.903400  0.850500  0.532800  1.0  0.3387
  C  C55  1  0.596600  0.649500  0.532800  1.0  0.3384
  C  C56  1  0.903400  0.649500  0.967200  1.0  0.339
  C  C57  1  0.596600  0.967200  0.649500  1.0  0.3374
  C  C58  1  0.903400  0.532800  0.649500  1.0  0.3372
  C  C59  1  0.596600  0.532800  0.850500  1.0  0.3377
  C  C60  1  0.903400  0.967200  0.850500  1.0  0.3376
  C  C61  1  0.967200  0.850500  0.903400  1.0  0.3359
  C  C62  1  0.532800  0.850500  0.596600  1.0  0.3341
  C  C63  1  0.532800  0.649500  0.903400  1.0  0.3339
  C  C64  1  0.967200  0.649500  0.596600  1.0  0.3362
  C  C65  1  0.850500  0.596600  0.532800  1.0  0.3404
  C  C66  1  0.850500  0.903400  0.967200  1.0  0.3399
  C  C67  1  0.649500  0.596600  0.967200  1.0  0.3403
  C  C68  1  0.649500  0.903400  0.532800  1.0  0.3397
  C  C69  1  0.110600  0.389400  0.110600  1.0  0.064
  C  C70  1  0.389400  0.110600  0.110600  1.0  0.0646
  C  C71  1  0.389400  0.389400  0.389400  1.0  0.0649
  C  C72  1  0.110600  0.110600  0.389400  1.0  0.0643
  C  C73  1  0.389400  0.110600  0.389400  1.0  0.0648
  C  C74  1  0.110600  0.389400  0.389400  1.0  0.0643
  C  C75  1  0.389400  0.389400  0.110600  1.0  0.0646
  C  C76  1  0.110600  0.110600  0.110600  1.0  0.064
  C  C77  1  0.889400  0.610600  0.889400  1.0  0.0648
  C  C78  1  0.610600  0.889400  0.889400  1.0  0.0643
  C  C79  1  0.610600  0.610600  0.610600  1.0  0.064
  C  C80  1  0.889400  0.889400  0.610600  1.0  0.0646
  C  C81  1  0.610600  0.889400  0.610600  1.0  0.064
  C  C82  1  0.889400  0.610600  0.610600  1.0  0.0646
  C  C83  1  0.610600  0.610600  0.889400  1.0  0.0643
  C  C84  1  0.889400  0.889400  0.889400  1.0  0.0649
  N  N85  1  0.938000  0.395600  0.229400  1.0  -0.1563
  N  N86  1  0.920700  0.446100  0.173800  1.0  -0.0965
  N  N87  1  0.010800  0.367000  0.214600  1.0  -0.3305
  N  N88  1  0.979100  0.450400  0.121100  1.0  -0.2593
  N  N89  1  0.562000  0.104400  0.229400  1.0  -0.1593
  N  N90  1  0.579300  0.053900  0.173800  1.0  -0.0973
  N  N91  1  0.489200  0.133000  0.214600  1.0  -0.3304
  N  N92  1  0.520900  0.049600  0.121100  1.0  -0.2597
  N  N93  1  0.562000  0.395600  0.270600  1.0  -0.1585
  N  N94  1  0.579300  0.446100  0.326200  1.0  -0.0993
  N  N95  1  0.489200  0.367000  0.285400  1.0  -0.3309
  N  N96  1  0.520900  0.450400  0.378900  1.0  -0.2608
  N  N97  1  0.938000  0.104400  0.270600  1.0  -0.1539
  N  N98  1  0.920700  0.053900  0.326200  1.0  -0.0984
  N  N99  1  0.010800  0.133000  0.285400  1.0  -0.3307
  N  N100  1  0.979100  0.049600  0.378900  1.0  -0.2595
  N  N101  1  0.229400  0.938000  0.395600  1.0  -0.1506
  N  N102  1  0.173800  0.920700  0.446100  1.0  -0.0932
  N  N103  1  0.214600  0.010800  0.367000  1.0  -0.3316
  N  N104  1  0.121100  0.979100  0.450400  1.0  -0.2592
  N  N105  1  0.229400  0.562000  0.104400  1.0  -0.1513
  N  N106  1  0.173800  0.579300  0.053900  1.0  -0.0935
  N  N107  1  0.214600  0.489200  0.133000  1.0  -0.3321
  N  N108  1  0.121100  0.520900  0.049600  1.0  -0.2578
  N  N109  1  0.270600  0.562000  0.395600  1.0  -0.1503
  N  N110  1  0.326200  0.579300  0.446100  1.0  -0.0925
  N  N111  1  0.285400  0.489200  0.367000  1.0  -0.3326
  N  N112  1  0.378900  0.520900  0.450400  1.0  -0.2578
  N  N113  1  0.270600  0.938000  0.104400  1.0  -0.1503
  N  N114  1  0.326200  0.920700  0.053900  1.0  -0.0931
  N  N115  1  0.285400  0.010800  0.133000  1.0  -0.3315
  N  N116  1  0.378900  0.979100  0.049600  1.0  -0.2574
  N  N117  1  0.395600  0.229400  0.938000  1.0  -0.1506
  N  N118  1  0.446100  0.173800  0.920700  1.0  -0.0944
  N  N119  1  0.367000  0.214600  0.010800  1.0  -0.3329
  N  N120  1  0.450400  0.121100  0.979100  1.0  -0.2608
  N  N121  1  0.104400  0.229400  0.562000  1.0  -0.1476
  N  N122  1  0.053900  0.173800  0.579300  1.0  -0.0929
  N  N123  1  0.133000  0.214600  0.489200  1.0  -0.3354
  N  N124  1  0.049600  0.121100  0.520900  1.0  -0.261
  N  N125  1  0.395600  0.270600  0.562000  1.0  -0.148
  N  N126  1  0.446100  0.326200  0.579300  1.0  -0.0916
  N  N127  1  0.367000  0.285400  0.489200  1.0  -0.3335
  N  N128  1  0.450400  0.378900  0.520900  1.0  -0.2603
  N  N129  1  0.104400  0.270600  0.938000  1.0  -0.1506
  N  N130  1  0.053900  0.326200  0.920700  1.0  -0.0919
  N  N131  1  0.133000  0.285400  0.010800  1.0  -0.3333
  N  N132  1  0.049600  0.378900  0.979100  1.0  -0.2603
  N  N133  1  0.395600  0.938000  0.270600  1.0  -0.1491
  N  N134  1  0.446100  0.920700  0.326200  1.0  -0.0933
  N  N135  1  0.367000  0.010800  0.285400  1.0  -0.3321
  N  N136  1  0.450400  0.979100  0.378900  1.0  -0.2598
  N  N137  1  0.104400  0.562000  0.270600  1.0  -0.1487
  N  N138  1  0.053900  0.579300  0.326200  1.0  -0.0912
  N  N139  1  0.133000  0.489200  0.285400  1.0  -0.3334
  N  N140  1  0.049600  0.520900  0.378900  1.0  -0.2598
  N  N141  1  0.395600  0.562000  0.229400  1.0  -0.1506
  N  N142  1  0.446100  0.579300  0.173800  1.0  -0.0925
  N  N143  1  0.367000  0.489200  0.214600  1.0  -0.332
  N  N144  1  0.450400  0.520900  0.121100  1.0  -0.2594
  N  N145  1  0.104400  0.938000  0.229400  1.0  -0.151
  N  N146  1  0.053900  0.920700  0.173800  1.0  -0.0919
  N  N147  1  0.133000  0.010800  0.214600  1.0  -0.332
  N  N148  1  0.049600  0.979100  0.121100  1.0  -0.2601
  N  N149  1  0.938000  0.229400  0.104400  1.0  -0.1564
  N  N150  1  0.920700  0.173800  0.053900  1.0  -0.0974
  N  N151  1  0.010800  0.214600  0.133000  1.0  -0.3303
  N  N152  1  0.979100  0.121100  0.049600  1.0  -0.2596
  N  N153  1  0.562000  0.229400  0.395600  1.0  -0.1602
  N  N154  1  0.579300  0.173800  0.446100  1.0  -0.0974
  N  N155  1  0.489200  0.214600  0.367000  1.0  -0.3302
  N  N156  1  0.520900  0.121100  0.450400  1.0  -0.2617
  N  N157  1  0.562000  0.270600  0.104400  1.0  -0.1606
  N  N158  1  0.579300  0.326200  0.053900  1.0  -0.099
  N  N159  1  0.489200  0.285400  0.133000  1.0  -0.3299
  N  N160  1  0.520900  0.378900  0.049600  1.0  -0.2598
  N  N161  1  0.938000  0.270600  0.395600  1.0  -0.1576
  N  N162  1  0.920700  0.326200  0.446100  1.0  -0.0966
  N  N163  1  0.010800  0.285400  0.367000  1.0  -0.3304
  N  N164  1  0.979100  0.378900  0.450400  1.0  -0.2595
  N  N165  1  0.229400  0.395600  0.562000  1.0  -0.1475
  N  N166  1  0.173800  0.446100  0.579300  1.0  -0.0933
  N  N167  1  0.214600  0.367000  0.489200  1.0  -0.3339
  N  N168  1  0.121100  0.450400  0.520900  1.0  -0.2594
  N  N169  1  0.229400  0.104400  0.938000  1.0  -0.1517
  N  N170  1  0.173800  0.053900  0.920700  1.0  -0.0933
  N  N171  1  0.214600  0.133000  0.010800  1.0  -0.3325
  N  N172  1  0.121100  0.049600  0.979100  1.0  -0.2597
  N  N173  1  0.270600  0.395600  0.938000  1.0  -0.1503
  N  N174  1  0.326200  0.446100  0.920700  1.0  -0.0949
  N  N175  1  0.285400  0.367000  0.010800  1.0  -0.3337
  N  N176  1  0.378900  0.450400  0.979100  1.0  -0.2596
  N  N177  1  0.270600  0.104400  0.562000  1.0  -0.1495
  N  N178  1  0.326200  0.053900  0.579300  1.0  -0.094
  N  N179  1  0.285400  0.133000  0.489200  1.0  -0.3351
  N  N180  1  0.378900  0.049600  0.520900  1.0  -0.2579
  N  N181  1  0.062000  0.604400  0.770600  1.0  -0.1582
  N  N182  1  0.079300  0.553900  0.826200  1.0  -0.0984
  N  N183  1  0.989200  0.633000  0.785400  1.0  -0.3303
  N  N184  1  0.020900  0.549600  0.878900  1.0  -0.2596
  N  N185  1  0.438000  0.895600  0.770600  1.0  -0.1548
  N  N186  1  0.420700  0.946100  0.826200  1.0  -0.0968
  N  N187  1  0.510800  0.867000  0.785400  1.0  -0.3313
  N  N188  1  0.479100  0.950400  0.878900  1.0  -0.2597
  N  N189  1  0.438000  0.604400  0.729400  1.0  -0.1565
  N  N190  1  0.420700  0.553900  0.673800  1.0  -0.098
  N  N191  1  0.510800  0.633000  0.714600  1.0  -0.3307
  N  N192  1  0.479100  0.549600  0.621100  1.0  -0.2591
  N  N193  1  0.062000  0.895600  0.729400  1.0  -0.1593
  N  N194  1  0.079300  0.946100  0.673800  1.0  -0.0989
  N  N195  1  0.989200  0.867000  0.714600  1.0  -0.3306
  N  N196  1  0.020900  0.950400  0.621100  1.0  -0.2606
  N  N197  1  0.770600  0.062000  0.604400  1.0  -0.1504
  N  N198  1  0.826200  0.079300  0.553900  1.0  -0.0938
  N  N199  1  0.785400  0.989200  0.633000  1.0  -0.3323
  N  N200  1  0.878900  0.020900  0.549600  1.0  -0.2578
  N  N201  1  0.770600  0.438000  0.895600  1.0  -0.1501
  N  N202  1  0.826200  0.420700  0.946100  1.0  -0.0928
  N  N203  1  0.785400  0.510800  0.867000  1.0  -0.3316
  N  N204  1  0.878900  0.479100  0.950400  1.0  -0.2579
  N  N205  1  0.729400  0.438000  0.604400  1.0  -0.1508
  N  N206  1  0.673800  0.420700  0.553900  1.0  -0.0938
  N  N207  1  0.714600  0.510800  0.633000  1.0  -0.3313
  N  N208  1  0.621100  0.479100  0.549600  1.0  -0.2577
  N  N209  1  0.729400  0.062000  0.895600  1.0  -0.151
  N  N210  1  0.673800  0.079300  0.946100  1.0  -0.0925
  N  N211  1  0.714600  0.989200  0.867000  1.0  -0.3328
  N  N212  1  0.621100  0.020900  0.950400  1.0  -0.2583
  N  N213  1  0.604400  0.770600  0.062000  1.0  -0.1478
  N  N214  1  0.553900  0.826200  0.079300  1.0  -0.0931
  N  N215  1  0.633000  0.785400  0.989200  1.0  -0.3336
  N  N216  1  0.549600  0.878900  0.020900  1.0  -0.261
  N  N217  1  0.895600  0.770600  0.438000  1.0  -0.1503
  N  N218  1  0.946100  0.826200  0.420700  1.0  -0.0937
  N  N219  1  0.867000  0.785400  0.510800  1.0  -0.3333
  N  N220  1  0.950400  0.878900  0.479100  1.0  -0.2608
  N  N221  1  0.604400  0.729400  0.438000  1.0  -0.1507
  N  N222  1  0.553900  0.673800  0.420700  1.0  -0.0923
  N  N223  1  0.633000  0.714600  0.510800  1.0  -0.3333
  N  N224  1  0.549600  0.621100  0.479100  1.0  -0.2606
  N  N225  1  0.895600  0.729400  0.062000  1.0  -0.1477
  N  N226  1  0.946100  0.673800  0.079300  1.0  -0.0917
  N  N227  1  0.867000  0.714600  0.989200  1.0  -0.3349
  N  N228  1  0.950400  0.621100  0.020900  1.0  -0.2599
  N  N229  1  0.604400  0.062000  0.729400  1.0  -0.1505
  N  N230  1  0.553900  0.079300  0.673800  1.0  -0.092
  N  N231  1  0.633000  0.989200  0.714600  1.0  -0.3326
  N  N232  1  0.549600  0.020900  0.621100  1.0  -0.2599
  N  N233  1  0.895600  0.438000  0.729400  1.0  -0.1517
  N  N234  1  0.946100  0.420700  0.673800  1.0  -0.0932
  N  N235  1  0.867000  0.510800  0.714600  1.0  -0.3319
  N  N236  1  0.950400  0.479100  0.621100  1.0  -0.2599
  N  N237  1  0.604400  0.438000  0.770600  1.0  -0.1487
  N  N238  1  0.553900  0.420700  0.826200  1.0  -0.0919
  N  N239  1  0.633000  0.510800  0.785400  1.0  -0.3324
  N  N240  1  0.549600  0.479100  0.878900  1.0  -0.2606
  N  N241  1  0.895600  0.062000  0.770600  1.0  -0.1483
  N  N242  1  0.946100  0.079300  0.826200  1.0  -0.092
  N  N243  1  0.867000  0.989200  0.785400  1.0  -0.3327
  N  N244  1  0.950400  0.020900  0.878900  1.0  -0.2591
  N  N245  1  0.062000  0.770600  0.895600  1.0  -0.1605
  N  N246  1  0.079300  0.826200  0.946100  1.0  -0.0972
  N  N247  1  0.989200  0.785400  0.867000  1.0  -0.3302
  N  N248  1  0.020900  0.878900  0.950400  1.0  -0.2612
  N  N249  1  0.438000  0.770600  0.604400  1.0  -0.1574
  N  N250  1  0.420700  0.826200  0.553900  1.0  -0.0976
  N  N251  1  0.510800  0.785400  0.633000  1.0  -0.3297
  N  N252  1  0.479100  0.878900  0.549600  1.0  -0.2596
  N  N253  1  0.438000  0.729400  0.895600  1.0  -0.1563
  N  N254  1  0.420700  0.673800  0.946100  1.0  -0.0967
  N  N255  1  0.510800  0.714600  0.867000  1.0  -0.3307
  N  N256  1  0.479100  0.621100  0.950400  1.0  -0.2592
  N  N257  1  0.062000  0.729400  0.604400  1.0  -0.1605
  N  N258  1  0.079300  0.673800  0.553900  1.0  -0.0988
  N  N259  1  0.989200  0.714600  0.633000  1.0  -0.3301
  N  N260  1  0.020900  0.621100  0.549600  1.0  -0.2608
  N  N261  1  0.770600  0.604400  0.438000  1.0  -0.1503
  N  N262  1  0.826200  0.553900  0.420700  1.0  -0.0944
  N  N263  1  0.785400  0.633000  0.510800  1.0  -0.333
  N  N264  1  0.878900  0.549600  0.479100  1.0  -0.2596
  N  N265  1  0.770600  0.895600  0.062000  1.0  -0.1487
  N  N266  1  0.826200  0.946100  0.079300  1.0  -0.0941
  N  N267  1  0.785400  0.867000  0.989200  1.0  -0.3343
  N  N268  1  0.878900  0.950400  0.020900  1.0  -0.2594
  N  N269  1  0.729400  0.604400  0.062000  1.0  -0.1481
  N  N270  1  0.673800  0.553900  0.079300  1.0  -0.0928
  N  N271  1  0.714600  0.633000  0.989200  1.0  -0.3347
  N  N272  1  0.621100  0.549600  0.020900  1.0  -0.259
  N  N273  1  0.729400  0.895600  0.438000  1.0  -0.1517
  N  N274  1  0.673800  0.946100  0.420700  1.0  -0.0942
  N  N275  1  0.714600  0.867000  0.510800  1.0  -0.333
  N  N276  1  0.621100  0.950400  0.479100  1.0  -0.2592
  O  O277  1  0.157600  0.342400  0.157600  1.0  -0.6953
  O  O278  1  0.342400  0.157600  0.157600  1.0  -0.6928
  O  O279  1  0.342400  0.342400  0.342400  1.0  -0.6925
  O  O280  1  0.157600  0.157600  0.342400  1.0  -0.6944
  O  O281  1  0.342400  0.157600  0.342400  1.0  -0.6923
  O  O282  1  0.157600  0.342400  0.342400  1.0  -0.6947
  O  O283  1  0.342400  0.342400  0.157600  1.0  -0.6929
  O  O284  1  0.157600  0.157600  0.157600  1.0  -0.6952
  O  O285  1  0.842400  0.657600  0.842400  1.0  -0.6923
  O  O286  1  0.657600  0.842400  0.842400  1.0  -0.6947
  O  O287  1  0.657600  0.657600  0.657600  1.0  -0.6952
  O  O288  1  0.842400  0.842400  0.657600  1.0  -0.6929
  O  O289  1  0.657600  0.842400  0.657600  1.0  -0.6953
  O  O290  1  0.842400  0.657600  0.657600  1.0  -0.6928
  O  O291  1  0.657600  0.657600  0.842400  1.0  -0.6944
  O  O292  1  0.842400  0.842400  0.842400  1.0  -0.6925
