# generated using pymatgen
data_Gd4H2C2S5O24
_symmetry_space_group_name_H-M   'P 1'
_cell_length_a   19.43900000
_cell_length_b   12.99100000
_cell_length_c   9.71630000
_cell_angle_alpha   90.00000000
_cell_angle_beta   93.31000000
_cell_angle_gamma   90.00000000
_symmetry_Int_Tables_number   1
_chemical_formula_structural   Gd4H2C2S5O24
_chemical_formula_sum   'Gd16 H8 C8 S20 O96'
_cell_volume   2449.58381206
_cell_formula_units_Z   4
loop_
 _symmetry_equiv_pos_site_id
 _symmetry_equiv_pos_as_xyz
  1  'x, y, z'
loop_
 _atom_site_type_symbol
 _atom_site_label
 _atom_site_symmetry_multiplicity
 _atom_site_fract_x
 _atom_site_fract_y
 _atom_site_fract_z
 _atom_site_occupancy
 _atom_site_charge
  Gd  Gd1  1  0.332550  0.330920  0.097940  1.0  2.1623
  Gd  Gd2  1  0.122940  0.647390  0.996480  1.0  2.2195
  Gd  Gd3  1  0.832550  0.830920  0.097940  1.0  2.1623
  Gd  Gd4  1  0.622940  0.147390  0.996480  1.0  2.2195
  Gd  Gd5  1  0.667450  0.330920  0.402060  1.0  2.1653
  Gd  Gd6  1  0.877060  0.647390  0.503520  1.0  2.2192
  Gd  Gd7  1  0.167450  0.830920  0.402060  1.0  2.1653
  Gd  Gd8  1  0.377060  0.147390  0.503520  1.0  2.2192
  Gd  Gd9  1  0.667450  0.669080  0.902060  1.0  2.1663
  Gd  Gd10  1  0.877060  0.352610  0.003520  1.0  2.2197
  Gd  Gd11  1  0.167450  0.169080  0.902060  1.0  2.1663
  Gd  Gd12  1  0.377060  0.852610  0.003520  1.0  2.2197
  Gd  Gd13  1  0.332550  0.669080  0.597940  1.0  2.1635
  Gd  Gd14  1  0.122940  0.352610  0.496480  1.0  2.2197
  Gd  Gd15  1  0.832550  0.169080  0.597940  1.0  2.1635
  Gd  Gd16  1  0.622940  0.852610  0.496480  1.0  2.2197
  H  H17  1  0.249300  0.089200  0.256300  1.0  0.1044
  H  H18  1  0.749300  0.589200  0.256300  1.0  0.1044
  H  H19  1  0.750700  0.089200  0.243700  1.0  0.1046
  H  H20  1  0.250700  0.589200  0.243700  1.0  0.1046
  H  H21  1  0.750700  0.910800  0.743700  1.0  0.1039
  H  H22  1  0.250700  0.410800  0.743700  1.0  0.1039
  H  H23  1  0.249300  0.910800  0.756300  1.0  0.1046
  H  H24  1  0.749300  0.410800  0.756300  1.0  0.1046
  C  C25  1  0.267300  0.146000  0.216900  1.0  0.6875
  C  C26  1  0.767300  0.646000  0.216900  1.0  0.6875
  C  C27  1  0.732700  0.146000  0.283100  1.0  0.6888
  C  C28  1  0.232700  0.646000  0.283100  1.0  0.6888
  C  C29  1  0.732700  0.854000  0.783100  1.0  0.6875
  C  C30  1  0.232700  0.354000  0.783100  1.0  0.6875
  C  C31  1  0.267300  0.854000  0.716900  1.0  0.6882
  C  C32  1  0.767300  0.354000  0.716900  1.0  0.6882
  S  S33  1  0.310440  0.593110  0.965270  1.0  1.6565
  S  S34  1  0.349020  0.112840  0.867840  1.0  1.6365
  S  S35  1  0.810440  0.093110  0.965270  1.0  1.6565
  S  S36  1  0.849020  0.612840  0.867840  1.0  1.6365
  S  S37  1  0.689560  0.593110  0.534730  1.0  1.663
  S  S38  1  0.650980  0.112840  0.632160  1.0  1.6381
  S  S39  1  0.189560  0.093110  0.534730  1.0  1.663
  S  S40  1  0.150980  0.612840  0.632160  1.0  1.6381
  S  S41  1  0.689560  0.406890  0.034730  1.0  1.6556
  S  S42  1  0.650980  0.887160  0.132160  1.0  1.6382
  S  S43  1  0.189560  0.906890  0.034730  1.0  1.6556
  S  S44  1  0.150980  0.387160  0.132160  1.0  1.6382
  S  S45  1  0.310440  0.406890  0.465270  1.0  1.6632
  S  S46  1  0.349020  0.887160  0.367840  1.0  1.6363
  S  S47  1  0.810440  0.906890  0.465270  1.0  1.6632
  S  S48  1  0.849020  0.387160  0.367840  1.0  1.6363
  S  S49  1  0.500000  0.247000  0.250000  1.0  1.5452
  S  S50  1  0.000000  0.747000  0.250000  1.0  1.5452
  S  S51  1  0.500000  0.753000  0.750000  1.0  1.5454
  S  S52  1  0.000000  0.253000  0.750000  1.0  1.5454
  O  O53  1  0.373100  0.169300  0.747000  1.0  -0.7831
  O  O54  1  0.242000  0.185500  0.107900  1.0  -0.685
  O  O55  1  0.371700  0.170000  0.994300  1.0  -0.7869
  O  O56  1  0.339300  0.509200  0.052300  1.0  -0.7706
  O  O57  1  0.234600  0.585000  0.954500  1.0  -0.7881
  O  O58  1  0.317300  0.190300  0.281700  1.0  -0.6603
  O  O59  1  0.339900  0.586700  0.828500  1.0  -0.7801
  O  O60  1  0.330100  0.691900  0.033100  1.0  -0.8378
  O  O61  1  0.537900  0.180100  0.157100  1.0  -0.7759
  O  O62  1  0.381200  0.009000  0.871600  1.0  -0.8448
  O  O63  1  0.451200  0.313500  0.169200  1.0  -0.7892
  O  O64  1  0.274500  0.100800  0.855400  1.0  -0.7426
  O  O65  1  0.873100  0.669300  0.747000  1.0  -0.7831
  O  O66  1  0.742000  0.685500  0.107900  1.0  -0.685
  O  O67  1  0.871700  0.670000  0.994300  1.0  -0.7869
  O  O68  1  0.839300  0.009200  0.052300  1.0  -0.7706
  O  O69  1  0.734600  0.085000  0.954500  1.0  -0.7881
  O  O70  1  0.817300  0.690300  0.281700  1.0  -0.6603
  O  O71  1  0.839900  0.086700  0.828500  1.0  -0.7801
  O  O72  1  0.830100  0.191900  0.033100  1.0  -0.8378
  O  O73  1  0.037900  0.680100  0.157100  1.0  -0.7759
  O  O74  1  0.881200  0.509000  0.871600  1.0  -0.8448
  O  O75  1  0.951200  0.813500  0.169200  1.0  -0.7892
  O  O76  1  0.774500  0.600800  0.855400  1.0  -0.7426
  O  O77  1  0.626900  0.169300  0.753000  1.0  -0.7841
  O  O78  1  0.758000  0.185500  0.392100  1.0  -0.6846
  O  O79  1  0.628300  0.170000  0.505700  1.0  -0.7843
  O  O80  1  0.660700  0.509200  0.447700  1.0  -0.7706
  O  O81  1  0.765400  0.585000  0.545500  1.0  -0.7941
  O  O82  1  0.682700  0.190300  0.218300  1.0  -0.6619
  O  O83  1  0.660100  0.586700  0.671500  1.0  -0.7768
  O  O84  1  0.669900  0.691900  0.466900  1.0  -0.8356
  O  O85  1  0.462100  0.180100  0.342900  1.0  -0.7768
  O  O86  1  0.618800  0.009000  0.628400  1.0  -0.8463
  O  O87  1  0.548800  0.313500  0.330800  1.0  -0.7897
  O  O88  1  0.725500  0.100800  0.644600  1.0  -0.7438
  O  O89  1  0.126900  0.669300  0.753000  1.0  -0.7841
  O  O90  1  0.258000  0.685500  0.392100  1.0  -0.6846
  O  O91  1  0.128300  0.670000  0.505700  1.0  -0.7843
  O  O92  1  0.160700  0.009200  0.447700  1.0  -0.7706
  O  O93  1  0.265400  0.085000  0.545500  1.0  -0.7941
  O  O94  1  0.182700  0.690300  0.218300  1.0  -0.6619
  O  O95  1  0.160100  0.086700  0.671500  1.0  -0.7768
  O  O96  1  0.169900  0.191900  0.466900  1.0  -0.8356
  O  O97  1  0.962100  0.680100  0.342900  1.0  -0.7768
  O  O98  1  0.118800  0.509000  0.628400  1.0  -0.8463
  O  O99  1  0.048800  0.813500  0.330800  1.0  -0.7897
  O  O100  1  0.225500  0.600800  0.644600  1.0  -0.7438
  O  O101  1  0.626900  0.830700  0.253000  1.0  -0.783
  O  O102  1  0.758000  0.814500  0.892100  1.0  -0.6846
  O  O103  1  0.628300  0.830000  0.005700  1.0  -0.7846
  O  O104  1  0.660700  0.490800  0.947700  1.0  -0.7699
  O  O105  1  0.765400  0.415000  0.045500  1.0  -0.7939
  O  O106  1  0.682700  0.809700  0.718300  1.0  -0.6622
  O  O107  1  0.660100  0.413300  0.171500  1.0  -0.7767
  O  O108  1  0.669900  0.308100  0.966900  1.0  -0.8363
  O  O109  1  0.462100  0.819900  0.842900  1.0  -0.7757
  O  O110  1  0.618800  0.991000  0.128400  1.0  -0.8459
  O  O111  1  0.548800  0.686500  0.830800  1.0  -0.7894
  O  O112  1  0.725500  0.899200  0.144600  1.0  -0.7441
  O  O113  1  0.126900  0.330700  0.253000  1.0  -0.783
  O  O114  1  0.258000  0.314500  0.892100  1.0  -0.6846
  O  O115  1  0.128300  0.330000  0.005700  1.0  -0.7846
  O  O116  1  0.160700  0.990800  0.947700  1.0  -0.7699
  O  O117  1  0.265400  0.915000  0.045500  1.0  -0.7939
  O  O118  1  0.182700  0.309700  0.718300  1.0  -0.6622
  O  O119  1  0.160100  0.913300  0.171500  1.0  -0.7767
  O  O120  1  0.169900  0.808100  0.966900  1.0  -0.8363
  O  O121  1  0.962100  0.319900  0.842900  1.0  -0.7757
  O  O122  1  0.118800  0.491000  0.128400  1.0  -0.8459
  O  O123  1  0.048800  0.186500  0.830800  1.0  -0.7894
  O  O124  1  0.225500  0.399200  0.144600  1.0  -0.7441
  O  O125  1  0.373100  0.830700  0.247000  1.0  -0.7835
  O  O126  1  0.242000  0.814500  0.607900  1.0  -0.6854
  O  O127  1  0.371700  0.830000  0.494300  1.0  -0.7869
  O  O128  1  0.339300  0.490800  0.552300  1.0  -0.7705
  O  O129  1  0.234600  0.415000  0.454500  1.0  -0.788
  O  O130  1  0.317300  0.809700  0.781700  1.0  -0.6601
  O  O131  1  0.339900  0.413300  0.328500  1.0  -0.7795
  O  O132  1  0.330100  0.308100  0.533100  1.0  -0.8373
  O  O133  1  0.537900  0.819900  0.657100  1.0  -0.7749
  O  O134  1  0.381200  0.991000  0.371600  1.0  -0.8459
  O  O135  1  0.451200  0.686500  0.669200  1.0  -0.7889
  O  O136  1  0.274500  0.899200  0.355400  1.0  -0.7429
  O  O137  1  0.873100  0.330700  0.247000  1.0  -0.7835
  O  O138  1  0.742000  0.314500  0.607900  1.0  -0.6854
  O  O139  1  0.871700  0.330000  0.494300  1.0  -0.7869
  O  O140  1  0.839300  0.990800  0.552300  1.0  -0.7705
  O  O141  1  0.734600  0.915000  0.454500  1.0  -0.788
  O  O142  1  0.817300  0.309700  0.781700  1.0  -0.6601
  O  O143  1  0.839900  0.913300  0.328500  1.0  -0.7795
  O  O144  1  0.830100  0.808100  0.533100  1.0  -0.8373
  O  O145  1  0.037900  0.319900  0.657100  1.0  -0.7749
  O  O146  1  0.881200  0.491000  0.371600  1.0  -0.8459
  O  O147  1  0.951200  0.186500  0.669200  1.0  -0.7889
  O  O148  1  0.774500  0.399200  0.355400  1.0  -0.7429
