# generated using pymatgen
data_Cd3H6C18(NO2)4
_symmetry_space_group_name_H-M   'P 1'
_cell_length_a   9.16830000
_cell_length_b   9.16830000
_cell_length_c   16.02390000
_cell_angle_alpha   73.89790000
_cell_angle_beta   73.89790000
_cell_angle_gamma   72.32300000
_symmetry_Int_Tables_number   1
_chemical_formula_structural   Cd3H6C18(NO2)4
_chemical_formula_sum   'Cd6 H12 C36 N8 O16'
_cell_volume   1205.23434354
_cell_formula_units_Z   2
loop_
 _symmetry_equiv_pos_site_id
 _symmetry_equiv_pos_as_xyz
  1  'x, y, z'
loop_
 _atom_site_type_symbol
 _atom_site_label
 _atom_site_symmetry_multiplicity
 _atom_site_fract_x
 _atom_site_fract_y
 _atom_site_fract_z
 _atom_site_occupancy
 _atom_site_charge
  Cd  Cd1  1  0.751990  0.668630  0.159390  1.0  1.0361
  Cd  Cd2  1  0.331370  0.248010  0.340610  1.0  1.0397
  Cd  Cd3  1  0.248010  0.331370  0.840610  1.0  1.0386
  Cd  Cd4  1  0.668630  0.751990  0.659390  1.0  1.0355
  Cd  Cd5  1  0.013990  0.986010  0.250000  1.0  1.0446
  Cd  Cd6  1  0.986010  0.013990  0.750000  1.0  1.0451
  H  H7  1  0.633600  0.731200  0.972600  1.0  0.1155
  H  H8  1  0.393400  0.846600  0.258300  1.0  0.0821
  H  H9  1  0.115100  0.028900  0.023100  1.0  0.117
  H  H10  1  0.268800  0.366400  0.527400  1.0  0.1153
  H  H11  1  0.153400  0.606600  0.241700  1.0  0.0813
  H  H12  1  0.971100  0.884900  0.476900  1.0  0.1182
  H  H13  1  0.366400  0.268800  0.027400  1.0  0.1157
  H  H14  1  0.606600  0.153400  0.741700  1.0  0.0821
  H  H15  1  0.884900  0.971100  0.976900  1.0  0.1172
  H  H16  1  0.731200  0.633600  0.472600  1.0  0.1157
  H  H17  1  0.846600  0.393400  0.758300  1.0  0.0817
  H  H18  1  0.028900  0.115100  0.523100  1.0  0.1181
  C  C19  1  0.527800  0.805600  0.825600  1.0  0.6527
  C  C20  1  0.447500  0.844100  0.914400  1.0  -0.0904
  C  C21  1  0.530600  0.790400  0.982500  1.0  -0.1107
  C  C22  1  0.457500  0.826500  0.065100  1.0  0.1541
  C  C23  1  0.388800  0.853800  0.200000  1.0  0.3478
  C  C24  1  0.302800  0.913400  0.080800  1.0  0.1751
  C  C25  1  0.218300  0.970100  0.012900  1.0  -0.1775
  C  C26  1  0.292100  0.936300  0.930700  1.0  -0.0826
  C  C27  1  0.191900  0.990700  0.862500  1.0  0.6838
  C  C28  1  0.194400  0.472200  0.674400  1.0  0.6563
  C  C29  1  0.155900  0.552500  0.585600  1.0  -0.0918
  C  C30  1  0.209600  0.469400  0.517500  1.0  -0.1111
  C  C31  1  0.173500  0.542500  0.434900  1.0  0.1524
  C  C32  1  0.146200  0.611200  0.300000  1.0  0.3479
  C  C33  1  0.086600  0.697200  0.419200  1.0  0.1796
  C  C34  1  0.029900  0.781700  0.487100  1.0  -0.1806
  C  C35  1  0.063700  0.707900  0.569300  1.0  -0.0843
  C  C36  1  0.009300  0.808100  0.637500  1.0  0.6851
  C  C37  1  0.472200  0.194400  0.174400  1.0  0.6534
  C  C38  1  0.552500  0.155900  0.085600  1.0  -0.0906
  C  C39  1  0.469400  0.209600  0.017500  1.0  -0.1137
  C  C40  1  0.542500  0.173500  0.934900  1.0  0.1543
  C  C41  1  0.611200  0.146200  0.800000  1.0  0.3466
  C  C42  1  0.697200  0.086600  0.919200  1.0  0.1748
  C  C43  1  0.781700  0.029900  0.987100  1.0  -0.1782
  C  C44  1  0.707900  0.063700  0.069300  1.0  -0.085
  C  C45  1  0.808100  0.009300  0.137500  1.0  0.6848
  C  C46  1  0.805600  0.527800  0.325600  1.0  0.6564
  C  C47  1  0.844100  0.447500  0.414400  1.0  -0.0918
  C  C48  1  0.790400  0.530600  0.482500  1.0  -0.1136
  C  C49  1  0.826500  0.457500  0.565100  1.0  0.1522
  C  C50  1  0.853800  0.388800  0.700000  1.0  0.3491
  C  C51  1  0.913400  0.302800  0.580800  1.0  0.1795
  C  C52  1  0.970100  0.218300  0.512900  1.0  -0.1819
  C  C53  1  0.936300  0.292100  0.430700  1.0  -0.0817
  C  C54  1  0.990700  0.191900  0.362500  1.0  0.6839
  N  N55  1  0.510700  0.789700  0.142500  1.0  -0.5073
  N  N56  1  0.259500  0.929300  0.168100  1.0  -0.51
  N  N57  1  0.210300  0.489300  0.357500  1.0  -0.5109
  N  N58  1  0.070700  0.740500  0.331900  1.0  -0.5069
  N  N59  1  0.489300  0.210300  0.857500  1.0  -0.5075
  N  N60  1  0.740500  0.070700  0.831900  1.0  -0.5081
  N  N61  1  0.789700  0.510700  0.642500  1.0  -0.51
  N  N62  1  0.929300  0.259500  0.668100  1.0  -0.5069
  O  O63  1  0.642000  0.686800  0.821200  1.0  -0.6132
  O  O64  1  0.482800  0.894600  0.757300  1.0  -0.5811
  O  O65  1  0.143200  0.134800  0.832800  1.0  -0.6356
  O  O66  1  0.153300  0.888300  0.839800  1.0  -0.5788
  O  O67  1  0.313200  0.358000  0.678800  1.0  -0.6133
  O  O68  1  0.105400  0.517200  0.742700  1.0  -0.5804
  O  O69  1  0.865200  0.856800  0.667200  1.0  -0.6324
  O  O70  1  0.111700  0.846700  0.660200  1.0  -0.5844
  O  O71  1  0.358000  0.313200  0.178800  1.0  -0.6132
  O  O72  1  0.517200  0.105400  0.242700  1.0  -0.5809
  O  O73  1  0.856800  0.865200  0.167200  1.0  -0.6351
  O  O74  1  0.846700  0.111700  0.160200  1.0  -0.5784
  O  O75  1  0.686800  0.642000  0.321200  1.0  -0.613
  O  O76  1  0.894600  0.482800  0.257300  1.0  -0.5815
  O  O77  1  0.134800  0.143200  0.332800  1.0  -0.6318
  O  O78  1  0.888300  0.153300  0.339800  1.0  -0.583
