# generated using pymatgen
data_NaC9(BrO2)3
_symmetry_space_group_name_H-M   'P 1'
_cell_length_a   22.42500000
_cell_length_b   22.42500000
_cell_length_c   22.42500000
_cell_angle_alpha   90.00000000
_cell_angle_beta   90.00000000
_cell_angle_gamma   90.00000000
_symmetry_Int_Tables_number   1
_chemical_formula_structural   NaC9(BrO2)3
_chemical_formula_sum   'Na16 C144 Br48 O96'
_cell_volume   11277.09801563
_cell_formula_units_Z   16
loop_
 _symmetry_equiv_pos_site_id
 _symmetry_equiv_pos_as_xyz
  1  'x, y, z'
loop_
 _atom_site_type_symbol
 _atom_site_label
 _atom_site_symmetry_multiplicity
 _atom_site_fract_x
 _atom_site_fract_y
 _atom_site_fract_z
 _atom_site_occupancy
 _atom_site_charge
  Na  Na1  1  0.603530  0.396470  0.896470  1.0  0.8886
  Na  Na2  1  0.103530  0.896470  0.396470  1.0  0.8886
  Na  Na3  1  0.896470  0.603530  0.396470  1.0  0.8867
  Na  Na4  1  0.396470  0.103530  0.896470  1.0  0.8867
  Na  Na5  1  0.396470  0.896470  0.603530  1.0  0.8853
  Na  Na6  1  0.896470  0.396470  0.103530  1.0  0.8853
  Na  Na7  1  0.103530  0.103530  0.103530  1.0  0.8869
  Na  Na8  1  0.603530  0.603530  0.603530  1.0  0.8869
  Na  Na9  1  0.646470  0.853530  0.146470  1.0  0.8867
  Na  Na10  1  0.146470  0.353530  0.646470  1.0  0.8867
  Na  Na11  1  0.853530  0.146470  0.646470  1.0  0.8886
  Na  Na12  1  0.353530  0.646470  0.146470  1.0  0.8886
  Na  Na13  1  0.146470  0.646470  0.853530  1.0  0.8853
  Na  Na14  1  0.646470  0.146470  0.353530  1.0  0.8853
  Na  Na15  1  0.353530  0.353530  0.353530  1.0  0.8869
  Na  Na16  1  0.853530  0.853530  0.853530  1.0  0.8869
  C  C17  1  0.712000  0.417300  0.052200  1.0  0.0544
  C  C18  1  0.685000  0.416000  0.997100  1.0  0.3654
  C  C19  1  0.774000  0.415200  0.059800  1.0  0.2729
  C  C20  1  0.212000  0.917300  0.552200  1.0  0.0544
  C  C21  1  0.185000  0.916000  0.497100  1.0  0.3654
  C  C22  1  0.274000  0.915200  0.559800  1.0  0.2729
  C  C23  1  0.788000  0.582700  0.552200  1.0  0.0534
  C  C24  1  0.815000  0.584000  0.497100  1.0  0.3675
  C  C25  1  0.726000  0.584800  0.559800  1.0  0.274
  C  C26  1  0.288000  0.082700  0.052200  1.0  0.0534
  C  C27  1  0.315000  0.084000  0.997100  1.0  0.3675
  C  C28  1  0.226000  0.084800  0.059800  1.0  0.274
  C  C29  1  0.288000  0.917300  0.447800  1.0  0.045
  C  C30  1  0.315000  0.916000  0.502900  1.0  0.366
  C  C31  1  0.226000  0.915200  0.440200  1.0  0.2723
  C  C32  1  0.788000  0.417300  0.947800  1.0  0.045
  C  C33  1  0.815000  0.416000  0.002900  1.0  0.366
  C  C34  1  0.726000  0.415200  0.940200  1.0  0.2723
  C  C35  1  0.212000  0.082700  0.947800  1.0  0.0462
  C  C36  1  0.185000  0.084000  0.002900  1.0  0.3656
  C  C37  1  0.274000  0.084800  0.940200  1.0  0.2718
  C  C38  1  0.712000  0.582700  0.447800  1.0  0.0462
  C  C39  1  0.685000  0.584000  0.502900  1.0  0.3656
  C  C40  1  0.774000  0.584800  0.440200  1.0  0.2718
  C  C41  1  0.052200  0.712000  0.417300  1.0  0.0401
  C  C42  1  0.997100  0.685000  0.416000  1.0  0.3686
  C  C43  1  0.059800  0.774000  0.415200  1.0  0.2735
  C  C44  1  0.552200  0.212000  0.917300  1.0  0.0401
  C  C45  1  0.497100  0.185000  0.916000  1.0  0.3686
  C  C46  1  0.559800  0.274000  0.915200  1.0  0.2735
  C  C47  1  0.552200  0.788000  0.582700  1.0  0.0391
  C  C48  1  0.497100  0.815000  0.584000  1.0  0.3684
  C  C49  1  0.559800  0.726000  0.584800  1.0  0.2728
  C  C50  1  0.052200  0.288000  0.082700  1.0  0.0391
  C  C51  1  0.997100  0.315000  0.084000  1.0  0.3684
  C  C52  1  0.059800  0.226000  0.084800  1.0  0.2728
  C  C53  1  0.447800  0.288000  0.917300  1.0  0.0437
  C  C54  1  0.502900  0.315000  0.916000  1.0  0.3691
  C  C55  1  0.440200  0.226000  0.915200  1.0  0.2714
  C  C56  1  0.947800  0.788000  0.417300  1.0  0.0437
  C  C57  1  0.002900  0.815000  0.416000  1.0  0.3691
  C  C58  1  0.940200  0.726000  0.415200  1.0  0.2714
  C  C59  1  0.947800  0.212000  0.082700  1.0  0.0435
  C  C60  1  0.002900  0.185000  0.084000  1.0  0.3693
  C  C61  1  0.940200  0.274000  0.084800  1.0  0.2718
  C  C62  1  0.447800  0.712000  0.582700  1.0  0.0435
  C  C63  1  0.502900  0.685000  0.584000  1.0  0.3693
  C  C64  1  0.440200  0.774000  0.584800  1.0  0.2718
  C  C65  1  0.417300  0.052200  0.712000  1.0  0.0424
  C  C66  1  0.416000  0.997100  0.685000  1.0  0.3678
  C  C67  1  0.415200  0.059800  0.774000  1.0  0.2733
  C  C68  1  0.917300  0.552200  0.212000  1.0  0.0424
  C  C69  1  0.916000  0.497100  0.185000  1.0  0.3678
  C  C70  1  0.915200  0.559800  0.274000  1.0  0.2733
  C  C71  1  0.582700  0.552200  0.788000  1.0  0.0412
  C  C72  1  0.584000  0.497100  0.815000  1.0  0.3669
  C  C73  1  0.584800  0.559800  0.726000  1.0  0.2734
  C  C74  1  0.082700  0.052200  0.288000  1.0  0.0412
  C  C75  1  0.084000  0.997100  0.315000  1.0  0.3669
  C  C76  1  0.084800  0.059800  0.226000  1.0  0.2734
  C  C77  1  0.917300  0.447800  0.288000  1.0  0.0439
  C  C78  1  0.916000  0.502900  0.315000  1.0  0.368
  C  C79  1  0.915200  0.440200  0.226000  1.0  0.2727
  C  C80  1  0.417300  0.947800  0.788000  1.0  0.0439
  C  C81  1  0.416000  0.002900  0.815000  1.0  0.368
  C  C82  1  0.415200  0.940200  0.726000  1.0  0.2727
  C  C83  1  0.082700  0.947800  0.212000  1.0  0.0439
  C  C84  1  0.084000  0.002900  0.185000  1.0  0.3668
  C  C85  1  0.084800  0.940200  0.274000  1.0  0.2725
  C  C86  1  0.582700  0.447800  0.712000  1.0  0.0439
  C  C87  1  0.584000  0.502900  0.685000  1.0  0.3668
  C  C88  1  0.584800  0.440200  0.774000  1.0  0.2725
  C  C89  1  0.667300  0.962000  0.302200  1.0  0.0525
  C  C90  1  0.666000  0.935000  0.247100  1.0  0.3692
  C  C91  1  0.665200  0.024000  0.309800  1.0  0.2739
  C  C92  1  0.167300  0.462000  0.802200  1.0  0.0525
  C  C93  1  0.166000  0.435000  0.747100  1.0  0.3692
  C  C94  1  0.165200  0.524000  0.809800  1.0  0.2739
  C  C95  1  0.832700  0.038000  0.802200  1.0  0.0517
  C  C96  1  0.834000  0.065000  0.747100  1.0  0.3685
  C  C97  1  0.834800  0.976000  0.809800  1.0  0.2727
  C  C98  1  0.332700  0.538000  0.302200  1.0  0.0517
  C  C99  1  0.334000  0.565000  0.247100  1.0  0.3685
  C  C100  1  0.334800  0.476000  0.309800  1.0  0.2727
  C  C101  1  0.167300  0.538000  0.697800  1.0  0.0445
  C  C102  1  0.166000  0.565000  0.752900  1.0  0.3679
  C  C103  1  0.165200  0.476000  0.690200  1.0  0.2722
  C  C104  1  0.667300  0.038000  0.197800  1.0  0.0445
  C  C105  1  0.666000  0.065000  0.252900  1.0  0.3679
  C  C106  1  0.665200  0.976000  0.190200  1.0  0.2722
  C  C107  1  0.332700  0.462000  0.197800  1.0  0.0438
  C  C108  1  0.334000  0.435000  0.252900  1.0  0.3678
  C  C109  1  0.334800  0.524000  0.190200  1.0  0.2724
  C  C110  1  0.832700  0.962000  0.697800  1.0  0.0438
  C  C111  1  0.834000  0.935000  0.752900  1.0  0.3678
  C  C112  1  0.834800  0.024000  0.690200  1.0  0.2724
  C  C113  1  0.962000  0.302200  0.667300  1.0  0.0443
  C  C114  1  0.935000  0.247100  0.666000  1.0  0.3665
  C  C115  1  0.024000  0.309800  0.665200  1.0  0.2738
  C  C116  1  0.462000  0.802200  0.167300  1.0  0.0443
  C  C117  1  0.435000  0.747100  0.166000  1.0  0.3665
  C  C118  1  0.524000  0.809800  0.165200  1.0  0.2738
  C  C119  1  0.038000  0.802200  0.832700  1.0  0.043
  C  C120  1  0.065000  0.747100  0.834000  1.0  0.3674
  C  C121  1  0.976000  0.809800  0.834800  1.0  0.2741
  C  C122  1  0.538000  0.302200  0.332700  1.0  0.043
  C  C123  1  0.565000  0.247100  0.334000  1.0  0.3674
  C  C124  1  0.476000  0.309800  0.334800  1.0  0.2741
  C  C125  1  0.538000  0.697800  0.167300  1.0  0.0453
  C  C126  1  0.565000  0.752900  0.166000  1.0  0.3673
  C  C127  1  0.476000  0.690200  0.165200  1.0  0.2734
  C  C128  1  0.038000  0.197800  0.667300  1.0  0.0453
  C  C129  1  0.065000  0.252900  0.666000  1.0  0.3673
  C  C130  1  0.976000  0.190200  0.665200  1.0  0.2734
  C  C131  1  0.462000  0.197800  0.332700  1.0  0.0458
  C  C132  1  0.435000  0.252900  0.334000  1.0  0.3663
  C  C133  1  0.524000  0.190200  0.334800  1.0  0.273
  C  C134  1  0.962000  0.697800  0.832700  1.0  0.0458
  C  C135  1  0.935000  0.752900  0.834000  1.0  0.3663
  C  C136  1  0.024000  0.690200  0.834800  1.0  0.273
  C  C137  1  0.302200  0.667300  0.962000  1.0  0.0392
  C  C138  1  0.247100  0.666000  0.935000  1.0  0.3667
  C  C139  1  0.309800  0.665200  0.024000  1.0  0.2726
  C  C140  1  0.802200  0.167300  0.462000  1.0  0.0392
  C  C141  1  0.747100  0.166000  0.435000  1.0  0.3667
  C  C142  1  0.809800  0.165200  0.524000  1.0  0.2726
  C  C143  1  0.802200  0.832700  0.038000  1.0  0.0389
  C  C144  1  0.747100  0.834000  0.065000  1.0  0.3676
  C  C145  1  0.809800  0.834800  0.976000  1.0  0.2725
  C  C146  1  0.302200  0.332700  0.538000  1.0  0.0389
  C  C147  1  0.247100  0.334000  0.565000  1.0  0.3676
  C  C148  1  0.309800  0.334800  0.476000  1.0  0.2725
  C  C149  1  0.697800  0.167300  0.538000  1.0  0.0443
  C  C150  1  0.752900  0.166000  0.565000  1.0  0.3678
  C  C151  1  0.690200  0.165200  0.476000  1.0  0.2712
  C  C152  1  0.197800  0.667300  0.038000  1.0  0.0443
  C  C153  1  0.252900  0.666000  0.065000  1.0  0.3678
  C  C154  1  0.190200  0.665200  0.976000  1.0  0.2712
  C  C155  1  0.197800  0.332700  0.462000  1.0  0.0437
  C  C156  1  0.252900  0.334000  0.435000  1.0  0.368
  C  C157  1  0.190200  0.334800  0.524000  1.0  0.2706
  C  C158  1  0.697800  0.832700  0.962000  1.0  0.0437
  C  C159  1  0.752900  0.834000  0.935000  1.0  0.368
  C  C160  1  0.690200  0.834800  0.024000  1.0  0.2706
  Br  Br161  1  0.664270  0.420660  0.120800  1.0  -0.0518
  Br  Br162  1  0.164270  0.920660  0.620800  1.0  -0.0518
  Br  Br163  1  0.835730  0.579340  0.620800  1.0  -0.0516
  Br  Br164  1  0.335730  0.079340  0.120800  1.0  -0.0516
  Br  Br165  1  0.335730  0.920660  0.379200  1.0  -0.0471
  Br  Br166  1  0.835730  0.420660  0.879200  1.0  -0.0471
  Br  Br167  1  0.164270  0.079340  0.879200  1.0  -0.0468
  Br  Br168  1  0.664270  0.579340  0.379200  1.0  -0.0468
  Br  Br169  1  0.120800  0.664270  0.420660  1.0  -0.052
  Br  Br170  1  0.620800  0.164270  0.920660  1.0  -0.052
  Br  Br171  1  0.620800  0.835730  0.579340  1.0  -0.0514
  Br  Br172  1  0.120800  0.335730  0.079340  1.0  -0.0514
  Br  Br173  1  0.379200  0.335730  0.920660  1.0  -0.0473
  Br  Br174  1  0.879200  0.835730  0.420660  1.0  -0.0473
  Br  Br175  1  0.879200  0.164270  0.079340  1.0  -0.0479
  Br  Br176  1  0.379200  0.664270  0.579340  1.0  -0.0479
  Br  Br177  1  0.420660  0.120800  0.664270  1.0  -0.0531
  Br  Br178  1  0.920660  0.620800  0.164270  1.0  -0.0531
  Br  Br179  1  0.579340  0.620800  0.835730  1.0  -0.0524
  Br  Br180  1  0.079340  0.120800  0.335730  1.0  -0.0524
  Br  Br181  1  0.920660  0.379200  0.335730  1.0  -0.0476
  Br  Br182  1  0.420660  0.879200  0.835730  1.0  -0.0476
  Br  Br183  1  0.079340  0.879200  0.164270  1.0  -0.0485
  Br  Br184  1  0.579340  0.379200  0.664270  1.0  -0.0485
  Br  Br185  1  0.670660  0.914270  0.370800  1.0  -0.0515
  Br  Br186  1  0.170660  0.414270  0.870800  1.0  -0.0515
  Br  Br187  1  0.829340  0.085730  0.870800  1.0  -0.0515
  Br  Br188  1  0.329340  0.585730  0.370800  1.0  -0.0515
  Br  Br189  1  0.170660  0.585730  0.629200  1.0  -0.0476
  Br  Br190  1  0.670660  0.085730  0.129200  1.0  -0.0476
  Br  Br191  1  0.329340  0.414270  0.129200  1.0  -0.0477
  Br  Br192  1  0.829340  0.914270  0.629200  1.0  -0.0477
  Br  Br193  1  0.914270  0.370800  0.670660  1.0  -0.0517
  Br  Br194  1  0.414270  0.870800  0.170660  1.0  -0.0517
  Br  Br195  1  0.085730  0.870800  0.829340  1.0  -0.0512
  Br  Br196  1  0.585730  0.370800  0.329340  1.0  -0.0512
  Br  Br197  1  0.585730  0.629200  0.170660  1.0  -0.0465
  Br  Br198  1  0.085730  0.129200  0.670660  1.0  -0.0465
  Br  Br199  1  0.414270  0.129200  0.329340  1.0  -0.047
  Br  Br200  1  0.914270  0.629200  0.829340  1.0  -0.047
  Br  Br201  1  0.370800  0.670660  0.914270  1.0  -0.0529
  Br  Br202  1  0.870800  0.170660  0.414270  1.0  -0.0529
  Br  Br203  1  0.870800  0.829340  0.085730  1.0  -0.053
  Br  Br204  1  0.370800  0.329340  0.585730  1.0  -0.053
  Br  Br205  1  0.629200  0.170660  0.585730  1.0  -0.048
  Br  Br206  1  0.129200  0.670660  0.085730  1.0  -0.048
  Br  Br207  1  0.129200  0.329340  0.414270  1.0  -0.0479
  Br  Br208  1  0.629200  0.829340  0.914270  1.0  -0.0479
  O  O209  1  0.629800  0.415600  0.987600  1.0  -0.4465
  O  O210  1  0.802400  0.411200  0.108300  1.0  -0.4863
  O  O211  1  0.129800  0.915600  0.487600  1.0  -0.4465
  O  O212  1  0.302400  0.911200  0.608300  1.0  -0.4863
  O  O213  1  0.870200  0.584400  0.487600  1.0  -0.4432
  O  O214  1  0.697600  0.588800  0.608300  1.0  -0.4853
  O  O215  1  0.370200  0.084400  0.987600  1.0  -0.4432
  O  O216  1  0.197600  0.088800  0.108300  1.0  -0.4853
  O  O217  1  0.370200  0.915600  0.512400  1.0  -0.4443
  O  O218  1  0.197600  0.911200  0.391700  1.0  -0.4866
  O  O219  1  0.870200  0.415600  0.012400  1.0  -0.4443
  O  O220  1  0.697600  0.411200  0.891700  1.0  -0.4866
  O  O221  1  0.129800  0.084400  0.012400  1.0  -0.4446
  O  O222  1  0.302400  0.088800  0.891700  1.0  -0.4862
  O  O223  1  0.629800  0.584400  0.512400  1.0  -0.4446
  O  O224  1  0.802400  0.588800  0.391700  1.0  -0.4862
  O  O225  1  0.987600  0.629800  0.415600  1.0  -0.4451
  O  O226  1  0.108300  0.802400  0.411200  1.0  -0.4886
  O  O227  1  0.487600  0.129800  0.915600  1.0  -0.4451
  O  O228  1  0.608300  0.302400  0.911200  1.0  -0.4886
  O  O229  1  0.487600  0.870200  0.584400  1.0  -0.443
  O  O230  1  0.608300  0.697600  0.588800  1.0  -0.4887
  O  O231  1  0.987600  0.370200  0.084400  1.0  -0.443
  O  O232  1  0.108300  0.197600  0.088800  1.0  -0.4887
  O  O233  1  0.512400  0.370200  0.915600  1.0  -0.4447
  O  O234  1  0.391700  0.197600  0.911200  1.0  -0.4888
  O  O235  1  0.012400  0.870200  0.415600  1.0  -0.4447
  O  O236  1  0.891700  0.697600  0.411200  1.0  -0.4888
  O  O237  1  0.012400  0.129800  0.084400  1.0  -0.4455
  O  O238  1  0.891700  0.302400  0.088800  1.0  -0.4879
  O  O239  1  0.512400  0.629800  0.584400  1.0  -0.4455
  O  O240  1  0.391700  0.802400  0.588800  1.0  -0.4879
  O  O241  1  0.415600  0.987600  0.629800  1.0  -0.4399
  O  O242  1  0.411200  0.108300  0.802400  1.0  -0.4865
  O  O243  1  0.915600  0.487600  0.129800  1.0  -0.4399
  O  O244  1  0.911200  0.608300  0.302400  1.0  -0.4865
  O  O245  1  0.584400  0.487600  0.870200  1.0  -0.441
  O  O246  1  0.588800  0.608300  0.697600  1.0  -0.4871
  O  O247  1  0.084400  0.987600  0.370200  1.0  -0.441
  O  O248  1  0.088800  0.108300  0.197600  1.0  -0.4871
  O  O249  1  0.915600  0.512400  0.370200  1.0  -0.4411
  O  O250  1  0.911200  0.391700  0.197600  1.0  -0.4905
  O  O251  1  0.415600  0.012400  0.870200  1.0  -0.4411
  O  O252  1  0.411200  0.891700  0.697600  1.0  -0.4905
  O  O253  1  0.084400  0.012400  0.129800  1.0  -0.44
  O  O254  1  0.088800  0.891700  0.302400  1.0  -0.4882
  O  O255  1  0.584400  0.512400  0.629800  1.0  -0.44
  O  O256  1  0.588800  0.391700  0.802400  1.0  -0.4882
  O  O257  1  0.665600  0.879800  0.237600  1.0  -0.4453
  O  O258  1  0.661200  0.052400  0.358300  1.0  -0.4842
  O  O259  1  0.165600  0.379800  0.737600  1.0  -0.4453
  O  O260  1  0.161200  0.552400  0.858300  1.0  -0.4842
  O  O261  1  0.834400  0.120200  0.737600  1.0  -0.4438
  O  O262  1  0.838800  0.947600  0.858300  1.0  -0.4849
  O  O263  1  0.334400  0.620200  0.237600  1.0  -0.4438
  O  O264  1  0.338800  0.447600  0.358300  1.0  -0.4849
  O  O265  1  0.165600  0.620200  0.762400  1.0  -0.4424
  O  O266  1  0.161200  0.447600  0.641700  1.0  -0.4847
  O  O267  1  0.665600  0.120200  0.262400  1.0  -0.4424
  O  O268  1  0.661200  0.947600  0.141700  1.0  -0.4847
  O  O269  1  0.334400  0.379800  0.262400  1.0  -0.4448
  O  O270  1  0.338800  0.552400  0.141700  1.0  -0.485
  O  O271  1  0.834400  0.879800  0.762400  1.0  -0.4448
  O  O272  1  0.838800  0.052400  0.641700  1.0  -0.485
  O  O273  1  0.879800  0.237600  0.665600  1.0  -0.4454
  O  O274  1  0.052400  0.358300  0.661200  1.0  -0.4884
  O  O275  1  0.379800  0.737600  0.165600  1.0  -0.4454
  O  O276  1  0.552400  0.858300  0.161200  1.0  -0.4884
  O  O277  1  0.120200  0.737600  0.834400  1.0  -0.4431
  O  O278  1  0.947600  0.858300  0.838800  1.0  -0.488
  O  O279  1  0.620200  0.237600  0.334400  1.0  -0.4431
  O  O280  1  0.447600  0.358300  0.338800  1.0  -0.488
  O  O281  1  0.620200  0.762400  0.165600  1.0  -0.4435
  O  O282  1  0.447600  0.641700  0.161200  1.0  -0.4909
  O  O283  1  0.120200  0.262400  0.665600  1.0  -0.4435
  O  O284  1  0.947600  0.141700  0.661200  1.0  -0.4909
  O  O285  1  0.379800  0.262400  0.334400  1.0  -0.4452
  O  O286  1  0.552400  0.141700  0.338800  1.0  -0.49
  O  O287  1  0.879800  0.762400  0.834400  1.0  -0.4452
  O  O288  1  0.052400  0.641700  0.838800  1.0  -0.49
  O  O289  1  0.237600  0.665600  0.879800  1.0  -0.441
  O  O290  1  0.358300  0.661200  0.052400  1.0  -0.4891
  O  O291  1  0.737600  0.165600  0.379800  1.0  -0.441
  O  O292  1  0.858300  0.161200  0.552400  1.0  -0.4891
  O  O293  1  0.737600  0.834400  0.120200  1.0  -0.44
  O  O294  1  0.858300  0.838800  0.947600  1.0  -0.4897
  O  O295  1  0.237600  0.334400  0.620200  1.0  -0.44
  O  O296  1  0.358300  0.338800  0.447600  1.0  -0.4897
  O  O297  1  0.762400  0.165600  0.620200  1.0  -0.4419
  O  O298  1  0.641700  0.161200  0.447600  1.0  -0.4895
  O  O299  1  0.262400  0.665600  0.120200  1.0  -0.4419
  O  O300  1  0.141700  0.661200  0.947600  1.0  -0.4895
  O  O301  1  0.262400  0.334400  0.379800  1.0  -0.441
  O  O302  1  0.141700  0.338800  0.552400  1.0  -0.4884
  O  O303  1  0.762400  0.834400  0.879800  1.0  -0.441
  O  O304  1  0.641700  0.838800  0.052400  1.0  -0.4884
