# generated using pymatgen
data_Na2FeC18(ClO2)6
_symmetry_space_group_name_H-M   'P 1'
_cell_length_a   12.79050000
_cell_length_b   25.91520000
_cell_length_c   10.63290000
_cell_angle_alpha   90.00000000
_cell_angle_beta   92.47200000
_cell_angle_gamma   90.00000000
_symmetry_Int_Tables_number   1
_chemical_formula_structural   Na2FeC18(ClO2)6
_chemical_formula_sum   'Na8 Fe4 C72 Cl24 O48'
_cell_volume   3521.19017886
_cell_formula_units_Z   4
loop_
 _symmetry_equiv_pos_site_id
 _symmetry_equiv_pos_as_xyz
  1  'x, y, z'
loop_
 _atom_site_type_symbol
 _atom_site_label
 _atom_site_symmetry_multiplicity
 _atom_site_fract_x
 _atom_site_fract_y
 _atom_site_fract_z
 _atom_site_occupancy
 _atom_site_charge
  Na  Na1  1  0.308660  0.293980  0.316860  1.0  0.9531
  Na  Na2  1  0.347990  0.311740  0.026110  1.0  0.9772
  Na  Na3  1  0.691340  0.793980  0.183140  1.0  0.9527
  Na  Na4  1  0.652010  0.811740  0.473890  1.0  0.9789
  Na  Na5  1  0.691340  0.706020  0.683140  1.0  0.9527
  Na  Na6  1  0.652010  0.688260  0.973890  1.0  0.9793
  Na  Na7  1  0.308660  0.206020  0.816860  1.0  0.9533
  Na  Na8  1  0.347990  0.188260  0.526110  1.0  0.9769
  Fe  Fe9  1  0.814320  0.102550  0.187210  1.0  1.1075
  Fe  Fe10  1  0.185680  0.602550  0.312790  1.0  1.1068
  Fe  Fe11  1  0.185680  0.897450  0.812790  1.0  1.1062
  Fe  Fe12  1  0.814320  0.397450  0.687210  1.0  1.107
  C  C13  1  0.605380  0.220320  0.252300  1.0  0.0426
  C  C14  1  0.513680  0.236980  0.183100  1.0  0.3221
  C  C15  1  0.474370  0.203950  0.068800  1.0  0.3452
  C  C16  1  0.528970  0.157750  0.041500  1.0  0.0154
  C  C17  1  0.622030  0.145600  0.105000  1.0  0.3478
  C  C18  1  0.658850  0.176990  0.218800  1.0  0.331
  C  C19  1  0.044740  0.206700  0.094500  1.0  0.0364
  C  C20  1  0.981780  0.168570  0.139500  1.0  0.3419
  C  C21  1  0.010330  0.142330  0.263700  1.0  0.3367
  C  C22  1  0.102280  0.154780  0.328600  1.0  0.0415
  C  C23  1  0.167620  0.195080  0.288300  1.0  0.3173
  C  C24  1  0.136460  0.224180  0.164500  1.0  0.3355
  C  C25  1  0.281100  0.459350  0.180500  1.0  0.0837
  C  C26  1  0.238660  0.501920  0.237100  1.0  0.3501
  C  C27  1  0.180980  0.496120  0.358200  1.0  0.3702
  C  C28  1  0.167010  0.448140  0.409200  1.0  0.0308
  C  C29  1  0.209920  0.402920  0.355200  1.0  0.3166
  C  C30  1  0.272170  0.409130  0.233200  1.0  0.3436
  C  C31  1  0.394620  0.720320  0.247700  1.0  0.0428
  C  C32  1  0.486320  0.736980  0.316900  1.0  0.3227
  C  C33  1  0.525630  0.703950  0.431200  1.0  0.3457
  C  C34  1  0.471030  0.657750  0.458500  1.0  0.0142
  C  C35  1  0.377970  0.645600  0.395000  1.0  0.3486
  C  C36  1  0.341150  0.676990  0.281200  1.0  0.3336
  C  C37  1  0.955260  0.706700  0.405500  1.0  0.0363
  C  C38  1  0.018220  0.668570  0.360500  1.0  0.3393
  C  C39  1  0.989670  0.642330  0.236300  1.0  0.3375
  C  C40  1  0.897720  0.654780  0.171400  1.0  0.0401
  C  C41  1  0.832380  0.695080  0.211700  1.0  0.3175
  C  C42  1  0.863540  0.724180  0.335500  1.0  0.3344
  C  C43  1  0.718900  0.959350  0.319500  1.0  0.0862
  C  C44  1  0.761340  0.001920  0.262900  1.0  0.3491
  C  C45  1  0.819020  0.996120  0.141800  1.0  0.3712
  C  C46  1  0.832990  0.948140  0.090800  1.0  0.0281
  C  C47  1  0.790080  0.902920  0.144800  1.0  0.316
  C  C48  1  0.727830  0.909130  0.266800  1.0  0.3441
  C  C49  1  0.394620  0.779680  0.747700  1.0  0.0425
  C  C50  1  0.486320  0.763020  0.816900  1.0  0.3237
  C  C51  1  0.525630  0.796050  0.931200  1.0  0.3458
  C  C52  1  0.471030  0.842250  0.958500  1.0  0.012
  C  C53  1  0.377970  0.854400  0.895000  1.0  0.3469
  C  C54  1  0.341150  0.823010  0.781200  1.0  0.3335
  C  C55  1  0.955260  0.793300  0.905500  1.0  0.0375
  C  C56  1  0.018220  0.831430  0.860500  1.0  0.3403
  C  C57  1  0.989670  0.857670  0.736300  1.0  0.338
  C  C58  1  0.897720  0.845220  0.671400  1.0  0.0403
  C  C59  1  0.832380  0.804920  0.711700  1.0  0.3176
  C  C60  1  0.863540  0.775820  0.835500  1.0  0.3343
  C  C61  1  0.718900  0.540650  0.819500  1.0  0.0856
  C  C62  1  0.761340  0.498080  0.762900  1.0  0.3492
  C  C63  1  0.819020  0.503880  0.641800  1.0  0.3711
  C  C64  1  0.832990  0.551860  0.590800  1.0  0.0286
  C  C65  1  0.790080  0.597080  0.644800  1.0  0.3159
  C  C66  1  0.727830  0.590870  0.766800  1.0  0.3439
  C  C67  1  0.605380  0.279680  0.752300  1.0  0.0433
  C  C68  1  0.513680  0.263020  0.683100  1.0  0.3237
  C  C69  1  0.474370  0.296050  0.568800  1.0  0.3453
  C  C70  1  0.528970  0.342250  0.541500  1.0  0.0145
  C  C71  1  0.622030  0.354400  0.605000  1.0  0.3478
  C  C72  1  0.658850  0.323010  0.718800  1.0  0.3308
  C  C73  1  0.044740  0.293300  0.594500  1.0  0.0367
  C  C74  1  0.981780  0.331430  0.639500  1.0  0.3424
  C  C75  1  0.010330  0.357670  0.763700  1.0  0.3363
  C  C76  1  0.102280  0.345220  0.828600  1.0  0.0411
  C  C77  1  0.167620  0.304920  0.788300  1.0  0.3172
  C  C78  1  0.136460  0.275820  0.664500  1.0  0.3348
  C  C79  1  0.281100  0.040650  0.680500  1.0  0.0836
  C  C80  1  0.238660  0.998080  0.737100  1.0  0.3495
  C  C81  1  0.180980  0.003880  0.858200  1.0  0.3702
  C  C82  1  0.167010  0.051860  0.909200  1.0  0.0307
  C  C83  1  0.209920  0.097080  0.855200  1.0  0.3158
  C  C84  1  0.272170  0.090870  0.733200  1.0  0.3441
  Cl  Cl85  1  0.648440  0.254650  0.383700  1.0  -0.0537
  Cl  Cl86  1  0.486330  0.120870  0.914020  1.0  -0.1538
  Cl  Cl87  1  0.012250  0.235790  0.951970  1.0  -0.077
  Cl  Cl88  1  0.136110  0.123640  0.468540  1.0  -0.1734
  Cl  Cl89  1  0.350720  0.466920  0.045760  1.0  -0.0804
  Cl  Cl90  1  0.096370  0.442030  0.543400  1.0  -0.0566
  Cl  Cl91  1  0.351560  0.754650  0.116300  1.0  -0.0536
  Cl  Cl92  1  0.513670  0.620870  0.585980  1.0  -0.1546
  Cl  Cl93  1  0.987750  0.735790  0.548030  1.0  -0.0766
  Cl  Cl94  1  0.863890  0.623640  0.031460  1.0  -0.172
  Cl  Cl95  1  0.649280  0.966920  0.454240  1.0  -0.0788
  Cl  Cl96  1  0.903630  0.942030  0.956600  1.0  -0.0552
  Cl  Cl97  1  0.351560  0.745350  0.616300  1.0  -0.0542
  Cl  Cl98  1  0.513670  0.879130  0.085980  1.0  -0.1546
  Cl  Cl99  1  0.987750  0.764210  0.048030  1.0  -0.077
  Cl  Cl100  1  0.863890  0.876360  0.531460  1.0  -0.1741
  Cl  Cl101  1  0.649280  0.533080  0.954240  1.0  -0.0793
  Cl  Cl102  1  0.903630  0.557970  0.456600  1.0  -0.0558
  Cl  Cl103  1  0.648440  0.245350  0.883700  1.0  -0.054
  Cl  Cl104  1  0.486330  0.379130  0.414020  1.0  -0.1541
  Cl  Cl105  1  0.012250  0.264210  0.451970  1.0  -0.0773
  Cl  Cl106  1  0.136110  0.376360  0.968540  1.0  -0.1737
  Cl  Cl107  1  0.350720  0.033080  0.545760  1.0  -0.0808
  Cl  Cl108  1  0.096370  0.057970  0.043400  1.0  -0.057
  O  O109  1  0.461830  0.275830  0.205900  1.0  -0.6453
  O  O110  1  0.398160  0.220840  0.006420  1.0  -0.6264
  O  O111  1  0.683140  0.108700  0.076550  1.0  -0.5241
  O  O112  1  0.740690  0.159230  0.277640  1.0  -0.5259
  O  O113  1  0.896590  0.151900  0.085070  1.0  -0.5253
  O  O114  1  0.944170  0.108760  0.299160  1.0  -0.5335
  O  O115  1  0.248370  0.209780  0.345590  1.0  -0.6571
  O  O116  1  0.192980  0.260100  0.134700  1.0  -0.5548
  O  O117  1  0.244420  0.548280  0.196300  1.0  -0.4893
  O  O118  1  0.148260  0.538710  0.404150  1.0  -0.5207
  O  O119  1  0.201770  0.359010  0.397320  1.0  -0.5418
  O  O120  1  0.309970  0.369470  0.189110  1.0  -0.6043
  O  O121  1  0.538170  0.775830  0.294100  1.0  -0.6469
  O  O122  1  0.601840  0.720840  0.493580  1.0  -0.6258
  O  O123  1  0.316860  0.608700  0.423450  1.0  -0.5232
  O  O124  1  0.259310  0.659230  0.222360  1.0  -0.5261
  O  O125  1  0.103410  0.651900  0.414930  1.0  -0.5243
  O  O126  1  0.055830  0.608760  0.200840  1.0  -0.5337
  O  O127  1  0.751630  0.709780  0.154410  1.0  -0.6582
  O  O128  1  0.807020  0.760100  0.365300  1.0  -0.5555
  O  O129  1  0.755580  0.048280  0.303700  1.0  -0.4884
  O  O130  1  0.851740  0.038710  0.095850  1.0  -0.5207
  O  O131  1  0.798230  0.859010  0.102680  1.0  -0.5423
  O  O132  1  0.690030  0.869470  0.310890  1.0  -0.6062
  O  O133  1  0.538170  0.724170  0.794100  1.0  -0.6467
  O  O134  1  0.601840  0.779160  0.993580  1.0  -0.6257
  O  O135  1  0.316860  0.891300  0.923450  1.0  -0.5217
  O  O136  1  0.259310  0.840770  0.722360  1.0  -0.5258
  O  O137  1  0.103410  0.848100  0.914930  1.0  -0.5246
  O  O138  1  0.055830  0.891240  0.700840  1.0  -0.5354
  O  O139  1  0.751630  0.790220  0.654410  1.0  -0.6586
  O  O140  1  0.807020  0.739900  0.865300  1.0  -0.5568
  O  O141  1  0.755580  0.451720  0.803700  1.0  -0.4895
  O  O142  1  0.851740  0.461290  0.595850  1.0  -0.5213
  O  O143  1  0.798230  0.640990  0.602680  1.0  -0.5403
  O  O144  1  0.690030  0.630530  0.810890  1.0  -0.6062
  O  O145  1  0.461830  0.224170  0.705900  1.0  -0.6457
  O  O146  1  0.398160  0.279160  0.506420  1.0  -0.6263
  O  O147  1  0.683140  0.391300  0.576550  1.0  -0.5256
  O  O148  1  0.740690  0.340770  0.777640  1.0  -0.5256
  O  O149  1  0.896590  0.348100  0.585070  1.0  -0.5256
  O  O150  1  0.944170  0.391240  0.799160  1.0  -0.5336
  O  O151  1  0.248370  0.290220  0.845590  1.0  -0.6575
  O  O152  1  0.192980  0.239900  0.634700  1.0  -0.5564
  O  O153  1  0.244420  0.951720  0.696300  1.0  -0.4894
  O  O154  1  0.148260  0.961290  0.904150  1.0  -0.5204
  O  O155  1  0.201770  0.140990  0.897320  1.0  -0.5394
  O  O156  1  0.309970  0.130530  0.689110  1.0  -0.6066
