# generated using pymatgen
data_La2H14C10N4O15
_symmetry_space_group_name_H-M   'P 1'
_cell_length_a   12.76230000
_cell_length_b   8.38310000
_cell_length_c   23.96100000
_cell_angle_alpha   90.00000000
_cell_angle_beta   104.92400000
_cell_angle_gamma   90.00000000
_symmetry_Int_Tables_number   1
_chemical_formula_structural   La2H14C10N4O15
_chemical_formula_sum   'La8 H56 C40 N16 O60'
_cell_volume   2477.05848899
_cell_formula_units_Z   4
loop_
 _symmetry_equiv_pos_site_id
 _symmetry_equiv_pos_as_xyz
  1  'x, y, z'
loop_
 _atom_site_type_symbol
 _atom_site_label
 _atom_site_symmetry_multiplicity
 _atom_site_fract_x
 _atom_site_fract_y
 _atom_site_fract_z
 _atom_site_occupancy
 _atom_site_charge
  La  La1  1  0.906420  0.716990  0.125200  1.0  2.1097
  La  La2  1  0.093600  0.009430  0.383150  1.0  2.1085
  La  La3  1  0.593580  0.216990  0.374800  1.0  2.1099
  La  La4  1  0.406400  0.509430  0.116850  1.0  2.1077
  La  La5  1  0.093580  0.283010  0.874800  1.0  2.1109
  La  La6  1  0.906400  0.990570  0.616850  1.0  2.1088
  La  La7  1  0.406420  0.783010  0.625200  1.0  2.1103
  La  La8  1  0.593600  0.490570  0.883150  1.0  2.1098
  H  H9  1  0.038200  0.482800  0.261800  1.0  0.1013
  H  H10  1  0.952500  0.506800  0.299600  1.0  0.1135
  H  H11  1  0.794200  0.675100  0.246400  1.0  0.1143
  H  H12  1  0.761300  0.492500  0.252000  1.0  0.098
  H  H13  1  0.025400  0.440600  0.048900  1.0  0.1172
  H  H14  1  0.066900  0.287700  0.088700  1.0  0.106
  H  H15  1  0.794800  0.285000  0.081700  1.0  0.0967
  H  H16  1  0.875800  0.247700  0.042400  1.0  0.1192
  H  H17  1  0.801400  0.326500  0.172700  1.0  0.085
  H  H18  1  0.889000  0.281500  0.231500  1.0  0.0832
  H  H19  1  0.031200  0.325500  0.186300  1.0  0.0906
  H  H20  1  0.950500  0.190500  0.152700  1.0  0.0924
  H  H21  1  0.202900  0.725600  0.410400  1.0  0.4245
  H  H22  1  0.239300  0.780800  0.467400  1.0  0.3674
  H  H23  1  0.461800  0.982800  0.238200  1.0  0.1009
  H  H24  1  0.547500  0.006800  0.200400  1.0  0.1162
  H  H25  1  0.705800  0.175100  0.253600  1.0  0.1151
  H  H26  1  0.738700  0.992500  0.248000  1.0  0.098
  H  H27  1  0.474600  0.940600  0.451100  1.0  0.1166
  H  H28  1  0.433100  0.787700  0.411300  1.0  0.1067
  H  H29  1  0.705200  0.785000  0.418300  1.0  0.0953
  H  H30  1  0.624200  0.747700  0.457600  1.0  0.1178
  H  H31  1  0.698600  0.826500  0.327300  1.0  0.0864
  H  H32  1  0.611000  0.781500  0.268500  1.0  0.083
  H  H33  1  0.468800  0.825500  0.313700  1.0  0.0891
  H  H34  1  0.549500  0.690500  0.347300  1.0  0.0908
  H  H35  1  0.297100  0.225600  0.089600  1.0  0.4188
  H  H36  1  0.260700  0.280800  0.032600  1.0  0.3638
  H  H37  1  0.961800  0.517200  0.738200  1.0  0.101
  H  H38  1  0.047500  0.493200  0.700400  1.0  0.116
  H  H39  1  0.205800  0.324900  0.753600  1.0  0.115
  H  H40  1  0.238700  0.507500  0.748000  1.0  0.0982
  H  H41  1  0.974600  0.559400  0.951100  1.0  0.1164
  H  H42  1  0.933100  0.712300  0.911300  1.0  0.1067
  H  H43  1  0.205200  0.715000  0.918300  1.0  0.0951
  H  H44  1  0.124200  0.752300  0.957600  1.0  0.117
  H  H45  1  0.198600  0.673500  0.827300  1.0  0.0867
  H  H46  1  0.111000  0.718500  0.768500  1.0  0.0838
  H  H47  1  0.968800  0.674500  0.813700  1.0  0.0892
  H  H48  1  0.049500  0.809500  0.847300  1.0  0.0939
  H  H49  1  0.797100  0.274400  0.589600  1.0  0.42
  H  H50  1  0.760700  0.219200  0.532600  1.0  0.364
  H  H51  1  0.538200  0.017200  0.761800  1.0  0.1007
  H  H52  1  0.452500  0.993200  0.799600  1.0  0.1132
  H  H53  1  0.294200  0.824900  0.746400  1.0  0.1147
  H  H54  1  0.261300  0.007500  0.752000  1.0  0.0972
  H  H55  1  0.525400  0.059400  0.548900  1.0  0.1172
  H  H56  1  0.566900  0.212300  0.588700  1.0  0.1058
  H  H57  1  0.294800  0.215000  0.581700  1.0  0.0965
  H  H58  1  0.375800  0.252300  0.542400  1.0  0.12
  H  H59  1  0.301400  0.173500  0.672700  1.0  0.0848
  H  H60  1  0.389000  0.218500  0.731500  1.0  0.0829
  H  H61  1  0.531200  0.174500  0.686300  1.0  0.0902
  H  H62  1  0.450500  0.309500  0.652700  1.0  0.0935
  H  H63  1  0.702900  0.774400  0.910400  1.0  0.4235
  H  H64  1  0.739300  0.719200  0.967400  1.0  0.3664
  C  C65  1  0.974200  0.545200  0.265120  1.0  -0.1432
  C  C66  1  0.004500  0.720600  0.272790  1.0  0.7883
  C  C67  1  0.782500  0.571200  0.226120  1.0  -0.1563
  C  C68  1  0.691700  0.587500  0.171230  1.0  0.7728
  C  C69  1  0.040200  0.398600  0.088800  1.0  -0.2224
  C  C70  1  0.126600  0.500700  0.128910  1.0  0.7578
  C  C71  1  0.847800  0.333500  0.063050  1.0  -0.2131
  C  C72  1  0.789600  0.457200  0.019050  1.0  0.7436
  C  C73  1  0.875800  0.348600  0.196400  1.0  -0.0118
  C  C74  1  0.956800  0.305500  0.162260  1.0  -0.0181
  C  C75  1  0.525800  0.045200  0.234880  1.0  -0.144
  C  C76  1  0.495500  0.220600  0.227210  1.0  0.791
  C  C77  1  0.717500  0.071200  0.273880  1.0  -0.1489
  C  C78  1  0.808300  0.087500  0.328770  1.0  0.7717
  C  C79  1  0.459800  0.898600  0.411200  1.0  -0.2316
  C  C80  1  0.373400  0.000700  0.371090  1.0  0.7613
  C  C81  1  0.652200  0.833500  0.436950  1.0  -0.2111
  C  C82  1  0.710400  0.957200  0.480950  1.0  0.7426
  C  C83  1  0.624200  0.848600  0.303600  1.0  -0.0126
  C  C84  1  0.543200  0.805500  0.337740  1.0  -0.0195
  C  C85  1  0.025800  0.454800  0.734880  1.0  -0.1447
  C  C86  1  0.995500  0.279400  0.727210  1.0  0.7863
  C  C87  1  0.217500  0.428800  0.773880  1.0  -0.1482
  C  C88  1  0.308300  0.412500  0.828770  1.0  0.773
  C  C89  1  0.959800  0.601400  0.911200  1.0  -0.2311
  C  C90  1  0.873400  0.499300  0.871090  1.0  0.7581
  C  C91  1  0.152200  0.666500  0.936950  1.0  -0.2104
  C  C92  1  0.210400  0.542800  0.980950  1.0  0.7421
  C  C93  1  0.124200  0.651400  0.803600  1.0  -0.012
  C  C94  1  0.043200  0.694500  0.837740  1.0  -0.0184
  C  C95  1  0.474200  0.954800  0.765120  1.0  -0.1421
  C  C96  1  0.504500  0.779400  0.772790  1.0  0.7879
  C  C97  1  0.282500  0.928800  0.726120  1.0  -0.1567
  C  C98  1  0.191700  0.912500  0.671230  1.0  0.773
  C  C99  1  0.540200  0.101400  0.588800  1.0  -0.2234
  C  C100  1  0.626600  0.999300  0.628910  1.0  0.7584
  C  C101  1  0.347800  0.166500  0.563050  1.0  -0.2109
  C  C102  1  0.289600  0.042800  0.519050  1.0  0.7434
  C  C103  1  0.375800  0.151400  0.696400  1.0  -0.0116
  C  C104  1  0.456800  0.194500  0.662260  1.0  -0.0183
  N  N105  1  0.884700  0.519400  0.213330  1.0  -0.1905
  N  N106  1  0.938600  0.399600  0.108140  1.0  -0.2075
  N  N107  1  0.742400  0.990900  0.113190  1.0  0.7219
  N  N108  1  0.056400  0.900200  0.065460  1.0  0.7192
  N  N109  1  0.615300  0.019400  0.286670  1.0  -0.1907
  N  N110  1  0.561400  0.899600  0.391860  1.0  -0.2081
  N  N111  1  0.757600  0.490900  0.386810  1.0  0.7218
  N  N112  1  0.443600  0.400200  0.434540  1.0  0.7197
  N  N113  1  0.115300  0.480600  0.786670  1.0  -0.1915
  N  N114  1  0.061400  0.600400  0.891860  1.0  -0.208
  N  N115  1  0.257600  0.009100  0.886810  1.0  0.723
  N  N116  1  0.943600  0.099800  0.934540  1.0  0.7214
  N  N117  1  0.384700  0.980600  0.713330  1.0  -0.1916
  N  N118  1  0.438600  0.100400  0.608140  1.0  -0.2077
  N  N119  1  0.242400  0.509100  0.613190  1.0  0.7239
  N  N120  1  0.556400  0.599800  0.565460  1.0  0.7212
  O  O121  1  0.988500  0.807000  0.228330  1.0  -0.6535
  O  O122  1  0.045400  0.766800  0.323340  1.0  -0.7092
  O  O123  1  0.716900  0.631900  0.125960  1.0  -0.6634
  O  O124  1  0.597800  0.559200  0.174230  1.0  -0.6902
  O  O125  1  0.094600  0.611000  0.156710  1.0  -0.6403
  O  O126  1  0.223200  0.470400  0.132290  1.0  -0.6489
  O  O127  1  0.818300  0.601100  0.028010  1.0  -0.6278
  O  O128  1  0.715900  0.407400  0.978060  1.0  -0.6876
  O  O129  1  0.760000  0.932700  0.067950  1.0  -0.609
  O  O130  1  0.806900  0.958000  0.160810  1.0  -0.5968
  O  O131  1  0.663800  0.078900  0.111070  1.0  -0.4766
  O  O132  1  0.036000  0.952400  0.112330  1.0  -0.7483
  O  O133  1  0.007000  0.776300  0.044100  1.0  -0.6565
  O  O134  1  0.121500  0.968100  0.044100  1.0  -0.4436
  O  O135  1  0.188500  0.749600  0.434560  1.0  -0.7177
  O  O136  1  0.511500  0.307000  0.271670  1.0  -0.652
  O  O137  1  0.454600  0.266800  0.176660  1.0  -0.7118
  O  O138  1  0.783100  0.131900  0.374040  1.0  -0.6661
  O  O139  1  0.902200  0.059200  0.325770  1.0  -0.6871
  O  O140  1  0.405400  0.111000  0.343290  1.0  -0.6393
  O  O141  1  0.276800  0.970400  0.367710  1.0  -0.6489
  O  O142  1  0.681700  0.101100  0.471990  1.0  -0.6276
  O  O143  1  0.784100  0.907400  0.521940  1.0  -0.6832
  O  O144  1  0.740000  0.432700  0.432050  1.0  -0.6105
  O  O145  1  0.693100  0.458000  0.339190  1.0  -0.597
  O  O146  1  0.836200  0.578900  0.388930  1.0  -0.4798
  O  O147  1  0.464000  0.452400  0.387670  1.0  -0.7464
  O  O148  1  0.493000  0.276300  0.455900  1.0  -0.6554
  O  O149  1  0.378500  0.468100  0.455900  1.0  -0.443
  O  O150  1  0.311500  0.249600  0.065440  1.0  -0.7139
  O  O151  1  0.011500  0.193000  0.771670  1.0  -0.6523
  O  O152  1  0.954600  0.233200  0.676660  1.0  -0.7126
  O  O153  1  0.283100  0.368100  0.874040  1.0  -0.6652
  O  O154  1  0.402200  0.440800  0.825770  1.0  -0.6861
  O  O155  1  0.905400  0.389000  0.843290  1.0  -0.6375
  O  O156  1  0.776800  0.529600  0.867710  1.0  -0.649
  O  O157  1  0.181700  0.398900  0.971990  1.0  -0.6277
  O  O158  1  0.284100  0.592600  0.021940  1.0  -0.6849
  O  O159  1  0.240000  0.067300  0.932050  1.0  -0.6115
  O  O160  1  0.193100  0.042000  0.839190  1.0  -0.5963
  O  O161  1  0.336200  0.921100  0.888930  1.0  -0.4781
  O  O162  1  0.964000  0.047600  0.887670  1.0  -0.7462
  O  O163  1  0.993000  0.223700  0.955900  1.0  -0.6551
  O  O164  1  0.878500  0.031900  0.955900  1.0  -0.4423
  O  O165  1  0.811500  0.250400  0.565440  1.0  -0.714
  O  O166  1  0.488500  0.693000  0.728330  1.0  -0.6564
  O  O167  1  0.545400  0.733200  0.823340  1.0  -0.708
  O  O168  1  0.216900  0.868100  0.625960  1.0  -0.6637
  O  O169  1  0.097800  0.940800  0.674230  1.0  -0.6916
  O  O170  1  0.594600  0.889000  0.656710  1.0  -0.6397
  O  O171  1  0.723200  0.029600  0.632290  1.0  -0.6489
  O  O172  1  0.318300  0.898900  0.528010  1.0  -0.6277
  O  O173  1  0.215900  0.092600  0.478060  1.0  -0.6878
  O  O174  1  0.260000  0.567300  0.567950  1.0  -0.6087
  O  O175  1  0.306900  0.542000  0.660810  1.0  -0.596
  O  O176  1  0.163800  0.421100  0.611070  1.0  -0.478
  O  O177  1  0.536000  0.547600  0.612330  1.0  -0.7478
  O  O178  1  0.507000  0.723700  0.544100  1.0  -0.6548
  O  O179  1  0.621500  0.531900  0.544100  1.0  -0.4424
  O  O180  1  0.688500  0.750400  0.934560  1.0  -0.7183
