# generated using pymatgen
data_LaCuPH6C6NO9
_symmetry_space_group_name_H-M   'P 1'
_cell_length_a   8.30280000
_cell_length_b   9.46300000
_cell_length_c   20.63980000
_cell_angle_alpha   90.00000000
_cell_angle_beta   90.00000000
_cell_angle_gamma   109.86700000
_symmetry_Int_Tables_number   1
_chemical_formula_structural   LaCuPH6C6NO9
_chemical_formula_sum   'La4 Cu4 P4 H24 C24 N4 O36'
_cell_volume   1525.14213723
_cell_formula_units_Z   4
loop_
 _symmetry_equiv_pos_site_id
 _symmetry_equiv_pos_as_xyz
  1  'x, y, z'
loop_
 _atom_site_type_symbol
 _atom_site_label
 _atom_site_symmetry_multiplicity
 _atom_site_fract_x
 _atom_site_fract_y
 _atom_site_fract_z
 _atom_site_occupancy
 _atom_site_charge
  La  La1  1  0.376850  0.398930  0.648390  1.0  2.2103
  La  La2  1  0.623150  0.101070  0.148390  1.0  2.2259
  La  La3  1  0.623150  0.601070  0.351610  1.0  2.2226
  La  La4  1  0.376850  0.898930  0.851610  1.0  2.2117
  Cu  Cu5  1  0.036850  0.948950  0.703210  1.0  0.9158
  Cu  Cu6  1  0.963150  0.551050  0.203210  1.0  0.9137
  Cu  Cu7  1  0.963150  0.051050  0.296790  1.0  0.9135
  Cu  Cu8  1  0.036850  0.448950  0.796790  1.0  0.9168
  P  P9  1  0.209130  0.694410  0.699820  1.0  1.5195
  P  P10  1  0.790870  0.805590  0.199820  1.0  1.5194
  P  P11  1  0.790870  0.305590  0.300180  1.0  1.5159
  P  P12  1  0.209130  0.194410  0.800180  1.0  1.521
  H  H13  1  0.779300  0.739200  0.593000  1.0  0.1452
  H  H14  1  0.867200  0.614200  0.603500  1.0  0.1373
  H  H15  1  0.106200  0.901100  0.530200  1.0  0.1351
  H  H16  1  0.945100  0.944300  0.554200  1.0  0.1365
  H  H17  1  0.143000  0.680400  0.590400  1.0  0.1606
  H  H18  1  0.277100  0.842500  0.607400  1.0  0.1731
  H  H19  1  0.220700  0.760800  0.093000  1.0  0.1447
  H  H20  1  0.132800  0.885800  0.103500  1.0  0.1355
  H  H21  1  0.893800  0.598900  0.030200  1.0  0.1354
  H  H22  1  0.054900  0.555700  0.054200  1.0  0.1378
  H  H23  1  0.857000  0.819600  0.090400  1.0  0.1597
  H  H24  1  0.722900  0.657500  0.107400  1.0  0.1763
  H  H25  1  0.220700  0.260800  0.407000  1.0  0.1445
  H  H26  1  0.132800  0.385800  0.396500  1.0  0.1364
  H  H27  1  0.893800  0.098900  0.469800  1.0  0.1349
  H  H28  1  0.054900  0.055700  0.445800  1.0  0.1382
  H  H29  1  0.857000  0.319600  0.409600  1.0  0.1593
  H  H30  1  0.722900  0.157500  0.392600  1.0  0.1778
  H  H31  1  0.779300  0.239200  0.907000  1.0  0.1447
  H  H32  1  0.867200  0.114200  0.896500  1.0  0.1373
  H  H33  1  0.106200  0.401100  0.969800  1.0  0.1319
  H  H34  1  0.945100  0.444300  0.945800  1.0  0.1364
  H  H35  1  0.143000  0.180400  0.909600  1.0  0.1606
  H  H36  1  0.277100  0.342500  0.892600  1.0  0.1737
  C  C37  1  0.780800  0.677500  0.689520  1.0  0.7467
  C  C38  1  0.857000  0.707800  0.621460  1.0  -0.2975
  C  C39  1  0.056000  0.936300  0.567770  1.0  -0.2664
  C  C40  1  0.176500  0.089300  0.590030  1.0  0.6897
  C  C41  1  0.170600  0.763700  0.621770  1.0  -0.4741
  C  C42  1  0.569200  0.461900  0.502430  1.0  0.5725
  C  C43  1  0.219200  0.822500  0.189520  1.0  0.7544
  C  C44  1  0.143000  0.792200  0.121460  1.0  -0.2979
  C  C45  1  0.944000  0.563700  0.067770  1.0  -0.2631
  C  C46  1  0.823500  0.410700  0.090030  1.0  0.6894
  C  C47  1  0.829400  0.736300  0.121770  1.0  -0.4771
  C  C48  1  0.430800  0.038100  0.002430  1.0  0.5726
  C  C49  1  0.219200  0.322500  0.310480  1.0  0.7506
  C  C50  1  0.143000  0.292200  0.378540  1.0  -0.305
  C  C51  1  0.944000  0.063700  0.432230  1.0  -0.2742
  C  C52  1  0.823500  0.910700  0.409970  1.0  0.6896
  C  C53  1  0.829400  0.236300  0.378230  1.0  -0.4799
  C  C54  1  0.430800  0.538100  0.497570  1.0  0.5726
  C  C55  1  0.780800  0.177500  0.810480  1.0  0.7407
  C  C56  1  0.857000  0.207800  0.878540  1.0  -0.3073
  C  C57  1  0.056000  0.436300  0.932230  1.0  -0.276
  C  C58  1  0.176500  0.589300  0.909970  1.0  0.69
  C  C59  1  0.170600  0.263700  0.878230  1.0  -0.4786
  C  C60  1  0.569200  0.961900  0.997570  1.0  0.573
  N  N61  1  0.028700  0.827300  0.622130  1.0  0.0184
  N  N62  1  0.971300  0.672700  0.122130  1.0  0.0177
  N  N63  1  0.971300  0.172700  0.377870  1.0  0.0186
  N  N64  1  0.028700  0.327300  0.877870  1.0  0.0197
  O  O65  1  0.842500  0.778300  0.732910  1.0  -0.5589
  O  O66  1  0.658400  0.558900  0.699290  1.0  -0.6593
  O  O67  1  0.199300  0.108800  0.651760  1.0  -0.6994
  O  O68  1  0.244800  0.190800  0.551100  1.0  -0.6066
  O  O69  1  0.356700  0.636300  0.690510  1.0  -0.897
  O  O70  1  0.043500  0.564900  0.719060  1.0  -0.8156
  O  O71  1  0.248400  0.830300  0.744200  1.0  -0.973
  O  O72  1  0.591300  0.412300  0.557380  1.0  -0.6634
  O  O73  1  0.649900  0.456700  0.451980  1.0  -0.6441
  O  O74  1  0.157500  0.721700  0.232910  1.0  -0.5591
  O  O75  1  0.341600  0.941100  0.199290  1.0  -0.6596
  O  O76  1  0.800700  0.391200  0.151760  1.0  -0.7011
  O  O77  1  0.755200  0.309200  0.051100  1.0  -0.6067
  O  O78  1  0.643300  0.863700  0.190510  1.0  -0.8964
  O  O79  1  0.956500  0.935100  0.219060  1.0  -0.8152
  O  O80  1  0.751600  0.669700  0.244200  1.0  -0.9738
  O  O81  1  0.408700  0.087700  0.057380  1.0  -0.6651
  O  O82  1  0.350100  0.043300  0.951980  1.0  -0.6435
  O  O83  1  0.157500  0.221700  0.267090  1.0  -0.5588
  O  O84  1  0.341600  0.441100  0.300710  1.0  -0.6606
  O  O85  1  0.800700  0.891200  0.348240  1.0  -0.6996
  O  O86  1  0.755200  0.809200  0.448900  1.0  -0.6056
  O  O87  1  0.643300  0.363700  0.309490  1.0  -0.8979
  O  O88  1  0.956500  0.435100  0.280940  1.0  -0.815
  O  O89  1  0.751600  0.169700  0.255800  1.0  -0.9745
  O  O90  1  0.408700  0.587700  0.442620  1.0  -0.6615
  O  O91  1  0.350100  0.543300  0.548020  1.0  -0.6471
  O  O92  1  0.842500  0.278300  0.767090  1.0  -0.5575
  O  O93  1  0.658400  0.058900  0.800710  1.0  -0.6607
  O  O94  1  0.199300  0.608800  0.848240  1.0  -0.6988
  O  O95  1  0.244800  0.690800  0.948900  1.0  -0.6068
  O  O96  1  0.356700  0.136300  0.809490  1.0  -0.8985
  O  O97  1  0.043500  0.064900  0.780940  1.0  -0.8154
  O  O98  1  0.248400  0.330300  0.755800  1.0  -0.9737
  O  O99  1  0.591300  0.912300  0.942620  1.0  -0.6636
  O  O100  1  0.649900  0.956700  0.048020  1.0  -0.6449
