# generated using pymatgen
data_NdCuPH6C6NO9
_symmetry_space_group_name_H-M   'P 1'
_cell_length_a   8.23680000
_cell_length_b   9.40630000
_cell_length_c   20.36600000
_cell_angle_alpha   90.00000000
_cell_angle_beta   90.00000000
_cell_angle_gamma   110.28600000
_symmetry_Int_Tables_number   1
_chemical_formula_structural   NdCuPH6C6NO9
_chemical_formula_sum   'Nd4 Cu4 P4 H24 C24 N4 O36'
_cell_volume   1480.04097047
_cell_formula_units_Z   4
loop_
 _symmetry_equiv_pos_site_id
 _symmetry_equiv_pos_as_xyz
  1  'x, y, z'
loop_
 _atom_site_type_symbol
 _atom_site_label
 _atom_site_symmetry_multiplicity
 _atom_site_fract_x
 _atom_site_fract_y
 _atom_site_fract_z
 _atom_site_occupancy
 _atom_site_charge
  Nd  Nd1  1  0.380680  0.402800  0.648080  1.0  2.3367
  Nd  Nd2  1  0.619320  0.097200  0.148080  1.0  2.335
  Nd  Nd3  1  0.619320  0.597200  0.351920  1.0  2.3279
  Nd  Nd4  1  0.380680  0.902800  0.851920  1.0  2.323
  Cu  Cu5  1  0.039660  0.954090  0.702910  1.0  0.9303
  Cu  Cu6  1  0.960340  0.545910  0.202910  1.0  0.93
  Cu  Cu7  1  0.960340  0.045910  0.297090  1.0  0.9299
  Cu  Cu8  1  0.039660  0.454090  0.797090  1.0  0.931
  P  P9  1  0.217730  0.699640  0.699380  1.0  1.5363
  P  P10  1  0.782270  0.800360  0.199380  1.0  1.5362
  P  P11  1  0.782270  0.300360  0.300620  1.0  1.5364
  P  P12  1  0.217730  0.199640  0.800620  1.0  1.5363
  H  H13  1  0.782700  0.738200  0.591400  1.0  0.1467
  H  H14  1  0.873500  0.615000  0.603700  1.0  0.1426
  H  H15  1  0.110700  0.905100  0.528700  1.0  0.1361
  H  H16  1  0.947400  0.946700  0.553200  1.0  0.1322
  H  H17  1  0.152200  0.688400  0.589500  1.0  0.1604
  H  H18  1  0.286400  0.850400  0.606600  1.0  0.1707
  H  H19  1  0.217300  0.761800  0.091400  1.0  0.1462
  H  H20  1  0.126500  0.885000  0.103700  1.0  0.1442
  H  H21  1  0.889300  0.594900  0.028700  1.0  0.1349
  H  H22  1  0.052600  0.553300  0.053200  1.0  0.1341
  H  H23  1  0.847800  0.811600  0.089500  1.0  0.1596
  H  H24  1  0.713600  0.649600  0.106600  1.0  0.1752
  H  H25  1  0.217300  0.261800  0.408600  1.0  0.1459
  H  H26  1  0.126500  0.385000  0.396300  1.0  0.1443
  H  H27  1  0.889300  0.094900  0.471300  1.0  0.134
  H  H28  1  0.052600  0.053300  0.446800  1.0  0.1335
  H  H29  1  0.847800  0.311600  0.410500  1.0  0.1588
  H  H30  1  0.713600  0.149600  0.393400  1.0  0.1758
  H  H31  1  0.782700  0.238200  0.908600  1.0  0.1463
  H  H32  1  0.873500  0.115000  0.896300  1.0  0.143
  H  H33  1  0.110700  0.405100  0.971300  1.0  0.1352
  H  H34  1  0.947400  0.446700  0.946800  1.0  0.1318
  H  H35  1  0.152200  0.188400  0.910500  1.0  0.1606
  H  H36  1  0.286400  0.350400  0.893400  1.0  0.1695
  C  C37  1  0.782600  0.679600  0.689580  1.0  0.7482
  C  C38  1  0.861300  0.709100  0.621000  1.0  -0.3082
  C  C39  1  0.060000  0.940400  0.566780  1.0  -0.2708
  C  C40  1  0.180900  0.095700  0.588640  1.0  0.6853
  C  C41  1  0.179900  0.771600  0.620870  1.0  -0.4771
  C  C42  1  0.569600  0.462000  0.502640  1.0  0.5809
  C  C43  1  0.217400  0.820400  0.189580  1.0  0.7471
  C  C44  1  0.138700  0.790900  0.121000  1.0  -0.3085
  C  C45  1  0.940000  0.559600  0.066780  1.0  -0.2676
  C  C46  1  0.819100  0.404300  0.088640  1.0  0.6852
  C  C47  1  0.820100  0.728400  0.120870  1.0  -0.4775
  C  C48  1  0.430400  0.038000  0.002640  1.0  0.5817
  C  C49  1  0.217400  0.320400  0.310420  1.0  0.7465
  C  C50  1  0.138700  0.290900  0.379000  1.0  -0.3153
  C  C51  1  0.940000  0.059600  0.433220  1.0  -0.2776
  C  C52  1  0.819100  0.904300  0.411360  1.0  0.685
  C  C53  1  0.820100  0.228400  0.379130  1.0  -0.4795
  C  C54  1  0.430400  0.538000  0.497360  1.0  0.5818
  C  C55  1  0.782600  0.179600  0.810420  1.0  0.748
  C  C56  1  0.861300  0.209100  0.879000  1.0  -0.3177
  C  C57  1  0.060000  0.440400  0.933220  1.0  -0.2799
  C  C58  1  0.180900  0.595700  0.911360  1.0  0.6851
  C  C59  1  0.179900  0.271600  0.879130  1.0  -0.4816
  C  C60  1  0.569600  0.962000  0.997360  1.0  0.5812
  N  N61  1  0.034100  0.832100  0.621750  1.0  0.019
  N  N62  1  0.965900  0.667900  0.121750  1.0  0.0185
  N  N63  1  0.965900  0.167900  0.378250  1.0  0.0186
  N  N64  1  0.034100  0.332100  0.878250  1.0  0.0196
  O  O65  1  0.844000  0.781200  0.733330  1.0  -0.5547
  O  O66  1  0.658300  0.559000  0.699700  1.0  -0.6872
  O  O67  1  0.204000  0.116800  0.651190  1.0  -0.7172
  O  O68  1  0.248500  0.198300  0.549300  1.0  -0.6065
  O  O69  1  0.362800  0.638100  0.689550  1.0  -0.9169
  O  O70  1  0.047800  0.570800  0.718600  1.0  -0.819
  O  O71  1  0.261000  0.835400  0.744970  1.0  -1.0019
  O  O72  1  0.593600  0.414600  0.558530  1.0  -0.6857
  O  O73  1  0.648200  0.455000  0.450950  1.0  -0.6632
  O  O74  1  0.156000  0.718800  0.233330  1.0  -0.5542
  O  O75  1  0.341700  0.941000  0.199700  1.0  -0.6872
  O  O76  1  0.796000  0.383200  0.151190  1.0  -0.7192
  O  O77  1  0.751500  0.301700  0.049300  1.0  -0.6066
  O  O78  1  0.637200  0.861900  0.189550  1.0  -0.9173
  O  O79  1  0.952200  0.929200  0.218600  1.0  -0.8188
  O  O80  1  0.739000  0.664600  0.244970  1.0  -1.0012
  O  O81  1  0.406400  0.085400  0.058530  1.0  -0.6879
  O  O82  1  0.351800  0.045000  0.950950  1.0  -0.6616
  O  O83  1  0.156000  0.218800  0.266670  1.0  -0.5554
  O  O84  1  0.341700  0.441000  0.300300  1.0  -0.6878
  O  O85  1  0.796000  0.883200  0.348810  1.0  -0.7187
  O  O86  1  0.751500  0.801700  0.450700  1.0  -0.6062
  O  O87  1  0.637200  0.361900  0.310450  1.0  -0.9182
  O  O88  1  0.952200  0.429200  0.281400  1.0  -0.8184
  O  O89  1  0.739000  0.164600  0.255030  1.0  -1.0016
  O  O90  1  0.406400  0.585400  0.441470  1.0  -0.6873
  O  O91  1  0.351800  0.545000  0.549050  1.0  -0.6633
  O  O92  1  0.844000  0.281200  0.766670  1.0  -0.5547
  O  O93  1  0.658300  0.059000  0.800300  1.0  -0.6885
  O  O94  1  0.204000  0.616800  0.848810  1.0  -0.7173
  O  O95  1  0.248500  0.698300  0.950700  1.0  -0.6069
  O  O96  1  0.362800  0.138100  0.810450  1.0  -0.9177
  O  O97  1  0.047800  0.070800  0.781400  1.0  -0.8187
  O  O98  1  0.261000  0.335400  0.755030  1.0  -1.002
  O  O99  1  0.593600  0.914600  0.941470  1.0  -0.6874
  O  O100  1  0.648200  0.955000  0.049050  1.0  -0.6646
