# generated using pymatgen
data_Cu2H40C52N6ClO14
_symmetry_space_group_name_H-M   'P 1'
_cell_length_a   13.33500000
_cell_length_b   13.33500000
_cell_length_c   18.41090000
_cell_angle_alpha   68.76770000
_cell_angle_beta   68.76770000
_cell_angle_gamma   89.99990000
_symmetry_Int_Tables_number   1
_chemical_formula_structural   Cu2H40C52N6ClO14
_chemical_formula_sum   'Cu4 H80 C104 N12 Cl2 O28'
_cell_volume   2811.89758156
_cell_formula_units_Z   2
loop_
 _symmetry_equiv_pos_site_id
 _symmetry_equiv_pos_as_xyz
  1  'x, y, z'
loop_
 _atom_site_type_symbol
 _atom_site_label
 _atom_site_symmetry_multiplicity
 _atom_site_fract_x
 _atom_site_fract_y
 _atom_site_fract_z
 _atom_site_occupancy
 _atom_site_charge
  Cu  Cu1  1  0.545560  0.545550  0.908890  1.0  0.8905
  Cu  Cu2  1  0.454450  0.454440  0.091110  1.0  0.891
  Cu  Cu3  1  0.204440  0.704450  0.591110  1.0  0.8911
  Cu  Cu4  1  0.295550  0.795550  0.408900  1.0  0.8906
  H  H5  1  0.623800  0.887700  0.859400  1.0  0.1136
  H  H6  1  0.676700  0.054000  0.859800  1.0  0.1236
  H  H7  1  0.688500  0.897000  0.087800  1.0  0.12
  H  H8  1  0.620900  0.734600  0.091800  1.0  0.111
  H  H9  1  0.811500  0.106200  0.948600  1.0  0.1226
  H  H10  1  0.713700  0.157900  0.929400  1.0  0.1288
  H  H11  1  0.548600  0.144800  0.048000  1.0  0.1025
  H  H12  1  0.477000  0.160000  0.177400  1.0  0.1398
  H  H13  1  0.752000  0.075600  0.210400  1.0  0.1312
  H  H14  1  0.819200  0.069600  0.078000  1.0  0.1282
  H  H15  1  0.516800  0.252900  0.859400  1.0  0.1136
  H  H16  1  0.463500  0.086200  0.859800  1.0  0.1233
  H  H17  1  0.223700  0.015200  0.087800  1.0  0.1205
  H  H18  1  0.287300  0.173600  0.091800  1.0  0.1106
  H  H19  1  0.239900  0.945200  0.948600  1.0  0.1218
  H  H20  1  0.356900  0.912700  0.929400  1.0  0.128
  H  H21  1  0.403400  0.807200  0.048000  1.0  0.1037
  H  H22  1  0.345600  0.662600  0.177400  1.0  0.1366
  H  H23  1  0.037600  0.714000  0.210400  1.0  0.1309
  H  H24  1  0.102800  0.852400  0.078000  1.0  0.1292
  H  H25  1  0.112300  0.483200  0.140600  1.0  0.1127
  H  H26  1  0.946000  0.536500  0.140200  1.0  0.1226
  H  H27  1  0.103000  0.776300  0.912200  1.0  0.1203
  H  H28  1  0.265400  0.712700  0.908200  1.0  0.1109
  H  H29  1  0.893800  0.760100  0.051400  1.0  0.1233
  H  H30  1  0.842100  0.643100  0.070600  1.0  0.1297
  H  H31  1  0.855200  0.596600  0.952000  1.0  0.104
  H  H32  1  0.840000  0.654400  0.822600  1.0  0.1359
  H  H33  1  0.924400  0.962400  0.789600  1.0  0.132
  H  H34  1  0.930400  0.897200  0.922000  1.0  0.128
  H  H35  1  0.747100  0.376200  0.140600  1.0  0.1129
  H  H36  1  0.913800  0.323300  0.140200  1.0  0.122
  H  H37  1  0.984800  0.311500  0.912200  1.0  0.1202
  H  H38  1  0.826400  0.379100  0.908200  1.0  0.1115
  H  H39  1  0.054800  0.188500  0.051400  1.0  0.1242
  H  H40  1  0.087300  0.286300  0.070600  1.0  0.1285
  H  H41  1  0.192800  0.451400  0.952000  1.0  0.1023
  H  H42  1  0.337400  0.523000  0.822600  1.0  0.1383
  H  H43  1  0.286000  0.248000  0.789600  1.0  0.1312
  H  H44  1  0.147600  0.180800  0.922000  1.0  0.1287
  H  H45  1  0.233200  0.362300  0.640600  1.0  0.1129
  H  H46  1  0.286500  0.196000  0.640200  1.0  0.1229
  H  H47  1  0.526300  0.353000  0.412200  1.0  0.1203
  H  H48  1  0.462700  0.515400  0.408200  1.0  0.1109
  H  H49  1  0.510100  0.143800  0.551400  1.0  0.1234
  H  H50  1  0.393100  0.092100  0.570600  1.0  0.1297
  H  H51  1  0.346600  0.105200  0.452000  1.0  0.1042
  H  H52  1  0.404400  0.090000  0.322600  1.0  0.136
  H  H53  1  0.712400  0.174400  0.289600  1.0  0.1325
  H  H54  1  0.647200  0.180400  0.422000  1.0  0.1281
  H  H55  1  0.126200  0.997100  0.640600  1.0  0.1129
  H  H56  1  0.073300  0.163800  0.640200  1.0  0.1224
  H  H57  1  0.061500  0.234800  0.412200  1.0  0.1205
  H  H58  1  0.129100  0.076400  0.408200  1.0  0.111
  H  H59  1  0.938500  0.304800  0.551400  1.0  0.1213
  H  H60  1  0.036300  0.337300  0.570600  1.0  0.1304
  H  H61  1  0.201400  0.442800  0.452000  1.0  0.1023
  H  H62  1  0.273000  0.587400  0.322600  1.0  0.1379
  H  H63  1  0.998000  0.536000  0.289600  1.0  0.1314
  H  H64  1  0.930800  0.397600  0.422000  1.0  0.1302
  H  H65  1  0.002900  0.766800  0.359400  1.0  0.114
  H  H66  1  0.836200  0.713500  0.359800  1.0  0.1233
  H  H67  1  0.765200  0.473700  0.587800  1.0  0.1206
  H  H68  1  0.923600  0.537300  0.591800  1.0  0.1103
  H  H69  1  0.695200  0.489900  0.448600  1.0  0.1218
  H  H70  1  0.662700  0.606900  0.429400  1.0  0.1282
  H  H71  1  0.557200  0.653400  0.548000  1.0  0.1032
  H  H72  1  0.412600  0.595600  0.677400  1.0  0.1368
  H  H73  1  0.464000  0.287600  0.710400  1.0  0.131
  H  H74  1  0.602400  0.352800  0.578000  1.0  0.1271
  H  H75  1  0.637700  0.873800  0.359400  1.0  0.1136
  H  H76  1  0.804000  0.926700  0.359800  1.0  0.1233
  H  H77  1  0.647000  0.938500  0.587800  1.0  0.1211
  H  H78  1  0.484600  0.870900  0.591800  1.0  0.1116
  H  H79  1  0.856200  0.061500  0.448600  1.0  0.1246
  H  H80  1  0.907900  0.963700  0.429400  1.0  0.1282
  H  H81  1  0.894800  0.798600  0.548000  1.0  0.1022
  H  H82  1  0.910000  0.727000  0.677400  1.0  0.137
  H  H83  1  0.825600  0.002000  0.710400  1.0  0.1309
  H  H84  1  0.819600  0.069200  0.578000  1.0  0.1291
  C  C85  1  0.574780  0.687780  0.979040  1.0  0.6933
  C  C86  1  0.615640  0.793840  0.975920  1.0  -0.1055
  C  C87  1  0.634140  0.889740  0.906120  1.0  -0.0188
  C  C88  1  0.668240  0.989740  0.905520  1.0  -0.1269
  C  C89  1  0.689040  0.992440  0.972920  1.0  0.0907
  C  C90  1  0.673170  0.895770  0.042660  1.0  -0.0982
  C  C91  1  0.634500  0.798200  0.044200  1.0  -0.0066
  C  C92  1  0.732820  0.098620  0.969160  1.0  -0.0944
  C  C93  1  0.589500  0.132400  0.081200  1.0  0.0696
  C  C94  1  0.545900  0.140600  0.158800  1.0  -0.1144
  C  C95  1  0.606500  0.119500  0.208600  1.0  0.0463
  C  C96  1  0.710160  0.091260  0.177880  1.0  -0.1107
  C  C97  1  0.749720  0.086820  0.099160  1.0  0.0439
  C  C98  1  0.446180  0.333180  0.979040  1.0  0.6935
  C  C99  1  0.408440  0.230240  0.975920  1.0  -0.1034
  C  C100  1  0.459740  0.204140  0.906120  1.0  -0.0194
  C  C101  1  0.426240  0.104740  0.905520  1.0  -0.1286
  C  C102  1  0.338040  0.034640  0.972920  1.0  0.0894
  C  C103  1  0.284170  0.061570  0.042660  1.0  -0.0976
  C  C104  1  0.321300  0.157600  0.044200  1.0  -0.0068
  C  C105  1  0.298020  0.932220  0.969160  1.0  -0.0908
  C  C106  1  0.329300  0.786400  0.081200  1.0  0.0671
  C  C107  1  0.295300  0.700600  0.158800  1.0  -0.1112
  C  C108  1  0.184900  0.671900  0.208600  1.0  0.0455
  C  C109  1  0.111960  0.730860  0.177880  1.0  -0.1119
  C  C110  1  0.151120  0.814020  0.099160  1.0  0.0484
  C  C111  1  0.312220  0.553820  0.020960  1.0  0.6904
  C  C112  1  0.206160  0.591560  0.024080  1.0  -0.105
  C  C113  1  0.110260  0.540260  0.093880  1.0  -0.0237
  C  C114  1  0.010260  0.573760  0.094480  1.0  -0.128
  C  C115  1  0.007560  0.661960  0.027080  1.0  0.0903
  C  C116  1  0.104230  0.715830  0.957340  1.0  -0.1
  C  C117  1  0.201800  0.678700  0.955800  1.0  -0.0094
  C  C118  1  0.901380  0.701980  0.030840  1.0  -0.0942
  C  C119  1  0.867600  0.670700  0.918800  1.0  0.0703
  C  C120  1  0.859400  0.704700  0.841200  1.0  -0.1096
  C  C121  1  0.880500  0.815100  0.791400  1.0  0.0455
  C  C122  1  0.908740  0.888040  0.822120  1.0  -0.1098
  C  C123  1  0.913180  0.848880  0.900840  1.0  0.046
  C  C124  1  0.666820  0.425220  0.020960  1.0  0.6881
  C  C125  1  0.769760  0.384360  0.024080  1.0  -0.1038
  C  C126  1  0.795860  0.365860  0.093880  1.0  -0.0189
  C  C127  1  0.895260  0.331760  0.094480  1.0  -0.1267
  C  C128  1  0.965360  0.310960  0.027080  1.0  0.0899
  C  C129  1  0.938430  0.326830  0.957340  1.0  -0.0989
  C  C130  1  0.842400  0.365500  0.955800  1.0  -0.0064
  C  C131  1  0.067780  0.267180  0.030840  1.0  -0.0969
  C  C132  1  0.213600  0.410500  0.918800  1.0  0.0689
  C  C133  1  0.299400  0.454100  0.841200  1.0  -0.1123
  C  C134  1  0.328100  0.393500  0.791400  1.0  0.0464
  C  C135  1  0.269140  0.289840  0.822120  1.0  -0.1109
  C  C136  1  0.185980  0.250280  0.900840  1.0  0.0476
  C  C137  1  0.303820  0.562220  0.520960  1.0  0.6931
  C  C138  1  0.341560  0.456160  0.524080  1.0  -0.1043
  C  C139  1  0.290260  0.360260  0.593880  1.0  -0.0212
  C  C140  1  0.323760  0.260260  0.594480  1.0  -0.128
  C  C141  1  0.411960  0.257560  0.527080  1.0  0.0907
  C  C142  1  0.465830  0.354230  0.457340  1.0  -0.0996
  C  C143  1  0.428700  0.451800  0.455800  1.0  -0.0097
  C  C144  1  0.451980  0.151380  0.530840  1.0  -0.0974
  C  C145  1  0.420700  0.117600  0.418800  1.0  0.0682
  C  C146  1  0.454700  0.109400  0.341200  1.0  -0.1119
  C  C147  1  0.565100  0.130500  0.291400  1.0  0.0468
  C  C148  1  0.638040  0.158740  0.322120  1.0  -0.1117
  C  C149  1  0.598880  0.163180  0.400840  1.0  0.0453
  C  C150  1  0.175220  0.916820  0.520960  1.0  0.6923
  C  C151  1  0.134360  0.019760  0.524080  1.0  -0.1052
  C  C152  1  0.115860  0.045860  0.593880  1.0  -0.0209
  C  C153  1  0.081760  0.145260  0.594480  1.0  -0.1279
  C  C154  1  0.060960  0.215360  0.527080  1.0  0.0902
  C  C155  1  0.076830  0.188430  0.457340  1.0  -0.0982
  C  C156  1  0.115500  0.092400  0.455800  1.0  -0.0052
  C  C157  1  0.017180  0.317780  0.530840  1.0  -0.0927
  C  C158  1  0.160500  0.463600  0.418800  1.0  0.0674
  C  C159  1  0.204100  0.549400  0.341200  1.0  -0.1125
  C  C160  1  0.143500  0.578100  0.291400  1.0  0.0467
  C  C161  1  0.039840  0.519140  0.322120  1.0  -0.1096
  C  C162  1  0.000280  0.435980  0.400840  1.0  0.0472
  C  C163  1  0.083180  0.696180  0.479040  1.0  0.6912
  C  C164  1  0.980240  0.658440  0.475920  1.0  -0.102
  C  C165  1  0.954140  0.709740  0.406120  1.0  -0.0231
  C  C166  1  0.854740  0.676240  0.405520  1.0  -0.1297
  C  C167  1  0.784640  0.588040  0.472920  1.0  0.0897
  C  C168  1  0.811570  0.534170  0.542660  1.0  -0.0982
  C  C169  1  0.907600  0.571300  0.544200  1.0  -0.0081
  C  C170  1  0.682220  0.548020  0.469160  1.0  -0.0917
  C  C171  1  0.536400  0.579300  0.581200  1.0  0.0713
  C  C172  1  0.450600  0.545300  0.658800  1.0  -0.1098
  C  C173  1  0.421900  0.434900  0.708600  1.0  0.0452
  C  C174  1  0.480860  0.361960  0.677880  1.0  -0.1109
  C  C175  1  0.564020  0.401120  0.599160  1.0  0.0452
  C  C176  1  0.437780  0.824780  0.479040  1.0  0.6914
  C  C177  1  0.543840  0.865640  0.475920  1.0  -0.1045
  C  C178  1  0.639740  0.884140  0.406120  1.0  -0.0174
  C  C179  1  0.739740  0.918240  0.405520  1.0  -0.1279
  C  C180  1  0.742440  0.939040  0.472920  1.0  0.0914
  C  C181  1  0.645770  0.923170  0.542660  1.0  -0.097
  C  C182  1  0.548200  0.884500  0.544200  1.0  -0.007
  C  C183  1  0.848620  0.982820  0.469160  1.0  -0.0942
  C  C184  1  0.882400  0.839500  0.581200  1.0  0.0691
  C  C185  1  0.890600  0.795900  0.658800  1.0  -0.1108
  C  C186  1  0.869500  0.856500  0.708600  1.0  0.0445
  C  C187  1  0.841260  0.960160  0.677880  1.0  -0.1104
  C  C188  1  0.836820  0.999720  0.599160  1.0  0.0479
  N  N189  1  0.689570  0.106870  0.052860  1.0  0.0296
  N  N190  1  0.257570  0.840270  0.052860  1.0  0.0303
  N  N191  1  0.893130  0.742430  0.947140  1.0  0.0306
  N  N192  1  0.159730  0.310430  0.947140  1.0  0.0302
  N  N193  1  0.492430  0.143130  0.447140  1.0  0.031
  N  N194  1  0.060430  0.409730  0.447140  1.0  0.0309
  N  N195  1  0.590270  0.507570  0.552860  1.0  0.0309
  N  N196  1  0.856870  0.939570  0.552860  1.0  0.0298
  N  N197  1  0.634570  0.634570  0.730860  1.0  0.3231
  N  N198  1  0.365430  0.365430  0.269140  1.0  0.3238
  N  N199  1  0.115430  0.615430  0.769140  1.0  0.3238
  N  N200  1  0.384570  0.884570  0.230860  1.0  0.3231
  Cl  Cl201  1  0.000000  0.000000  0.000000  1.0  -0.46
  Cl  Cl202  1  0.750000  0.250000  0.500000  1.0  -0.46
  O  O203  1  0.593580  0.681480  0.908640  1.0  -0.5835
  O  O204  1  0.524500  0.613100  0.051200  1.0  -0.5893
  O  O205  1  0.546800  0.634500  0.774400  1.0  -0.6219
  O  O206  1  0.497780  0.409880  0.908640  1.0  -0.5795
  O  O207  1  0.424300  0.335700  0.051200  1.0  -0.589
  O  O208  1  0.678800  0.591100  0.774400  1.0  -0.6196
  O  O209  1  0.318520  0.502220  0.091360  1.0  -0.5807
  O  O210  1  0.386900  0.575700  0.948800  1.0  -0.5901
  O  O211  1  0.365500  0.321200  0.225600  1.0  -0.6198
  O  O212  1  0.590120  0.406420  0.091360  1.0  -0.5816
  O  O213  1  0.664300  0.475500  0.948800  1.0  -0.5887
  O  O214  1  0.408900  0.453200  0.225600  1.0  -0.6203
  O  O215  1  0.252220  0.568520  0.591360  1.0  -0.5809
  O  O216  1  0.325700  0.636900  0.448800  1.0  -0.5899
  O  O217  1  0.071200  0.615500  0.725600  1.0  -0.6205
  O  O218  1  0.156420  0.840120  0.591360  1.0  -0.5822
  O  O219  1  0.225500  0.914300  0.448800  1.0  -0.5899
  O  O220  1  0.203200  0.658900  0.725600  1.0  -0.621
  O  O221  1  0.159880  0.747780  0.408640  1.0  -0.5816
  O  O222  1  0.085700  0.674300  0.551200  1.0  -0.5878
  O  O223  1  0.341100  0.928800  0.274400  1.0  -0.6195
  O  O224  1  0.431480  0.843580  0.408640  1.0  -0.5825
  O  O225  1  0.363100  0.774500  0.551200  1.0  -0.5906
  O  O226  1  0.384500  0.796800  0.274400  1.0  -0.6191
  O  O227  1  0.672370  0.672370  0.655260  1.0  -0.4384
  O  O228  1  0.327630  0.327630  0.344740  1.0  -0.4393
  O  O229  1  0.077630  0.577630  0.844740  1.0  -0.4393
  O  O230  1  0.422370  0.922370  0.155260  1.0  -0.4384
