# generated using pymatgen
data_CdH24C34(NO3)2
_symmetry_space_group_name_H-M   'P 1'
_cell_length_a   9.67550000
_cell_length_b   12.26400000
_cell_length_c   28.89900000
_cell_angle_alpha   90.00000000
_cell_angle_beta   90.00000000
_cell_angle_gamma   90.00000000
_symmetry_Int_Tables_number   1
_chemical_formula_structural   CdH24C34(NO3)2
_chemical_formula_sum   'Cd4 H96 C136 N8 O24'
_cell_volume   3429.16493447
_cell_formula_units_Z   4
loop_
 _symmetry_equiv_pos_site_id
 _symmetry_equiv_pos_as_xyz
  1  'x, y, z'
loop_
 _atom_site_type_symbol
 _atom_site_label
 _atom_site_symmetry_multiplicity
 _atom_site_fract_x
 _atom_site_fract_y
 _atom_site_fract_z
 _atom_site_occupancy
 _atom_site_charge
  Cd  Cd1  1  0.500610  0.845510  0.026350  1.0  0.9981
  Cd  Cd2  1  0.500610  0.154490  0.973650  1.0  0.9986
  Cd  Cd3  1  0.000610  0.845510  0.473650  1.0  0.9988
  Cd  Cd4  1  0.000610  0.154490  0.526350  1.0  0.9979
  H  H5  1  0.737700  0.518200  0.089600  1.0  0.0976
  H  H6  1  0.794400  0.394500  0.147400  1.0  0.1157
  H  H7  1  0.578400  0.569100  0.239300  1.0  0.127
  H  H8  1  0.520300  0.690400  0.182100  1.0  0.101
  H  H9  1  0.727600  0.473600  0.290000  1.0  0.0735
  H  H10  1  0.588900  0.410100  0.280200  1.0  0.071
  H  H11  1  0.700800  0.048700  0.320100  1.0  0.1067
  H  H12  1  0.903700  0.070700  0.361700  1.0  0.0981
  H  H13  1  0.008300  0.237300  0.366100  1.0  0.104
  H  H14  1  0.904700  0.388100  0.332400  1.0  0.091
  H  H15  1  0.580400  0.183200  0.237900  1.0  0.1041
  H  H16  1  0.494600  0.251100  0.273700  1.0  0.0632
  H  H17  1  0.460800  0.236100  0.350300  1.0  0.1184
  H  H18  1  0.301900  0.954300  0.304400  1.0  0.1326
  H  H19  1  0.325800  0.222500  0.416200  1.0  0.0834
  H  H20  1  0.160100  0.945700  0.368800  1.0  0.0984
  H  H21  1  0.535100  0.631900  0.956200  1.0  0.0827
  H  H22  1  0.408400  0.496500  0.920900  1.0  0.1098
  H  H23  1  0.171000  0.493100  0.929500  1.0  0.1279
  H  H24  1  0.957500  0.579600  0.963400  1.0  0.1092
  H  H25  1  0.860000  0.710600  0.006200  1.0  0.1133
  H  H26  1  0.887600  0.884200  0.053300  1.0  0.1039
  H  H27  1  0.027400  0.017900  0.083000  1.0  0.1121
  H  H28  1  0.264400  0.006500  0.070700  1.0  0.078
  H  H29  1  0.737700  0.481800  0.910400  1.0  0.0974
  H  H30  1  0.794400  0.605500  0.852600  1.0  0.1158
  H  H31  1  0.578400  0.430900  0.760700  1.0  0.1266
  H  H32  1  0.520300  0.309600  0.817900  1.0  0.1002
  H  H33  1  0.727600  0.526400  0.710000  1.0  0.0753
  H  H34  1  0.588900  0.589900  0.719800  1.0  0.0708
  H  H35  1  0.700800  0.951300  0.679900  1.0  0.1064
  H  H36  1  0.903700  0.929300  0.638300  1.0  0.098
  H  H37  1  0.008300  0.762700  0.633900  1.0  0.1035
  H  H38  1  0.904700  0.611900  0.667600  1.0  0.0913
  H  H39  1  0.580400  0.816800  0.762100  1.0  0.1066
  H  H40  1  0.494600  0.748900  0.726300  1.0  0.0626
  H  H41  1  0.460800  0.763900  0.649700  1.0  0.118
  H  H42  1  0.301900  0.045700  0.695600  1.0  0.1331
  H  H43  1  0.325800  0.777500  0.583800  1.0  0.0833
  H  H44  1  0.160100  0.054300  0.631200  1.0  0.0985
  H  H45  1  0.535100  0.368100  0.043800  1.0  0.0826
  H  H46  1  0.408400  0.503500  0.079100  1.0  0.1095
  H  H47  1  0.171000  0.506900  0.070500  1.0  0.1275
  H  H48  1  0.957500  0.420400  0.036600  1.0  0.1093
  H  H49  1  0.860000  0.289400  0.993800  1.0  0.1137
  H  H50  1  0.887600  0.115800  0.946700  1.0  0.1037
  H  H51  1  0.027400  0.982100  0.917000  1.0  0.1123
  H  H52  1  0.264400  0.993500  0.929300  1.0  0.0787
  H  H53  1  0.237700  0.518200  0.410400  1.0  0.0971
  H  H54  1  0.294400  0.394500  0.352600  1.0  0.1154
  H  H55  1  0.078400  0.569100  0.260700  1.0  0.1276
  H  H56  1  0.020300  0.690400  0.317900  1.0  0.101
  H  H57  1  0.227600  0.473600  0.210000  1.0  0.0738
  H  H58  1  0.088900  0.410100  0.219800  1.0  0.0713
  H  H59  1  0.200800  0.048700  0.179900  1.0  0.1067
  H  H60  1  0.403700  0.070700  0.138300  1.0  0.0979
  H  H61  1  0.508300  0.237300  0.133900  1.0  0.1032
  H  H62  1  0.404700  0.388100  0.167600  1.0  0.091
  H  H63  1  0.080400  0.183200  0.262100  1.0  0.1084
  H  H64  1  0.994600  0.251100  0.226300  1.0  0.0625
  H  H65  1  0.960800  0.236100  0.149700  1.0  0.119
  H  H66  1  0.801900  0.954300  0.195600  1.0  0.1336
  H  H67  1  0.825800  0.222500  0.083800  1.0  0.0835
  H  H68  1  0.660100  0.945700  0.131200  1.0  0.0986
  H  H69  1  0.035100  0.631900  0.543800  1.0  0.0825
  H  H70  1  0.908400  0.496500  0.579100  1.0  0.1102
  H  H71  1  0.671000  0.493100  0.570500  1.0  0.1279
  H  H72  1  0.457500  0.579600  0.536600  1.0  0.1092
  H  H73  1  0.360000  0.710600  0.493800  1.0  0.1135
  H  H74  1  0.387600  0.884200  0.446700  1.0  0.1036
  H  H75  1  0.527400  0.017900  0.417000  1.0  0.1125
  H  H76  1  0.764400  0.006500  0.429300  1.0  0.0782
  H  H77  1  0.237700  0.481800  0.589600  1.0  0.0974
  H  H78  1  0.294400  0.605500  0.647400  1.0  0.1156
  H  H79  1  0.078400  0.430900  0.739300  1.0  0.1267
  H  H80  1  0.020300  0.309600  0.682100  1.0  0.1004
  H  H81  1  0.227600  0.526400  0.790000  1.0  0.0759
  H  H82  1  0.088900  0.589900  0.780200  1.0  0.0709
  H  H83  1  0.200800  0.951300  0.820100  1.0  0.1064
  H  H84  1  0.403700  0.929300  0.861700  1.0  0.0982
  H  H85  1  0.508300  0.762700  0.866100  1.0  0.1043
  H  H86  1  0.404700  0.611900  0.832400  1.0  0.0917
  H  H87  1  0.080400  0.816800  0.737900  1.0  0.1028
  H  H88  1  0.994600  0.748900  0.773700  1.0  0.0632
  H  H89  1  0.960800  0.763900  0.850300  1.0  0.1182
  H  H90  1  0.801900  0.045700  0.804400  1.0  0.1333
  H  H91  1  0.825800  0.777500  0.916200  1.0  0.0836
  H  H92  1  0.660100  0.054300  0.868800  1.0  0.0985
  H  H93  1  0.035100  0.368100  0.456200  1.0  0.0827
  H  H94  1  0.908400  0.503500  0.420900  1.0  0.1095
  H  H95  1  0.671000  0.506900  0.429500  1.0  0.1281
  H  H96  1  0.457500  0.420400  0.463400  1.0  0.1097
  H  H97  1  0.360000  0.289400  0.506200  1.0  0.1133
  H  H98  1  0.387600  0.115800  0.553300  1.0  0.1037
  H  H99  1  0.527400  0.982100  0.583000  1.0  0.1124
  H  H100  1  0.764400  0.993500  0.570700  1.0  0.0783
  C  C101  1  0.585900  0.698100  0.093090  1.0  0.658
  C  C102  1  0.622700  0.619300  0.129650  1.0  -0.1982
  C  C103  1  0.705200  0.528800  0.119570  1.0  -0.0052
  C  C104  1  0.739100  0.454400  0.154220  1.0  -0.2462
  C  C105  1  0.690500  0.469400  0.198750  1.0  0.2968
  C  C106  1  0.609900  0.558300  0.209210  1.0  -0.2897
  C  C107  1  0.576200  0.631100  0.174840  1.0  0.0081
  C  C108  1  0.688800  0.406900  0.277540  1.0  0.0846
  C  C109  1  0.746000  0.307300  0.302910  1.0  -0.0341
  C  C110  1  0.682700  0.204800  0.299090  1.0  -0.009
  C  C111  1  0.742300  0.117000  0.321700  1.0  -0.1154
  C  C112  1  0.864200  0.130400  0.346850  1.0  -0.0682
  C  C113  1  0.925800  0.229600  0.349960  1.0  -0.0864
  C  C114  1  0.865100  0.319400  0.329000  1.0  -0.1131
  C  C115  1  0.553900  0.187900  0.270250  1.0  0.0889
  C  C116  1  0.396200  0.095700  0.321230  1.0  0.3017
  C  C117  1  0.402100  0.176800  0.354230  1.0  -0.2534
  C  C118  1  0.306000  0.008900  0.326650  1.0  -0.2434
  C  C119  1  0.319400  0.169100  0.393420  1.0  0.0116
  C  C120  1  0.221400  0.003600  0.365500  1.0  -0.0041
  C  C121  1  0.227400  0.083500  0.399290  1.0  -0.2073
  C  C122  1  0.137400  0.079300  0.441470  1.0  0.674
  C  C123  1  0.439400  0.632400  0.959200  1.0  0.1803
  C  C124  1  0.363800  0.550100  0.938100  1.0  -0.1504
  C  C125  1  0.223000  0.548600  0.942800  1.0  -0.037
  C  C126  1  0.159000  0.631200  0.967930  1.0  -0.005
  C  C127  1  0.013000  0.633800  0.976090  1.0  -0.1199
  C  C128  1  0.955000  0.711800  0.001400  1.0  -0.0834
  C  C129  1  0.035200  0.797400  0.021510  1.0  -0.0172
  C  C130  1  0.982300  0.881600  0.047800  1.0  -1e-04
  C  C131  1  0.064600  0.960800  0.065800  1.0  -0.1709
  C  C132  1  0.206900  0.953900  0.057880  1.0  0.1913
  C  C133  1  0.180500  0.798100  0.014640  1.0  0.1506
  C  C134  1  0.242400  0.711900  0.987790  1.0  0.1493
  C  C135  1  0.585900  0.301900  0.906910  1.0  0.6595
  C  C136  1  0.622700  0.380700  0.870350  1.0  -0.1997
  C  C137  1  0.705200  0.471200  0.880430  1.0  -0.0051
  C  C138  1  0.739100  0.545600  0.845780  1.0  -0.2464
  C  C139  1  0.690500  0.530600  0.801250  1.0  0.2962
  C  C140  1  0.609900  0.441700  0.790790  1.0  -0.2897
  C  C141  1  0.576200  0.368900  0.825160  1.0  0.0084
  C  C142  1  0.688800  0.593100  0.722460  1.0  0.0896
  C  C143  1  0.746000  0.692700  0.697090  1.0  -0.0344
  C  C144  1  0.682700  0.795200  0.700910  1.0  -0.0087
  C  C145  1  0.742300  0.883000  0.678300  1.0  -0.1155
  C  C146  1  0.864200  0.869600  0.653150  1.0  -0.0674
  C  C147  1  0.925800  0.770400  0.650040  1.0  -0.0873
  C  C148  1  0.865100  0.680600  0.671000  1.0  -0.1123
  C  C149  1  0.553900  0.812100  0.729750  1.0  0.0905
  C  C150  1  0.396200  0.904300  0.678770  1.0  0.3013
  C  C151  1  0.402100  0.823200  0.645770  1.0  -0.2552
  C  C152  1  0.306000  0.991100  0.673350  1.0  -0.2427
  C  C153  1  0.319400  0.830900  0.606580  1.0  0.0129
  C  C154  1  0.221400  0.996400  0.634500  1.0  -0.0034
  C  C155  1  0.227400  0.916500  0.600710  1.0  -0.2065
  C  C156  1  0.137400  0.920700  0.558530  1.0  0.6737
  C  C157  1  0.439400  0.367600  0.040800  1.0  0.1796
  C  C158  1  0.363800  0.449900  0.061900  1.0  -0.1508
  C  C159  1  0.223000  0.451400  0.057200  1.0  -0.0369
  C  C160  1  0.159000  0.368800  0.032070  1.0  -0.0049
  C  C161  1  0.013000  0.366200  0.023910  1.0  -0.1192
  C  C162  1  0.955000  0.288200  0.998600  1.0  -0.0856
  C  C163  1  0.035200  0.202600  0.978490  1.0  -0.0173
  C  C164  1  0.982300  0.118400  0.952200  1.0  -0.0005
  C  C165  1  0.064600  0.039200  0.934200  1.0  -0.1702
  C  C166  1  0.206900  0.046100  0.942120  1.0  0.191
  C  C167  1  0.180500  0.201900  0.985360  1.0  0.1505
  C  C168  1  0.242400  0.288100  0.012210  1.0  0.1494
  C  C169  1  0.085900  0.698100  0.406910  1.0  0.659
  C  C170  1  0.122700  0.619300  0.370350  1.0  -0.1979
  C  C171  1  0.205200  0.528800  0.380430  1.0  -0.0058
  C  C172  1  0.239100  0.454400  0.345780  1.0  -0.2465
  C  C173  1  0.190500  0.469400  0.301250  1.0  0.2969
  C  C174  1  0.109900  0.558300  0.290790  1.0  -0.2892
  C  C175  1  0.076200  0.631100  0.325160  1.0  0.0078
  C  C176  1  0.188800  0.406900  0.222460  1.0  0.0847
  C  C177  1  0.246000  0.307300  0.197090  1.0  -0.034
  C  C178  1  0.182700  0.204800  0.200910  1.0  -0.0092
  C  C179  1  0.242300  0.117000  0.178300  1.0  -0.1157
  C  C180  1  0.364200  0.130400  0.153150  1.0  -0.0682
  C  C181  1  0.425800  0.229600  0.150040  1.0  -0.087
  C  C182  1  0.365100  0.319400  0.171000  1.0  -0.1126
  C  C183  1  0.053900  0.187900  0.229750  1.0  0.0913
  C  C184  1  0.896200  0.095700  0.178770  1.0  0.3015
  C  C185  1  0.902100  0.176800  0.145770  1.0  -0.2532
  C  C186  1  0.806000  0.008900  0.173350  1.0  -0.2441
  C  C187  1  0.819400  0.169100  0.106580  1.0  0.012
  C  C188  1  0.721400  0.003600  0.134500  1.0  -0.0019
  C  C189  1  0.727400  0.083500  0.100710  1.0  -0.2071
  C  C190  1  0.637400  0.079300  0.058530  1.0  0.6735
  C  C191  1  0.939400  0.632400  0.540800  1.0  0.18
  C  C192  1  0.863800  0.550100  0.561900  1.0  -0.1507
  C  C193  1  0.723000  0.548600  0.557200  1.0  -0.0376
  C  C194  1  0.659000  0.631200  0.532070  1.0  -0.0056
  C  C195  1  0.513000  0.633800  0.523910  1.0  -0.1192
  C  C196  1  0.455000  0.711800  0.498600  1.0  -0.085
  C  C197  1  0.535200  0.797400  0.478490  1.0  -0.0176
  C  C198  1  0.482300  0.881600  0.452200  1.0  1e-04
  C  C199  1  0.564600  0.960800  0.434200  1.0  -0.1707
  C  C200  1  0.706900  0.953900  0.442120  1.0  0.1906
  C  C201  1  0.680500  0.798100  0.485360  1.0  0.1504
  C  C202  1  0.742400  0.711900  0.512210  1.0  0.1491
  C  C203  1  0.085900  0.301900  0.593090  1.0  0.6583
  C  C204  1  0.122700  0.380700  0.629650  1.0  -0.2002
  C  C205  1  0.205200  0.471200  0.619570  1.0  -0.0047
  C  C206  1  0.239100  0.545600  0.654220  1.0  -0.2466
  C  C207  1  0.190500  0.530600  0.698750  1.0  0.2962
  C  C208  1  0.109900  0.441700  0.709210  1.0  -0.2903
  C  C209  1  0.076200  0.368900  0.674840  1.0  0.0091
  C  C210  1  0.188800  0.593100  0.777540  1.0  0.0897
  C  C211  1  0.246000  0.692700  0.802910  1.0  -0.0338
  C  C212  1  0.182700  0.795200  0.799090  1.0  -0.0086
  C  C213  1  0.242300  0.883000  0.821700  1.0  -0.1156
  C  C214  1  0.364200  0.869600  0.846850  1.0  -0.0673
  C  C215  1  0.425800  0.770400  0.849960  1.0  -0.0869
  C  C216  1  0.365100  0.680600  0.829000  1.0  -0.1127
  C  C217  1  0.053900  0.812100  0.770250  1.0  0.0896
  C  C218  1  0.896200  0.904300  0.821230  1.0  0.3018
  C  C219  1  0.902100  0.823200  0.854230  1.0  -0.2551
  C  C220  1  0.806000  0.991100  0.826650  1.0  -0.243
  C  C221  1  0.819400  0.830900  0.893420  1.0  0.0114
  C  C222  1  0.721400  0.996400  0.865500  1.0  -0.0047
  C  C223  1  0.727400  0.916500  0.899290  1.0  -0.2072
  C  C224  1  0.637400  0.920700  0.941470  1.0  0.6736
  C  C225  1  0.939400  0.367600  0.459200  1.0  0.1799
  C  C226  1  0.863800  0.449900  0.438100  1.0  -0.1507
  C  C227  1  0.723000  0.451400  0.442800  1.0  -0.0373
  C  C228  1  0.659000  0.368800  0.467930  1.0  -0.0048
  C  C229  1  0.513000  0.366200  0.476090  1.0  -0.1196
  C  C230  1  0.455000  0.288200  0.501400  1.0  -0.0839
  C  C231  1  0.535200  0.202600  0.521510  1.0  -0.0173
  C  C232  1  0.482300  0.118400  0.547800  1.0  -0.0006
  C  C233  1  0.564600  0.039200  0.565800  1.0  -0.1706
  C  C234  1  0.706900  0.046100  0.557880  1.0  0.1914
  C  C235  1  0.680500  0.201900  0.514640  1.0  0.1506
  C  C236  1  0.742400  0.288100  0.487790  1.0  0.1496
  N  N237  1  0.381400  0.711300  0.983310  1.0  -0.3549
  N  N238  1  0.262900  0.875200  0.032740  1.0  -0.3497
  N  N239  1  0.381400  0.288700  0.016690  1.0  -0.3528
  N  N240  1  0.262900  0.124800  0.967260  1.0  -0.3501
  N  N241  1  0.881400  0.711300  0.516690  1.0  -0.3542
  N  N242  1  0.762900  0.875200  0.467260  1.0  -0.3498
  N  N243  1  0.881400  0.288700  0.483310  1.0  -0.3523
  N  N244  1  0.762900  0.124800  0.532740  1.0  -0.3499
  O  O245  1  0.162600  0.147400  0.472790  1.0  -0.5818
  O  O246  1  0.639200  0.688500  0.053970  1.0  -0.6302
  O  O247  1  0.037600  0.013600  0.442960  1.0  -0.6526
  O  O248  1  0.498800  0.772000  0.100990  1.0  -0.6294
  O  O249  1  0.730100  0.391800  0.229910  1.0  -0.2836
  O  O250  1  0.477500  0.093400  0.282060  1.0  -0.282
  O  O251  1  0.162600  0.852600  0.527210  1.0  -0.5826
  O  O252  1  0.639200  0.311500  0.946030  1.0  -0.6301
  O  O253  1  0.037600  0.986400  0.557040  1.0  -0.6523
  O  O254  1  0.498800  0.228000  0.899010  1.0  -0.6292
  O  O255  1  0.730100  0.608200  0.770090  1.0  -0.2826
  O  O256  1  0.477500  0.906600  0.717940  1.0  -0.2823
  O  O257  1  0.662600  0.147400  0.027210  1.0  -0.5816
  O  O258  1  0.139200  0.688500  0.446030  1.0  -0.6301
  O  O259  1  0.537600  0.013600  0.057040  1.0  -0.6532
  O  O260  1  0.998800  0.772000  0.399010  1.0  -0.6292
  O  O261  1  0.230100  0.391800  0.270090  1.0  -0.2836
  O  O262  1  0.977500  0.093400  0.217940  1.0  -0.2826
  O  O263  1  0.662600  0.852600  0.972790  1.0  -0.5822
  O  O264  1  0.139200  0.311500  0.553970  1.0  -0.63
  O  O265  1  0.537600  0.986400  0.942960  1.0  -0.652
  O  O266  1  0.998800  0.228000  0.600990  1.0  -0.629
  O  O267  1  0.230100  0.608200  0.729910  1.0  -0.2832
  O  O268  1  0.977500  0.906600  0.782060  1.0  -0.2832
