# generated using pymatgen
data_InH6C8NO5
_symmetry_space_group_name_H-M   'P 1'
_cell_length_a   8.11600000
_cell_length_b   17.19460000
_cell_length_c   17.19460000
_cell_angle_alpha   62.42770000
_cell_angle_beta   80.94760000
_cell_angle_gamma   99.05240000
_symmetry_Int_Tables_number   1
_chemical_formula_structural   InH6C8NO5
_chemical_formula_sum   'In6 H36 C48 N6 O30'
_cell_volume   2026.61107588
_cell_formula_units_Z   6
loop_
 _symmetry_equiv_pos_site_id
 _symmetry_equiv_pos_as_xyz
  1  'x, y, z'
loop_
 _atom_site_type_symbol
 _atom_site_label
 _atom_site_symmetry_multiplicity
 _atom_site_fract_x
 _atom_site_fract_y
 _atom_site_fract_z
 _atom_site_occupancy
 _atom_site_charge
  In  In1  1  0.075950  0.299990  0.268690  1.0  1.5561
  In  In2  1  0.344640  0.268690  0.431320  1.0  1.5583
  In  In3  1  0.775960  0.431320  0.299990  1.0  1.5562
  In  In4  1  0.924050  0.700010  0.731310  1.0  1.5558
  In  In5  1  0.655360  0.731310  0.568680  1.0  1.5558
  In  In6  1  0.224040  0.568680  0.700010  1.0  1.5572
  H  H7  1  0.943800  0.728500  0.862900  1.0  0.2721
  H  H8  1  0.099100  0.801300  0.798000  1.0  0.3514
  H  H9  1  0.751500  0.261800  0.366700  1.0  0.3702
  H  H10  1  0.377500  0.550500  0.032900  1.0  0.1132
  H  H11  1  0.366500  0.743900  0.786500  1.0  0.1221
  H  H12  1  0.934200  0.617000  0.991700  1.0  0.1223
  H  H13  1  0.806700  0.862900  0.408600  1.0  0.2705
  H  H14  1  0.897100  0.798000  0.400700  1.0  0.347
  H  H15  1  0.118200  0.366700  0.371500  1.0  0.3702
  H  H16  1  0.410400  0.032900  0.416600  1.0  0.1128
  H  H17  1  0.153000  0.786500  0.469600  1.0  0.1235
  H  H18  1  0.925900  0.991700  0.391300  1.0  0.1231
  H  H19  1  0.215300  0.408600  0.728500  1.0  0.2699
  H  H20  1  0.297800  0.400700  0.801300  1.0  0.354
  H  H21  1  0.489700  0.371500  0.261800  1.0  0.3699
  H  H22  1  0.827000  0.416600  0.550500  1.0  0.1137
  H  H23  1  0.622600  0.469600  0.743900  1.0  0.1222
  H  H24  1  0.317200  0.391300  0.617000  1.0  0.1222
  H  H25  1  0.056200  0.271500  0.137100  1.0  0.2687
  H  H26  1  0.900900  0.198700  0.202000  1.0  0.3496
  H  H27  1  0.248500  0.738200  0.633300  1.0  0.3698
  H  H28  1  0.622500  0.449500  0.967100  1.0  0.1132
  H  H29  1  0.633500  0.256100  0.213500  1.0  0.1227
  H  H30  1  0.065800  0.383000  0.008300  1.0  0.1236
  H  H31  1  0.193300  0.137100  0.591400  1.0  0.2671
  H  H32  1  0.102900  0.202000  0.599300  1.0  0.3461
  H  H33  1  0.881800  0.633300  0.628500  1.0  0.3699
  H  H34  1  0.589600  0.967100  0.583400  1.0  0.1134
  H  H35  1  0.847000  0.213500  0.530400  1.0  0.1232
  H  H36  1  0.074100  0.008300  0.608700  1.0  0.1227
  H  H37  1  0.784700  0.591400  0.271500  1.0  0.268
  H  H38  1  0.702200  0.599300  0.198700  1.0  0.3536
  H  H39  1  0.510300  0.628500  0.738200  1.0  0.3701
  H  H40  1  0.173000  0.583400  0.449500  1.0  0.1128
  H  H41  1  0.377400  0.530400  0.256100  1.0  0.1219
  H  H42  1  0.682800  0.608700  0.383000  1.0  0.1224
  C  C43  1  0.050220  0.498140  0.122080  1.0  0.7156
  C  C44  1  0.141940  0.570680  0.026260  1.0  -0.1573
  C  C45  1  0.316850  0.585050  0.994400  1.0  -0.0063
  C  C46  1  0.402830  0.650230  0.905740  1.0  -0.106
  C  C47  1  0.595700  0.668600  0.873800  1.0  0.695
  C  C48  1  0.310930  0.701930  0.847040  1.0  -0.1458
  C  C49  1  0.136800  0.689310  0.880710  1.0  0.1979
  C  C50  1  0.051160  0.624560  0.969680  1.0  -0.1646
  C  C51  1  0.172300  0.122080  0.379780  1.0  0.7168
  C  C52  1  0.168200  0.026260  0.403060  1.0  -0.1583
  C  C53  1  0.311250  0.994400  0.420550  1.0  -0.0025
  C  C54  1  0.308570  0.905740  0.444030  1.0  -0.1067
  C  C55  1  0.469500  0.873800  0.457600  1.0  0.695
  C  C56  1  0.157970  0.847040  0.451030  1.0  -0.1465
  C  C57  1  0.017510  0.880710  0.429980  1.0  0.2016
  C  C58  1  0.020840  0.969680  0.405760  1.0  -0.1633
  C  C59  1  0.552080  0.379780  0.498140  1.0  0.718
  C  C60  1  0.571260  0.403060  0.570680  1.0  -0.1573
  C  C61  1  0.731800  0.420550  0.585050  1.0  -0.0035
  C  C62  1  0.752600  0.444030  0.650230  1.0  -0.107
  C  C63  1  0.927100  0.457600  0.668600  1.0  0.6957
  C  C64  1  0.609000  0.451030  0.701930  1.0  -0.1463
  C  C65  1  0.447490  0.429980  0.689310  1.0  0.2001
  C  C66  1  0.426600  0.405760  0.624560  1.0  -0.1611
  C  C67  1  0.949780  0.501860  0.877920  1.0  0.7161
  C  C68  1  0.858060  0.429320  0.973740  1.0  -0.1565
  C  C69  1  0.683150  0.414950  0.005600  1.0  -0.0063
  C  C70  1  0.597170  0.349770  0.094260  1.0  -0.1076
  C  C71  1  0.404300  0.331400  0.126200  1.0  0.694
  C  C72  1  0.689070  0.298070  0.152960  1.0  -0.1468
  C  C73  1  0.863200  0.310690  0.119290  1.0  0.1967
  C  C74  1  0.948840  0.375440  0.030320  1.0  -0.164
  C  C75  1  0.827700  0.877920  0.620220  1.0  0.7146
  C  C76  1  0.831800  0.973740  0.596940  1.0  -0.1604
  C  C77  1  0.688750  0.005600  0.579450  1.0  -0.0037
  C  C78  1  0.691430  0.094260  0.555970  1.0  -0.1071
  C  C79  1  0.530500  0.126200  0.542400  1.0  0.6952
  C  C80  1  0.842030  0.152960  0.548970  1.0  -0.149
  C  C81  1  0.982490  0.119290  0.570020  1.0  0.2034
  C  C82  1  0.979160  0.030320  0.594240  1.0  -0.1639
  C  C83  1  0.447920  0.620220  0.501860  1.0  0.718
  C  C84  1  0.428740  0.596940  0.429320  1.0  -0.1584
  C  C85  1  0.268200  0.579450  0.414950  1.0  -0.0058
  C  C86  1  0.247400  0.555970  0.349770  1.0  -0.1076
  C  C87  1  0.072900  0.542400  0.331400  1.0  0.6952
  C  C88  1  0.391000  0.548970  0.298070  1.0  -0.1466
  C  C89  1  0.552510  0.570020  0.310690  1.0  0.1997
  C  C90  1  0.573400  0.594240  0.375440  1.0  -0.1595
  N  N91  1  0.041540  0.744680  0.821660  1.0  -0.6215
  N  N92  1  0.863200  0.821660  0.433660  1.0  -0.62
  N  N93  1  0.296860  0.433660  0.744680  1.0  -0.6111
  N  N94  1  0.958460  0.255320  0.178340  1.0  -0.6196
  N  N95  1  0.136800  0.178340  0.566340  1.0  -0.619
  N  N96  1  0.703140  0.566340  0.255320  1.0  -0.6205
  O  O97  1  0.130500  0.441380  0.164080  1.0  -0.6142
  O  O98  1  0.898870  0.498750  0.155840  1.0  -0.5898
  O  O99  1  0.655540  0.683200  0.793780  1.0  -0.588
  O  O100  1  0.684660  0.668060  0.925580  1.0  -0.5526
  O  O101  1  0.832450  0.308680  0.321030  1.0  -0.9752
  O  O102  1  0.294580  0.164080  0.394540  1.0  -0.6146
  O  O103  1  0.054710  0.155840  0.345410  1.0  -0.5892
  O  O104  1  0.449320  0.793780  0.523020  1.0  -0.5874
  O  O105  1  0.610240  0.925580  0.406360  1.0  -0.5511
  O  O106  1  0.153480  0.321030  0.370290  1.0  -0.9739
  O  O107  1  0.689120  0.394540  0.441380  1.0  -0.6133
  O  O108  1  0.400120  0.345410  0.498750  1.0  -0.5887
  O  O109  1  0.972340  0.523020  0.683200  1.0  -0.5875
  O  O110  1  0.016600  0.406360  0.668060  1.0  -0.553
  O  O111  1  0.523770  0.370290  0.308680  1.0  -0.9743
  O  O112  1  0.869500  0.558620  0.835920  1.0  -0.615
  O  O113  1  0.101130  0.501250  0.844160  1.0  -0.5895
  O  O114  1  0.344460  0.316800  0.206220  1.0  -0.5883
  O  O115  1  0.315340  0.331940  0.074420  1.0  -0.5541
  O  O116  1  0.167550  0.691320  0.678970  1.0  -0.9737
  O  O117  1  0.705420  0.835920  0.605460  1.0  -0.6146
  O  O118  1  0.945290  0.844160  0.654590  1.0  -0.5908
  O  O119  1  0.550680  0.206220  0.476980  1.0  -0.5877
  O  O120  1  0.389760  0.074420  0.593640  1.0  -0.5478
  O  O121  1  0.846520  0.678970  0.629710  1.0  -0.9757
  O  O122  1  0.310880  0.605460  0.558620  1.0  -0.6131
  O  O123  1  0.599880  0.654590  0.501250  1.0  -0.5896
  O  O124  1  0.027660  0.476980  0.316800  1.0  -0.5881
  O  O125  1  0.983400  0.593640  0.331940  1.0  -0.5531
  O  O126  1  0.476230  0.629710  0.691320  1.0  -0.9758
