# generated using pymatgen
data_Mn3H8(C6O5)4
_symmetry_space_group_name_H-M   'P 1'
_cell_length_a   9.44910000
_cell_length_b   10.07620000
_cell_length_c   11.57630000
_cell_angle_alpha   73.09300000
_cell_angle_beta   89.59700000
_cell_angle_gamma   80.09700000
_symmetry_Int_Tables_number   1
_chemical_formula_structural   Mn3H8(C6O5)4
_chemical_formula_sum   'Mn3 H8 C24 O20'
_cell_volume   1037.75925268
_cell_formula_units_Z   1
loop_
 _symmetry_equiv_pos_site_id
 _symmetry_equiv_pos_as_xyz
  1  'x, y, z'
loop_
 _atom_site_type_symbol
 _atom_site_label
 _atom_site_symmetry_multiplicity
 _atom_site_fract_x
 _atom_site_fract_y
 _atom_site_fract_z
 _atom_site_occupancy
 _atom_site_charge
  Mn  Mn1  1  0.009470  0.089320  0.167860  1.0  1.1913
  Mn  Mn2  1  0.990530  0.910680  0.832140  1.0  1.192
  Mn  Mn3  1  0.000000  0.000000  0.500000  1.0  1.2001
  H  H4  1  0.123400  0.445700  0.471900  1.0  0.1387
  H  H5  1  0.123100  0.707100  0.366600  1.0  0.1369
  H  H6  1  0.265200  0.190300  0.496800  1.0  0.1343
  H  H7  1  0.526400  0.215700  0.463600  1.0  0.1532
  H  H8  1  0.876600  0.554300  0.528100  1.0  0.1374
  H  H9  1  0.876900  0.292900  0.633400  1.0  0.1376
  H  H10  1  0.734800  0.809700  0.503200  1.0  0.1355
  H  H11  1  0.473600  0.784300  0.536400  1.0  0.1531
  C  C12  1  0.019000  0.301200  0.311100  1.0  0.7388
  C  C13  1  0.049300  0.442000  0.306200  1.0  0.0509
  C  C14  1  0.096000  0.495300  0.389800  1.0  -0.1562
  C  C15  1  0.096200  0.640700  0.331000  1.0  -0.1392
  C  C16  1  0.051300  0.665800  0.215600  1.0  0.0462
  C  C17  1  0.034500  0.790900  0.109500  1.0  0.7436
  C  C18  1  0.223500  0.986400  0.724900  1.0  0.6929
  C  C19  1  0.344100  0.045600  0.658000  1.0  0.0963
  C  C20  1  0.345600  0.141500  0.550300  1.0  -0.0737
  C  C21  1  0.490600  0.155200  0.532300  1.0  -0.0664
  C  C22  1  0.569100  0.067700  0.629100  1.0  0.0766
  C  C23  1  0.727100  0.030000  0.656500  1.0  0.7089
  C  C24  1  0.981000  0.698800  0.688900  1.0  0.739
  C  C25  1  0.950700  0.558000  0.693800  1.0  0.0507
  C  C26  1  0.904000  0.504700  0.610200  1.0  -0.1565
  C  C27  1  0.903800  0.359300  0.669000  1.0  -0.1384
  C  C28  1  0.948700  0.334200  0.784400  1.0  0.048
  C  C29  1  0.965500  0.209100  0.890500  1.0  0.7441
  C  C30  1  0.776500  0.013600  0.275100  1.0  0.6943
  C  C31  1  0.655900  0.954400  0.342000  1.0  0.0953
  C  C32  1  0.654400  0.858500  0.449700  1.0  -0.0734
  C  C33  1  0.509400  0.844800  0.467700  1.0  -0.0661
  C  C34  1  0.430900  0.932300  0.370900  1.0  0.076
  C  C35  1  0.272900  0.970000  0.343500  1.0  0.7114
  O  O36  1  0.032600  0.212190  0.412330  1.0  -0.5919
  O  O37  1  0.981200  0.285000  0.212320  1.0  -0.5994
  O  O38  1  0.069700  0.898900  0.124650  1.0  -0.6602
  O  O39  1  0.991300  0.777000  0.011320  1.0  -0.5917
  O  O40  1  0.021100  0.544760  0.198140  1.0  -0.1162
  O  O41  1  0.104310  0.011800  0.665950  1.0  -0.6076
  O  O42  1  0.238100  0.918600  0.834100  1.0  -0.574
  O  O43  1  0.772000  0.950700  0.759450  1.0  -0.575
  O  O44  1  0.801250  0.082700  0.570700  1.0  -0.6262
  O  O45  1  0.480600  0.997800  0.711070  1.0  -0.1385
  O  O46  1  0.967400  0.787810  0.587670  1.0  -0.5934
  O  O47  1  0.018800  0.715000  0.787680  1.0  -0.5997
  O  O48  1  0.930300  0.101100  0.875350  1.0  -0.6589
  O  O49  1  0.008700  0.223000  0.988680  1.0  -0.5914
  O  O50  1  0.978900  0.455240  0.801860  1.0  -0.1176
  O  O51  1  0.895690  0.988200  0.334050  1.0  -0.6068
  O  O52  1  0.761900  0.081400  0.165900  1.0  -0.5706
  O  O53  1  0.228000  0.049300  0.240550  1.0  -0.5723
  O  O54  1  0.198750  0.917300  0.429300  1.0  -0.6246
  O  O55  1  0.519400  0.002200  0.288930  1.0  -0.1368
