# generated using pymatgen
data_DyH11C21O8
_symmetry_space_group_name_H-M   'P 1'
_cell_length_a   29.72600000
_cell_length_b   9.18600000
_cell_length_c   16.19800000
_cell_angle_alpha   90.00000000
_cell_angle_beta   112.79000000
_cell_angle_gamma   90.00000000
_symmetry_Int_Tables_number   1
_chemical_formula_structural   DyH11C21O8
_chemical_formula_sum   'Dy8 H88 C168 O64'
_cell_volume   4077.76900104
_cell_formula_units_Z   8
loop_
 _symmetry_equiv_pos_site_id
 _symmetry_equiv_pos_as_xyz
  1  'x, y, z'
loop_
 _atom_site_type_symbol
 _atom_site_label
 _atom_site_symmetry_multiplicity
 _atom_site_fract_x
 _atom_site_fract_y
 _atom_site_fract_z
 _atom_site_occupancy
 _atom_site_charge
  Dy  Dy1  1  0.497200  0.837630  0.403820  1.0  2.2993
  Dy  Dy2  1  0.997200  0.337630  0.403820  1.0  2.2993
  Dy  Dy3  1  0.502800  0.837630  0.096180  1.0  2.2994
  Dy  Dy4  1  0.002800  0.337630  0.096180  1.0  2.2994
  Dy  Dy5  1  0.502800  0.162370  0.596180  1.0  2.2996
  Dy  Dy6  1  0.002800  0.662370  0.596180  1.0  2.2996
  Dy  Dy7  1  0.497200  0.162370  0.903820  1.0  2.2996
  Dy  Dy8  1  0.997200  0.662370  0.903820  1.0  2.2996
  H  H9  1  0.856500  0.534100  0.551400  1.0  0.1183
  H  H10  1  0.732200  0.327000  0.403800  1.0  0.1123
  H  H11  1  0.859400  0.195300  0.397000  1.0  0.1184
  H  H12  1  0.694300  0.571100  0.557100  1.0  0.1076
  H  H13  1  0.616600  0.655100  0.473700  1.0  0.0978
  H  H14  1  0.651900  0.694800  0.260200  1.0  0.091
  H  H15  1  0.729900  0.614600  0.343700  1.0  0.1147
  H  H16  1  0.719800  0.353800  0.226100  1.0  0.1034
  H  H17  1  0.637800  0.359200  0.136800  1.0  0.0963
  H  H18  1  0.621800  0.962900  0.219700  1.0  0.086
  H  H19  1  0.703600  0.955600  0.311200  1.0  0.1188
  H  H20  1  0.356500  0.034100  0.551400  1.0  0.1183
  H  H21  1  0.232200  0.827000  0.403800  1.0  0.1123
  H  H22  1  0.359400  0.695300  0.397000  1.0  0.1184
  H  H23  1  0.194300  0.071100  0.557100  1.0  0.1076
  H  H24  1  0.116600  0.155100  0.473700  1.0  0.0978
  H  H25  1  0.151900  0.194800  0.260200  1.0  0.091
  H  H26  1  0.229900  0.114600  0.343700  1.0  0.1147
  H  H27  1  0.219800  0.853800  0.226100  1.0  0.1034
  H  H28  1  0.137800  0.859200  0.136800  1.0  0.0963
  H  H29  1  0.121800  0.462900  0.219700  1.0  0.086
  H  H30  1  0.203600  0.455600  0.311200  1.0  0.1188
  H  H31  1  0.143500  0.534100  0.948600  1.0  0.118
  H  H32  1  0.267800  0.327000  0.096200  1.0  0.1116
  H  H33  1  0.140600  0.195300  0.103000  1.0  0.119
  H  H34  1  0.305700  0.571100  0.942900  1.0  0.1073
  H  H35  1  0.383400  0.655100  0.026300  1.0  0.0982
  H  H36  1  0.348100  0.694800  0.239800  1.0  0.0921
  H  H37  1  0.270100  0.614600  0.156300  1.0  0.1146
  H  H38  1  0.280200  0.353800  0.273900  1.0  0.1041
  H  H39  1  0.362200  0.359200  0.363200  1.0  0.0965
  H  H40  1  0.378200  0.962900  0.280300  1.0  0.0855
  H  H41  1  0.296400  0.955600  0.188800  1.0  0.1185
  H  H42  1  0.643500  0.034100  0.948600  1.0  0.118
  H  H43  1  0.767800  0.827000  0.096200  1.0  0.1116
  H  H44  1  0.640600  0.695300  0.103000  1.0  0.119
  H  H45  1  0.805700  0.071100  0.942900  1.0  0.1073
  H  H46  1  0.883400  0.155100  0.026300  1.0  0.0982
  H  H47  1  0.848100  0.194800  0.239800  1.0  0.0921
  H  H48  1  0.770100  0.114600  0.156300  1.0  0.1146
  H  H49  1  0.780200  0.853800  0.273900  1.0  0.1041
  H  H50  1  0.862200  0.859200  0.363200  1.0  0.0965
  H  H51  1  0.878200  0.462900  0.280300  1.0  0.0855
  H  H52  1  0.796400  0.455600  0.188800  1.0  0.1185
  H  H53  1  0.143500  0.465900  0.448600  1.0  0.1181
  H  H54  1  0.267800  0.673000  0.596200  1.0  0.1118
  H  H55  1  0.140600  0.804700  0.603000  1.0  0.1188
  H  H56  1  0.305700  0.428900  0.442900  1.0  0.1077
  H  H57  1  0.383400  0.344900  0.526300  1.0  0.0983
  H  H58  1  0.348100  0.305200  0.739800  1.0  0.0912
  H  H59  1  0.270100  0.385400  0.656300  1.0  0.1146
  H  H60  1  0.280200  0.646200  0.773900  1.0  0.1039
  H  H61  1  0.362200  0.640800  0.863200  1.0  0.0965
  H  H62  1  0.378200  0.037100  0.780300  1.0  0.0853
  H  H63  1  0.296400  0.044400  0.688800  1.0  0.1185
  H  H64  1  0.643500  0.965900  0.448600  1.0  0.1181
  H  H65  1  0.767800  0.173000  0.596200  1.0  0.1118
  H  H66  1  0.640600  0.304700  0.603000  1.0  0.1188
  H  H67  1  0.805700  0.928900  0.442900  1.0  0.1077
  H  H68  1  0.883400  0.844900  0.526300  1.0  0.0983
  H  H69  1  0.848100  0.805200  0.739800  1.0  0.0912
  H  H70  1  0.770100  0.885400  0.656300  1.0  0.1146
  H  H71  1  0.780200  0.146200  0.773900  1.0  0.1039
  H  H72  1  0.862200  0.140800  0.863200  1.0  0.0965
  H  H73  1  0.878200  0.537100  0.780300  1.0  0.0853
  H  H74  1  0.796400  0.544400  0.688800  1.0  0.1185
  H  H75  1  0.856500  0.465900  0.051400  1.0  0.1187
  H  H76  1  0.732200  0.673000  0.903800  1.0  0.1124
  H  H77  1  0.859400  0.804700  0.897000  1.0  0.1186
  H  H78  1  0.694300  0.428900  0.057100  1.0  0.1075
  H  H79  1  0.616600  0.344900  0.973700  1.0  0.0979
  H  H80  1  0.651900  0.305200  0.760200  1.0  0.0915
  H  H81  1  0.729900  0.385400  0.843700  1.0  0.1147
  H  H82  1  0.719800  0.646200  0.726100  1.0  0.1035
  H  H83  1  0.637800  0.640800  0.636800  1.0  0.0965
  H  H84  1  0.621800  0.037100  0.719700  1.0  0.0861
  H  H85  1  0.703600  0.044400  0.811200  1.0  0.1183
  H  H86  1  0.356500  0.965900  0.051400  1.0  0.1187
  H  H87  1  0.232200  0.173000  0.903800  1.0  0.1124
  H  H88  1  0.359400  0.304700  0.897000  1.0  0.1186
  H  H89  1  0.194300  0.928900  0.057100  1.0  0.1075
  H  H90  1  0.116600  0.844900  0.973700  1.0  0.0979
  H  H91  1  0.151900  0.805200  0.760200  1.0  0.0915
  H  H92  1  0.229900  0.885400  0.843700  1.0  0.1147
  H  H93  1  0.219800  0.146200  0.726100  1.0  0.1035
  H  H94  1  0.137800  0.140800  0.636800  1.0  0.0965
  H  H95  1  0.121800  0.537100  0.719700  1.0  0.0861
  H  H96  1  0.203600  0.544400  0.811200  1.0  0.1183
  C  C97  1  0.920300  0.389000  0.506200  1.0  0.7083
  C  C98  1  0.866100  0.366200  0.478900  1.0  -0.155
  C  C99  1  0.840400  0.461900  0.510500  1.0  -0.1306
  C  C100  1  0.790100  0.447700  0.479900  1.0  0.284
  C  C101  1  0.765700  0.338900  0.421200  1.0  -0.1962
  C  C102  1  0.791980  0.247500  0.388600  1.0  0.2869
  C  C103  1  0.842000  0.259200  0.418000  1.0  -0.1476
  C  C104  1  0.719200  0.585900  0.458800  1.0  0.2738
  C  C105  1  0.685700  0.596600  0.497400  1.0  -0.2041
  C  C106  1  0.639100  0.645700  0.447100  1.0  -0.0118
  C  C107  1  0.625700  0.680800  0.358200  1.0  -0.1747
  C  C108  1  0.660400  0.669700  0.320000  1.0  -0.0169
  C  C109  1  0.706900  0.622300  0.369500  1.0  -0.2244
  C  C110  1  0.575540  0.735300  0.305100  1.0  0.7234
  C  C111  1  0.719400  0.153700  0.276100  1.0  0.2652
  C  C112  1  0.700000  0.274600  0.224700  1.0  -0.2037
  C  C113  1  0.651200  0.277100  0.171300  1.0  -0.0658
  C  C114  1  0.621600  0.159600  0.167900  1.0  -0.1797
  C  C115  1  0.641600  0.041700  0.220700  1.0  -0.0224
  C  C116  1  0.690500  0.036600  0.275500  1.0  -0.2331
  C  C117  1  0.569300  0.156000  0.102400  1.0  0.6935
  C  C118  1  0.420300  0.889000  0.506200  1.0  0.7083
  C  C119  1  0.366100  0.866200  0.478900  1.0  -0.155
  C  C120  1  0.340400  0.961900  0.510500  1.0  -0.1306
  C  C121  1  0.290100  0.947700  0.479900  1.0  0.284
  C  C122  1  0.265700  0.838900  0.421200  1.0  -0.1962
  C  C123  1  0.291980  0.747500  0.388600  1.0  0.2869
  C  C124  1  0.342000  0.759200  0.418000  1.0  -0.1476
  C  C125  1  0.219200  0.085900  0.458800  1.0  0.2738
  C  C126  1  0.185700  0.096600  0.497400  1.0  -0.2041
  C  C127  1  0.139100  0.145700  0.447100  1.0  -0.0118
  C  C128  1  0.125700  0.180800  0.358200  1.0  -0.1747
  C  C129  1  0.160400  0.169700  0.320000  1.0  -0.0169
  C  C130  1  0.206900  0.122300  0.369500  1.0  -0.2244
  C  C131  1  0.075540  0.235300  0.305100  1.0  0.7234
  C  C132  1  0.219400  0.653700  0.276100  1.0  0.2652
  C  C133  1  0.200000  0.774600  0.224700  1.0  -0.2037
  C  C134  1  0.151200  0.777100  0.171300  1.0  -0.0658
  C  C135  1  0.121600  0.659600  0.167900  1.0  -0.1797
  C  C136  1  0.141600  0.541700  0.220700  1.0  -0.0224
  C  C137  1  0.190500  0.536600  0.275500  1.0  -0.2331
  C  C138  1  0.069300  0.656000  0.102400  1.0  0.6935
  C  C139  1  0.079700  0.389000  0.993800  1.0  0.7079
  C  C140  1  0.133900  0.366200  0.021100  1.0  -0.1567
  C  C141  1  0.159600  0.461900  0.989500  1.0  -0.1318
  C  C142  1  0.209900  0.447700  0.020100  1.0  0.2843
  C  C143  1  0.234300  0.338900  0.078800  1.0  -0.1964
  C  C144  1  0.208020  0.247500  0.111400  1.0  0.2869
  C  C145  1  0.158000  0.259200  0.082000  1.0  -0.1475
  C  C146  1  0.280800  0.585900  0.041200  1.0  0.2738
  C  C147  1  0.314300  0.596600  0.002600  1.0  -0.2039
  C  C148  1  0.360900  0.645700  0.052900  1.0  -0.0122
  C  C149  1  0.374300  0.680800  0.141800  1.0  -0.1753
  C  C150  1  0.339600  0.669700  0.180000  1.0  -0.0168
  C  C151  1  0.293100  0.622300  0.130500  1.0  -0.2228
  C  C152  1  0.424460  0.735300  0.194900  1.0  0.7222
  C  C153  1  0.280600  0.153700  0.223900  1.0  0.2657
  C  C154  1  0.300000  0.274600  0.275300  1.0  -0.2031
  C  C155  1  0.348800  0.277100  0.328700  1.0  -0.0669
  C  C156  1  0.378400  0.159600  0.332100  1.0  -0.1806
  C  C157  1  0.358400  0.041700  0.279300  1.0  -0.022
  C  C158  1  0.309500  0.036600  0.224500  1.0  -0.2341
  C  C159  1  0.430700  0.156000  0.397600  1.0  0.6932
  C  C160  1  0.579700  0.889000  0.993800  1.0  0.7079
  C  C161  1  0.633900  0.866200  0.021100  1.0  -0.1567
  C  C162  1  0.659600  0.961900  0.989500  1.0  -0.1318
  C  C163  1  0.709900  0.947700  0.020100  1.0  0.2843
  C  C164  1  0.734300  0.838900  0.078800  1.0  -0.1964
  C  C165  1  0.708020  0.747500  0.111400  1.0  0.2869
  C  C166  1  0.658000  0.759200  0.082000  1.0  -0.1475
  C  C167  1  0.780800  0.085900  0.041200  1.0  0.2738
  C  C168  1  0.814300  0.096600  0.002600  1.0  -0.2039
  C  C169  1  0.860900  0.145700  0.052900  1.0  -0.0122
  C  C170  1  0.874300  0.180800  0.141800  1.0  -0.1753
  C  C171  1  0.839600  0.169700  0.180000  1.0  -0.0168
  C  C172  1  0.793100  0.122300  0.130500  1.0  -0.2228
  C  C173  1  0.924460  0.235300  0.194900  1.0  0.7222
  C  C174  1  0.780600  0.653700  0.223900  1.0  0.2657
  C  C175  1  0.800000  0.774600  0.275300  1.0  -0.2031
  C  C176  1  0.848800  0.777100  0.328700  1.0  -0.0669
  C  C177  1  0.878400  0.659600  0.332100  1.0  -0.1806
  C  C178  1  0.858400  0.541700  0.279300  1.0  -0.022
  C  C179  1  0.809500  0.536600  0.224500  1.0  -0.2341
  C  C180  1  0.930700  0.656000  0.397600  1.0  0.6932
  C  C181  1  0.079700  0.611000  0.493800  1.0  0.7098
  C  C182  1  0.133900  0.633800  0.521100  1.0  -0.1559
  C  C183  1  0.159600  0.538100  0.489500  1.0  -0.1322
  C  C184  1  0.209900  0.552300  0.520100  1.0  0.2839
  C  C185  1  0.234300  0.661100  0.578800  1.0  -0.196
  C  C186  1  0.208020  0.752500  0.611400  1.0  0.2871
  C  C187  1  0.158000  0.740800  0.582000  1.0  -0.1479
  C  C188  1  0.280800  0.414100  0.541200  1.0  0.2737
  C  C189  1  0.314300  0.403400  0.502600  1.0  -0.204
  C  C190  1  0.360900  0.354300  0.552900  1.0  -0.0115
  C  C191  1  0.374300  0.319200  0.641800  1.0  -0.1753
  C  C192  1  0.339600  0.330300  0.680000  1.0  -0.017
  C  C193  1  0.293100  0.377700  0.630500  1.0  -0.2232
  C  C194  1  0.424460  0.264700  0.694900  1.0  0.7219
  C  C195  1  0.280600  0.846300  0.723900  1.0  0.2653
  C  C196  1  0.300000  0.725400  0.775300  1.0  -0.2033
  C  C197  1  0.348800  0.722900  0.828700  1.0  -0.0669
  C  C198  1  0.378400  0.840400  0.832100  1.0  -0.1806
  C  C199  1  0.358400  0.958300  0.779300  1.0  -0.023
  C  C200  1  0.309500  0.963400  0.724500  1.0  -0.233
  C  C201  1  0.430700  0.844000  0.897600  1.0  0.6927
  C  C202  1  0.579700  0.111000  0.493800  1.0  0.7098
  C  C203  1  0.633900  0.133800  0.521100  1.0  -0.1559
  C  C204  1  0.659600  0.038100  0.489500  1.0  -0.1322
  C  C205  1  0.709900  0.052300  0.520100  1.0  0.2839
  C  C206  1  0.734300  0.161100  0.578800  1.0  -0.196
  C  C207  1  0.708020  0.252500  0.611400  1.0  0.2871
  C  C208  1  0.658000  0.240800  0.582000  1.0  -0.1479
  C  C209  1  0.780800  0.914100  0.541200  1.0  0.2737
  C  C210  1  0.814300  0.903400  0.502600  1.0  -0.204
  C  C211  1  0.860900  0.854300  0.552900  1.0  -0.0115
  C  C212  1  0.874300  0.819200  0.641800  1.0  -0.1753
  C  C213  1  0.839600  0.830300  0.680000  1.0  -0.017
  C  C214  1  0.793100  0.877700  0.630500  1.0  -0.2232
  C  C215  1  0.924460  0.764700  0.694900  1.0  0.7219
  C  C216  1  0.780600  0.346300  0.723900  1.0  0.2653
  C  C217  1  0.800000  0.225400  0.775300  1.0  -0.2033
  C  C218  1  0.848800  0.222900  0.828700  1.0  -0.0669
  C  C219  1  0.878400  0.340400  0.832100  1.0  -0.1806
  C  C220  1  0.858400  0.458300  0.779300  1.0  -0.023
  C  C221  1  0.809500  0.463400  0.724500  1.0  -0.233
  C  C222  1  0.930700  0.344000  0.897600  1.0  0.6927
  C  C223  1  0.920300  0.611000  0.006200  1.0  0.7089
  C  C224  1  0.866100  0.633800  0.978900  1.0  -0.1552
  C  C225  1  0.840400  0.538100  0.010500  1.0  -0.1308
  C  C226  1  0.790100  0.552300  0.979900  1.0  0.2838
  C  C227  1  0.765700  0.661100  0.921200  1.0  -0.1956
  C  C228  1  0.791980  0.752500  0.888600  1.0  0.2869
  C  C229  1  0.842000  0.740800  0.918000  1.0  -0.1474
  C  C230  1  0.719200  0.414100  0.958800  1.0  0.2736
  C  C231  1  0.685700  0.403400  0.997400  1.0  -0.204
  C  C232  1  0.639100  0.354300  0.947100  1.0  -0.0119
  C  C233  1  0.625700  0.319200  0.858200  1.0  -0.1741
  C  C234  1  0.660400  0.330300  0.820000  1.0  -0.0173
  C  C235  1  0.706900  0.377700  0.869500  1.0  -0.2243
  C  C236  1  0.575540  0.264700  0.805100  1.0  0.7239
  C  C237  1  0.719400  0.846300  0.776100  1.0  0.2648
  C  C238  1  0.700000  0.725400  0.724700  1.0  -0.2044
  C  C239  1  0.651200  0.722900  0.671300  1.0  -0.066
  C  C240  1  0.621600  0.840400  0.667900  1.0  -0.1801
  C  C241  1  0.641600  0.958300  0.720700  1.0  -0.0223
  C  C242  1  0.690500  0.963400  0.775500  1.0  -0.2318
  C  C243  1  0.569300  0.844000  0.602400  1.0  0.6926
  C  C244  1  0.420300  0.111000  0.006200  1.0  0.7089
  C  C245  1  0.366100  0.133800  0.978900  1.0  -0.1552
  C  C246  1  0.340400  0.038100  0.010500  1.0  -0.1308
  C  C247  1  0.290100  0.052300  0.979900  1.0  0.2838
  C  C248  1  0.265700  0.161100  0.921200  1.0  -0.1956
  C  C249  1  0.291980  0.252500  0.888600  1.0  0.2869
  C  C250  1  0.342000  0.240800  0.918000  1.0  -0.1474
  C  C251  1  0.219200  0.914100  0.958800  1.0  0.2736
  C  C252  1  0.185700  0.903400  0.997400  1.0  -0.204
  C  C253  1  0.139100  0.854300  0.947100  1.0  -0.0119
  C  C254  1  0.125700  0.819200  0.858200  1.0  -0.1741
  C  C255  1  0.160400  0.830300  0.820000  1.0  -0.0173
  C  C256  1  0.206900  0.877700  0.869500  1.0  -0.2243
  C  C257  1  0.075540  0.764700  0.805100  1.0  0.7239
  C  C258  1  0.219400  0.346300  0.776100  1.0  0.2648
  C  C259  1  0.200000  0.225400  0.724700  1.0  -0.2044
  C  C260  1  0.151200  0.222900  0.671300  1.0  -0.066
  C  C261  1  0.121600  0.340400  0.667900  1.0  -0.1801
  C  C262  1  0.141600  0.458300  0.720700  1.0  -0.0223
  C  C263  1  0.190500  0.463400  0.775500  1.0  -0.2318
  C  C264  1  0.069300  0.344000  0.602400  1.0  0.6926
  O  O265  1  0.939380  0.490600  0.558700  1.0  -0.6916
  O  O266  1  0.942390  0.304800  0.473400  1.0  -0.732
  O  O267  1  0.765770  0.542300  0.513800  1.0  -0.2659
  O  O268  1  0.769440  0.140300  0.327200  1.0  -0.2715
  O  O269  1  0.545470  0.736900  0.342500  1.0  -0.7361
  O  O270  1  0.566130  0.776200  0.226500  1.0  -0.6588
  O  O271  1  0.555290  0.248100  0.041400  1.0  -0.6215
  O  O272  1  0.542700  0.054400  0.108700  1.0  -0.7521
  O  O273  1  0.439380  0.990600  0.558700  1.0  -0.6916
  O  O274  1  0.442390  0.804800  0.473400  1.0  -0.732
  O  O275  1  0.265770  0.042300  0.513800  1.0  -0.2659
  O  O276  1  0.269440  0.640300  0.327200  1.0  -0.2715
  O  O277  1  0.045470  0.236900  0.342500  1.0  -0.7361
  O  O278  1  0.066130  0.276200  0.226500  1.0  -0.6588
  O  O279  1  0.055290  0.748100  0.041400  1.0  -0.6215
  O  O280  1  0.042700  0.554400  0.108700  1.0  -0.7521
  O  O281  1  0.060620  0.490600  0.941300  1.0  -0.6916
  O  O282  1  0.057610  0.304800  0.026600  1.0  -0.7319
  O  O283  1  0.234230  0.542300  0.986200  1.0  -0.2666
  O  O284  1  0.230560  0.140300  0.172800  1.0  -0.2718
  O  O285  1  0.454530  0.736900  0.157500  1.0  -0.7381
  O  O286  1  0.433870  0.776200  0.273500  1.0  -0.6597
  O  O287  1  0.444710  0.248100  0.458600  1.0  -0.6223
  O  O288  1  0.457300  0.054400  0.391300  1.0  -0.749
  O  O289  1  0.560620  0.990600  0.941300  1.0  -0.6916
  O  O290  1  0.557610  0.804800  0.026600  1.0  -0.7319
  O  O291  1  0.734230  0.042300  0.986200  1.0  -0.2666
  O  O292  1  0.730560  0.640300  0.172800  1.0  -0.2718
  O  O293  1  0.954530  0.236900  0.157500  1.0  -0.7381
  O  O294  1  0.933870  0.276200  0.273500  1.0  -0.6597
  O  O295  1  0.944710  0.748100  0.458600  1.0  -0.6223
  O  O296  1  0.957300  0.554400  0.391300  1.0  -0.749
  O  O297  1  0.060620  0.509400  0.441300  1.0  -0.6913
  O  O298  1  0.057610  0.695200  0.526600  1.0  -0.7356
  O  O299  1  0.234230  0.457700  0.486200  1.0  -0.2669
  O  O300  1  0.230560  0.859700  0.672800  1.0  -0.2717
  O  O301  1  0.454530  0.263100  0.657500  1.0  -0.7376
  O  O302  1  0.433870  0.223800  0.773500  1.0  -0.6605
  O  O303  1  0.444710  0.751900  0.958600  1.0  -0.6217
  O  O304  1  0.457300  0.945600  0.891300  1.0  -0.7491
  O  O305  1  0.560620  0.009400  0.441300  1.0  -0.6913
  O  O306  1  0.557610  0.195200  0.526600  1.0  -0.7356
  O  O307  1  0.734230  0.957700  0.486200  1.0  -0.2669
  O  O308  1  0.730560  0.359700  0.672800  1.0  -0.2717
  O  O309  1  0.954530  0.763100  0.657500  1.0  -0.7376
  O  O310  1  0.933870  0.723800  0.773500  1.0  -0.6605
  O  O311  1  0.944710  0.251900  0.958600  1.0  -0.6217
  O  O312  1  0.957300  0.445600  0.891300  1.0  -0.7491
  O  O313  1  0.939380  0.509400  0.058700  1.0  -0.6913
  O  O314  1  0.942390  0.695200  0.973400  1.0  -0.7346
  O  O315  1  0.765770  0.457700  0.013800  1.0  -0.2661
  O  O316  1  0.769440  0.859700  0.827200  1.0  -0.2714
  O  O317  1  0.545470  0.263100  0.842500  1.0  -0.7353
  O  O318  1  0.566130  0.223800  0.726500  1.0  -0.6592
  O  O319  1  0.555290  0.751900  0.541400  1.0  -0.6217
  O  O320  1  0.542700  0.945600  0.608700  1.0  -0.7513
  O  O321  1  0.439380  0.009400  0.058700  1.0  -0.6913
  O  O322  1  0.442390  0.195200  0.973400  1.0  -0.7346
  O  O323  1  0.265770  0.957700  0.013800  1.0  -0.2661
  O  O324  1  0.269440  0.359700  0.827200  1.0  -0.2714
  O  O325  1  0.045470  0.763100  0.842500  1.0  -0.7353
  O  O326  1  0.066130  0.723800  0.726500  1.0  -0.6592
  O  O327  1  0.055290  0.251900  0.541400  1.0  -0.6217
  O  O328  1  0.042700  0.445600  0.608700  1.0  -0.7513
