# generated using pymatgen
data_Na3PrH12C13SNO15
_symmetry_space_group_name_H-M   'P 1'
_cell_length_a   9.17410000
_cell_length_b   9.33870000
_cell_length_c   17.76420000
_cell_angle_alpha   83.75000000
_cell_angle_beta   72.72400000
_cell_angle_gamma   86.44000000
_symmetry_Int_Tables_number   1
_chemical_formula_structural   Na3PrH12C13SNO15
_chemical_formula_sum   'Na6 Pr2 H24 C26 S2 N2 O30'
_cell_volume   1443.92337518
_cell_formula_units_Z   2
loop_
 _symmetry_equiv_pos_site_id
 _symmetry_equiv_pos_as_xyz
  1  'x, y, z'
loop_
 _atom_site_type_symbol
 _atom_site_label
 _atom_site_symmetry_multiplicity
 _atom_site_fract_x
 _atom_site_fract_y
 _atom_site_fract_z
 _atom_site_occupancy
 _atom_site_charge
  Na  Na1  1  0.020910  0.602330  0.836140  1.0  0.9477
  Na  Na2  1  0.964430  0.970320  0.735850  1.0  0.9488
  Na  Na3  1  0.029480  0.627310  0.624840  1.0  0.9901
  Na  Na4  1  0.979090  0.397670  0.163860  1.0  0.9475
  Na  Na5  1  0.035570  0.029680  0.264150  1.0  0.9484
  Na  Na6  1  0.970520  0.372690  0.375160  1.0  0.9922
  Pr  Pr7  1  0.453830  0.473220  0.756330  1.0  2.2148
  Pr  Pr8  1  0.546170  0.526780  0.243670  1.0  2.2144
  H  H9  1  0.522000  0.149000  0.946700  1.0  0.1213
  H  H10  1  0.627600  0.277400  0.944600  1.0  0.1124
  H  H11  1  0.286400  0.279500  0.013200  1.0  0.1375
  H  H12  1  0.395800  0.397500  0.020800  1.0  0.1192
  H  H13  1  0.583200  0.890500  0.769500  1.0  0.1305
  H  H14  1  0.667600  0.848900  0.683600  1.0  0.1235
  H  H15  1  0.465800  0.864000  0.632000  1.0  0.1378
  H  H16  1  0.355800  0.925900  0.708200  1.0  0.1361
  H  H17  1  0.426500  0.144900  0.611400  1.0  0.1028
  H  H18  1  0.324800  0.259700  0.576300  1.0  0.1128
  H  H19  1  0.661500  0.264500  0.537300  1.0  0.1361
  H  H20  1  0.564200  0.375200  0.496800  1.0  0.124
  H  H21  1  0.478000  0.851000  0.053300  1.0  0.1201
  H  H22  1  0.372400  0.722600  0.055400  1.0  0.1143
  H  H23  1  0.713600  0.720500  0.986800  1.0  0.1364
  H  H24  1  0.604200  0.602500  0.979200  1.0  0.1188
  H  H25  1  0.416800  0.109500  0.230500  1.0  0.1306
  H  H26  1  0.332400  0.151100  0.316400  1.0  0.1246
  H  H27  1  0.534200  0.136000  0.368000  1.0  0.1394
  H  H28  1  0.644200  0.074100  0.291800  1.0  0.1361
  H  H29  1  0.573500  0.855100  0.388600  1.0  0.1023
  H  H30  1  0.675200  0.740300  0.423700  1.0  0.1131
  H  H31  1  0.338500  0.735500  0.462700  1.0  0.1366
  H  H32  1  0.435800  0.624800  0.503200  1.0  0.1233
  C  C33  1  0.669500  0.205400  0.826400  1.0  0.5287
  C  C34  1  0.565900  0.237100  0.916700  1.0  -0.1199
  C  C35  1  0.340200  0.365900  0.987200  1.0  -0.0658
  C  C36  1  0.229800  0.483600  0.970000  1.0  0.4087
  C  C37  1  0.711800  0.699800  0.770300  1.0  0.773
  C  C38  1  0.611000  0.811000  0.736600  1.0  -0.065
  C  C39  1  0.395400  0.838000  0.683800  1.0  -0.1413
  C  C40  1  0.265000  0.754700  0.675300  1.0  0.6995
  C  C41  1  0.243600  0.232700  0.704500  1.0  0.6214
  C  C42  1  0.371900  0.237100  0.618500  1.0  -0.0656
  C  C43  1  0.602300  0.354500  0.542400  1.0  -0.026
  C  C44  1  0.697800  0.474900  0.548700  1.0  0.5047
  C  C45  1  0.157100  0.898300  0.884700  1.0  0.2908
  C  C46  1  0.330500  0.794600  0.173600  1.0  0.529
  C  C47  1  0.434100  0.762900  0.083300  1.0  -0.1204
  C  C48  1  0.659800  0.634100  0.012800  1.0  -0.0652
  C  C49  1  0.770200  0.516400  0.030000  1.0  0.4069
  C  C50  1  0.288200  0.300200  0.229700  1.0  0.7767
  C  C51  1  0.389000  0.189000  0.263400  1.0  -0.0662
  C  C52  1  0.604600  0.162000  0.316200  1.0  -0.1407
  C  C53  1  0.735000  0.245300  0.324700  1.0  0.7
  C  C54  1  0.756400  0.767300  0.295500  1.0  0.6219
  C  C55  1  0.628100  0.762900  0.381500  1.0  -0.0655
  C  C56  1  0.397700  0.645500  0.457600  1.0  -0.027
  C  C57  1  0.302200  0.525100  0.451300  1.0  0.509
  C  C58  1  0.842900  0.101700  0.115300  1.0  0.2953
  S  S59  1  0.284250  0.969400  0.919440  1.0  -0.2916
  S  S60  1  0.715750  0.030600  0.080560  1.0  -0.291
  N  N61  1  0.065000  0.850500  0.862200  1.0  -0.4672
  N  N62  1  0.935000  0.149500  0.137800  1.0  -0.4687
  O  O63  1  0.638200  0.267800  0.758400  1.0  -0.6629
  O  O64  1  0.449300  0.337700  0.905540  1.0  -0.3593
  O  O65  1  0.244100  0.528200  0.890580  1.0  -0.7265
  O  O66  1  0.780200  0.122600  0.825500  1.0  -0.6605
  O  O67  1  0.133800  0.524100  0.036650  1.0  -0.6992
  O  O68  1  0.658300  0.577100  0.800070  1.0  -0.6434
  O  O69  1  0.477300  0.746400  0.734070  1.0  -0.3633
  O  O70  1  0.257100  0.622700  0.702510  1.0  -0.7507
  O  O71  1  0.842500  0.735300  0.764500  1.0  -0.6698
  O  O72  1  0.173100  0.823300  0.640660  1.0  -0.7025
  O  O73  1  0.257900  0.304100  0.764600  1.0  -0.6101
  O  O74  1  0.471800  0.345900  0.618250  1.0  -0.3644
  O  O75  1  0.653700  0.542000  0.617010  1.0  -0.6724
  O  O76  1  0.133000  0.159900  0.710600  1.0  -0.6533
  O  O77  1  0.813200  0.501700  0.484820  1.0  -0.6524
  O  O78  1  0.361800  0.732200  0.241600  1.0  -0.6615
  O  O79  1  0.550700  0.662300  0.094460  1.0  -0.3591
  O  O80  1  0.755900  0.471800  0.109420  1.0  -0.7243
  O  O81  1  0.219800  0.877400  0.174500  1.0  -0.6569
  O  O82  1  0.866200  0.475900  0.963350  1.0  -0.7014
  O  O83  1  0.341700  0.422900  0.199930  1.0  -0.6467
  O  O84  1  0.522700  0.253600  0.265930  1.0  -0.3619
  O  O85  1  0.742900  0.377300  0.297490  1.0  -0.7488
  O  O86  1  0.157500  0.264700  0.235500  1.0  -0.6696
  O  O87  1  0.826900  0.176700  0.359340  1.0  -0.7019
  O  O88  1  0.742100  0.695900  0.235400  1.0  -0.6092
  O  O89  1  0.528200  0.654100  0.381750  1.0  -0.3642
  O  O90  1  0.346300  0.458000  0.382990  1.0  -0.6719
  O  O91  1  0.867000  0.840100  0.289400  1.0  -0.6523
  O  O92  1  0.186800  0.498300  0.515180  1.0  -0.6516
