# generated using pymatgen
data_Zn5H128C228(N3O11)2
_symmetry_space_group_name_H-M   'P 1'
_cell_length_a   17.24710000
_cell_length_b   18.93200000
_cell_length_c   21.34000000
_cell_angle_alpha   88.58800000
_cell_angle_beta   73.43100000
_cell_angle_gamma   66.75900000
_symmetry_Int_Tables_number   1
_chemical_formula_structural   Zn5H128C228(N3O11)2
_chemical_formula_sum   'Zn5 H128 C228 N6 O22'
_cell_volume   6106.06693281
_cell_formula_units_Z   1
loop_
 _symmetry_equiv_pos_site_id
 _symmetry_equiv_pos_as_xyz
  1  'x, y, z'
loop_
 _atom_site_type_symbol
 _atom_site_label
 _atom_site_symmetry_multiplicity
 _atom_site_fract_x
 _atom_site_fract_y
 _atom_site_fract_z
 _atom_site_occupancy
 _atom_site_charge
  Zn  Zn1  1  0.412880  0.964030  0.392770  1.0  0.9704
  Zn  Zn2  1  0.982770  0.984730  0.941090  1.0  0.9008
  Zn  Zn3  1  0.587120  0.035970  0.607230  1.0  0.9701
  Zn  Zn4  1  0.017230  0.015270  0.058910  1.0  0.9005
  Zn  Zn5  1  0.500000  0.000000  0.500000  1.0  1.1104
  H  H6  1  0.297900  0.816500  0.501200  1.0  0.1268
  H  H7  1  0.435500  0.838000  0.617900  1.0  0.1305
  H  H8  1  0.269700  0.723300  0.566000  1.0  0.0888
  H  H9  1  0.391800  0.754200  0.686900  1.0  0.0895
  H  H10  1  0.301800  0.625100  0.819200  1.0  0.1069
  H  H11  1  0.260600  0.566100  0.598200  1.0  0.1212
  H  H12  1  0.229000  0.431100  0.906800  1.0  0.1053
  H  H13  1  0.182200  0.371300  0.684700  1.0  0.1188
  H  H14  1  0.459600  0.558400  0.832200  1.0  0.1269
  H  H15  1  0.171400  0.724800  0.908500  1.0  0.096
  H  H16  1  0.401600  0.462600  0.509400  1.0  0.1126
  H  H17  1  0.117400  0.631500  0.568500  1.0  0.1299
  H  H18  1  0.381900  0.356600  0.923900  1.0  0.1373
  H  H19  1  0.554000  0.457000  0.873600  1.0  0.1051
  H  H20  1  0.095800  0.525100  0.997400  1.0  0.1291
  H  H21  1  0.040800  0.755800  0.995900  1.0  0.1098
  H  H22  1  0.323000  0.267400  0.602600  1.0  0.1071
  H  H23  1  0.486500  0.333900  0.467100  1.0  0.0907
  H  H24  1  0.034600  0.432400  0.660300  1.0  0.1205
  H  H25  1  0.982100  0.630600  0.566600  1.0  0.1228
  H  H26  1  0.513800  0.362800  0.928300  1.0  0.1176
  H  H27  1  0.007300  0.653600  0.038100  1.0  0.0901
  H  H28  1  0.443900  0.237100  0.508500  1.0  0.1258
  H  H29  1  0.948000  0.530800  0.611600  1.0  0.1067
  H  H30  1  0.102900  0.251700  0.782800  1.0  0.123
  H  H31  1  0.211700  0.248100  0.927900  1.0  0.1046
  H  H32  1  0.064100  0.153600  0.828400  1.0  0.0993
  H  H33  1  0.155300  0.162500  0.978800  1.0  0.1082
  H  H34  1  0.964300  0.051100  0.815700  1.0  0.0979
  H  H35  1  0.876600  0.899900  0.913400  1.0  0.1222
  H  H36  1  0.883600  0.064500  0.743000  1.0  0.1359
  H  H37  1  0.788000  0.918100  0.844000  1.0  0.1119
  H  H38  1  0.286000  0.857200  0.001600  1.0  0.113
  H  H39  1  0.247200  0.810000  0.830800  1.0  0.1199
  H  H40  1  0.433600  0.762400  0.965100  1.0  0.1203
  H  H41  1  0.393300  0.718100  0.795500  1.0  0.096
  H  H42  1  0.860500  0.003100  0.658400  1.0  0.1177
  H  H43  1  0.665600  0.004700  0.815600  1.0  0.1134
  H  H44  1  0.767100  0.020100  0.592900  1.0  0.1067
  H  H45  1  0.570600  0.018700  0.751700  1.0  0.1199
  H  H46  1  0.564200  0.629400  0.705800  1.0  0.1035
  H  H47  1  0.671800  0.566300  0.914400  1.0  0.1187
  H  H48  1  0.820300  0.441700  0.584500  1.0  0.1022
  H  H49  1  0.928100  0.371700  0.789300  1.0  0.1131
  H  H50  1  0.472600  0.570800  0.671900  1.0  0.1192
  H  H51  1  0.598700  0.736800  0.646300  1.0  0.1333
  H  H52  1  0.633600  0.461400  0.987200  1.0  0.124
  H  H53  1  0.760000  0.637600  0.944400  1.0  0.1126
  H  H54  1  0.732900  0.371700  0.546100  1.0  0.1169
  H  H55  1  0.468500  0.471900  0.613000  1.0  0.0913
  H  H56  1  0.858600  0.547800  0.516100  1.0  0.0887
  H  H57  1  0.699400  0.772000  0.567100  1.0  0.096
  H  H58  1  0.892000  0.265600  0.852900  1.0  0.1293
  H  H59  1  0.668700  0.333900  0.008000  1.0  0.0872
  H  H60  1  0.018600  0.438700  0.821100  1.0  0.1011
  H  H61  1  0.895800  0.641500  0.936200  1.0  0.1085
  H  H62  1  0.595800  0.370000  0.551400  1.0  0.121
  H  H63  1  0.826300  0.677100  0.498000  1.0  0.119
  H  H64  1  0.793500  0.237000  0.940700  1.0  0.0894
  H  H65  1  0.025900  0.538100  0.878300  1.0  0.0942
  H  H66  1  0.111200  0.264400  0.674900  1.0  0.1009
  H  H67  1  0.020500  0.248000  0.526200  1.0  0.1063
  H  H68  1  0.251900  0.175100  0.615700  1.0  0.099
  H  H69  1  0.155800  0.148400  0.472300  1.0  0.1016
  H  H70  1  0.702100  0.183500  0.498800  1.0  0.1265
  H  H71  1  0.564500  0.162000  0.382100  1.0  0.1295
  H  H72  1  0.730300  0.276700  0.434000  1.0  0.09
  H  H73  1  0.608200  0.245800  0.313100  1.0  0.0903
  H  H74  1  0.698200  0.374900  0.180800  1.0  0.1078
  H  H75  1  0.739400  0.433900  0.401800  1.0  0.1218
  H  H76  1  0.771000  0.568900  0.093200  1.0  0.1049
  H  H77  1  0.817800  0.628700  0.315300  1.0  0.119
  H  H78  1  0.540400  0.441600  0.167800  1.0  0.1269
  H  H79  1  0.828600  0.275200  0.091500  1.0  0.0964
  H  H80  1  0.598400  0.537400  0.490600  1.0  0.1123
  H  H81  1  0.882600  0.368500  0.431500  1.0  0.1281
  H  H82  1  0.618100  0.643400  0.076100  1.0  0.1376
  H  H83  1  0.446000  0.543000  0.126400  1.0  0.1055
  H  H84  1  0.904200  0.474900  0.002600  1.0  0.1283
  H  H85  1  0.959200  0.244200  0.004100  1.0  0.1109
  H  H86  1  0.677000  0.732600  0.397400  1.0  0.1071
  H  H87  1  0.513500  0.666100  0.532900  1.0  0.0911
  H  H88  1  0.965400  0.567600  0.339700  1.0  0.1203
  H  H89  1  0.017900  0.369400  0.433400  1.0  0.1222
  H  H90  1  0.486200  0.637200  0.071700  1.0  0.1186
  H  H91  1  0.992700  0.346400  0.961900  1.0  0.0899
  H  H92  1  0.556100  0.762900  0.491500  1.0  0.1258
  H  H93  1  0.052000  0.469200  0.388400  1.0  0.1049
  H  H94  1  0.897100  0.748300  0.217200  1.0  0.1233
  H  H95  1  0.788300  0.751900  0.072100  1.0  0.1042
  H  H96  1  0.935900  0.846400  0.171600  1.0  0.0999
  H  H97  1  0.844700  0.837500  0.021200  1.0  0.1087
  H  H98  1  0.035700  0.948900  0.184300  1.0  0.0983
  H  H99  1  0.123400  0.100100  0.086600  1.0  0.1226
  H  H100  1  0.116400  0.935500  0.257000  1.0  0.1358
  H  H101  1  0.212000  0.081900  0.156000  1.0  0.1123
  H  H102  1  0.714000  0.142800  0.998400  1.0  0.1137
  H  H103  1  0.752800  0.190000  0.169200  1.0  0.1195
  H  H104  1  0.566400  0.237600  0.034900  1.0  0.1205
  H  H105  1  0.606700  0.281900  0.204500  1.0  0.0962
  H  H106  1  0.139500  0.996900  0.341600  1.0  0.1178
  H  H107  1  0.334400  0.995300  0.184400  1.0  0.1132
  H  H108  1  0.232900  0.979900  0.407100  1.0  0.1068
  H  H109  1  0.429400  0.981300  0.248300  1.0  0.1201
  H  H110  1  0.435800  0.370600  0.294200  1.0  0.104
  H  H111  1  0.328200  0.433700  0.085600  1.0  0.1182
  H  H112  1  0.179700  0.558300  0.415500  1.0  0.1025
  H  H113  1  0.071900  0.628300  0.210700  1.0  0.1126
  H  H114  1  0.527400  0.429200  0.328100  1.0  0.1195
  H  H115  1  0.401300  0.263200  0.353700  1.0  0.1327
  H  H116  1  0.366400  0.538600  0.012800  1.0  0.1242
  H  H117  1  0.240000  0.362400  0.055600  1.0  0.112
  H  H118  1  0.267100  0.628300  0.453900  1.0  0.1162
  H  H119  1  0.531500  0.528100  0.387000  1.0  0.0909
  H  H120  1  0.141400  0.452200  0.483900  1.0  0.0885
  H  H121  1  0.300600  0.228000  0.432900  1.0  0.0969
  H  H122  1  0.108000  0.734400  0.147100  1.0  0.1292
  H  H123  1  0.331300  0.666100  0.992000  1.0  0.0884
  H  H124  1  0.981400  0.561300  0.178900  1.0  0.1012
  H  H125  1  0.104200  0.358500  0.063800  1.0  0.1083
  H  H126  1  0.404200  0.630000  0.448600  1.0  0.1216
  H  H127  1  0.173700  0.322900  0.502000  1.0  0.1194
  H  H128  1  0.206500  0.763000  0.059300  1.0  0.0916
  H  H129  1  0.974100  0.461900  0.121700  1.0  0.0943
  H  H130  1  0.888800  0.735600  0.325100  1.0  0.1002
  H  H131  1  0.979500  0.752000  0.473800  1.0  0.1065
  H  H132  1  0.748100  0.824900  0.384300  1.0  0.099
  H  H133  1  0.844200  0.851600  0.527700  1.0  0.1007
  C  C134  1  0.401500  0.887300  0.507800  1.0  0.6661
  C  C135  1  0.371200  0.834900  0.553800  1.0  -0.094
  C  C136  1  0.318600  0.802400  0.537700  1.0  -0.1213
  C  C137  1  0.399700  0.816100  0.608800  1.0  -0.1371
  C  C138  1  0.299400  0.749200  0.578400  1.0  -0.0919
  C  C139  1  0.372800  0.766100  0.649700  1.0  -0.0735
  C  C140  1  0.320600  0.731300  0.636300  1.0  0.0388
  C  C141  1  0.299100  0.674100  0.670600  1.0  -0.0246
  C  C142  1  0.284300  0.620000  0.698400  1.0  0.0313
  C  C143  1  0.268200  0.559200  0.725100  1.0  0.0921
  C  C144  1  0.269700  0.540100  0.788400  1.0  -0.0085
  C  C145  1  0.243200  0.515900  0.688200  1.0  -0.0522
  C  C146  1  0.286200  0.582700  0.837900  1.0  -0.0982
  C  C147  1  0.242900  0.482600  0.815100  1.0  -0.1258
  C  C148  1  0.244300  0.523700  0.615900  1.0  -0.085
  C  C149  1  0.219500  0.456700  0.714100  1.0  -0.0335
  C  C150  1  0.359300  0.521100  0.857800  1.0  0.0168
  C  C151  1  0.204500  0.610300  0.896300  1.0  0.0051
  C  C152  1  0.244000  0.473900  0.888200  1.0  -0.0927
  C  C153  1  0.218400  0.438800  0.778100  1.0  0.0289
  C  C154  1  0.307800  0.442400  0.581300  1.0  -0.0034
  C  C155  1  0.155900  0.531100  0.612500  1.0  -0.0169
  C  C156  1  0.199700  0.412500  0.665800  1.0  -0.1158
  C  C157  1  0.339500  0.459400  0.884500  1.0  -0.0312
  C  C158  1  0.443300  0.519500  0.851200  1.0  -0.1339
  C  C159  1  0.184300  0.549600  0.924100  1.0  0.0002
  C  C160  1  0.155200  0.685400  0.926400  1.0  -0.061
  C  C161  1  0.200900  0.375600  0.803400  1.0  0.0603
  C  C162  1  0.283700  0.383400  0.607700  1.0  0.0023
  C  C163  1  0.383500  0.424100  0.527000  1.0  -0.0244
  C  C164  1  0.133200  0.472100  0.640700  1.0  -0.0248
  C  C165  1  0.100300  0.592600  0.586900  1.0  -0.0413
  C  C166  1  0.395800  0.398100  0.909200  1.0  -0.0721
  C  C167  1  0.498000  0.458800  0.877500  1.0  -0.1191
  C  C168  1  0.109300  0.565100  0.978400  1.0  -0.1517
  C  C169  1  0.076600  0.705100  0.977800  1.0  -0.123
  C  C170  1  0.184500  0.321400  0.825800  1.0  0.018
  C  C171  1  0.337600  0.307000  0.582700  1.0  -0.0412
  C  C172  1  0.435100  0.347000  0.502500  1.0  -0.0859
  C  C173  1  0.052200  0.470900  0.641400  1.0  -0.1413
  C  C174  1  0.020500  0.592000  0.584500  1.0  -0.1559
  C  C175  1  0.476800  0.399800  0.908400  1.0  -0.123
  C  C176  1  0.057300  0.642800  0.002200  1.0  -0.1184
  C  C177  1  0.157200  0.264700  0.853200  1.0  -0.0301
  C  C178  1  0.410000  0.288200  0.527200  1.0  -0.1259
  C  C179  1  0.000800  0.531800  0.613400  1.0  -0.1426
  C  C180  1  0.114300  0.233800  0.821600  1.0  -0.1593
  C  C181  1  0.177300  0.233300  0.909300  1.0  -0.1243
  C  C182  1  0.089700  0.175600  0.850800  1.0  -0.0365
  C  C183  1  0.145300  0.179900  0.939300  1.0  -0.0663
  C  C184  1  0.099100  0.150600  0.910700  1.0  -0.0887
  C  C185  1  0.060800  0.095100  0.943700  1.0  0.6842
  C  C186  1  0.929000  0.023400  0.820400  1.0  0.1578
  C  C187  1  0.877100  0.933800  0.880800  1.0  0.1161
  C  C188  1  0.156200  0.892500  0.948200  1.0  0.6761
  C  C189  1  0.880600  0.031800  0.776400  1.0  -0.2111
  C  C190  1  0.825800  0.943700  0.837500  1.0  -0.1259
  C  C191  1  0.252800  0.839100  0.921000  1.0  -0.1155
  C  C192  1  0.828400  0.989400  0.785400  1.0  0.0774
  C  C193  1  0.307300  0.826600  0.961300  1.0  -0.0183
  C  C194  1  0.283600  0.799500  0.858100  1.0  -0.0751
  C  C195  1  0.774000  0.999400  0.743600  1.0  0.0633
  C  C196  1  0.396300  0.773300  0.938300  1.0  -0.1124
  C  C197  1  0.372000  0.746800  0.836200  1.0  -0.1657
  C  C198  1  0.803300  0.005400  0.677000  1.0  -0.1826
  C  C199  1  0.686000  0.007200  0.770400  1.0  -0.1193
  C  C200  1  0.427800  0.734900  0.875200  1.0  -0.0024
  C  C201  1  0.747000  0.016800  0.638300  1.0  0.1398
  C  C202  1  0.627500  0.017400  0.734000  1.0  0.0842
  C  C203  1  0.514600  0.677500  0.850700  1.0  0.0235
  C  C204  1  0.586900  0.622600  0.822100  1.0  -0.0282
  C  C205  1  0.665300  0.559700  0.788500  1.0  0.0702
  C  C206  1  0.683300  0.546100  0.720600  1.0  -0.112
  C  C207  1  0.731600  0.516000  0.816000  1.0  -0.0296
  C  C208  1  0.620000  0.588200  0.679400  1.0  -0.0911
  C  C209  1  0.759900  0.485600  0.682600  1.0  -0.0013
  C  C210  1  0.726500  0.526000  0.887100  1.0  -0.1054
  C  C211  1  0.810000  0.457000  0.777300  1.0  -0.0586
  C  C212  1  0.607000  0.531600  0.645000  1.0  -0.0146
  C  C213  1  0.674700  0.620800  0.626900  1.0  -0.0265
  C  C214  1  0.764700  0.482900  0.611200  1.0  -0.111
  C  C215  1  0.825300  0.440500  0.710600  1.0  -0.0608
  C  C216  1  0.742000  0.440000  0.907900  1.0  -0.0456
  C  C217  1  0.807500  0.536400  0.888400  1.0  0.0379
  C  C218  1  0.872100  0.412400  0.816200  1.0  -0.0959
  C  C219  1  0.683300  0.469500  0.608400  1.0  -0.025
  C  C220  1  0.525100  0.531100  0.647200  1.0  -0.1236
  C  C221  1  0.752600  0.560400  0.591200  1.0  0.0508
  C  C222  1  0.652000  0.699600  0.620600  1.0  -0.0771
  C  C223  1  0.905300  0.379000  0.671100  1.0  0.0763
  C  C224  1  0.819600  0.381700  0.868600  1.0  0.0291
  C  C225  1  0.683900  0.422800  0.960300  1.0  -0.0774
  C  C226  1  0.885300  0.475700  0.851400  1.0  -0.0085
  C  C227  1  0.812500  0.598700  0.918400  1.0  -0.054
  C  C228  1  0.680600  0.410400  0.572300  1.0  -0.0169
  C  C229  1  0.523200  0.470900  0.612200  1.0  -0.1032
  C  C230  1  0.805800  0.585800  0.542200  1.0  -0.0493
  C  C231  1  0.711600  0.720300  0.572400  1.0  -0.0745
  C  C232  1  0.969300  0.326400  0.641600  1.0  0.093
  C  C233  1  0.840500  0.304500  0.879400  1.0  -0.0768
  C  C234  1  0.706100  0.345900  0.972900  1.0  -0.0964
  C  C235  1  0.967200  0.477500  0.846600  1.0  -0.0184
  C  C236  1  0.894200  0.600000  0.914800  1.0  -0.1229
  C  C237  1  0.598900  0.409900  0.573900  1.0  -0.1513
  C  C238  1  0.789000  0.663300  0.531500  1.0  -0.0924
  C  C239  1  0.050400  0.267600  0.606500  1.0  -0.0442
  C  C240  1  0.782500  0.288100  0.932600  1.0  -0.1053
  C  C241  1  0.971500  0.537700  0.880000  1.0  -0.1028
  C  C242  1  0.120500  0.243000  0.633100  1.0  -0.155
  C  C243  1  0.066000  0.231500  0.545400  1.0  -0.1249
  C  C244  1  0.204400  0.187500  0.598600  1.0  -0.0437
  C  C245  1  0.148000  0.173800  0.512100  1.0  -0.0291
  C  C246  1  0.219100  0.150900  0.538000  1.0  -0.0945
  C  C247  1  0.310400  0.094400  0.498900  1.0  0.6653
  C  C248  1  0.598500  0.112700  0.492200  1.0  0.6676
  C  C249  1  0.628800  0.165100  0.446200  1.0  -0.0948
  C  C250  1  0.681400  0.197600  0.462300  1.0  -0.1211
  C  C251  1  0.600300  0.183900  0.391200  1.0  -0.1319
  C  C252  1  0.700600  0.250800  0.421600  1.0  -0.09
  C  C253  1  0.627200  0.233900  0.350300  1.0  -0.072
  C  C254  1  0.679400  0.268700  0.363700  1.0  0.0383
  C  C255  1  0.700900  0.325900  0.329400  1.0  -0.0249
  C  C256  1  0.715700  0.380000  0.301600  1.0  0.0338
  C  C257  1  0.731800  0.440800  0.274900  1.0  0.0906
  C  C258  1  0.730300  0.459900  0.211600  1.0  -0.0098
  C  C259  1  0.756800  0.484100  0.311800  1.0  -0.0516
  C  C260  1  0.713800  0.417300  0.162100  1.0  -0.097
  C  C261  1  0.757100  0.517400  0.184900  1.0  -0.128
  C  C262  1  0.755700  0.476300  0.384100  1.0  -0.0863
  C  C263  1  0.780500  0.543300  0.285900  1.0  -0.0337
  C  C264  1  0.640700  0.478900  0.142200  1.0  0.0157
  C  C265  1  0.795500  0.389700  0.103700  1.0  0.006
  C  C266  1  0.756000  0.526100  0.111800  1.0  -0.0913
  C  C267  1  0.781600  0.561200  0.221900  1.0  0.0307
  C  C268  1  0.692200  0.557600  0.418700  1.0  -0.0044
  C  C269  1  0.844100  0.468900  0.387500  1.0  -0.0174
  C  C270  1  0.800300  0.587500  0.334200  1.0  -0.1156
  C  C271  1  0.660500  0.540600  0.115500  1.0  -0.032
  C  C272  1  0.556700  0.480500  0.148800  1.0  -0.1322
  C  C273  1  0.815700  0.450400  0.075900  1.0  0.0006
  C  C274  1  0.844800  0.314600  0.073600  1.0  -0.0606
  C  C275  1  0.799100  0.624400  0.196600  1.0  0.0594
  C  C276  1  0.716300  0.616600  0.392300  1.0  0.0017
  C  C277  1  0.616500  0.575900  0.473000  1.0  -0.0274
  C  C278  1  0.866800  0.527900  0.359300  1.0  -0.0253
  C  C279  1  0.899700  0.407400  0.413100  1.0  -0.0412
  C  C280  1  0.604200  0.601900  0.090800  1.0  -0.0701
  C  C281  1  0.502000  0.541200  0.122500  1.0  -0.1219
  C  C282  1  0.890700  0.434900  0.021600  1.0  -0.1509
  C  C283  1  0.923400  0.294900  0.022200  1.0  -0.1211
  C  C284  1  0.815500  0.678600  0.174200  1.0  0.0163
  C  C285  1  0.662400  0.693000  0.417300  1.0  -0.0391
  C  C286  1  0.564900  0.653000  0.497500  1.0  -0.085
  C  C287  1  0.947800  0.529100  0.358600  1.0  -0.1407
  C  C288  1  0.979500  0.408000  0.415500  1.0  -0.1572
  C  C289  1  0.523200  0.600200  0.091600  1.0  -0.122
  C  C290  1  0.942700  0.357200  0.997800  1.0  -0.1193
  C  C291  1  0.842800  0.735300  0.146800  1.0  -0.0296
  C  C292  1  0.590000  0.711800  0.472800  1.0  -0.1275
  C  C293  1  0.999200  0.468200  0.386600  1.0  -0.1373
  C  C294  1  0.885700  0.766200  0.178400  1.0  -0.1607
  C  C295  1  0.822700  0.766700  0.090700  1.0  -0.1262
  C  C296  1  0.910300  0.824400  0.149200  1.0  -0.0372
  C  C297  1  0.854700  0.820100  0.060700  1.0  -0.07
  C  C298  1  0.900900  0.849400  0.089300  1.0  -0.0872
  C  C299  1  0.939200  0.904900  0.056300  1.0  0.685
  C  C300  1  0.071000  0.976600  0.179600  1.0  0.1589
  C  C301  1  0.122900  0.066200  0.119200  1.0  0.1167
  C  C302  1  0.843800  0.107500  0.051800  1.0  0.676
  C  C303  1  0.119400  0.968200  0.223600  1.0  -0.212
  C  C304  1  0.174200  0.056300  0.162500  1.0  -0.1256
  C  C305  1  0.747200  0.160900  0.079000  1.0  -0.1184
  C  C306  1  0.171600  0.010600  0.214600  1.0  0.0773
  C  C307  1  0.692700  0.173400  0.038700  1.0  -0.0174
  C  C308  1  0.716400  0.200500  0.141900  1.0  -0.0747
  C  C309  1  0.226000  0.000600  0.256400  1.0  0.0634
  C  C310  1  0.603700  0.226700  0.061700  1.0  -0.1134
  C  C311  1  0.628000  0.253200  0.163800  1.0  -0.1653
  C  C312  1  0.196700  0.994600  0.323000  1.0  -0.1857
  C  C313  1  0.314000  0.992800  0.229600  1.0  -0.1182
  C  C314  1  0.572200  0.265100  0.124800  1.0  -0.0042
  C  C315  1  0.253000  0.983200  0.361700  1.0  0.1403
  C  C316  1  0.372500  0.982600  0.266000  1.0  0.0867
  C  C317  1  0.485400  0.322500  0.149300  1.0  0.0232
  C  C318  1  0.413100  0.377400  0.177900  1.0  -0.0282
  C  C319  1  0.334700  0.440300  0.211500  1.0  0.07
  C  C320  1  0.316700  0.453900  0.279400  1.0  -0.1136
  C  C321  1  0.268400  0.484000  0.184000  1.0  -0.0314
  C  C322  1  0.380000  0.411800  0.320600  1.0  -0.0915
  C  C323  1  0.240100  0.514400  0.317400  1.0  -0.0018
  C  C324  1  0.273500  0.474000  0.112900  1.0  -0.1066
  C  C325  1  0.190000  0.543000  0.222700  1.0  -0.0588
  C  C326  1  0.393000  0.468400  0.355000  1.0  -0.0152
  C  C327  1  0.325300  0.379200  0.373100  1.0  -0.0262
  C  C328  1  0.235300  0.517100  0.388800  1.0  -0.1101
  C  C329  1  0.174700  0.559500  0.289400  1.0  -0.0608
  C  C330  1  0.258000  0.560000  0.092100  1.0  -0.0463
  C  C331  1  0.192500  0.463600  0.111600  1.0  0.0375
  C  C332  1  0.127900  0.587600  0.183800  1.0  -0.0951
  C  C333  1  0.316700  0.530500  0.391600  1.0  -0.0254
  C  C334  1  0.474900  0.468900  0.352800  1.0  -0.1231
  C  C335  1  0.247400  0.439600  0.408800  1.0  0.0503
  C  C336  1  0.348000  0.300400  0.379400  1.0  -0.0799
  C  C337  1  0.094700  0.621000  0.328900  1.0  0.0746
  C  C338  1  0.180400  0.618300  0.131400  1.0  0.0279
  C  C339  1  0.316100  0.577200  0.039700  1.0  -0.0751
  C  C340  1  0.114700  0.524300  0.148600  1.0  -0.0092
  C  C341  1  0.187500  0.401300  0.081600  1.0  -0.0563
  C  C342  1  0.319400  0.589600  0.427700  1.0  -0.0165
  C  C343  1  0.476800  0.529100  0.387800  1.0  -0.1002
  C  C344  1  0.194200  0.414200  0.457800  1.0  -0.0501
  C  C345  1  0.288400  0.279700  0.427600  1.0  -0.0736
  C  C346  1  0.030700  0.673600  0.358400  1.0  0.0959
  C  C347  1  0.159500  0.695500  0.120600  1.0  -0.076
  C  C348  1  0.293900  0.654100  0.027100  1.0  -0.096
  C  C349  1  0.032800  0.522500  0.153400  1.0  -0.0185
  C  C350  1  0.105800  0.400000  0.085200  1.0  -0.1247
  C  C351  1  0.401100  0.590100  0.426100  1.0  -0.1486
  C  C352  1  0.211000  0.336700  0.468500  1.0  -0.0908
  C  C353  1  0.949600  0.732400  0.393500  1.0  -0.0452
  C  C354  1  0.217500  0.711900  0.067400  1.0  -0.1022
  C  C355  1  0.028500  0.462300  0.120000  1.0  -0.1044
  C  C356  1  0.879500  0.757000  0.366900  1.0  -0.1559
  C  C357  1  0.934000  0.768500  0.454600  1.0  -0.1231
  C  C358  1  0.795600  0.812500  0.401400  1.0  -0.0441
  C  C359  1  0.852000  0.826200  0.487900  1.0  -0.03
  C  C360  1  0.780900  0.849100  0.462000  1.0  -0.0897
  C  C361  1  0.689600  0.905600  0.501100  1.0  0.6668
  N  N362  1  0.544500  0.017700  0.352600  1.0  0.7686
  N  N363  1  0.339200  0.976800  0.332700  1.0  -0.3535
  N  N364  1  0.927800  0.976800  0.871500  1.0  -0.314
  N  N365  1  0.455500  0.982300  0.647400  1.0  0.7699
  N  N366  1  0.660800  0.023200  0.667300  1.0  -0.3555
  N  N367  1  0.072200  0.023200  0.128500  1.0  -0.3143
  O  O368  1  0.451500  0.914300  0.522400  1.0  -0.6016
  O  O369  1  0.509900  0.987100  0.402800  1.0  -0.6888
  O  O370  1  0.372100  0.079700  0.526200  1.0  -0.613
  O  O371  1  0.379700  0.898500  0.454100  1.0  -0.6049
  O  O372  1  0.311500  0.059900  0.449600  1.0  -0.5866
  O  O373  1  0.512700  0.031700  0.303300  1.0  -0.5481
  O  O374  1  0.594900  0.051600  0.358400  1.0  -0.5418
  O  O375  1  0.034900  0.064500  0.908800  1.0  -0.5718
  O  O376  1  0.055900  0.091100  0.000600  1.0  -0.556
  O  O377  1  0.109000  0.904400  0.911700  1.0  -0.5739
  O  O378  1  0.865000  0.073300  0.999500  1.0  -0.5831
  O  O379  1  0.548500  0.085700  0.477600  1.0  -0.6006
  O  O380  1  0.490100  0.012900  0.597200  1.0  -0.6903
  O  O381  1  0.627900  0.920300  0.473800  1.0  -0.6129
  O  O382  1  0.620300  0.101500  0.545900  1.0  -0.6035
  O  O383  1  0.688500  0.940100  0.550400  1.0  -0.5861
  O  O384  1  0.487300  0.968300  0.696700  1.0  -0.5467
  O  O385  1  0.405100  0.948400  0.641600  1.0  -0.5402
  O  O386  1  0.965100  0.935500  0.091200  1.0  -0.5724
  O  O387  1  0.944100  0.908900  0.999400  1.0  -0.5585
  O  O388  1  0.891000  0.095600  0.088300  1.0  -0.5728
  O  O389  1  0.135000  0.926700  0.000500  1.0  -0.5828
