# generated using pymatgen
data_GdH2C5O6
_symmetry_space_group_name_H-M   'P 1'
_cell_length_a   9.10600000
_cell_length_b   9.10600000
_cell_length_c   14.45220000
_cell_angle_alpha   79.77370000
_cell_angle_beta   79.77370000
_cell_angle_gamma   115.87800000
_symmetry_Int_Tables_number   1
_chemical_formula_structural   GdH2C5O6
_chemical_formula_sum   'Gd4 H8 C20 O24'
_cell_volume   1016.10780188
_cell_formula_units_Z   4
loop_
 _symmetry_equiv_pos_site_id
 _symmetry_equiv_pos_as_xyz
  1  'x, y, z'
loop_
 _atom_site_type_symbol
 _atom_site_label
 _atom_site_symmetry_multiplicity
 _atom_site_fract_x
 _atom_site_fract_y
 _atom_site_fract_z
 _atom_site_occupancy
 _atom_site_charge
  Gd  Gd1  1  0.509380  0.759380  0.981240  1.0  2.1979
  Gd  Gd2  1  0.740620  0.990620  0.518760  1.0  2.1942
  Gd  Gd3  1  0.490620  0.240620  0.018760  1.0  2.1942
  Gd  Gd4  1  0.259380  0.009380  0.481240  1.0  2.1979
  H  H5  1  0.095000  0.179000  0.946000  1.0  0.0839
  H  H6  1  0.959000  0.375000  0.946000  1.0  0.0852
  H  H7  1  0.321000  0.405000  0.554000  1.0  0.0824
  H  H8  1  0.125000  0.541000  0.554000  1.0  0.0853
  H  H9  1  0.905000  0.821000  0.054000  1.0  0.0843
  H  H10  1  0.041000  0.625000  0.054000  1.0  0.0843
  H  H11  1  0.679000  0.595000  0.446000  1.0  0.0837
  H  H12  1  0.875000  0.459000  0.446000  1.0  0.0848
  C  C13  1  0.253990  0.434390  0.941820  1.0  0.7224
  C  C14  1  0.103770  0.284970  0.935660  1.0  -0.0932
  C  C15  1  0.804190  0.123790  0.941820  1.0  0.7226
  C  C16  1  0.960570  0.279370  0.935660  1.0  -0.0933
  C  C17  1  0.065610  0.246010  0.558180  1.0  0.7233
  C  C18  1  0.215030  0.396230  0.564340  1.0  -0.092
  C  C19  1  0.376210  0.695810  0.558180  1.0  0.7233
  C  C20  1  0.220630  0.539430  0.564340  1.0  -0.0944
  C  C21  1  0.746010  0.565610  0.058180  1.0  0.7227
  C  C22  1  0.896230  0.715030  0.064340  1.0  -0.0942
  C  C23  1  0.195810  0.876210  0.058180  1.0  0.7228
  C  C24  1  0.039430  0.720630  0.064340  1.0  -0.0912
  C  C25  1  0.934390  0.753990  0.441820  1.0  0.7218
  C  C26  1  0.784970  0.603770  0.435660  1.0  -0.0919
  C  C27  1  0.623790  0.304190  0.441820  1.0  0.7236
  C  C28  1  0.779370  0.460570  0.435660  1.0  -0.0934
  C  C29  1  0.674900  0.825100  0.750000  1.0  0.5524
  C  C30  1  0.575100  0.924900  0.750000  1.0  0.5507
  C  C31  1  0.325100  0.174900  0.250000  1.0  0.5507
  C  C32  1  0.424900  0.075100  0.250000  1.0  0.5524
  O  O33  1  0.366560  0.406240  0.967200  1.0  -0.8142
  O  O34  1  0.269260  0.580680  0.924260  1.0  -0.6882
  O  O35  1  0.659940  0.737760  0.831700  1.0  -0.5841
  O  O36  1  0.666240  0.126560  0.967200  1.0  -0.8147
  O  O37  1  0.806480  0.995060  0.924260  1.0  -0.6909
  O  O38  1  0.508360  0.930540  0.831700  1.0  -0.5832
  O  O39  1  0.093760  0.133440  0.532800  1.0  -0.8141
  O  O40  1  0.919320  0.230740  0.575740  1.0  -0.6874
  O  O41  1  0.762240  0.840060  0.668300  1.0  -0.5859
  O  O42  1  0.373440  0.833760  0.532800  1.0  -0.8156
  O  O43  1  0.504940  0.693520  0.575740  1.0  -0.6894
  O  O44  1  0.569460  0.991640  0.668300  1.0  -0.5843
  O  O45  1  0.633440  0.593760  0.032800  1.0  -0.8148
  O  O46  1  0.730740  0.419320  0.075740  1.0  -0.6874
  O  O47  1  0.340060  0.262240  0.168300  1.0  -0.5855
  O  O48  1  0.333760  0.873440  0.032800  1.0  -0.8136
  O  O49  1  0.193520  0.004940  0.075740  1.0  -0.6904
  O  O50  1  0.491640  0.069460  0.168300  1.0  -0.5857
  O  O51  1  0.906240  0.866560  0.467200  1.0  -0.8147
  O  O52  1  0.080680  0.769260  0.424260  1.0  -0.6888
  O  O53  1  0.237760  0.159940  0.331700  1.0  -0.5826
  O  O54  1  0.626560  0.166240  0.467200  1.0  -0.8149
  O  O55  1  0.495060  0.306480  0.424260  1.0  -0.688
  O  O56  1  0.430540  0.008360  0.331700  1.0  -0.5845
