# generated using pymatgen
data_GdH2C5O6
_symmetry_space_group_name_H-M   'P 1'
_cell_length_a   9.68670000
_cell_length_b   15.44900000
_cell_length_c   27.30300000
_cell_angle_alpha   90.00000000
_cell_angle_beta   90.00000000
_cell_angle_gamma   90.00000000
_symmetry_Int_Tables_number   1
_chemical_formula_structural   GdH2C5O6
_chemical_formula_sum   'Gd16 H32 C80 O96'
_cell_volume   4085.88926207
_cell_formula_units_Z   16
loop_
 _symmetry_equiv_pos_site_id
 _symmetry_equiv_pos_as_xyz
  1  'x, y, z'
loop_
 _atom_site_type_symbol
 _atom_site_label
 _atom_site_symmetry_multiplicity
 _atom_site_fract_x
 _atom_site_fract_y
 _atom_site_fract_z
 _atom_site_occupancy
 _atom_site_charge
  Gd  Gd1  1  0.125000  0.625000  0.509440  1.0  2.1855
  Gd  Gd2  1  0.125000  0.125000  0.009440  1.0  2.1855
  Gd  Gd3  1  0.625000  0.625000  0.009440  1.0  2.1855
  Gd  Gd4  1  0.625000  0.125000  0.509440  1.0  2.1855
  Gd  Gd5  1  0.625000  0.625000  0.240560  1.0  2.1911
  Gd  Gd6  1  0.625000  0.125000  0.740560  1.0  2.1911
  Gd  Gd7  1  0.125000  0.125000  0.240560  1.0  2.1911
  Gd  Gd8  1  0.125000  0.625000  0.740560  1.0  2.1911
  Gd  Gd9  1  0.875000  0.375000  0.490560  1.0  2.1911
  Gd  Gd10  1  0.875000  0.875000  0.990560  1.0  2.1911
  Gd  Gd11  1  0.375000  0.875000  0.490560  1.0  2.1911
  Gd  Gd12  1  0.375000  0.375000  0.990560  1.0  2.1911
  Gd  Gd13  1  0.375000  0.375000  0.759440  1.0  2.1855
  Gd  Gd14  1  0.375000  0.875000  0.259440  1.0  2.1855
  Gd  Gd15  1  0.875000  0.875000  0.759440  1.0  2.1855
  Gd  Gd16  1  0.875000  0.375000  0.259440  1.0  2.1855
  H  H17  1  0.632700  0.712800  0.534000  1.0  0.0881
  H  H18  1  0.632700  0.212800  0.034000  1.0  0.0881
  H  H19  1  0.132700  0.712800  0.034000  1.0  0.0881
  H  H20  1  0.132700  0.212800  0.534000  1.0  0.0881
  H  H21  1  0.117300  0.037200  0.534000  1.0  0.0878
  H  H22  1  0.117300  0.537200  0.034000  1.0  0.0878
  H  H23  1  0.617300  0.037200  0.034000  1.0  0.0878
  H  H24  1  0.617300  0.537200  0.534000  1.0  0.0878
  H  H25  1  0.117300  0.712800  0.216000  1.0  0.088
  H  H26  1  0.117300  0.212800  0.716000  1.0  0.088
  H  H27  1  0.617300  0.712800  0.716000  1.0  0.088
  H  H28  1  0.617300  0.212800  0.216000  1.0  0.088
  H  H29  1  0.632700  0.037200  0.216000  1.0  0.087
  H  H30  1  0.632700  0.537200  0.716000  1.0  0.087
  H  H31  1  0.132700  0.037200  0.716000  1.0  0.087
  H  H32  1  0.132700  0.537200  0.216000  1.0  0.087
  H  H33  1  0.367300  0.287200  0.466000  1.0  0.087
  H  H34  1  0.367300  0.787200  0.966000  1.0  0.087
  H  H35  1  0.867300  0.287200  0.966000  1.0  0.087
  H  H36  1  0.867300  0.787200  0.466000  1.0  0.087
  H  H37  1  0.882700  0.962800  0.466000  1.0  0.0879
  H  H38  1  0.882700  0.462800  0.966000  1.0  0.0879
  H  H39  1  0.382700  0.962800  0.966000  1.0  0.0879
  H  H40  1  0.382700  0.462800  0.466000  1.0  0.0879
  H  H41  1  0.882700  0.287200  0.784000  1.0  0.0879
  H  H42  1  0.882700  0.787200  0.284000  1.0  0.0879
  H  H43  1  0.382700  0.287200  0.284000  1.0  0.0879
  H  H44  1  0.382700  0.787200  0.784000  1.0  0.0879
  H  H45  1  0.367300  0.962800  0.784000  1.0  0.0882
  H  H46  1  0.367300  0.462800  0.284000  1.0  0.0882
  H  H47  1  0.867300  0.962800  0.284000  1.0  0.0882
  H  H48  1  0.867300  0.462800  0.784000  1.0  0.0882
  C  C49  1  0.434700  0.659800  0.529240  1.0  0.727
  C  C50  1  0.587800  0.659700  0.532080  1.0  -0.1359
  C  C51  1  0.434700  0.159800  0.029240  1.0  0.727
  C  C52  1  0.587800  0.159700  0.032080  1.0  -0.1359
  C  C53  1  0.934700  0.659800  0.029240  1.0  0.727
  C  C54  1  0.087800  0.659700  0.032080  1.0  -0.1359
  C  C55  1  0.934700  0.159800  0.529240  1.0  0.727
  C  C56  1  0.087800  0.159700  0.532080  1.0  -0.1359
  C  C57  1  0.315300  0.090200  0.529240  1.0  0.7289
  C  C58  1  0.162200  0.090300  0.532080  1.0  -0.1357
  C  C59  1  0.315300  0.590200  0.029240  1.0  0.7289
  C  C60  1  0.162200  0.590300  0.032080  1.0  -0.1357
  C  C61  1  0.815300  0.090200  0.029240  1.0  0.7289
  C  C62  1  0.662200  0.090300  0.032080  1.0  -0.1357
  C  C63  1  0.815300  0.590200  0.529240  1.0  0.7289
  C  C64  1  0.662200  0.590300  0.532080  1.0  -0.1357
  C  C65  1  0.315300  0.659800  0.220760  1.0  0.7292
  C  C66  1  0.162200  0.659700  0.217920  1.0  -0.1365
  C  C67  1  0.315300  0.159800  0.720760  1.0  0.7292
  C  C68  1  0.162200  0.159700  0.717920  1.0  -0.1365
  C  C69  1  0.815300  0.659800  0.720760  1.0  0.7292
  C  C70  1  0.662200  0.659700  0.717920  1.0  -0.1365
  C  C71  1  0.815300  0.159800  0.220760  1.0  0.7292
  C  C72  1  0.662200  0.159700  0.217920  1.0  -0.1365
  C  C73  1  0.434700  0.090200  0.220760  1.0  0.7273
  C  C74  1  0.587800  0.090300  0.217920  1.0  -0.1359
  C  C75  1  0.434700  0.590200  0.720760  1.0  0.7273
  C  C76  1  0.587800  0.590300  0.717920  1.0  -0.1359
  C  C77  1  0.934700  0.090200  0.720760  1.0  0.7273
  C  C78  1  0.087800  0.090300  0.717920  1.0  -0.1359
  C  C79  1  0.934700  0.590200  0.220760  1.0  0.7273
  C  C80  1  0.087800  0.590300  0.217920  1.0  -0.1359
  C  C81  1  0.565300  0.340200  0.470760  1.0  0.7292
  C  C82  1  0.412200  0.340300  0.467920  1.0  -0.1366
  C  C83  1  0.565300  0.840200  0.970760  1.0  0.7292
  C  C84  1  0.412200  0.840300  0.967920  1.0  -0.1366
  C  C85  1  0.065300  0.340200  0.970760  1.0  0.7292
  C  C86  1  0.912200  0.340300  0.967920  1.0  -0.1366
  C  C87  1  0.065300  0.840200  0.470760  1.0  0.7292
  C  C88  1  0.912200  0.840300  0.467920  1.0  -0.1366
  C  C89  1  0.684700  0.909800  0.470760  1.0  0.7272
  C  C90  1  0.837800  0.909700  0.467920  1.0  -0.1356
  C  C91  1  0.684700  0.409800  0.970760  1.0  0.7272
  C  C92  1  0.837800  0.409700  0.967920  1.0  -0.1356
  C  C93  1  0.184700  0.909800  0.970760  1.0  0.7272
  C  C94  1  0.337800  0.909700  0.967920  1.0  -0.1356
  C  C95  1  0.184700  0.409800  0.470760  1.0  0.7272
  C  C96  1  0.337800  0.409700  0.467920  1.0  -0.1356
  C  C97  1  0.684700  0.340200  0.779240  1.0  0.727
  C  C98  1  0.837800  0.340300  0.782080  1.0  -0.1361
  C  C99  1  0.684700  0.840200  0.279240  1.0  0.727
  C  C100  1  0.837800  0.840300  0.282080  1.0  -0.1361
  C  C101  1  0.184700  0.340200  0.279240  1.0  0.727
  C  C102  1  0.337800  0.340300  0.282080  1.0  -0.1361
  C  C103  1  0.184700  0.840200  0.779240  1.0  0.727
  C  C104  1  0.337800  0.840300  0.782080  1.0  -0.1361
  C  C105  1  0.565300  0.909800  0.779240  1.0  0.729
  C  C106  1  0.412200  0.909700  0.782080  1.0  -0.1358
  C  C107  1  0.565300  0.409800  0.279240  1.0  0.729
  C  C108  1  0.412200  0.409700  0.282080  1.0  -0.1358
  C  C109  1  0.065300  0.909800  0.279240  1.0  0.729
  C  C110  1  0.912200  0.909700  0.282080  1.0  -0.1358
  C  C111  1  0.065300  0.409800  0.779240  1.0  0.729
  C  C112  1  0.912200  0.409700  0.782080  1.0  -0.1358
  C  C113  1  0.125000  0.574500  0.625000  1.0  0.5552
  C  C114  1  0.125000  0.074500  0.125000  1.0  0.5552
  C  C115  1  0.625000  0.074500  0.625000  1.0  0.5552
  C  C116  1  0.625000  0.175500  0.625000  1.0  0.554
  C  C117  1  0.625000  0.675500  0.125000  1.0  0.554
  C  C118  1  0.625000  0.574500  0.125000  1.0  0.5552
  C  C119  1  0.125000  0.175500  0.125000  1.0  0.554
  C  C120  1  0.125000  0.675500  0.625000  1.0  0.554
  C  C121  1  0.875000  0.425500  0.375000  1.0  0.554
  C  C122  1  0.875000  0.925500  0.875000  1.0  0.554
  C  C123  1  0.375000  0.824500  0.375000  1.0  0.5552
  C  C124  1  0.375000  0.324500  0.875000  1.0  0.5552
  C  C125  1  0.375000  0.425500  0.875000  1.0  0.554
  C  C126  1  0.375000  0.925500  0.375000  1.0  0.554
  C  C127  1  0.875000  0.824500  0.875000  1.0  0.5552
  C  C128  1  0.875000  0.324500  0.375000  1.0  0.5552
  O  O129  1  0.379800  0.729870  0.516460  1.0  -0.8208
  O  O130  1  0.362500  0.594020  0.538060  1.0  -0.6396
  O  O131  1  0.114400  0.538560  0.584260  1.0  -0.5921
  O  O132  1  0.379800  0.229870  0.016460  1.0  -0.8208
  O  O133  1  0.362500  0.094020  0.038060  1.0  -0.6396
  O  O134  1  0.114400  0.038560  0.084260  1.0  -0.5921
  O  O135  1  0.879800  0.729870  0.016460  1.0  -0.8208
  O  O136  1  0.862500  0.594020  0.038060  1.0  -0.6396
  O  O137  1  0.614400  0.538560  0.084260  1.0  -0.5921
  O  O138  1  0.879800  0.229870  0.516460  1.0  -0.8208
  O  O139  1  0.862500  0.094020  0.538060  1.0  -0.6396
  O  O140  1  0.614400  0.038560  0.584260  1.0  -0.5921
  O  O141  1  0.370200  0.020130  0.516460  1.0  -0.8162
  O  O142  1  0.387500  0.155980  0.538060  1.0  -0.6406
  O  O143  1  0.635600  0.211440  0.584260  1.0  -0.5922
  O  O144  1  0.370200  0.520130  0.016460  1.0  -0.8162
  O  O145  1  0.387500  0.655980  0.038060  1.0  -0.6406
  O  O146  1  0.635600  0.711440  0.084260  1.0  -0.5923
  O  O147  1  0.870200  0.020130  0.016460  1.0  -0.8162
  O  O148  1  0.887500  0.155980  0.038060  1.0  -0.6406
  O  O149  1  0.135600  0.211440  0.084260  1.0  -0.5922
  O  O150  1  0.870200  0.520130  0.516460  1.0  -0.8162
  O  O151  1  0.887500  0.655980  0.538060  1.0  -0.6406
  O  O152  1  0.135600  0.711440  0.584260  1.0  -0.5922
  O  O153  1  0.370200  0.729870  0.233540  1.0  -0.8199
  O  O154  1  0.387500  0.594020  0.211940  1.0  -0.64
  O  O155  1  0.635600  0.538560  0.165740  1.0  -0.5915
  O  O156  1  0.370200  0.229870  0.733540  1.0  -0.8199
  O  O157  1  0.387500  0.094020  0.711940  1.0  -0.64
  O  O158  1  0.635600  0.038560  0.665740  1.0  -0.5913
  O  O159  1  0.870200  0.729870  0.733540  1.0  -0.8199
  O  O160  1  0.887500  0.594020  0.711940  1.0  -0.64
  O  O161  1  0.135600  0.538560  0.665740  1.0  -0.5913
  O  O162  1  0.870200  0.229870  0.233540  1.0  -0.8199
  O  O163  1  0.887500  0.094020  0.211940  1.0  -0.64
  O  O164  1  0.135600  0.038560  0.165740  1.0  -0.5913
  O  O165  1  0.379800  0.020130  0.233540  1.0  -0.8171
  O  O166  1  0.362500  0.155980  0.211940  1.0  -0.6405
  O  O167  1  0.114400  0.211440  0.165740  1.0  -0.5917
  O  O168  1  0.379800  0.520130  0.733540  1.0  -0.8171
  O  O169  1  0.362500  0.655980  0.711940  1.0  -0.6405
  O  O170  1  0.114400  0.711440  0.665740  1.0  -0.5917
  O  O171  1  0.879800  0.020130  0.733540  1.0  -0.8171
  O  O172  1  0.862500  0.155980  0.711940  1.0  -0.6405
  O  O173  1  0.614400  0.211440  0.665740  1.0  -0.5917
  O  O174  1  0.879800  0.520130  0.233540  1.0  -0.8171
  O  O175  1  0.862500  0.655980  0.211940  1.0  -0.6405
  O  O176  1  0.614400  0.711440  0.165740  1.0  -0.5917
  O  O177  1  0.620200  0.270130  0.483540  1.0  -0.8193
  O  O178  1  0.637500  0.405980  0.461940  1.0  -0.6403
  O  O179  1  0.885600  0.461440  0.415740  1.0  -0.5913
  O  O180  1  0.620200  0.770130  0.983540  1.0  -0.8193
  O  O181  1  0.637500  0.905980  0.961940  1.0  -0.6403
  O  O182  1  0.885600  0.961440  0.915740  1.0  -0.5913
  O  O183  1  0.120200  0.270130  0.983540  1.0  -0.8193
  O  O184  1  0.137500  0.405980  0.961940  1.0  -0.6403
  O  O185  1  0.385600  0.461440  0.915740  1.0  -0.5917
  O  O186  1  0.120200  0.770130  0.483540  1.0  -0.8193
  O  O187  1  0.137500  0.905980  0.461940  1.0  -0.6403
  O  O188  1  0.385600  0.961440  0.415740  1.0  -0.5917
  O  O189  1  0.629800  0.979870  0.483540  1.0  -0.821
  O  O190  1  0.612500  0.844020  0.461940  1.0  -0.6402
  O  O191  1  0.364400  0.788560  0.415740  1.0  -0.591
  O  O192  1  0.629800  0.479870  0.983540  1.0  -0.821
  O  O193  1  0.612500  0.344020  0.961940  1.0  -0.6402
  O  O194  1  0.364400  0.288560  0.915740  1.0  -0.591
  O  O195  1  0.129800  0.979870  0.983540  1.0  -0.821
  O  O196  1  0.112500  0.844020  0.961940  1.0  -0.6402
  O  O197  1  0.864400  0.788560  0.915740  1.0  -0.5911
  O  O198  1  0.129800  0.479870  0.483540  1.0  -0.821
  O  O199  1  0.112500  0.344020  0.461940  1.0  -0.6402
  O  O200  1  0.864400  0.288560  0.415740  1.0  -0.5911
  O  O201  1  0.629800  0.270130  0.766460  1.0  -0.8203
  O  O202  1  0.612500  0.405980  0.788060  1.0  -0.6405
  O  O203  1  0.364400  0.461440  0.834260  1.0  -0.5923
  O  O204  1  0.629800  0.770130  0.266460  1.0  -0.8203
  O  O205  1  0.612500  0.905980  0.288060  1.0  -0.6405
  O  O206  1  0.364400  0.961440  0.334260  1.0  -0.5923
  O  O207  1  0.129800  0.270130  0.266460  1.0  -0.8203
  O  O208  1  0.112500  0.405980  0.288060  1.0  -0.6405
  O  O209  1  0.864400  0.461440  0.334260  1.0  -0.5917
  O  O210  1  0.129800  0.770130  0.766460  1.0  -0.8203
  O  O211  1  0.112500  0.905980  0.788060  1.0  -0.6405
  O  O212  1  0.864400  0.961440  0.834260  1.0  -0.5917
  O  O213  1  0.620200  0.979870  0.766460  1.0  -0.82
  O  O214  1  0.637500  0.844020  0.788060  1.0  -0.6395
  O  O215  1  0.885600  0.788560  0.834260  1.0  -0.5923
  O  O216  1  0.620200  0.479870  0.266460  1.0  -0.82
  O  O217  1  0.637500  0.344020  0.288060  1.0  -0.6395
  O  O218  1  0.885600  0.288560  0.334260  1.0  -0.5923
  O  O219  1  0.120200  0.979870  0.266460  1.0  -0.82
  O  O220  1  0.137500  0.844020  0.288060  1.0  -0.6395
  O  O221  1  0.385600  0.788560  0.334260  1.0  -0.5922
  O  O222  1  0.120200  0.479870  0.766460  1.0  -0.82
  O  O223  1  0.137500  0.344020  0.788060  1.0  -0.6395
  O  O224  1  0.385600  0.288560  0.834260  1.0  -0.5922
