# generated using pymatgen
data_Co2H32C41(N2O7)2
_symmetry_space_group_name_H-M   'P 1'
_cell_length_a   9.40920000
_cell_length_b   10.33760000
_cell_length_c   24.35300000
_cell_angle_alpha   93.97800000
_cell_angle_beta   90.00000000
_cell_angle_gamma   90.00000000
_symmetry_Int_Tables_number   1
_chemical_formula_structural   Co2H32C41(N2O7)2
_chemical_formula_sum   'Co4 H64 C82 N8 O28'
_cell_volume   2363.07394014
_cell_formula_units_Z   2
loop_
 _symmetry_equiv_pos_site_id
 _symmetry_equiv_pos_as_xyz
  1  'x, y, z'
loop_
 _atom_site_type_symbol
 _atom_site_label
 _atom_site_symmetry_multiplicity
 _atom_site_fract_x
 _atom_site_fract_y
 _atom_site_fract_z
 _atom_site_occupancy
 _atom_site_charge
  Co  Co1  1  0.500000  0.500000  0.500000  1.0  0.8705
  Co  Co2  1  0.500000  0.500000  0.000000  1.0  0.872
  Co  Co3  1  0.163510  0.000000  0.250000  1.0  0.9293
  Co  Co4  1  0.836490  0.000000  0.750000  1.0  0.9287
  H  H5  1  0.539700  0.102000  0.450900  1.0  0.1155
  H  H6  1  0.766300  0.828200  0.366800  1.0  0.1164
  H  H7  1  0.886800  0.200400  0.368600  1.0  0.1096
  H  H8  1  0.375300  0.302400  0.413500  1.0  0.0726
  H  H9  1  0.198000  0.273500  0.350500  1.0  0.1421
  H  H10  1  0.096700  0.646400  0.379400  1.0  0.1436
  H  H11  1  0.274400  0.661000  0.443500  1.0  0.0744
  H  H12  1  0.017000  0.614200  0.290300  1.0  0.0676
  H  H13  1  0.894300  0.575100  0.329900  1.0  0.0838
  H  H14  1  0.829900  0.692100  0.234100  1.0  0.0847
  H  H15  1  0.728800  0.596300  0.199500  1.0  0.0763
  H  H16  1  0.616900  0.785500  0.197500  1.0  0.1407
  H  H17  1  0.418500  0.909500  0.189800  1.0  0.0723
  H  H18  1  0.250200  0.778100  0.319900  1.0  0.0742
  H  H19  1  0.445600  0.654500  0.333333  1.0  0.1364
  H  H20  1  0.575600  0.828100  0.461800  1.0  0.3564
  H  H21  1  0.539700  0.898000  0.049100  1.0  0.1152
  H  H22  1  0.766300  0.171800  0.133200  1.0  0.1159
  H  H23  1  0.886800  0.799600  0.131400  1.0  0.1093
  H  H24  1  0.375300  0.697600  0.086500  1.0  0.073
  H  H25  1  0.198000  0.726500  0.149500  1.0  0.143
  H  H26  1  0.096700  0.353600  0.120600  1.0  0.1436
  H  H27  1  0.274400  0.339000  0.056500  1.0  0.0742
  H  H28  1  0.017000  0.385800  0.209700  1.0  0.0675
  H  H29  1  0.894300  0.424900  0.170100  1.0  0.0841
  H  H30  1  0.829900  0.307900  0.265900  1.0  0.0855
  H  H31  1  0.728800  0.403700  0.300500  1.0  0.0754
  H  H32  1  0.616900  0.214500  0.302500  1.0  0.1412
  H  H33  1  0.418500  0.090500  0.310200  1.0  0.0717
  H  H34  1  0.250200  0.221900  0.180100  1.0  0.0737
  H  H35  1  0.445600  0.345500  0.166700  1.0  0.1383
  H  H36  1  0.575600  0.171900  0.038200  1.0  0.3658
  H  H37  1  0.460300  0.898000  0.549100  1.0  0.1153
  H  H38  1  0.233700  0.171800  0.633200  1.0  0.1158
  H  H39  1  0.113200  0.799600  0.631400  1.0  0.1088
  H  H40  1  0.624700  0.697600  0.586500  1.0  0.0728
  H  H41  1  0.802000  0.726500  0.649500  1.0  0.143
  H  H42  1  0.903300  0.353600  0.620600  1.0  0.1436
  H  H43  1  0.725600  0.339000  0.556500  1.0  0.0744
  H  H44  1  0.983000  0.385800  0.709700  1.0  0.0677
  H  H45  1  0.105700  0.424900  0.670100  1.0  0.0836
  H  H46  1  0.170100  0.307900  0.765900  1.0  0.0852
  H  H47  1  0.271200  0.403700  0.800500  1.0  0.0757
  H  H48  1  0.383100  0.214500  0.802500  1.0  0.141
  H  H49  1  0.581500  0.090500  0.810200  1.0  0.0712
  H  H50  1  0.749800  0.221900  0.680100  1.0  0.0742
  H  H51  1  0.554400  0.345500  0.666667  1.0  0.1379
  H  H52  1  0.424400  0.171900  0.538200  1.0  0.3678
  H  H53  1  0.460300  0.102000  0.950900  1.0  0.1155
  H  H54  1  0.233700  0.828200  0.866800  1.0  0.1167
  H  H55  1  0.113200  0.200400  0.868600  1.0  0.11
  H  H56  1  0.624700  0.302400  0.913500  1.0  0.0724
  H  H57  1  0.802000  0.273500  0.850500  1.0  0.1418
  H  H58  1  0.903300  0.646400  0.879400  1.0  0.1432
  H  H59  1  0.725600  0.661000  0.943500  1.0  0.0745
  H  H60  1  0.983000  0.614200  0.790300  1.0  0.0678
  H  H61  1  0.105700  0.575100  0.829900  1.0  0.0838
  H  H62  1  0.170100  0.692100  0.734100  1.0  0.0846
  H  H63  1  0.271200  0.596300  0.699500  1.0  0.0763
  H  H64  1  0.383100  0.785500  0.697500  1.0  0.1408
  H  H65  1  0.581500  0.909500  0.689800  1.0  0.0725
  H  H66  1  0.749800  0.778100  0.819900  1.0  0.0742
  H  H67  1  0.554400  0.654500  0.833300  1.0  0.1376
  H  H68  1  0.424400  0.828100  0.961800  1.0  0.3592
  C  C69  1  0.681000  0.312100  0.430690  1.0  0.6833
  C  C70  1  0.709900  0.171600  0.412340  1.0  -0.1216
  C  C71  1  0.616600  0.078300  0.428360  1.0  -0.1785
  C  C72  1  0.637500  0.949500  0.410900  1.0  0.3196
  C  C73  1  0.752600  0.914800  0.378610  1.0  -0.1745
  C  C74  1  0.848600  0.007300  0.363420  1.0  -0.0994
  C  C75  1  0.824900  0.137100  0.379740  1.0  -0.0513
  C  C76  1  0.973000  0.967300  0.327520  1.0  0.6695
  C  C77  1  0.318400  0.373000  0.406600  1.0  0.1966
  C  C78  1  0.213900  0.355100  0.367900  1.0  -0.285
  C  C79  1  0.133000  0.458600  0.354900  1.0  0.3629
  C  C80  1  0.153400  0.574800  0.385010  1.0  -0.3221
  C  C81  1  0.260300  0.581800  0.423750  1.0  0.232
  C  C82  1  0.954700  0.544000  0.299480  1.0  0.0521
  C  C83  1  0.772600  0.614400  0.235230  1.0  0.0565
  C  C84  1  0.553400  0.705600  0.267200  1.0  0.3617
  C  C85  1  0.544200  0.783400  0.223300  1.0  -0.3117
  C  C86  1  0.424600  0.857000  0.219230  1.0  0.193
  C  C87  1  0.325900  0.781200  0.295490  1.0  0.2028
  C  C88  1  0.442000  0.705700  0.303410  1.0  -0.2862
  C  C89  1  0.681000  0.687900  0.069310  1.0  0.6826
  C  C90  1  0.709900  0.828400  0.087660  1.0  -0.1258
  C  C91  1  0.616600  0.921700  0.071640  1.0  -0.1782
  C  C92  1  0.637500  0.050500  0.089100  1.0  0.3206
  C  C93  1  0.752600  0.085200  0.121390  1.0  -0.1754
  C  C94  1  0.848600  0.992700  0.136580  1.0  -0.1001
  C  C95  1  0.824900  0.862900  0.120260  1.0  -0.0506
  C  C96  1  0.973000  0.032700  0.172480  1.0  0.6696
  C  C97  1  0.318400  0.627000  0.093400  1.0  0.1962
  C  C98  1  0.213900  0.644900  0.132100  1.0  -0.2859
  C  C99  1  0.133000  0.541400  0.145100  1.0  0.3627
  C  C100  1  0.153400  0.425200  0.114990  1.0  -0.3233
  C  C101  1  0.260300  0.418200  0.076250  1.0  0.232
  C  C102  1  0.954700  0.456000  0.200520  1.0  0.0518
  C  C103  1  0.772600  0.385600  0.264770  1.0  0.0569
  C  C104  1  0.553400  0.294400  0.232800  1.0  0.3618
  C  C105  1  0.544200  0.216600  0.276700  1.0  -0.3113
  C  C106  1  0.424600  0.143000  0.280770  1.0  0.1935
  C  C107  1  0.325900  0.218800  0.204510  1.0  0.2027
  C  C108  1  0.442000  0.294300  0.196590  1.0  -0.2949
  C  C109  1  0.319000  0.687900  0.569310  1.0  0.6831
  C  C110  1  0.290100  0.828400  0.587660  1.0  -0.1278
  C  C111  1  0.383400  0.921700  0.571640  1.0  -0.1784
  C  C112  1  0.362500  0.050500  0.589100  1.0  0.3197
  C  C113  1  0.247400  0.085200  0.621390  1.0  -0.1764
  C  C114  1  0.151400  0.992700  0.636580  1.0  -0.099
  C  C115  1  0.175100  0.862900  0.620260  1.0  -0.0517
  C  C116  1  0.027000  0.032700  0.672480  1.0  0.6685
  C  C117  1  0.681600  0.627000  0.593400  1.0  0.196
  C  C118  1  0.786100  0.644900  0.632100  1.0  -0.2866
  C  C119  1  0.867000  0.541400  0.645100  1.0  0.3628
  C  C120  1  0.846600  0.425200  0.614990  1.0  -0.3224
  C  C121  1  0.739700  0.418200  0.576250  1.0  0.2309
  C  C122  1  0.045300  0.456000  0.700520  1.0  0.0523
  C  C123  1  0.227400  0.385600  0.764770  1.0  0.0566
  C  C124  1  0.446600  0.294400  0.732800  1.0  0.3616
  C  C125  1  0.455800  0.216600  0.776700  1.0  -0.3113
  C  C126  1  0.575400  0.143000  0.780770  1.0  0.1944
  C  C127  1  0.674100  0.218800  0.704510  1.0  0.2017
  C  C128  1  0.558000  0.294300  0.696590  1.0  -0.2868
  C  C129  1  0.319000  0.312100  0.930690  1.0  0.6842
  C  C130  1  0.290100  0.171600  0.912340  1.0  -0.1223
  C  C131  1  0.383400  0.078300  0.928360  1.0  -0.1786
  C  C132  1  0.362500  0.949500  0.910900  1.0  0.3188
  C  C133  1  0.247400  0.914800  0.878610  1.0  -0.1748
  C  C134  1  0.151400  0.007300  0.863420  1.0  -0.099
  C  C135  1  0.175100  0.137100  0.879740  1.0  -0.0535
  C  C136  1  0.027000  0.967300  0.827520  1.0  0.6683
  C  C137  1  0.681600  0.373000  0.906600  1.0  0.1965
  C  C138  1  0.786100  0.355100  0.867900  1.0  -0.2853
  C  C139  1  0.867000  0.458600  0.854900  1.0  0.363
  C  C140  1  0.846600  0.574800  0.885010  1.0  -0.3204
  C  C141  1  0.739700  0.581800  0.923750  1.0  0.2307
  C  C142  1  0.045300  0.544000  0.799480  1.0  0.0517
  C  C143  1  0.227400  0.614400  0.735230  1.0  0.0562
  C  C144  1  0.446600  0.705600  0.767200  1.0  0.3618
  C  C145  1  0.455800  0.783400  0.723300  1.0  -0.312
  C  C146  1  0.575400  0.857000  0.719230  1.0  0.1935
  C  C147  1  0.674100  0.781200  0.795490  1.0  0.2025
  C  C148  1  0.558000  0.705700  0.803410  1.0  -0.2949
  C  C149  1  0.864500  0.500000  0.250000  1.0  -0.0294
  C  C150  1  0.135500  0.500000  0.750000  1.0  -0.03
  N  N151  1  0.343800  0.485600  0.435030  1.0  -0.4108
  N  N152  1  0.316000  0.859000  0.254460  1.0  -0.4094
  N  N153  1  0.343800  0.514400  0.064970  1.0  -0.4156
  N  N154  1  0.316000  0.141000  0.245540  1.0  -0.4105
  N  N155  1  0.656200  0.514400  0.564970  1.0  -0.4164
  N  N156  1  0.684000  0.141000  0.745540  1.0  -0.4081
  N  N157  1  0.656200  0.485600  0.935030  1.0  -0.4113
  N  N158  1  0.684000  0.859000  0.754460  1.0  -0.4072
  O  O159  1  0.742800  0.396600  0.405810  1.0  -0.607
  O  O160  1  0.592900  0.332700  0.468020  1.0  -0.6198
  O  O161  1  0.060700  0.054000  0.317510  1.0  -0.6035
  O  O162  1  0.984800  0.856900  0.308500  1.0  -0.5826
  O  O163  1  0.542700  0.865700  0.429200  1.0  -0.54
  O  O164  1  0.036200  0.436600  0.314530  1.0  -0.2322
  O  O165  1  0.665100  0.631500  0.277480  1.0  -0.2397
  O  O166  1  0.742800  0.603400  0.094190  1.0  -0.6101
  O  O167  1  0.592900  0.667300  0.031980  1.0  -0.6194
  O  O168  1  0.060700  0.946000  0.182490  1.0  -0.6037
  O  O169  1  0.984800  0.143100  0.191500  1.0  -0.5827
  O  O170  1  0.542700  0.134300  0.070800  1.0  -0.5383
  O  O171  1  0.036200  0.563400  0.185470  1.0  -0.2329
  O  O172  1  0.665100  0.368500  0.222520  1.0  -0.2394
  O  O173  1  0.257200  0.603400  0.594190  1.0  -0.6085
  O  O174  1  0.407100  0.667300  0.531980  1.0  -0.6197
  O  O175  1  0.939300  0.946000  0.682490  1.0  -0.6041
  O  O176  1  0.015200  0.143100  0.691500  1.0  -0.5831
  O  O177  1  0.457300  0.134300  0.570800  1.0  -0.5379
  O  O178  1  0.963800  0.563400  0.685470  1.0  -0.2325
  O  O179  1  0.334900  0.368500  0.722520  1.0  -0.2392
  O  O180  1  0.257200  0.396600  0.905810  1.0  -0.6081
  O  O181  1  0.407100  0.332700  0.968020  1.0  -0.6199
  O  O182  1  0.939300  0.054000  0.817510  1.0  -0.6035
  O  O183  1  0.015200  0.856900  0.808500  1.0  -0.5831
  O  O184  1  0.457300  0.865700  0.929200  1.0  -0.5401
  O  O185  1  0.963800  0.436600  0.814530  1.0  -0.2322
  O  O186  1  0.334900  0.631500  0.777480  1.0  -0.2397
