# generated using pymatgen
data_Zn2H32C41(NO3)4
_symmetry_space_group_name_H-M   'P 1'
_cell_length_a   9.30460000
_cell_length_b   13.70290000
_cell_length_c   19.91110000
_cell_angle_alpha   86.57050000
_cell_angle_beta   79.85170000
_cell_angle_gamma   70.15290000
_symmetry_Int_Tables_number   1
_chemical_formula_structural   Zn2H32C41(NO3)4
_chemical_formula_sum   'Zn4 H64 C82 N8 O24'
_cell_volume   2350.51536229
_cell_formula_units_Z   2
loop_
 _symmetry_equiv_pos_site_id
 _symmetry_equiv_pos_as_xyz
  1  'x, y, z'
loop_
 _atom_site_type_symbol
 _atom_site_label
 _atom_site_symmetry_multiplicity
 _atom_site_fract_x
 _atom_site_fract_y
 _atom_site_fract_z
 _atom_site_occupancy
 _atom_site_charge
  Zn  Zn1  1  0.596660  0.741660  0.011930  1.0  0.8838
  Zn  Zn2  1  0.161680  0.741660  0.488070  1.0  0.8833
  Zn  Zn3  1  0.403340  0.258340  0.988070  1.0  0.8829
  Zn  Zn4  1  0.838320  0.258340  0.511930  1.0  0.8835
  H  H5  1  0.387100  0.632000  0.066700  1.0  0.0751
  H  H6  1  0.376900  0.486200  0.125900  1.0  0.1403
  H  H7  1  0.827700  0.411400  0.131300  1.0  0.1267
  H  H8  1  0.824800  0.557200  0.070900  1.0  0.0706
  H  H9  1  0.762700  0.314800  0.223200  1.0  0.0614
  H  H10  1  0.785800  0.237600  0.163400  1.0  0.0775
  H  H11  1  0.514900  0.117400  0.242700  1.0  0.0659
  H  H12  1  0.526300  0.187200  0.177600  1.0  0.0684
  H  H13  1  0.891600  0.885200  0.145400  1.0  0.1435
  H  H14  1  0.855700  0.764000  0.083000  1.0  0.0839
  H  H15  1  0.437700  0.947600  0.070400  1.0  0.0701
  H  H16  1  0.470800  0.074200  0.126300  1.0  0.1319
  H  H17  1  0.787400  0.825000  0.806700  1.0  0.1013
  H  H18  1  0.951200  0.514400  0.806700  1.0  0.105
  H  H19  1  0.019500  0.854400  0.941000  1.0  0.0967
  H  H20  1  0.203400  0.991800  0.054200  1.0  0.0966
  H  H21  1  0.480900  0.632000  0.433300  1.0  0.0755
  H  H22  1  0.636900  0.486200  0.374100  1.0  0.1423
  H  H23  1  0.260900  0.411400  0.368700  1.0  0.1266
  H  H24  1  0.118000  0.557200  0.429100  1.0  0.0695
  H  H25  1  0.422500  0.314800  0.276800  1.0  0.0622
  H  H26  1  0.476600  0.237600  0.336600  1.0  0.0776
  H  H27  1  0.867700  0.117400  0.257300  1.0  0.0656
  H  H28  1  0.786500  0.187200  0.322400  1.0  0.0678
  H  H29  1  0.723200  0.885200  0.354600  1.0  0.1427
  H  H30  1  0.880300  0.764000  0.417000  1.0  0.0833
  H  H31  1  0.114700  0.947600  0.429600  1.0  0.0704
  H  H32  1  0.955000  0.074200  0.373700  1.0  0.1313
  H  H33  1  0.887600  0.825000  0.693300  1.0  0.1011
  H  H34  1  0.034400  0.514400  0.693300  1.0  0.1043
  H  H35  1  0.626100  0.854400  0.559000  1.0  0.0971
  H  H36  1  0.304800  0.991800  0.445800  1.0  0.0972
  H  H37  1  0.612900  0.368000  0.933300  1.0  0.0752
  H  H38  1  0.623100  0.513800  0.874100  1.0  0.1441
  H  H39  1  0.172300  0.588600  0.868700  1.0  0.1266
  H  H40  1  0.175200  0.442800  0.929100  1.0  0.0699
  H  H41  1  0.237300  0.685200  0.776800  1.0  0.0621
  H  H42  1  0.214200  0.762400  0.836600  1.0  0.0772
  H  H43  1  0.485100  0.882600  0.757300  1.0  0.0659
  H  H44  1  0.473700  0.812800  0.822400  1.0  0.0684
  H  H45  1  0.108400  0.114800  0.854600  1.0  0.1425
  H  H46  1  0.144300  0.236000  0.917000  1.0  0.0837
  H  H47  1  0.562300  0.052400  0.929600  1.0  0.0707
  H  H48  1  0.529200  0.925800  0.873700  1.0  0.1312
  H  H49  1  0.212600  0.175000  0.193300  1.0  0.1012
  H  H50  1  0.048800  0.485600  0.193300  1.0  0.1041
  H  H51  1  0.980500  0.145600  0.059000  1.0  0.0968
  H  H52  1  0.796600  0.008200  0.945800  1.0  0.0974
  H  H53  1  0.519100  0.368000  0.566700  1.0  0.0744
  H  H54  1  0.363100  0.513800  0.625900  1.0  0.1429
  H  H55  1  0.739100  0.588600  0.631300  1.0  0.1266
  H  H56  1  0.882000  0.442800  0.570900  1.0  0.0707
  H  H57  1  0.577500  0.685200  0.723200  1.0  0.0618
  H  H58  1  0.523400  0.762400  0.663400  1.0  0.0772
  H  H59  1  0.132300  0.882600  0.742700  1.0  0.0651
  H  H60  1  0.213500  0.812800  0.677600  1.0  0.0688
  H  H61  1  0.276800  0.114800  0.645400  1.0  0.1434
  H  H62  1  0.119700  0.236000  0.583000  1.0  0.0832
  H  H63  1  0.885300  0.052400  0.570400  1.0  0.0705
  H  H64  1  0.045000  0.925800  0.626300  1.0  0.1309
  H  H65  1  0.112400  0.175000  0.306700  1.0  0.1018
  H  H66  1  0.965600  0.485600  0.306700  1.0  0.1046
  H  H67  1  0.373900  0.145600  0.441000  1.0  0.0967
  H  H68  1  0.695200  0.008200  0.554200  1.0  0.0969
  C  C69  1  0.477300  0.586800  0.080000  1.0  0.2109
  C  C70  1  0.469900  0.499600  0.115800  1.0  -0.2972
  C  C71  1  0.599900  0.433400  0.136400  1.0  0.3756
  C  C72  1  0.736000  0.455600  0.118700  1.0  -0.3011
  C  C73  1  0.732700  0.543000  0.082700  1.0  0.2092
  C  C74  1  0.711370  0.279060  0.200200  1.0  0.0615
  C  C75  1  0.583740  0.145320  0.211400  1.0  0.0647
  C  C76  1  0.683400  0.993600  0.143800  1.0  0.3667
  C  C77  1  0.798200  0.899400  0.129700  1.0  -0.2944
  C  C78  1  0.775600  0.826400  0.092700  1.0  0.1839
  C  C79  1  0.532100  0.935000  0.084900  1.0  0.2133
  C  C80  1  0.549900  0.010600  0.119300  1.0  -0.3085
  C  C81  1  0.797500  0.667400  0.894900  1.0  0.6609
  C  C82  1  0.859800  0.669400  0.819500  1.0  -0.1344
  C  C83  1  0.840200  0.762200  0.784000  1.0  -0.073
  C  C84  1  0.935800  0.577200  0.783600  1.0  -0.061
  C  C85  1  0.268800  0.815000  0.993400  1.0  0.6806
  C  C86  1  0.129300  0.910800  0.997500  1.0  -0.129
  C  C87  1  0.012200  0.912400  0.965200  1.0  -0.0668
  C  C88  1  0.121100  0.998000  0.031900  1.0  -0.0744
  C  C89  1  0.435900  0.586800  0.420000  1.0  0.2111
  C  C90  1  0.530500  0.499600  0.384200  1.0  -0.2959
  C  C91  1  0.466700  0.433400  0.363600  1.0  0.3755
  C  C92  1  0.308400  0.455600  0.381300  1.0  -0.3029
  C  C93  1  0.224300  0.543000  0.417300  1.0  0.2085
  C  C94  1  0.509570  0.279060  0.299800  1.0  0.0598
  C  C95  1  0.770940  0.145320  0.288600  1.0  0.0651
  C  C96  1  0.823000  0.993600  0.356200  1.0  0.3659
  C  C97  1  0.802400  0.899400  0.370300  1.0  -0.2931
  C  C98  1  0.898000  0.826400  0.407300  1.0  0.1847
  C  C99  1  0.032900  0.935000  0.415100  1.0  0.2138
  C  C100  1  0.939500  0.010600  0.380700  1.0  -0.3065
  C  C101  1  0.035100  0.667400  0.605100  1.0  0.6605
  C  C102  1  0.970800  0.669400  0.680500  1.0  -0.1393
  C  C103  1  0.897600  0.762200  0.716000  1.0  -0.0723
  C  C104  1  0.987000  0.577200  0.716400  1.0  -0.0598
  C  C105  1  0.416200  0.815000  0.506600  1.0  0.6794
  C  C106  1  0.459900  0.910800  0.502500  1.0  -0.1302
  C  C107  1  0.575400  0.912400  0.534800  1.0  -0.0669
  C  C108  1  0.380900  0.998000  0.468100  1.0  -0.0743
  C  C109  1  0.522700  0.413200  0.920000  1.0  0.211
  C  C110  1  0.530100  0.500400  0.884200  1.0  -0.2947
  C  C111  1  0.400100  0.566600  0.863600  1.0  0.3755
  C  C112  1  0.264000  0.544400  0.881300  1.0  -0.302
  C  C113  1  0.267300  0.457000  0.917300  1.0  0.2088
  C  C114  1  0.288630  0.720940  0.799800  1.0  0.0605
  C  C115  1  0.416260  0.854680  0.788600  1.0  0.0654
  C  C116  1  0.316600  0.006400  0.856200  1.0  0.3658
  C  C117  1  0.201800  0.100600  0.870300  1.0  -0.2929
  C  C118  1  0.224400  0.173600  0.907300  1.0  0.1852
  C  C119  1  0.467900  0.065000  0.915100  1.0  0.2142
  C  C120  1  0.450100  0.989400  0.880700  1.0  -0.3055
  C  C121  1  0.202500  0.332600  0.105100  1.0  0.6611
  C  C122  1  0.140200  0.330600  0.180500  1.0  -0.1388
  C  C123  1  0.159800  0.237800  0.216000  1.0  -0.0718
  C  C124  1  0.064200  0.422800  0.216400  1.0  -0.0609
  C  C125  1  0.731200  0.185000  0.006600  1.0  0.6797
  C  C126  1  0.870700  0.089200  0.002500  1.0  -0.1289
  C  C127  1  0.987800  0.087600  0.034800  1.0  -0.0649
  C  C128  1  0.878900  0.002000  0.968100  1.0  -0.074
  C  C129  1  0.564100  0.413200  0.580000  1.0  0.2112
  C  C130  1  0.469500  0.500400  0.615800  1.0  -0.2969
  C  C131  1  0.533300  0.566600  0.636400  1.0  0.3756
  C  C132  1  0.691600  0.544400  0.618700  1.0  -0.3015
  C  C133  1  0.775700  0.457000  0.582700  1.0  0.2092
  C  C134  1  0.490430  0.720940  0.700200  1.0  0.0608
  C  C135  1  0.229060  0.854680  0.711400  1.0  0.0649
  C  C136  1  0.177000  0.006400  0.643800  1.0  0.3663
  C  C137  1  0.197600  0.100600  0.629700  1.0  -0.2926
  C  C138  1  0.102000  0.173600  0.592700  1.0  0.1834
  C  C139  1  0.967100  0.065000  0.584900  1.0  0.2126
  C  C140  1  0.060500  0.989400  0.619300  1.0  -0.3074
  C  C141  1  0.964900  0.332600  0.394900  1.0  0.6606
  C  C142  1  0.029200  0.330600  0.319500  1.0  -0.1342
  C  C143  1  0.102400  0.237800  0.284000  1.0  -0.0734
  C  C144  1  0.013000  0.422800  0.283600  1.0  -0.0621
  C  C145  1  0.583800  0.185000  0.493400  1.0  0.679
  C  C146  1  0.540100  0.089200  0.497500  1.0  -0.1296
  C  C147  1  0.424600  0.087600  0.465200  1.0  -0.065
  C  C148  1  0.619100  0.002000  0.531900  1.0  -0.0742
  C  C149  1  0.644500  0.211000  0.250000  1.0  -0.0347
  C  C150  1  0.355500  0.789000  0.750000  1.0  -0.0347
  N  N151  1  0.605560  0.610080  0.063100  1.0  -0.3997
  N  N152  1  0.643940  0.841320  0.070100  1.0  -0.3812
  N  N153  1  0.284360  0.610080  0.436900  1.0  -0.3986
  N  N154  1  0.014740  0.841320  0.429900  1.0  -0.3819
  N  N155  1  0.394440  0.389920  0.936900  1.0  -0.3999
  N  N156  1  0.356060  0.158680  0.929900  1.0  -0.3816
  N  N157  1  0.715640  0.389920  0.563100  1.0  -0.3999
  N  N158  1  0.985260  0.158680  0.570100  1.0  -0.3811
  O  O159  1  0.581910  0.351980  0.174200  1.0  -0.2489
  O  O160  1  0.712460  0.063080  0.178900  1.0  -0.2509
  O  O161  1  0.695550  0.750100  0.919400  1.0  -0.609
  O  O162  1  0.847900  0.589000  0.928100  1.0  -0.5709
  O  O163  1  0.377610  0.826580  0.017000  1.0  -0.6253
  O  O164  1  0.268980  0.734040  0.971500  1.0  -0.5802
  O  O165  1  0.566110  0.351980  0.325800  1.0  -0.2494
  O  O166  1  0.724460  0.063080  0.321100  1.0  -0.253
  O  O167  1  0.054350  0.750100  0.580600  1.0  -0.609
  O  O168  1  0.063100  0.589000  0.571900  1.0  -0.5711
  O  O169  1  0.295810  0.826580  0.483000  1.0  -0.6259
  O  O170  1  0.496980  0.734040  0.528500  1.0  -0.5799
  O  O171  1  0.418090  0.648020  0.825800  1.0  -0.2493
  O  O172  1  0.287540  0.936920  0.821100  1.0  -0.2532
  O  O173  1  0.304450  0.249900  0.080600  1.0  -0.6094
  O  O174  1  0.152100  0.411000  0.071900  1.0  -0.5714
  O  O175  1  0.622390  0.173420  0.983000  1.0  -0.6258
  O  O176  1  0.731020  0.265960  0.028500  1.0  -0.5801
  O  O177  1  0.433890  0.648020  0.674200  1.0  -0.2508
  O  O178  1  0.275540  0.936920  0.678900  1.0  -0.2518
  O  O179  1  0.945650  0.249900  0.419400  1.0  -0.609
  O  O180  1  0.936900  0.411000  0.428100  1.0  -0.5716
  O  O181  1  0.704190  0.173420  0.517000  1.0  -0.625
  O  O182  1  0.503020  0.265960  0.471500  1.0  -0.581
