# generated using pymatgen
data_Cd2H32C41(NO3)4
_symmetry_space_group_name_H-M   'P 1'
_cell_length_a   14.57390000
_cell_length_b   20.64660000
_cell_length_c   20.64660000
_cell_angle_alpha   60.80350000
_cell_angle_beta   69.33290000
_cell_angle_gamma   69.33290000
_symmetry_Int_Tables_number   1
_chemical_formula_structural   Cd2H32C41(NO3)4
_chemical_formula_sum   'Cd8 H128 C164 N16 O48'
_cell_volume   4948.44676425
_cell_formula_units_Z   4
loop_
 _symmetry_equiv_pos_site_id
 _symmetry_equiv_pos_as_xyz
  1  'x, y, z'
loop_
 _atom_site_type_symbol
 _atom_site_label
 _atom_site_symmetry_multiplicity
 _atom_site_fract_x
 _atom_site_fract_y
 _atom_site_fract_z
 _atom_site_occupancy
 _atom_site_charge
  Cd  Cd1  1  0.204780  0.709860  0.084220  1.0  0.9852
  Cd  Cd2  1  0.001140  0.584220  0.209860  1.0  0.9858
  Cd  Cd3  1  0.704780  0.084220  0.709860  1.0  0.9862
  Cd  Cd4  1  0.501140  0.209860  0.584220  1.0  0.9865
  Cd  Cd5  1  0.295220  0.915780  0.290140  1.0  0.9868
  Cd  Cd6  1  0.498860  0.790140  0.415780  1.0  0.986
  Cd  Cd7  1  0.795220  0.290140  0.915780  1.0  0.9845
  Cd  Cd8  1  0.998860  0.415780  0.790140  1.0  0.9855
  H  H9  1  0.474500  0.852800  0.926600  1.0  0.0981
  H  H10  1  0.540500  0.955200  0.828600  1.0  0.1071
  H  H11  1  0.284300  0.042400  0.755400  1.0  0.0899
  H  H12  1  0.220400  0.939800  0.851000  1.0  0.1055
  H  H13  1  0.215800  0.692900  0.936100  1.0  0.0755
  H  H14  1  0.284600  0.615100  0.872700  1.0  0.1494
  H  H15  1  0.423600  0.466500  0.041900  1.0  0.1568
  H  H16  1  0.354700  0.550700  0.096500  1.0  0.068
  H  H17  1  0.407200  0.493400  0.820200  1.0  0.0788
  H  H18  1  0.298400  0.511900  0.867900  1.0  0.0634
  H  H19  1  0.500500  0.362500  0.847100  1.0  0.0648
  H  H20  1  0.485900  0.341800  0.933600  1.0  0.0875
  H  H21  1  0.426500  0.151800  0.924000  1.0  0.1465
  H  H22  1  0.517500  0.086800  0.849200  1.0  0.078
  H  H23  1  0.694600  0.227000  0.735200  1.0  0.0712
  H  H24  1  0.613100  0.292900  0.809700  1.0  0.1444
  H  H25  1  0.746100  0.426600  0.352800  1.0  0.0972
  H  H26  1  0.675700  0.328600  0.455200  1.0  0.1072
  H  H27  1  0.917900  0.255400  0.542400  1.0  0.0896
  H  H28  1  0.988800  0.351000  0.439800  1.0  0.1056
  H  H29  1  0.155200  0.436100  0.192900  1.0  0.0756
  H  H30  1  0.227600  0.372700  0.115100  1.0  0.1499
  H  H31  1  0.068000  0.541900  0.966500  1.0  0.1563
  H  H32  1  0.998100  0.596500  0.050700  1.0  0.0672
  H  H33  1  0.279200  0.320200  0.993400  1.0  0.0797
  H  H34  1  0.321800  0.367900  0.011900  1.0  0.0665
  H  H35  1  0.289900  0.347100  0.862500  1.0  0.0639
  H  H36  1  0.238700  0.433600  0.841800  1.0  0.0879
  H  H37  1  0.497700  0.424000  0.651800  1.0  0.1465
  H  H38  1  0.546500  0.349200  0.586800  1.0  0.0762
  H  H39  1  0.343200  0.235200  0.727000  1.0  0.0716
  H  H40  1  0.284300  0.309700  0.792900  1.0  0.1448
  H  H41  1  0.974500  0.926600  0.852800  1.0  0.0976
  H  H42  1  0.040500  0.828600  0.955200  1.0  0.1055
  H  H43  1  0.784300  0.755400  0.042400  1.0  0.0883
  H  H44  1  0.720400  0.851000  0.939800  1.0  0.1057
  H  H45  1  0.715800  0.936100  0.692900  1.0  0.074
  H  H46  1  0.784600  0.872700  0.615100  1.0  0.1492
  H  H47  1  0.923600  0.041900  0.466500  1.0  0.1554
  H  H48  1  0.854700  0.096500  0.550700  1.0  0.067
  H  H49  1  0.907200  0.820200  0.493400  1.0  0.0799
  H  H50  1  0.798400  0.867900  0.511900  1.0  0.0643
  H  H51  1  0.000500  0.847100  0.362500  1.0  0.0636
  H  H52  1  0.985900  0.933600  0.341800  1.0  0.0871
  H  H53  1  0.926500  0.924000  0.151800  1.0  0.1467
  H  H54  1  0.017500  0.849200  0.086800  1.0  0.0782
  H  H55  1  0.194600  0.735200  0.227000  1.0  0.072
  H  H56  1  0.113100  0.809700  0.292900  1.0  0.1468
  H  H57  1  0.246100  0.352800  0.426600  1.0  0.0984
  H  H58  1  0.175700  0.455200  0.328600  1.0  0.1066
  H  H59  1  0.417900  0.542400  0.255400  1.0  0.0896
  H  H60  1  0.488800  0.439800  0.351000  1.0  0.1062
  H  H61  1  0.655200  0.192900  0.436100  1.0  0.0752
  H  H62  1  0.727600  0.115100  0.372700  1.0  0.1502
  H  H63  1  0.568000  0.966500  0.541900  1.0  0.1572
  H  H64  1  0.498100  0.050700  0.596500  1.0  0.0664
  H  H65  1  0.779200  0.993400  0.320200  1.0  0.0793
  H  H66  1  0.821800  0.011900  0.367900  1.0  0.0639
  H  H67  1  0.789900  0.862500  0.347100  1.0  0.0678
  H  H68  1  0.738700  0.841800  0.433600  1.0  0.086
  H  H69  1  0.997700  0.651800  0.424000  1.0  0.1484
  H  H70  1  0.046500  0.586800  0.349200  1.0  0.0777
  H  H71  1  0.843200  0.727000  0.235200  1.0  0.0721
  H  H72  1  0.784300  0.792900  0.309700  1.0  0.1442
  H  H73  1  0.025500  0.073400  0.147200  1.0  0.0982
  H  H74  1  0.959500  0.171400  0.044800  1.0  0.107
  H  H75  1  0.215700  0.244600  0.957600  1.0  0.0881
  H  H76  1  0.279600  0.149000  0.060200  1.0  0.1057
  H  H77  1  0.284200  0.063900  0.307100  1.0  0.0739
  H  H78  1  0.215400  0.127300  0.384900  1.0  0.1491
  H  H79  1  0.076400  0.958100  0.533500  1.0  0.1556
  H  H80  1  0.145300  0.903500  0.449300  1.0  0.0672
  H  H81  1  0.092800  0.179800  0.506600  1.0  0.0788
  H  H82  1  0.201600  0.132100  0.488100  1.0  0.0636
  H  H83  1  0.999500  0.152900  0.637500  1.0  0.0645
  H  H84  1  0.014100  0.066400  0.658200  1.0  0.0877
  H  H85  1  0.073500  0.076000  0.848200  1.0  0.147
  H  H86  1  0.982500  0.150800  0.913200  1.0  0.0781
  H  H87  1  0.805400  0.264800  0.773000  1.0  0.072
  H  H88  1  0.886900  0.190300  0.707100  1.0  0.1468
  H  H89  1  0.753900  0.647200  0.573400  1.0  0.098
  H  H90  1  0.824300  0.544800  0.671400  1.0  0.106
  H  H91  1  0.582100  0.457600  0.744600  1.0  0.0896
  H  H92  1  0.511200  0.560200  0.649000  1.0  0.1058
  H  H93  1  0.344800  0.807100  0.563900  1.0  0.0752
  H  H94  1  0.272400  0.884900  0.627300  1.0  0.1501
  H  H95  1  0.432000  0.033500  0.458100  1.0  0.1569
  H  H96  1  0.501900  0.949300  0.403500  1.0  0.0667
  H  H97  1  0.220800  0.006600  0.679800  1.0  0.0791
  H  H98  1  0.178200  0.988100  0.632100  1.0  0.065
  H  H99  1  0.210100  0.137500  0.652900  1.0  0.0654
  H  H100  1  0.261300  0.158200  0.566400  1.0  0.0858
  H  H101  1  0.002300  0.348200  0.576000  1.0  0.1468
  H  H102  1  0.953500  0.413200  0.650800  1.0  0.0775
  H  H103  1  0.156800  0.273000  0.764800  1.0  0.0724
  H  H104  1  0.215700  0.207100  0.690300  1.0  0.1449
  H  H105  1  0.525500  0.147200  0.073400  1.0  0.0977
  H  H106  1  0.459500  0.044800  0.171400  1.0  0.1064
  H  H107  1  0.715700  0.957600  0.244600  1.0  0.0903
  H  H108  1  0.779600  0.060200  0.149000  1.0  0.1058
  H  H109  1  0.784200  0.307100  0.063900  1.0  0.0757
  H  H110  1  0.715400  0.384900  0.127300  1.0  0.1506
  H  H111  1  0.576400  0.533500  0.958100  1.0  0.1568
  H  H112  1  0.645300  0.449300  0.903500  1.0  0.0681
  H  H113  1  0.592800  0.506600  0.179800  1.0  0.0779
  H  H114  1  0.701600  0.488100  0.132100  1.0  0.0634
  H  H115  1  0.499500  0.637500  0.152900  1.0  0.0641
  H  H116  1  0.514100  0.658200  0.066400  1.0  0.0866
  H  H117  1  0.573500  0.848200  0.076000  1.0  0.146
  H  H118  1  0.482500  0.913200  0.150800  1.0  0.0777
  H  H119  1  0.305400  0.773000  0.264800  1.0  0.0718
  H  H120  1  0.386900  0.707100  0.190300  1.0  0.145
  H  H121  1  0.253900  0.573400  0.647200  1.0  0.0981
  H  H122  1  0.324300  0.671400  0.544800  1.0  0.107
  H  H123  1  0.082100  0.744600  0.457600  1.0  0.0891
  H  H124  1  0.011200  0.649000  0.560200  1.0  0.1056
  H  H125  1  0.844800  0.563900  0.807100  1.0  0.0758
  H  H126  1  0.772400  0.627300  0.884900  1.0  0.1483
  H  H127  1  0.932000  0.458100  0.033500  1.0  0.155
  H  H128  1  0.001900  0.403500  0.949300  1.0  0.0672
  H  H129  1  0.720800  0.679800  0.006600  1.0  0.0796
  H  H130  1  0.678200  0.632100  0.988100  1.0  0.0666
  H  H131  1  0.710100  0.652900  0.137500  1.0  0.063
  H  H132  1  0.761300  0.566400  0.158200  1.0  0.087
  H  H133  1  0.502300  0.576000  0.348200  1.0  0.1475
  H  H134  1  0.453500  0.650800  0.413200  1.0  0.0767
  H  H135  1  0.656800  0.764800  0.273000  1.0  0.072
  H  H136  1  0.715700  0.690300  0.207100  1.0  0.1452
  C  C137  1  0.295730  0.820540  0.964100  1.0  0.6441
  C  C138  1  0.341230  0.885780  0.898980  1.0  -0.0979
  C  C139  1  0.436360  0.890870  0.891830  1.0  -0.062
  C  C140  1  0.476040  0.952390  0.833250  1.0  -0.0596
  C  C141  1  0.418830  0.009300  0.782000  1.0  -0.1412
  C  C142  1  0.323020  0.003990  0.789610  1.0  -0.0589
  C  C143  1  0.284430  0.943000  0.846900  1.0  -0.082
  C  C144  1  0.457440  0.077650  0.718250  1.0  0.6539
  C  C145  1  0.258790  0.646660  0.957760  1.0  0.2196
  C  C146  1  0.298870  0.600090  0.919170  1.0  -0.3395
  C  C147  1  0.360200  0.531150  0.952050  1.0  0.3488
  C  C148  1  0.381360  0.512710  0.018770  1.0  -0.3234
  C  C149  1  0.339060  0.563540  0.051140  1.0  0.2038
  C  C150  1  0.363770  0.477130  0.870530  1.0  0.0794
  C  C151  1  0.456620  0.343880  0.896880  1.0  0.0776
  C  C152  1  0.507590  0.231060  0.873160  1.0  0.3697
  C  C153  1  0.481300  0.168360  0.885440  1.0  -0.3174
  C  C154  1  0.536670  0.129500  0.840160  1.0  0.2068
  C  C155  1  0.640170  0.211020  0.774360  1.0  0.203
  C  C156  1  0.590660  0.252090  0.817790  1.0  -0.3075
  C  C157  1  0.919630  0.464100  0.320540  1.0  0.6434
  C  C158  1  0.874010  0.398980  0.385780  1.0  -0.0977
  C  C159  1  0.780940  0.391830  0.390870  1.0  -0.0645
  C  C160  1  0.738320  0.333250  0.452390  1.0  -0.0598
  C  C161  1  0.789870  0.282000  0.509300  1.0  -0.1424
  C  C162  1  0.883380  0.289610  0.503990  1.0  -0.0604
  C  C163  1  0.925670  0.346900  0.443000  1.0  -0.0802
  C  C164  1  0.746660  0.218250  0.577650  1.0  0.6536
  C  C165  1  0.136790  0.457760  0.146660  1.0  0.2191
  C  C166  1  0.181870  0.419170  0.100090  1.0  -0.3436
  C  C167  1  0.156600  0.452050  0.031150  1.0  0.3495
  C  C168  1  0.087160  0.518770  0.012710  1.0  -0.3245
  C  C169  1  0.046260  0.551140  0.063540  1.0  0.2026
  C  C170  1  0.288570  0.370530  0.977130  1.0  0.0774
  C  C171  1  0.302620  0.396880  0.843880  1.0  0.0798
  C  C172  1  0.388190  0.373160  0.731060  1.0  0.3671
  C  C173  1  0.464900  0.385440  0.668360  1.0  -0.3164
  C  C174  1  0.493670  0.340160  0.629500  1.0  0.2065
  C  C175  1  0.374450  0.274360  0.711020  1.0  0.2062
  C  C176  1  0.339460  0.317790  0.752090  1.0  -0.3046
  C  C177  1  0.795730  0.964100  0.820540  1.0  0.6446
  C  C178  1  0.841230  0.898980  0.885780  1.0  -0.0998
  C  C179  1  0.936360  0.891830  0.890870  1.0  -0.0628
  C  C180  1  0.976040  0.833250  0.952390  1.0  -0.0576
  C  C181  1  0.918830  0.782000  0.009300  1.0  -0.1444
  C  C182  1  0.823020  0.789610  0.003990  1.0  -0.0601
  C  C183  1  0.784430  0.846900  0.943000  1.0  -0.0826
  C  C184  1  0.957440  0.718250  0.077650  1.0  0.6547
  C  C185  1  0.758790  0.957760  0.646660  1.0  0.2193
  C  C186  1  0.798870  0.919170  0.600090  1.0  -0.3441
  C  C187  1  0.860200  0.952050  0.531150  1.0  0.3485
  C  C188  1  0.881360  0.018770  0.512710  1.0  -0.3243
  C  C189  1  0.839060  0.051140  0.563540  1.0  0.2046
  C  C190  1  0.863770  0.870530  0.477130  1.0  0.0794
  C  C191  1  0.956620  0.896880  0.343880  1.0  0.0804
  C  C192  1  0.007590  0.873160  0.231060  1.0  0.3692
  C  C193  1  0.981300  0.885440  0.168360  1.0  -0.3152
  C  C194  1  0.036670  0.840160  0.129500  1.0  0.2051
  C  C195  1  0.140170  0.774360  0.211020  1.0  0.2021
  C  C196  1  0.090660  0.817790  0.252090  1.0  -0.3098
  C  C197  1  0.419630  0.320540  0.464100  1.0  0.644
  C  C198  1  0.374010  0.385780  0.398980  1.0  -0.0985
  C  C199  1  0.280940  0.390870  0.391830  1.0  -0.0612
  C  C200  1  0.238320  0.452390  0.333250  1.0  -0.0585
  C  C201  1  0.289870  0.509300  0.282000  1.0  -0.1445
  C  C202  1  0.383380  0.503990  0.289610  1.0  -0.0618
  C  C203  1  0.425670  0.443000  0.346900  1.0  -0.083
  C  C204  1  0.246660  0.577650  0.218250  1.0  0.6545
  C  C205  1  0.636790  0.146660  0.457760  1.0  0.2207
  C  C206  1  0.681870  0.100090  0.419170  1.0  -0.3392
  C  C207  1  0.656600  0.031150  0.452050  1.0  0.3493
  C  C208  1  0.587160  0.012710  0.518770  1.0  -0.3244
  C  C209  1  0.546260  0.063540  0.551140  1.0  0.2031
  C  C210  1  0.788570  0.977130  0.370530  1.0  0.0786
  C  C211  1  0.802620  0.843880  0.396880  1.0  0.0809
  C  C212  1  0.888190  0.731060  0.373160  1.0  0.3699
  C  C213  1  0.964900  0.668360  0.385440  1.0  -0.3145
  C  C214  1  0.993670  0.629500  0.340160  1.0  0.206
  C  C215  1  0.874450  0.711020  0.274360  1.0  0.2025
  C  C216  1  0.839460  0.752090  0.317790  1.0  -0.3085
  C  C217  1  0.353140  0.396860  0.896860  1.0  -0.0891
  C  C218  1  0.853140  0.896860  0.396860  1.0  -0.0891
  C  C219  1  0.204270  0.035900  0.179460  1.0  0.6448
  C  C220  1  0.158770  0.101020  0.114220  1.0  -0.1002
  C  C221  1  0.063640  0.108170  0.109130  1.0  -0.0627
  C  C222  1  0.023960  0.166750  0.047610  1.0  -0.058
  C  C223  1  0.081170  0.218000  0.990700  1.0  -0.1446
  C  C224  1  0.176980  0.210390  0.996010  1.0  -0.0617
  C  C225  1  0.215570  0.153100  0.057000  1.0  -0.0807
  C  C226  1  0.042560  0.281750  0.922350  1.0  0.6544
  C  C227  1  0.241210  0.042240  0.353340  1.0  0.2191
  C  C228  1  0.201130  0.080830  0.399910  1.0  -0.3383
  C  C229  1  0.139800  0.047950  0.468850  1.0  0.3474
  C  C230  1  0.118640  0.981230  0.487290  1.0  -0.322
  C  C231  1  0.160940  0.948860  0.436460  1.0  0.2051
  C  C232  1  0.136230  0.129470  0.522870  1.0  0.079
  C  C233  1  0.043380  0.103120  0.656120  1.0  0.0796
  C  C234  1  0.992410  0.126840  0.768940  1.0  0.3678
  C  C235  1  0.018700  0.114560  0.831640  1.0  -0.3153
  C  C236  1  0.963330  0.159840  0.870500  1.0  0.2055
  C  C237  1  0.859830  0.225640  0.788980  1.0  0.2018
  C  C238  1  0.909340  0.182210  0.747910  1.0  -0.3057
  C  C239  1  0.580370  0.679460  0.535900  1.0  0.6442
  C  C240  1  0.625990  0.614220  0.601020  1.0  -0.0984
  C  C241  1  0.719060  0.609130  0.608170  1.0  -0.0613
  C  C242  1  0.761680  0.547610  0.666750  1.0  -0.0588
  C  C243  1  0.710130  0.490700  0.718000  1.0  -0.144
  C  C244  1  0.616620  0.496010  0.710390  1.0  -0.0593
  C  C245  1  0.574330  0.557000  0.653100  1.0  -0.083
  C  C246  1  0.753340  0.422350  0.781750  1.0  0.6542
  C  C247  1  0.363210  0.853340  0.542240  1.0  0.2195
  C  C248  1  0.318130  0.899910  0.580830  1.0  -0.3404
  C  C249  1  0.343400  0.968850  0.547950  1.0  0.3488
  C  C250  1  0.412840  0.987290  0.481230  1.0  -0.3258
  C  C251  1  0.453740  0.936460  0.448860  1.0  0.2028
  C  C252  1  0.211430  0.022870  0.629470  1.0  0.079
  C  C253  1  0.197380  0.156120  0.603120  1.0  0.0797
  C  C254  1  0.111810  0.268940  0.626840  1.0  0.3712
  C  C255  1  0.035100  0.331640  0.614560  1.0  -0.3136
  C  C256  1  0.006330  0.370500  0.659840  1.0  0.2057
  C  C257  1  0.125550  0.288980  0.725640  1.0  0.2019
  C  C258  1  0.160540  0.247910  0.682210  1.0  -0.3079
  C  C259  1  0.704270  0.179460  0.035900  1.0  0.6438
  C  C260  1  0.658770  0.114220  0.101020  1.0  -0.0977
  C  C261  1  0.563640  0.109130  0.108170  1.0  -0.0612
  C  C262  1  0.523960  0.047610  0.166750  1.0  -0.061
  C  C263  1  0.581170  0.990700  0.218000  1.0  -0.1412
  C  C264  1  0.676980  0.996010  0.210390  1.0  -0.0593
  C  C265  1  0.715570  0.057000  0.153100  1.0  -0.0815
  C  C266  1  0.542560  0.922350  0.281750  1.0  0.6533
  C  C267  1  0.741210  0.353340  0.042240  1.0  0.2192
  C  C268  1  0.701130  0.399910  0.080830  1.0  -0.3408
  C  C269  1  0.639800  0.468850  0.047950  1.0  0.3464
  C  C270  1  0.618640  0.487290  0.981230  1.0  -0.3249
  C  C271  1  0.660940  0.436460  0.948860  1.0  0.2032
  C  C272  1  0.636230  0.522870  0.129470  1.0  0.0802
  C  C273  1  0.543380  0.656120  0.103120  1.0  0.0785
  C  C274  1  0.492410  0.768940  0.126840  1.0  0.3697
  C  C275  1  0.518700  0.831640  0.114560  1.0  -0.315
  C  C276  1  0.463330  0.870500  0.159840  1.0  0.2061
  C  C277  1  0.359830  0.788980  0.225640  1.0  0.2038
  C  C278  1  0.409340  0.747910  0.182210  1.0  -0.3079
  C  C279  1  0.080370  0.535900  0.679460  1.0  0.6443
  C  C280  1  0.125990  0.601020  0.614220  1.0  -0.0986
  C  C281  1  0.219060  0.608170  0.609130  1.0  -0.0661
  C  C282  1  0.261680  0.666750  0.547610  1.0  -0.0581
  C  C283  1  0.210130  0.718000  0.490700  1.0  -0.142
  C  C284  1  0.116620  0.710390  0.496010  1.0  -0.0594
  C  C285  1  0.074330  0.653100  0.557000  1.0  -0.0809
  C  C286  1  0.253340  0.781750  0.422350  1.0  0.6529
  C  C287  1  0.863210  0.542240  0.853340  1.0  0.2199
  C  C288  1  0.818130  0.580830  0.899910  1.0  -0.3423
  C  C289  1  0.843400  0.547950  0.968850  1.0  0.3498
  C  C290  1  0.912840  0.481230  0.987290  1.0  -0.323
  C  C291  1  0.953740  0.448860  0.936460  1.0  0.2024
  C  C292  1  0.711430  0.629470  0.022870  1.0  0.0771
  C  C293  1  0.697380  0.603120  0.156120  1.0  0.0798
  C  C294  1  0.611810  0.626840  0.268940  1.0  0.3721
  C  C295  1  0.535100  0.614560  0.331640  1.0  -0.3171
  C  C296  1  0.506330  0.659840  0.370500  1.0  0.2067
  C  C297  1  0.625550  0.725640  0.288980  1.0  0.2039
  C  C298  1  0.660540  0.682210  0.247910  1.0  -0.3079
  C  C299  1  0.146860  0.103140  0.603140  1.0  -0.0889
  C  C300  1  0.646860  0.603140  0.103140  1.0  -0.0889
  N  N301  1  0.276920  0.630380  0.022160  1.0  -0.3559
  N  N302  1  0.615160  0.149780  0.784840  1.0  -0.3733
  N  N303  1  0.070540  0.522160  0.130380  1.0  -0.3563
  N  N304  1  0.450220  0.284840  0.649780  1.0  -0.3748
  N  N305  1  0.776920  0.022160  0.630380  1.0  -0.3562
  N  N306  1  0.115160  0.784840  0.149780  1.0  -0.3691
  N  N307  1  0.570540  0.130380  0.522160  1.0  -0.3556
  N  N308  1  0.950220  0.649780  0.284840  1.0  -0.3744
  N  N309  1  0.223080  0.977840  0.369620  1.0  -0.3589
  N  N310  1  0.884840  0.215160  0.850220  1.0  -0.3674
  N  N311  1  0.429460  0.869620  0.477840  1.0  -0.3589
  N  N312  1  0.049780  0.350220  0.715160  1.0  -0.373
  N  N313  1  0.723080  0.369620  0.977840  1.0  -0.3585
  N  N314  1  0.384840  0.850220  0.215160  1.0  -0.3699
  N  N315  1  0.929460  0.477840  0.869620  1.0  -0.3577
  N  N316  1  0.549780  0.715160  0.350220  1.0  -0.3726
  O  O317  1  0.211250  0.817200  0.965960  1.0  -0.6128
  O  O318  1  0.344020  0.773170  0.013750  1.0  -0.6139
  O  O319  1  0.399590  0.129000  0.677320  1.0  -0.5887
  O  O320  1  0.546390  0.080590  0.707350  1.0  -0.651
  O  O321  1  0.405340  0.478320  0.922660  1.0  -0.2692
  O  O322  1  0.446720  0.268810  0.916530  1.0  -0.2722
  O  O323  1  0.005590  0.465960  0.317200  1.0  -0.6145
  O  O324  1  0.869060  0.513750  0.273170  1.0  -0.6119
  O  O325  1  0.794090  0.177320  0.629000  1.0  -0.5887
  O  O326  1  0.665670  0.207350  0.580590  1.0  -0.6509
  O  O327  1  0.193680  0.422660  0.978320  1.0  -0.2701
  O  O328  1  0.367940  0.416530  0.768810  1.0  -0.2725
  O  O329  1  0.711250  0.965960  0.817200  1.0  -0.6141
  O  O330  1  0.844020  0.013750  0.773170  1.0  -0.6118
  O  O331  1  0.899590  0.677320  0.129000  1.0  -0.5883
  O  O332  1  0.046390  0.707350  0.080590  1.0  -0.6508
  O  O333  1  0.905340  0.922660  0.478320  1.0  -0.2704
  O  O334  1  0.946720  0.916530  0.268810  1.0  -0.2722
  O  O335  1  0.505590  0.317200  0.465960  1.0  -0.6152
  O  O336  1  0.369060  0.273170  0.513750  1.0  -0.6146
  O  O337  1  0.294090  0.629000  0.177320  1.0  -0.5899
  O  O338  1  0.165670  0.580590  0.207350  1.0  -0.653
  O  O339  1  0.693680  0.978320  0.422660  1.0  -0.2701
  O  O340  1  0.867940  0.768810  0.416530  1.0  -0.274
  O  O341  1  0.288750  0.034040  0.182800  1.0  -0.6161
  O  O342  1  0.155980  0.986250  0.226830  1.0  -0.6118
  O  O343  1  0.100410  0.322680  0.871000  1.0  -0.5894
  O  O344  1  0.953610  0.292650  0.919410  1.0  -0.6516
  O  O345  1  0.094660  0.077340  0.521680  1.0  -0.2713
  O  O346  1  0.053280  0.083470  0.731190  1.0  -0.2729
  O  O347  1  0.494410  0.682800  0.534040  1.0  -0.6144
  O  O348  1  0.630940  0.726830  0.486250  1.0  -0.6124
  O  O349  1  0.705910  0.371000  0.822680  1.0  -0.5897
  O  O350  1  0.834330  0.419410  0.792650  1.0  -0.652
  O  O351  1  0.306320  0.021680  0.577340  1.0  -0.2697
  O  O352  1  0.132060  0.231190  0.583470  1.0  -0.2734
  O  O353  1  0.788750  0.182800  0.034040  1.0  -0.6139
  O  O354  1  0.655980  0.226830  0.986250  1.0  -0.6141
  O  O355  1  0.600410  0.871000  0.322680  1.0  -0.5892
  O  O356  1  0.453610  0.919410  0.292650  1.0  -0.6508
  O  O357  1  0.594660  0.521680  0.077340  1.0  -0.2707
  O  O358  1  0.553280  0.731190  0.083470  1.0  -0.2726
  O  O359  1  0.994410  0.534040  0.682800  1.0  -0.6129
  O  O360  1  0.130940  0.486250  0.726830  1.0  -0.612
  O  O361  1  0.205910  0.822680  0.371000  1.0  -0.5897
  O  O362  1  0.334330  0.792650  0.419410  1.0  -0.6498
  O  O363  1  0.806320  0.577340  0.021680  1.0  -0.2691
  O  O364  1  0.632060  0.583470  0.231190  1.0  -0.2725
