# generated using pymatgen
data_Er2CuC28(NO4)4
_symmetry_space_group_name_H-M   'P 1'
_cell_length_a   9.17210000
_cell_length_b   25.40000000
_cell_length_c   7.73850000
_cell_angle_alpha   90.00000000
_cell_angle_beta   97.33900000
_cell_angle_gamma   90.00000000
_symmetry_Int_Tables_number   1
_chemical_formula_structural   Er2CuC28(NO4)4
_chemical_formula_sum   'Er4 Cu2 C56 N8 O32'
_cell_volume   1788.07927795
_cell_formula_units_Z   2
loop_
 _symmetry_equiv_pos_site_id
 _symmetry_equiv_pos_as_xyz
  1  'x, y, z'
loop_
 _atom_site_type_symbol
 _atom_site_label
 _atom_site_symmetry_multiplicity
 _atom_site_fract_x
 _atom_site_fract_y
 _atom_site_fract_z
 _atom_site_occupancy
 _atom_site_charge
  Er  Er1  1  0.511200  0.651150  0.587710  1.0  1.5807
  Er  Er2  1  0.488800  0.151150  0.912290  1.0  1.5798
  Er  Er3  1  0.488800  0.348850  0.412290  1.0  1.5797
  Er  Er4  1  0.511200  0.848850  0.087710  1.0  1.5808
  Cu  Cu5  1  0.000000  0.500000  0.500000  1.0  1.4659
  Cu  Cu6  1  0.000000  0.000000  0.000000  1.0  1.4659
  C  C7  1  0.593100  0.728600  0.285200  1.0  0.7071
  C  C8  1  0.743800  0.706200  0.342900  1.0  0.1879
  C  C9  1  0.867400  0.723300  0.275600  1.0  0.063
  C  C10  1  0.001000  0.700200  0.329100  1.0  0.0156
  C  C11  1  0.006200  0.659300  0.450900  1.0  -0.148
  C  C12  1  0.876900  0.644000  0.511300  1.0  0.2485
  C  C13  1  0.148400  0.632100  0.517500  1.0  0.704
  C  C14  1  0.224500  0.508000  0.301400  1.0  0.5862
  C  C15  1  0.097000  0.537400  0.199800  1.0  0.1208
  C  C16  1  0.107500  0.566000  0.048000  1.0  -0.0094
  C  C17  1  0.980400  0.590200  0.967100  1.0  0.0668
  C  C18  1  0.849300  0.586200  0.039100  1.0  -0.1353
  C  C19  1  0.849000  0.557600  0.191700  1.0  0.2837
  C  C20  1  0.710700  0.611600  0.956800  1.0  0.6946
  C  C21  1  0.406900  0.228600  0.214800  1.0  0.7094
  C  C22  1  0.256200  0.206200  0.157100  1.0  0.1872
  C  C23  1  0.132600  0.223300  0.224400  1.0  0.0648
  C  C24  1  0.999000  0.200200  0.170900  1.0  0.0171
  C  C25  1  0.993800  0.159300  0.049100  1.0  -0.1465
  C  C26  1  0.123100  0.144000  0.988700  1.0  0.2499
  C  C27  1  0.851600  0.132100  0.982500  1.0  0.7038
  C  C28  1  0.775500  0.008000  0.198600  1.0  0.5851
  C  C29  1  0.903000  0.037400  0.300200  1.0  0.1214
  C  C30  1  0.892500  0.066000  0.452000  1.0  -0.0101
  C  C31  1  0.019600  0.090200  0.532900  1.0  0.0668
  C  C32  1  0.150700  0.086200  0.460900  1.0  -0.1365
  C  C33  1  0.151000  0.057600  0.308300  1.0  0.2846
  C  C34  1  0.289300  0.111600  0.543200  1.0  0.6938
  C  C35  1  0.406900  0.271400  0.714800  1.0  0.7091
  C  C36  1  0.256200  0.293800  0.657100  1.0  0.1876
  C  C37  1  0.132600  0.276700  0.724400  1.0  0.0668
  C  C38  1  0.999000  0.299800  0.670900  1.0  0.0182
  C  C39  1  0.993800  0.340700  0.549100  1.0  -0.1461
  C  C40  1  0.123100  0.356000  0.488700  1.0  0.2495
  C  C41  1  0.851600  0.367900  0.482500  1.0  0.7034
  C  C42  1  0.775500  0.492000  0.698600  1.0  0.5862
  C  C43  1  0.903000  0.462600  0.800200  1.0  0.1219
  C  C44  1  0.892500  0.434000  0.952000  1.0  -0.0085
  C  C45  1  0.019600  0.409800  0.032900  1.0  0.0689
  C  C46  1  0.150700  0.413800  0.960900  1.0  -0.1365
  C  C47  1  0.151000  0.442400  0.808300  1.0  0.2851
  C  C48  1  0.289300  0.388400  0.043200  1.0  0.6938
  C  C49  1  0.593100  0.771400  0.785200  1.0  0.7064
  C  C50  1  0.743800  0.793800  0.842900  1.0  0.1881
  C  C51  1  0.867400  0.776700  0.775600  1.0  0.0638
  C  C52  1  0.001000  0.799800  0.829100  1.0  0.0173
  C  C53  1  0.006200  0.840700  0.950900  1.0  -0.1472
  C  C54  1  0.876900  0.856000  0.011300  1.0  0.2487
  C  C55  1  0.148400  0.867900  0.017500  1.0  0.7044
  C  C56  1  0.224500  0.992000  0.801400  1.0  0.5867
  C  C57  1  0.097000  0.962600  0.699800  1.0  0.1217
  C  C58  1  0.107500  0.934000  0.548000  1.0  -0.0085
  C  C59  1  0.980400  0.909800  0.467100  1.0  0.069
  C  C60  1  0.849300  0.913800  0.539100  1.0  -0.1354
  C  C61  1  0.849000  0.942400  0.691700  1.0  0.2841
  C  C62  1  0.710700  0.888400  0.456800  1.0  0.6945
  N  N63  1  0.747400  0.667300  0.460200  1.0  -0.4177
  N  N64  1  0.969400  0.533700  0.269000  1.0  -0.5225
  N  N65  1  0.252600  0.167300  0.039800  1.0  -0.4183
  N  N66  1  0.030600  0.033700  0.231000  1.0  -0.5235
  N  N67  1  0.252600  0.332700  0.539800  1.0  -0.42
  N  N68  1  0.030600  0.466300  0.731000  1.0  -0.5239
  N  N69  1  0.747400  0.832700  0.960200  1.0  -0.4197
  N  N70  1  0.969400  0.966300  0.769000  1.0  -0.5228
  O  O71  1  0.486000  0.707400  0.341000  1.0  -0.6049
  O  O72  1  0.584700  0.766900  0.181500  1.0  -0.679
  O  O73  1  0.266100  0.656500  0.494300  1.0  -0.6791
  O  O74  1  0.142900  0.588300  0.590300  1.0  -0.6725
  O  O75  1  0.192500  0.483100  0.435800  1.0  -0.5484
  O  O76  1  0.345500  0.508700  0.248500  1.0  -0.4405
  O  O77  1  0.701500  0.624300  0.797600  1.0  -0.6493
  O  O78  1  0.612200  0.618200  0.051100  1.0  -0.4903
  O  O79  1  0.514000  0.207400  0.159000  1.0  -0.6034
  O  O80  1  0.415300  0.266900  0.318500  1.0  -0.6787
  O  O81  1  0.733900  0.156500  0.005700  1.0  -0.6797
  O  O82  1  0.857100  0.088300  0.909700  1.0  -0.6724
  O  O83  1  0.807500  0.983100  0.064200  1.0  -0.5484
  O  O84  1  0.654500  0.008700  0.251500  1.0  -0.4385
  O  O85  1  0.298500  0.124300  0.702400  1.0  -0.6493
  O  O86  1  0.387800  0.118200  0.448900  1.0  -0.4893
  O  O87  1  0.514000  0.292600  0.659000  1.0  -0.6039
  O  O88  1  0.415300  0.233100  0.818500  1.0  -0.6781
  O  O89  1  0.733900  0.343500  0.505700  1.0  -0.6809
  O  O90  1  0.857100  0.411700  0.409700  1.0  -0.674
  O  O91  1  0.807500  0.516900  0.564200  1.0  -0.5483
  O  O92  1  0.654500  0.491300  0.751500  1.0  -0.4389
  O  O93  1  0.298500  0.375700  0.202400  1.0  -0.6495
  O  O94  1  0.387800  0.381800  0.948900  1.0  -0.4891
  O  O95  1  0.486000  0.792600  0.841000  1.0  -0.6052
  O  O96  1  0.584700  0.733100  0.681500  1.0  -0.6782
  O  O97  1  0.266100  0.843500  0.994300  1.0  -0.6806
  O  O98  1  0.142900  0.911700  0.090300  1.0  -0.6724
  O  O99  1  0.192500  0.016900  0.935800  1.0  -0.5489
  O  O100  1  0.345500  0.991300  0.748500  1.0  -0.4421
  O  O101  1  0.701500  0.875700  0.297600  1.0  -0.6495
  O  O102  1  0.612200  0.881800  0.551100  1.0  -0.4903
