# generated using pymatgen
data_Sm2CuC28(NO4)4
_symmetry_space_group_name_H-M   'P 1'
_cell_length_a   9.29600000
_cell_length_b   25.56200000
_cell_length_c   7.81100000
_cell_angle_alpha   90.00000000
_cell_angle_beta   97.27000000
_cell_angle_gamma   90.00000000
_symmetry_Int_Tables_number   1
_chemical_formula_structural   Sm2CuC28(NO4)4
_chemical_formula_sum   'Sm4 Cu2 C56 N8 O32'
_cell_volume   1841.16245407
_cell_formula_units_Z   2
loop_
 _symmetry_equiv_pos_site_id
 _symmetry_equiv_pos_as_xyz
  1  'x, y, z'
loop_
 _atom_site_type_symbol
 _atom_site_label
 _atom_site_symmetry_multiplicity
 _atom_site_fract_x
 _atom_site_fract_y
 _atom_site_fract_z
 _atom_site_occupancy
 _atom_site_charge
  Sm  Sm1  1  0.513340  0.650380  0.587540  1.0  2.2811
  Sm  Sm2  1  0.486660  0.150380  0.912460  1.0  2.2787
  Sm  Sm3  1  0.486660  0.349620  0.412460  1.0  2.2801
  Sm  Sm4  1  0.513340  0.849620  0.087540  1.0  2.2828
  Cu  Cu5  1  0.000000  0.500000  0.500000  1.0  1.0475
  Cu  Cu6  1  0.000000  0.000000  0.000000  1.0  1.0475
  C  C7  1  0.600300  0.727700  0.277600  1.0  0.7366
  C  C8  1  0.748700  0.704600  0.335700  1.0  0.1457
  C  C9  1  0.871000  0.722200  0.268900  1.0  -0.0863
  C  C10  1  0.003800  0.699000  0.327300  1.0  0.0996
  C  C11  1  0.008500  0.658700  0.446900  1.0  -0.1838
  C  C12  1  0.879600  0.643300  0.506100  1.0  0.227
  C  C13  1  0.148400  0.631600  0.515400  1.0  0.7392
  C  C14  1  0.220600  0.507600  0.302200  1.0  0.5763
  C  C15  1  0.095900  0.536400  0.201300  1.0  0.1451
  C  C16  1  0.106100  0.564300  0.050300  1.0  -0.0973
  C  C17  1  0.980800  0.588200  0.969100  1.0  0.142
  C  C18  1  0.851600  0.584600  0.040700  1.0  -0.1411
  C  C19  1  0.849900  0.556800  0.193900  1.0  0.2109
  C  C20  1  0.713700  0.610100  0.958300  1.0  0.7233
  C  C21  1  0.399700  0.227700  0.222400  1.0  0.7375
  C  C22  1  0.251300  0.204600  0.164300  1.0  0.145
  C  C23  1  0.129000  0.222200  0.231100  1.0  -0.0911
  C  C24  1  0.996200  0.199000  0.172700  1.0  0.1015
  C  C25  1  0.991500  0.158700  0.053100  1.0  -0.1824
  C  C26  1  0.120400  0.143300  0.993900  1.0  0.2286
  C  C27  1  0.851600  0.131600  0.984600  1.0  0.7388
  C  C28  1  0.779400  0.007600  0.197800  1.0  0.576
  C  C29  1  0.904100  0.036400  0.298700  1.0  0.1457
  C  C30  1  0.893900  0.064300  0.449700  1.0  -0.0997
  C  C31  1  0.019200  0.088200  0.530900  1.0  0.1417
  C  C32  1  0.148400  0.084600  0.459300  1.0  -0.1432
  C  C33  1  0.150100  0.056800  0.306100  1.0  0.21
  C  C34  1  0.286300  0.110100  0.541700  1.0  0.7242
  C  C35  1  0.399700  0.272300  0.722400  1.0  0.737
  C  C36  1  0.251300  0.295400  0.664300  1.0  0.145
  C  C37  1  0.129000  0.277800  0.731100  1.0  -0.0909
  C  C38  1  0.996200  0.301000  0.672700  1.0  0.1003
  C  C39  1  0.991500  0.341300  0.553100  1.0  -0.1822
  C  C40  1  0.120400  0.356700  0.493900  1.0  0.2283
  C  C41  1  0.851600  0.368400  0.484600  1.0  0.7387
  C  C42  1  0.779400  0.492400  0.697800  1.0  0.5768
  C  C43  1  0.904100  0.463600  0.798700  1.0  0.1459
  C  C44  1  0.893900  0.435700  0.949700  1.0  -0.0971
  C  C45  1  0.019200  0.411800  0.030900  1.0  0.1421
  C  C46  1  0.148400  0.415400  0.959300  1.0  -0.1436
  C  C47  1  0.150100  0.443200  0.806100  1.0  0.2109
  C  C48  1  0.286300  0.389900  0.041700  1.0  0.7238
  C  C49  1  0.600300  0.772300  0.777600  1.0  0.7355
  C  C50  1  0.748700  0.795400  0.835700  1.0  0.1457
  C  C51  1  0.871000  0.777800  0.768900  1.0  -0.0874
  C  C52  1  0.003800  0.801000  0.827300  1.0  0.1001
  C  C53  1  0.008500  0.841300  0.946900  1.0  -0.1835
  C  C54  1  0.879600  0.856700  0.006100  1.0  0.2275
  C  C55  1  0.148400  0.868400  0.015400  1.0  0.7396
  C  C56  1  0.220600  0.992400  0.802200  1.0  0.5769
  C  C57  1  0.095900  0.963600  0.701300  1.0  0.1454
  C  C58  1  0.106100  0.935700  0.550300  1.0  -0.0964
  C  C59  1  0.980800  0.911800  0.469100  1.0  0.1437
  C  C60  1  0.851600  0.915400  0.540700  1.0  -0.1415
  C  C61  1  0.849900  0.943200  0.693900  1.0  0.2115
  C  C62  1  0.713700  0.889900  0.458300  1.0  0.7228
  N  N63  1  0.751500  0.666210  0.453100  1.0  -0.4886
  N  N64  1  0.970100  0.533270  0.271500  1.0  -0.3087
  N  N65  1  0.248500  0.166210  0.046900  1.0  -0.4905
  N  N66  1  0.029900  0.033270  0.228500  1.0  -0.3138
  N  N67  1  0.248500  0.333790  0.546900  1.0  -0.4918
  N  N68  1  0.029900  0.466730  0.728500  1.0  -0.3139
  N  N69  1  0.751500  0.833790  0.953100  1.0  -0.4904
  N  N70  1  0.970100  0.966730  0.771500  1.0  -0.3088
  O  O71  1  0.494100  0.706060  0.333200  1.0  -0.6766
  O  O72  1  0.595100  0.765620  0.176500  1.0  -0.7323
  O  O73  1  0.263200  0.655980  0.494100  1.0  -0.8098
  O  O74  1  0.141700  0.588530  0.588400  1.0  -0.6568
  O  O75  1  0.190700  0.483610  0.436800  1.0  -0.5328
  O  O76  1  0.340300  0.508420  0.248500  1.0  -0.4878
  O  O77  1  0.707200  0.622780  0.801900  1.0  -0.7685
  O  O78  1  0.616200  0.616900  0.051600  1.0  -0.5725
  O  O79  1  0.505900  0.206060  0.166800  1.0  -0.6755
  O  O80  1  0.404900  0.265620  0.323500  1.0  -0.7328
  O  O81  1  0.736800  0.155980  0.005900  1.0  -0.8096
  O  O82  1  0.858300  0.088530  0.911600  1.0  -0.6583
  O  O83  1  0.809300  0.983610  0.063200  1.0  -0.535
  O  O84  1  0.659700  0.008420  0.251500  1.0  -0.4865
  O  O85  1  0.292800  0.122780  0.698100  1.0  -0.7695
  O  O86  1  0.383800  0.116900  0.448400  1.0  -0.5726
  O  O87  1  0.505900  0.293940  0.666800  1.0  -0.6761
  O  O88  1  0.404900  0.234380  0.823500  1.0  -0.7319
  O  O89  1  0.736800  0.344020  0.505900  1.0  -0.8088
  O  O90  1  0.858300  0.411470  0.411600  1.0  -0.6601
  O  O91  1  0.809300  0.516390  0.563200  1.0  -0.5355
  O  O92  1  0.659700  0.491580  0.751500  1.0  -0.4867
  O  O93  1  0.292800  0.377220  0.198100  1.0  -0.7695
  O  O94  1  0.383800  0.383100  0.948400  1.0  -0.5716
  O  O95  1  0.494100  0.793940  0.833200  1.0  -0.6768
  O  O96  1  0.595100  0.734380  0.676500  1.0  -0.7317
  O  O97  1  0.263200  0.844020  0.994100  1.0  -0.8091
  O  O98  1  0.141700  0.911470  0.088400  1.0  -0.6573
  O  O99  1  0.190700  0.016390  0.936800  1.0  -0.5338
  O  O100  1  0.340300  0.991580  0.748500  1.0  -0.4889
  O  O101  1  0.707200  0.877220  0.301900  1.0  -0.7687
  O  O102  1  0.616200  0.883100  0.551600  1.0  -0.5721
