# generated using pymatgen
data_FeH8(C3N)4
_symmetry_space_group_name_H-M   'P 1'
_cell_length_a   13.43330000
_cell_length_b   13.84930000
_cell_length_c   26.74770000
_cell_angle_alpha   90.00000000
_cell_angle_beta   101.55000000
_cell_angle_gamma   90.00000000
_symmetry_Int_Tables_number   1
_chemical_formula_structural   FeH8(C3N)4
_chemical_formula_sum   'Fe8 H64 C96 N32'
_cell_volume   4875.42418803
_cell_formula_units_Z   8
loop_
 _symmetry_equiv_pos_site_id
 _symmetry_equiv_pos_as_xyz
  1  'x, y, z'
loop_
 _atom_site_type_symbol
 _atom_site_label
 _atom_site_symmetry_multiplicity
 _atom_site_fract_x
 _atom_site_fract_y
 _atom_site_fract_z
 _atom_site_occupancy
 _atom_site_charge
  Fe  Fe1  1  0.479250  0.366030  0.229080  1.0  0.7798
  Fe  Fe2  1  0.488410  0.612440  0.257510  1.0  0.8422
  Fe  Fe3  1  0.520750  0.866030  0.270920  1.0  0.7793
  Fe  Fe4  1  0.511590  0.112440  0.242490  1.0  0.8433
  Fe  Fe5  1  0.520750  0.633970  0.770920  1.0  0.7794
  Fe  Fe6  1  0.511590  0.387560  0.742490  1.0  0.8428
  Fe  Fe7  1  0.479250  0.133970  0.729080  1.0  0.7799
  Fe  Fe8  1  0.488410  0.887560  0.757510  1.0  0.8416
  H  H9  1  0.253500  0.621900  0.268900  1.0  0.1027
  H  H10  1  0.226200  0.357500  0.205700  1.0  0.0995
  H  H11  1  0.085700  0.618500  0.275300  1.0  0.1154
  H  H12  1  0.912700  0.619800  0.277000  1.0  0.1129
  H  H13  1  0.877400  0.368000  0.198300  1.0  0.1156
  H  H14  1  0.050300  0.368100  0.196200  1.0  0.1158
  H  H15  1  0.712400  0.360900  0.207800  1.0  0.1016
  H  H16  1  0.737500  0.624600  0.270900  1.0  0.1009
  H  H17  1  0.474500  0.581200  0.378600  1.0  0.1059
  H  H18  1  0.526600  0.865900  0.391700  1.0  0.1065
  H  H19  1  0.532100  0.584500  0.477800  1.0  0.1016
  H  H20  1  0.524000  0.591300  0.563900  1.0  0.1122
  H  H21  1  0.418700  0.865800  0.544700  1.0  0.1172
  H  H22  1  0.430000  0.858900  0.459800  1.0  0.1074
  H  H23  1  0.434000  0.879100  0.632600  1.0  0.1005
  H  H24  1  0.518200  0.601300  0.649900  1.0  0.0954
  H  H25  1  0.746500  0.121900  0.231100  1.0  0.1035
  H  H26  1  0.773800  0.857500  0.294300  1.0  0.0995
  H  H27  1  0.914300  0.118500  0.224700  1.0  0.1157
  H  H28  1  0.087300  0.119800  0.223000  1.0  0.1131
  H  H29  1  0.122600  0.868000  0.301700  1.0  0.115
  H  H30  1  0.949700  0.868100  0.303800  1.0  0.1154
  H  H31  1  0.287600  0.860900  0.292200  1.0  0.1026
  H  H32  1  0.262500  0.124600  0.229100  1.0  0.1005
  H  H33  1  0.525500  0.081200  0.121400  1.0  0.1055
  H  H34  1  0.473400  0.365900  0.108300  1.0  0.1064
  H  H35  1  0.467900  0.084500  0.022200  1.0  0.1013
  H  H36  1  0.476000  0.091300  0.936100  1.0  0.1122
  H  H37  1  0.581300  0.365800  0.955300  1.0  0.1172
  H  H38  1  0.570000  0.358900  0.040200  1.0  0.1074
  H  H39  1  0.566000  0.379100  0.867400  1.0  0.1004
  H  H40  1  0.481800  0.101300  0.850100  1.0  0.0952
  H  H41  1  0.746500  0.378100  0.731100  1.0  0.1028
  H  H42  1  0.773800  0.642500  0.794300  1.0  0.0996
  H  H43  1  0.914300  0.381500  0.724700  1.0  0.1154
  H  H44  1  0.087300  0.380200  0.723000  1.0  0.1133
  H  H45  1  0.122600  0.632000  0.801700  1.0  0.1147
  H  H46  1  0.949700  0.631900  0.803800  1.0  0.1156
  H  H47  1  0.287600  0.639100  0.792200  1.0  0.1025
  H  H48  1  0.262500  0.375400  0.729100  1.0  0.1001
  H  H49  1  0.525500  0.418800  0.621400  1.0  0.1061
  H  H50  1  0.473400  0.134100  0.608300  1.0  0.1061
  H  H51  1  0.467900  0.415500  0.522200  1.0  0.101
  H  H52  1  0.476000  0.408700  0.436100  1.0  0.11
  H  H53  1  0.581300  0.134200  0.455300  1.0  0.1169
  H  H54  1  0.570000  0.141100  0.540200  1.0  0.1075
  H  H55  1  0.566000  0.120900  0.367400  1.0  0.1001
  H  H56  1  0.481800  0.398700  0.350100  1.0  0.0954
  H  H57  1  0.253500  0.878100  0.768900  1.0  0.1023
  H  H58  1  0.226200  0.142500  0.705700  1.0  0.0993
  H  H59  1  0.085700  0.881500  0.775300  1.0  0.1154
  H  H60  1  0.912700  0.880200  0.777000  1.0  0.1123
  H  H61  1  0.877400  0.132000  0.698300  1.0  0.1155
  H  H62  1  0.050300  0.131900  0.696200  1.0  0.1154
  H  H63  1  0.712400  0.139100  0.707800  1.0  0.1019
  H  H64  1  0.737500  0.875400  0.770900  1.0  0.1008
  H  H65  1  0.474500  0.918800  0.878600  1.0  0.1063
  H  H66  1  0.526600  0.634100  0.891700  1.0  0.1066
  H  H67  1  0.532100  0.915500  0.977800  1.0  0.1015
  H  H68  1  0.524000  0.908700  0.063900  1.0  0.1099
  H  H69  1  0.418700  0.634200  0.044700  1.0  0.117
  H  H70  1  0.430000  0.641100  0.959800  1.0  0.1071
  H  H71  1  0.434000  0.620900  0.132600  1.0  0.0998
  H  H72  1  0.518200  0.898700  0.149900  1.0  0.0956
  C  C73  1  0.267900  0.562000  0.254560  1.0  0.0076
  C  C74  1  0.195800  0.491300  0.236160  1.0  -0.1448
  C  C75  1  0.253100  0.417100  0.219960  1.0  0.0076
  C  C76  1  0.085300  0.492800  0.235730  1.0  -0.0287
  C  C77  1  0.043400  0.567500  0.259570  1.0  -0.1182
  C  C78  1  0.940200  0.568300  0.260640  1.0  -0.109
  C  C79  1  0.876700  0.493600  0.237650  1.0  -0.0035
  C  C80  1  0.919200  0.419300  0.213940  1.0  -0.1091
  C  C81  1  0.022600  0.419200  0.212840  1.0  -0.1155
  C  C82  1  0.697400  0.420200  0.222550  1.0  0.0094
  C  C83  1  0.766600  0.493200  0.238930  1.0  -0.1503
  C  C84  1  0.711000  0.564600  0.257060  1.0  0.0138
  C  C85  1  0.487500  0.646600  0.371330  1.0  0.0043
  C  C86  1  0.495100  0.721600  0.406010  1.0  -0.1574
  C  C87  1  0.516300  0.802300  0.378360  1.0  -0.0022
  C  C88  1  0.485400  0.722000  0.459810  1.0  0.0616
  C  C89  1  0.510800  0.642500  0.491440  1.0  -0.1159
  C  C90  1  0.505600  0.646400  0.542900  1.0  -0.1155
  C  C91  1  0.473600  0.730500  0.564010  1.0  0.0068
  C  C92  1  0.443700  0.808900  0.531680  1.0  -0.1346
  C  C93  1  0.450100  0.804400  0.481030  1.0  -0.135
  C  C94  1  0.455100  0.817900  0.646960  1.0  0.0293
  C  C95  1  0.474500  0.737000  0.618910  1.0  -0.1741
  C  C96  1  0.500700  0.665900  0.656350  1.0  0.0325
  C  C97  1  0.732100  0.062000  0.245440  1.0  0.0081
  C  C98  1  0.804200  0.991300  0.263840  1.0  -0.1447
  C  C99  1  0.746900  0.917100  0.280040  1.0  0.0085
  C  C100  1  0.914700  0.992800  0.264270  1.0  -0.0325
  C  C101  1  0.956600  0.067500  0.240430  1.0  -0.1174
  C  C102  1  0.059800  0.068300  0.239360  1.0  -0.11
  C  C103  1  0.123300  0.993600  0.262350  1.0  -0.0033
  C  C104  1  0.080800  0.919300  0.286060  1.0  -0.1092
  C  C105  1  0.977400  0.919200  0.287160  1.0  -0.1113
  C  C106  1  0.302600  0.920200  0.277450  1.0  0.01
  C  C107  1  0.233400  0.993200  0.261070  1.0  -0.1512
  C  C108  1  0.289000  0.064600  0.242940  1.0  0.0142
  C  C109  1  0.512500  0.146600  0.128670  1.0  0.0046
  C  C110  1  0.504900  0.221600  0.093990  1.0  -0.1569
  C  C111  1  0.483700  0.302300  0.121640  1.0  -0.0028
  C  C112  1  0.514600  0.222000  0.040190  1.0  0.0613
  C  C113  1  0.489200  0.142500  0.008560  1.0  -0.1162
  C  C114  1  0.494400  0.146400  0.957100  1.0  -0.1165
  C  C115  1  0.526400  0.230500  0.935990  1.0  0.0065
  C  C116  1  0.556300  0.308900  0.968320  1.0  -0.1339
  C  C117  1  0.549900  0.304400  0.018970  1.0  -0.134
  C  C118  1  0.544900  0.317900  0.853040  1.0  0.0297
  C  C119  1  0.525500  0.237000  0.881090  1.0  -0.1759
  C  C120  1  0.499300  0.165900  0.843650  1.0  0.0324
  C  C121  1  0.732100  0.438000  0.745440  1.0  0.0083
  C  C122  1  0.804200  0.508700  0.763840  1.0  -0.1447
  C  C123  1  0.746900  0.582900  0.780040  1.0  0.0081
  C  C124  1  0.914700  0.507200  0.764270  1.0  -0.0296
  C  C125  1  0.956600  0.432500  0.740430  1.0  -0.1163
  C  C126  1  0.059800  0.431700  0.739360  1.0  -0.1088
  C  C127  1  0.123300  0.506400  0.762350  1.0  -0.0034
  C  C128  1  0.080800  0.580700  0.786060  1.0  -0.1097
  C  C129  1  0.977400  0.580800  0.787160  1.0  -0.1169
  C  C130  1  0.302600  0.579800  0.777450  1.0  0.0091
  C  C131  1  0.233400  0.506800  0.761070  1.0  -0.1512
  C  C132  1  0.289000  0.435400  0.742940  1.0  0.0148
  C  C133  1  0.512500  0.353400  0.628670  1.0  0.0041
  C  C134  1  0.504900  0.278400  0.593990  1.0  -0.1566
  C  C135  1  0.483700  0.197700  0.621640  1.0  -0.0022
  C  C136  1  0.514600  0.278000  0.540190  1.0  0.061
  C  C137  1  0.489200  0.357500  0.508560  1.0  -0.1171
  C  C138  1  0.494400  0.353600  0.457100  1.0  -0.1161
  C  C139  1  0.526400  0.269500  0.435990  1.0  0.0065
  C  C140  1  0.556300  0.191100  0.468320  1.0  -0.1334
  C  C141  1  0.549900  0.195600  0.518970  1.0  -0.1346
  C  C142  1  0.544900  0.182100  0.353040  1.0  0.0302
  C  C143  1  0.525500  0.263000  0.381090  1.0  -0.1758
  C  C144  1  0.499300  0.334100  0.343650  1.0  0.0312
  C  C145  1  0.267900  0.938000  0.754560  1.0  0.0086
  C  C146  1  0.195800  0.008700  0.736160  1.0  -0.1448
  C  C147  1  0.253100  0.082900  0.719960  1.0  0.0074
  C  C148  1  0.085300  0.007200  0.735730  1.0  -0.0318
  C  C149  1  0.043400  0.932500  0.759570  1.0  -0.1168
  C  C150  1  0.940200  0.931700  0.760640  1.0  -0.1086
  C  C151  1  0.876700  0.006400  0.737650  1.0  -0.0035
  C  C152  1  0.919200  0.080700  0.713940  1.0  -0.1101
  C  C153  1  0.022600  0.080800  0.712840  1.0  -0.1119
  C  C154  1  0.697400  0.079800  0.722550  1.0  0.0088
  C  C155  1  0.766600  0.006800  0.738930  1.0  -0.1503
  C  C156  1  0.711000  0.935400  0.757060  1.0  0.0145
  C  C157  1  0.487500  0.853400  0.871330  1.0  0.0033
  C  C158  1  0.495100  0.778400  0.906010  1.0  -0.1571
  C  C159  1  0.516300  0.697700  0.878360  1.0  -0.0012
  C  C160  1  0.485400  0.778000  0.959810  1.0  0.0613
  C  C161  1  0.510800  0.857500  0.991440  1.0  -0.1168
  C  C162  1  0.505600  0.853600  0.042900  1.0  -0.1161
  C  C163  1  0.473600  0.769500  0.064010  1.0  0.0069
  C  C164  1  0.443700  0.691100  0.031680  1.0  -0.1335
  C  C165  1  0.450100  0.695600  0.981030  1.0  -0.1351
  C  C166  1  0.455100  0.682100  0.146960  1.0  0.0293
  C  C167  1  0.474500  0.763000  0.118910  1.0  -0.174
  C  C168  1  0.500700  0.834100  0.156350  1.0  0.0315
  N  N169  1  0.470400  0.797100  0.696800  1.0  -0.2221
  N  N170  1  0.497500  0.701700  0.702690  1.0  -0.222
  N  N171  1  0.501300  0.679700  0.325830  1.0  -0.2462
  N  N172  1  0.614500  0.536500  0.252170  1.0  -0.2271
  N  N173  1  0.604900  0.446500  0.230870  1.0  -0.2421
  N  N174  1  0.519700  0.776700  0.330120  1.0  -0.2487
  N  N175  1  0.351200  0.442600  0.227590  1.0  -0.2369
  N  N176  1  0.361100  0.533200  0.249010  1.0  -0.2469
  N  N177  1  0.529600  0.297100  0.803200  1.0  -0.2213
  N  N178  1  0.502500  0.201700  0.797310  1.0  -0.2216
  N  N179  1  0.498700  0.179700  0.174170  1.0  -0.245
  N  N180  1  0.385500  0.036500  0.247830  1.0  -0.2238
  N  N181  1  0.395100  0.946500  0.269130  1.0  -0.2432
  N  N182  1  0.480300  0.276700  0.169880  1.0  -0.2498
  N  N183  1  0.648800  0.942600  0.272410  1.0  -0.2373
  N  N184  1  0.638900  0.033200  0.250990  1.0  -0.2464
  N  N185  1  0.529600  0.202900  0.303200  1.0  -0.2215
  N  N186  1  0.502500  0.298300  0.297310  1.0  -0.221
  N  N187  1  0.498700  0.320300  0.674170  1.0  -0.2449
  N  N188  1  0.385500  0.463500  0.747830  1.0  -0.2243
  N  N189  1  0.395100  0.553500  0.769130  1.0  -0.2435
  N  N190  1  0.480300  0.223300  0.669880  1.0  -0.2492
  N  N191  1  0.648800  0.557400  0.772410  1.0  -0.2378
  N  N192  1  0.638900  0.466800  0.750990  1.0  -0.2465
  N  N193  1  0.470400  0.702900  0.196800  1.0  -0.2225
  N  N194  1  0.497500  0.798300  0.202690  1.0  -0.2218
  N  N195  1  0.501300  0.820300  0.825830  1.0  -0.2459
  N  N196  1  0.614500  0.963500  0.752170  1.0  -0.2264
  N  N197  1  0.604900  0.053500  0.730870  1.0  -0.2424
  N  N198  1  0.519700  0.723300  0.830120  1.0  -0.2484
  N  N199  1  0.351200  0.057400  0.727590  1.0  -0.2363
  N  N200  1  0.361100  0.966800  0.749010  1.0  -0.2467
