# generated using pymatgen
data_ZnH4(C5O2)2
_symmetry_space_group_name_H-M   'P 1'
_cell_length_a   18.59000000
_cell_length_b   18.59000000
_cell_length_c   18.59000000
_cell_angle_alpha   74.87650000
_cell_angle_beta   74.87650000
_cell_angle_gamma   74.87650000
_symmetry_Int_Tables_number   1
_chemical_formula_structural   ZnH4(C5O2)2
_chemical_formula_sum   'Zn12 H48 C120 O48'
_cell_volume   5857.60412177
_cell_formula_units_Z   12
loop_
 _symmetry_equiv_pos_site_id
 _symmetry_equiv_pos_as_xyz
  1  'x, y, z'
loop_
 _atom_site_type_symbol
 _atom_site_label
 _atom_site_symmetry_multiplicity
 _atom_site_fract_x
 _atom_site_fract_y
 _atom_site_fract_z
 _atom_site_occupancy
 _atom_site_charge
  Zn  Zn1  1  0.502420  0.298420  0.080570  1.0  0.9322
  Zn  Zn2  1  0.598890  0.267730  0.909700  1.0  0.9942
  Zn  Zn3  1  0.080570  0.502420  0.298420  1.0  0.9295
  Zn  Zn4  1  0.909700  0.598890  0.267730  1.0  0.994
  Zn  Zn5  1  0.298420  0.080570  0.502420  1.0  0.9285
  Zn  Zn6  1  0.267730  0.909700  0.598890  1.0  0.9941
  Zn  Zn7  1  0.798420  0.002420  0.580570  1.0  0.9312
  Zn  Zn8  1  0.767730  0.098890  0.409700  1.0  0.9954
  Zn  Zn9  1  0.002420  0.580570  0.798420  1.0  0.9282
  Zn  Zn10  1  0.098890  0.409700  0.767730  1.0  0.994
  Zn  Zn11  1  0.580570  0.798420  0.002420  1.0  0.9336
  Zn  Zn12  1  0.409700  0.767730  0.098890  1.0  0.9934
  H  H13  1  0.498600  0.528600  0.022000  1.0  0.1102
  H  H14  1  0.566500  0.710700  0.868600  1.0  0.1062
  H  H15  1  0.630000  0.503000  0.815700  1.0  0.1133
  H  H16  1  0.561600  0.744500  0.737700  1.0  0.1176
  H  H17  1  0.686200  0.193500  0.181800  1.0  0.1145
  H  H18  1  0.875900  0.028300  0.177100  1.0  0.109
  H  H19  1  0.802700  0.133600  0.980900  1.0  0.1136
  H  H20  1  0.933600  0.112200  0.931700  1.0  0.1168
  H  H21  1  0.022000  0.498600  0.528600  1.0  0.1101
  H  H22  1  0.868600  0.566500  0.710700  1.0  0.1083
  H  H23  1  0.815700  0.630000  0.503000  1.0  0.1136
  H  H24  1  0.737700  0.561600  0.744500  1.0  0.119
  H  H25  1  0.181800  0.686200  0.193500  1.0  0.1148
  H  H26  1  0.177100  0.875900  0.028300  1.0  0.1093
  H  H27  1  0.980900  0.802700  0.133600  1.0  0.114
  H  H28  1  0.931700  0.933600  0.112200  1.0  0.1167
  H  H29  1  0.528600  0.022000  0.498600  1.0  0.1108
  H  H30  1  0.710700  0.868600  0.566500  1.0  0.1069
  H  H31  1  0.503000  0.815700  0.630000  1.0  0.1123
  H  H32  1  0.744500  0.737700  0.561600  1.0  0.1181
  H  H33  1  0.193500  0.181800  0.686200  1.0  0.115
  H  H34  1  0.028300  0.177100  0.875900  1.0  0.1092
  H  H35  1  0.133600  0.980900  0.802700  1.0  0.113
  H  H36  1  0.112200  0.931700  0.933600  1.0  0.1168
  H  H37  1  0.028600  0.998600  0.522000  1.0  0.1101
  H  H38  1  0.210700  0.066500  0.368600  1.0  0.1076
  H  H39  1  0.003000  0.130000  0.315700  1.0  0.1132
  H  H40  1  0.244500  0.061600  0.237700  1.0  0.1184
  H  H41  1  0.693500  0.186200  0.681800  1.0  0.1147
  H  H42  1  0.528300  0.375900  0.677100  1.0  0.1089
  H  H43  1  0.633600  0.302700  0.480900  1.0  0.1131
  H  H44  1  0.612200  0.433600  0.431700  1.0  0.117
  H  H45  1  0.998600  0.522000  0.028600  1.0  0.1114
  H  H46  1  0.066500  0.368600  0.210700  1.0  0.1083
  H  H47  1  0.130000  0.315700  0.003000  1.0  0.1139
  H  H48  1  0.061600  0.237700  0.244500  1.0  0.1184
  H  H49  1  0.186200  0.681800  0.693500  1.0  0.1146
  H  H50  1  0.375900  0.677100  0.528300  1.0  0.1085
  H  H51  1  0.302700  0.480900  0.633600  1.0  0.113
  H  H52  1  0.433600  0.431700  0.612200  1.0  0.1166
  H  H53  1  0.522000  0.028600  0.998600  1.0  0.1099
  H  H54  1  0.368600  0.210700  0.066500  1.0  0.1065
  H  H55  1  0.315700  0.003000  0.130000  1.0  0.1124
  H  H56  1  0.237700  0.244500  0.061600  1.0  0.118
  H  H57  1  0.681800  0.693500  0.186200  1.0  0.1147
  H  H58  1  0.677100  0.528300  0.375900  1.0  0.1091
  H  H59  1  0.480900  0.633600  0.302700  1.0  0.1141
  H  H60  1  0.431700  0.612200  0.433600  1.0  0.1167
  C  C61  1  0.559160  0.419660  0.942550  1.0  0.7204
  C  C62  1  0.563220  0.504000  0.921650  1.0  -0.1453
  C  C63  1  0.525480  0.549970  0.973480  1.0  0.0361
  C  C64  1  0.526500  0.628010  0.954840  1.0  -0.1625
  C  C65  1  0.565730  0.657940  0.882230  1.0  -0.0748
  C  C66  1  0.603060  0.612640  0.830260  1.0  0.0148
  C  C67  1  0.602890  0.535030  0.850590  1.0  -0.0427
  C  C68  1  0.484460  0.676220  0.011790  1.0  0.6606
  C  C69  1  0.642830  0.647670  0.752580  1.0  0.0557
  C  C70  1  0.610020  0.718610  0.714780  1.0  -0.1703
  C  C71  1  0.673920  0.221010  0.035530  1.0  0.712
  C  C72  1  0.735260  0.168140  0.074610  1.0  -0.1555
  C  C73  1  0.727350  0.162230  0.154370  1.0  -0.0198
  C  C74  1  0.780580  0.110440  0.190010  1.0  -0.0974
  C  C75  1  0.841190  0.065690  0.150090  1.0  -0.0729
  C  C76  1  0.852960  0.073620  0.071740  1.0  0.0151
  C  C77  1  0.796980  0.126840  0.034420  1.0  -0.0578
  C  C78  1  0.922380  0.031100  0.029870  1.0  0.054
  C  C79  1  0.958540  0.064940  0.957440  1.0  -0.1522
  C  C80  1  0.775210  0.100310  0.274810  1.0  0.6314
  C  C81  1  0.942550  0.559160  0.419660  1.0  0.7215
  C  C82  1  0.921650  0.563220  0.504000  1.0  -0.1453
  C  C83  1  0.973480  0.525480  0.549970  1.0  0.0364
  C  C84  1  0.954840  0.526500  0.628010  1.0  -0.1613
  C  C85  1  0.882230  0.565730  0.657940  1.0  -0.0772
  C  C86  1  0.830260  0.603060  0.612640  1.0  0.0152
  C  C87  1  0.850590  0.602890  0.535030  1.0  -0.0429
  C  C88  1  0.011790  0.484460  0.676220  1.0  0.6604
  C  C89  1  0.752580  0.642830  0.647670  1.0  0.0568
  C  C90  1  0.714780  0.610020  0.718610  1.0  -0.1664
  C  C91  1  0.035530  0.673920  0.221010  1.0  0.7121
  C  C92  1  0.074610  0.735260  0.168140  1.0  -0.1552
  C  C93  1  0.154370  0.727350  0.162230  1.0  -0.0191
  C  C94  1  0.190010  0.780580  0.110440  1.0  -0.1016
  C  C95  1  0.150090  0.841190  0.065690  1.0  -0.0727
  C  C96  1  0.071740  0.852960  0.073620  1.0  0.0186
  C  C97  1  0.034420  0.796980  0.126840  1.0  -0.0579
  C  C98  1  0.029870  0.922380  0.031100  1.0  0.0547
  C  C99  1  0.957440  0.958540  0.064940  1.0  -0.1511
  C  C100  1  0.274810  0.775210  0.100310  1.0  0.6294
  C  C101  1  0.419660  0.942550  0.559160  1.0  0.7212
  C  C102  1  0.504000  0.921650  0.563220  1.0  -0.1451
  C  C103  1  0.549970  0.973480  0.525480  1.0  0.0346
  C  C104  1  0.628010  0.954840  0.526500  1.0  -0.1601
  C  C105  1  0.657940  0.882230  0.565730  1.0  -0.0748
  C  C106  1  0.612640  0.830260  0.603060  1.0  0.0147
  C  C107  1  0.535030  0.850590  0.602890  1.0  -0.0432
  C  C108  1  0.676220  0.011790  0.484460  1.0  0.6591
  C  C109  1  0.647670  0.752580  0.642830  1.0  0.0571
  C  C110  1  0.718610  0.714780  0.610020  1.0  -0.1717
  C  C111  1  0.221010  0.035530  0.673920  1.0  0.7133
  C  C112  1  0.168140  0.074610  0.735260  1.0  -0.1568
  C  C113  1  0.162230  0.154370  0.727350  1.0  -0.0191
  C  C114  1  0.110440  0.190010  0.780580  1.0  -0.1002
  C  C115  1  0.065690  0.150090  0.841190  1.0  -0.0728
  C  C116  1  0.073620  0.071740  0.852960  1.0  0.018
  C  C117  1  0.126840  0.034420  0.796980  1.0  -0.0551
  C  C118  1  0.031100  0.029870  0.922380  1.0  0.0558
  C  C119  1  0.064940  0.957440  0.958540  1.0  -0.1515
  C  C120  1  0.100310  0.274810  0.775210  1.0  0.63
  C  C121  1  0.919660  0.059160  0.442550  1.0  0.7218
  C  C122  1  0.004000  0.063220  0.421650  1.0  -0.1452
  C  C123  1  0.049970  0.025480  0.473480  1.0  0.0361
  C  C124  1  0.128010  0.026500  0.454840  1.0  -0.1623
  C  C125  1  0.157940  0.065730  0.382230  1.0  -0.0752
  C  C126  1  0.112640  0.103060  0.330260  1.0  0.0148
  C  C127  1  0.035030  0.102890  0.350590  1.0  -0.0436
  C  C128  1  0.176220  0.984460  0.511790  1.0  0.6617
  C  C129  1  0.147670  0.142830  0.252580  1.0  0.056
  C  C130  1  0.218610  0.110020  0.214780  1.0  -0.168
  C  C131  1  0.721010  0.173920  0.535530  1.0  0.7127
  C  C132  1  0.668140  0.235260  0.574610  1.0  -0.1561
  C  C133  1  0.662230  0.227350  0.654370  1.0  -0.0191
  C  C134  1  0.610440  0.280580  0.690010  1.0  -0.0973
  C  C135  1  0.565690  0.341190  0.650090  1.0  -0.0732
  C  C136  1  0.573620  0.352960  0.571740  1.0  0.0178
  C  C137  1  0.626840  0.296980  0.534420  1.0  -0.057
  C  C138  1  0.531100  0.422380  0.529870  1.0  0.0548
  C  C139  1  0.564940  0.458540  0.457440  1.0  -0.1511
  C  C140  1  0.600310  0.275210  0.774810  1.0  0.6316
  C  C141  1  0.059160  0.442550  0.919660  1.0  0.721
  C  C142  1  0.063220  0.421650  0.004000  1.0  -0.1444
  C  C143  1  0.025480  0.473480  0.049970  1.0  0.0346
  C  C144  1  0.026500  0.454840  0.128010  1.0  -0.1607
  C  C145  1  0.065730  0.382230  0.157940  1.0  -0.0767
  C  C146  1  0.103060  0.330260  0.112640  1.0  0.0153
  C  C147  1  0.102890  0.350590  0.035030  1.0  -0.0427
  C  C148  1  0.984460  0.511790  0.176220  1.0  0.6601
  C  C149  1  0.142830  0.252580  0.147670  1.0  0.0572
  C  C150  1  0.110020  0.214780  0.218610  1.0  -0.1704
  C  C151  1  0.173920  0.535530  0.721010  1.0  0.7109
  C  C152  1  0.235260  0.574610  0.668140  1.0  -0.1558
  C  C153  1  0.227350  0.654370  0.662230  1.0  -0.0192
  C  C154  1  0.280580  0.690010  0.610440  1.0  -0.0994
  C  C155  1  0.341190  0.650090  0.565690  1.0  -0.0721
  C  C156  1  0.352960  0.571740  0.573620  1.0  0.0162
  C  C157  1  0.296980  0.534420  0.626840  1.0  -0.0555
  C  C158  1  0.422380  0.529870  0.531100  1.0  0.054
  C  C159  1  0.458540  0.457440  0.564940  1.0  -0.1512
  C  C160  1  0.275210  0.774810  0.600310  1.0  0.6297
  C  C161  1  0.442550  0.919660  0.059160  1.0  0.7208
  C  C162  1  0.421650  0.004000  0.063220  1.0  -0.1447
  C  C163  1  0.473480  0.049970  0.025480  1.0  0.0365
  C  C164  1  0.454840  0.128010  0.026500  1.0  -0.1605
  C  C165  1  0.382230  0.157940  0.065730  1.0  -0.0749
  C  C166  1  0.330260  0.112640  0.103060  1.0  0.0154
  C  C167  1  0.350590  0.035030  0.102890  1.0  -0.0421
  C  C168  1  0.511790  0.176220  0.984460  1.0  0.6583
  C  C169  1  0.252580  0.147670  0.142830  1.0  0.0565
  C  C170  1  0.214780  0.218610  0.110020  1.0  -0.1713
  C  C171  1  0.535530  0.721010  0.173920  1.0  0.7131
  C  C172  1  0.574610  0.668140  0.235260  1.0  -0.1564
  C  C173  1  0.654370  0.662230  0.227350  1.0  -0.0192
  C  C174  1  0.690010  0.610440  0.280580  1.0  -0.1011
  C  C175  1  0.650090  0.565690  0.341190  1.0  -0.0732
  C  C176  1  0.571740  0.573620  0.352960  1.0  0.018
  C  C177  1  0.534420  0.626840  0.296980  1.0  -0.0581
  C  C178  1  0.529870  0.531100  0.422380  1.0  0.0557
  C  C179  1  0.457440  0.564940  0.458540  1.0  -0.1518
  C  C180  1  0.774810  0.600310  0.275210  1.0  0.6294
  O  O181  1  0.599130  0.379080  0.896360  1.0  -0.5593
  O  O182  1  0.514100  0.398930  0.003090  1.0  -0.6176
  O  O183  1  0.441390  0.648700  0.070740  1.0  -0.4952
  O  O184  1  0.491620  0.744900  0.000180  1.0  -0.6275
  O  O185  1  0.744530  0.157910  0.304920  1.0  -0.5551
  O  O186  1  0.802170  0.037390  0.311610  1.0  -0.5438
  O  O187  1  0.682620  0.221050  0.966130  1.0  -0.5511
  O  O188  1  0.619640  0.259530  0.074210  1.0  -0.629
  O  O189  1  0.896360  0.599130  0.379080  1.0  -0.5593
  O  O190  1  0.003090  0.514100  0.398930  1.0  -0.6185
  O  O191  1  0.070740  0.441390  0.648700  1.0  -0.4953
  O  O192  1  0.000180  0.491620  0.744900  1.0  -0.6257
  O  O193  1  0.304920  0.744530  0.157910  1.0  -0.5563
  O  O194  1  0.311610  0.802170  0.037390  1.0  -0.5466
  O  O195  1  0.966130  0.682620  0.221050  1.0  -0.5519
  O  O196  1  0.074210  0.619640  0.259530  1.0  -0.6302
  O  O197  1  0.379080  0.896360  0.599130  1.0  -0.5578
  O  O198  1  0.398930  0.003090  0.514100  1.0  -0.6167
  O  O199  1  0.648700  0.070740  0.441390  1.0  -0.4954
  O  O200  1  0.744900  0.000180  0.491620  1.0  -0.6276
  O  O201  1  0.157910  0.304920  0.744530  1.0  -0.5537
  O  O202  1  0.037390  0.311610  0.802170  1.0  -0.5482
  O  O203  1  0.221050  0.966130  0.682620  1.0  -0.5521
  O  O204  1  0.259530  0.074210  0.619640  1.0  -0.6292
  O  O205  1  0.879080  0.099130  0.396360  1.0  -0.5585
  O  O206  1  0.898930  0.014100  0.503090  1.0  -0.6165
  O  O207  1  0.148700  0.941390  0.570740  1.0  -0.4949
  O  O208  1  0.244900  0.991620  0.500180  1.0  -0.6276
  O  O209  1  0.657910  0.244530  0.804920  1.0  -0.5546
  O  O210  1  0.537390  0.302170  0.811610  1.0  -0.5481
  O  O211  1  0.721050  0.182620  0.466130  1.0  -0.5518
  O  O212  1  0.759530  0.119640  0.574210  1.0  -0.6294
  O  O213  1  0.099130  0.396360  0.879080  1.0  -0.5594
  O  O214  1  0.014100  0.503090  0.898930  1.0  -0.6175
  O  O215  1  0.941390  0.570740  0.148700  1.0  -0.4951
  O  O216  1  0.991620  0.500180  0.244900  1.0  -0.6241
  O  O217  1  0.244530  0.804920  0.657910  1.0  -0.5547
  O  O218  1  0.302170  0.811610  0.537390  1.0  -0.5482
  O  O219  1  0.182620  0.466130  0.721050  1.0  -0.5522
  O  O220  1  0.119640  0.574210  0.759530  1.0  -0.6283
  O  O221  1  0.396360  0.879080  0.099130  1.0  -0.5582
  O  O222  1  0.503090  0.898930  0.014100  1.0  -0.6171
  O  O223  1  0.570740  0.148700  0.941390  1.0  -0.4961
  O  O224  1  0.500180  0.244900  0.991620  1.0  -0.6294
  O  O225  1  0.804920  0.657910  0.244530  1.0  -0.553
  O  O226  1  0.811610  0.537390  0.302170  1.0  -0.5439
  O  O227  1  0.466130  0.721050  0.182620  1.0  -0.551
  O  O228  1  0.574210  0.759530  0.119640  1.0  -0.6308
