# generated using pymatgen
data_CdH4(C5O2)2
_symmetry_space_group_name_H-M   'P 1'
_cell_length_a   18.16300000
_cell_length_b   19.93690000
_cell_length_c   19.93690000
_cell_angle_alpha   109.07000000
_cell_angle_beta   108.00300000
_cell_angle_gamma   71.99690000
_symmetry_Int_Tables_number   1
_chemical_formula_structural   CdH4(C5O2)2
_chemical_formula_sum   'Cd12 H48 C120 O48'
_cell_volume   6312.87538703
_cell_formula_units_Z   12
loop_
 _symmetry_equiv_pos_site_id
 _symmetry_equiv_pos_as_xyz
  1  'x, y, z'
loop_
 _atom_site_type_symbol
 _atom_site_label
 _atom_site_symmetry_multiplicity
 _atom_site_fract_x
 _atom_site_fract_y
 _atom_site_fract_z
 _atom_site_occupancy
 _atom_site_charge
  Cd  Cd1  1  0.899680  0.262490  0.945150  1.0  1.058
  Cd  Cd2  1  0.934890  0.157460  0.770860  1.0  0.876
  Cd  Cd3  1  0.665220  0.468330  0.346790  1.0  0.9684
  Cd  Cd4  1  0.600320  0.945150  0.262490  1.0  1.0577
  Cd  Cd5  1  0.565110  0.770860  0.157460  1.0  0.8748
  Cd  Cd6  1  0.834780  0.346790  0.468330  1.0  0.9682
  Cd  Cd7  1  0.100320  0.737510  0.054850  1.0  1.0583
  Cd  Cd8  1  0.065110  0.842540  0.229140  1.0  0.8668
  Cd  Cd9  1  0.334780  0.531670  0.653210  1.0  0.9674
  Cd  Cd10  1  0.399680  0.054850  0.737510  1.0  1.0572
  Cd  Cd11  1  0.434890  0.229140  0.842540  1.0  0.8702
  Cd  Cd12  1  0.165220  0.653210  0.531670  1.0  0.9682
  H  H13  1  0.674500  0.159400  0.842800  1.0  0.1186
  H  H14  1  0.657400  0.961600  0.706800  1.0  0.1252
  H  H15  1  0.864200  0.019300  0.780100  1.0  0.107
  H  H16  1  0.723700  0.898800  0.602600  1.0  0.1103
  H  H17  1  0.905000  0.727200  0.596600  1.0  0.1084
  H  H18  1  0.906900  0.892900  0.773900  1.0  0.1123
  H  H19  1  0.737200  0.866300  0.479500  1.0  0.1246
  H  H20  1  0.663400  0.699800  0.322600  1.0  0.1172
  H  H21  1  0.785100  0.671200  0.523600  1.0  0.1379
  H  H22  1  0.049600  0.717200  0.645800  1.0  0.115
  H  H23  1  0.185200  0.655400  0.825400  1.0  0.1313
  H  H24  1  0.973400  0.797900  0.828500  1.0  0.1015
  H  H25  1  0.825500  0.842800  0.159400  1.0  0.117
  H  H26  1  0.842600  0.706800  0.961600  1.0  0.1254
  H  H27  1  0.635800  0.780100  0.019300  1.0  0.1086
  H  H28  1  0.776300  0.602600  0.898800  1.0  0.111
  H  H29  1  0.595000  0.596600  0.727200  1.0  0.1077
  H  H30  1  0.593100  0.773900  0.892900  1.0  0.1128
  H  H31  1  0.762800  0.479500  0.866300  1.0  0.1251
  H  H32  1  0.836600  0.322600  0.699800  1.0  0.1179
  H  H33  1  0.714900  0.523600  0.671200  1.0  0.1372
  H  H34  1  0.450400  0.645800  0.717200  1.0  0.1147
  H  H35  1  0.314800  0.825400  0.655400  1.0  0.1327
  H  H36  1  0.526600  0.828500  0.797900  1.0  0.1014
  H  H37  1  0.325500  0.840600  0.157200  1.0  0.1176
  H  H38  1  0.342600  0.038400  0.293200  1.0  0.1247
  H  H39  1  0.135800  0.980700  0.219900  1.0  0.1078
  H  H40  1  0.276300  0.101200  0.397400  1.0  0.1106
  H  H41  1  0.095000  0.272800  0.403400  1.0  0.1087
  H  H42  1  0.093100  0.107100  0.226100  1.0  0.112
  H  H43  1  0.262800  0.133700  0.520500  1.0  0.1252
  H  H44  1  0.336600  0.300200  0.677400  1.0  0.1172
  H  H45  1  0.214900  0.328800  0.476400  1.0  0.1382
  H  H46  1  0.950400  0.282800  0.354200  1.0  0.1154
  H  H47  1  0.814800  0.344600  0.174600  1.0  0.1326
  H  H48  1  0.026600  0.202100  0.171500  1.0  0.101
  H  H49  1  0.174500  0.157200  0.840600  1.0  0.117
  H  H50  1  0.157400  0.293200  0.038400  1.0  0.1255
  H  H51  1  0.364200  0.219900  0.980700  1.0  0.1073
  H  H52  1  0.223700  0.397400  0.101200  1.0  0.1104
  H  H53  1  0.405000  0.403400  0.272800  1.0  0.1074
  H  H54  1  0.406900  0.226100  0.107100  1.0  0.1126
  H  H55  1  0.237200  0.520500  0.133700  1.0  0.1252
  H  H56  1  0.163400  0.677400  0.300200  1.0  0.1177
  H  H57  1  0.285100  0.476400  0.328800  1.0  0.1374
  H  H58  1  0.549600  0.354200  0.282800  1.0  0.1147
  H  H59  1  0.685200  0.174600  0.344600  1.0  0.1314
  H  H60  1  0.473400  0.171500  0.202100  1.0  0.1015
  C  C61  1  0.819500  0.155100  0.866100  1.0  0.6957
  C  C62  1  0.777900  0.098100  0.821500  1.0  -0.0891
  C  C63  1  0.698700  0.113900  0.817300  1.0  -0.006
  C  C64  1  0.652500  0.063000  0.775000  1.0  -0.1659
  C  C65  1  0.687900  0.995300  0.735300  1.0  -0.0257
  C  C66  1  0.768900  0.978300  0.738500  1.0  0.0601
  C  C67  1  0.810500  0.030000  0.779800  1.0  -0.0726
  C  C68  1  0.561400  0.079400  0.769800  1.0  0.7127
  C  C69  1  0.808400  0.908900  0.696900  1.0  0.0619
  C  C70  1  0.772800  0.874200  0.625200  1.0  -0.0956
  C  C71  1  0.805600  0.807500  0.587300  1.0  0.0776
  C  C72  1  0.881000  0.772700  0.622100  1.0  -0.077
  C  C73  1  0.921300  0.801100  0.690700  1.0  0.0384
  C  C74  1  0.881500  0.871400  0.727000  1.0  -0.0882
  C  C75  1  0.764800  0.775200  0.513600  1.0  0.0416
  C  C76  1  0.733000  0.818000  0.464200  1.0  -0.0741
  C  C77  1  0.695000  0.790400  0.392600  1.0  -0.1439
  C  C78  1  0.688900  0.718800  0.370400  1.0  -0.0162
  C  C79  1  0.720800  0.673900  0.419300  1.0  -0.1486
  C  C80  1  0.761400  0.701100  0.491700  1.0  -0.0474
  C  C81  1  0.656900  0.836100  0.338900  1.0  0.7501
  C  C82  1  0.709700  0.595500  0.396300  1.0  0.6701
  C  C83  1  0.996300  0.761600  0.731200  1.0  0.1029
  C  C84  1  0.056600  0.718300  0.694300  1.0  -0.0716
  C  C85  1  0.125900  0.677700  0.728500  1.0  -0.1514
  C  C86  1  0.138800  0.681900  0.801100  1.0  -0.0227
  C  C87  1  0.078600  0.728400  0.838000  1.0  -0.106
  C  C88  1  0.011000  0.766900  0.802500  1.0  -0.0318
  C  C89  1  0.089700  0.732000  0.917600  1.0  0.6506
  C  C90  1  0.188400  0.628500  0.688500  1.0  0.6537
  C  C91  1  0.680500  0.866100  0.155100  1.0  0.697
  C  C92  1  0.722100  0.821500  0.098100  1.0  -0.0894
  C  C93  1  0.801300  0.817300  0.113900  1.0  -0.0044
  C  C94  1  0.847500  0.775000  0.063000  1.0  -0.1663
  C  C95  1  0.812100  0.735300  0.995300  1.0  -0.0268
  C  C96  1  0.731100  0.738500  0.978300  1.0  0.0596
  C  C97  1  0.689500  0.779800  0.030000  1.0  -0.0738
  C  C98  1  0.938600  0.769800  0.079400  1.0  0.7124
  C  C99  1  0.691600  0.696900  0.908900  1.0  0.0619
  C  C100  1  0.727200  0.625200  0.874200  1.0  -0.0954
  C  C101  1  0.694400  0.587300  0.807500  1.0  0.078
  C  C102  1  0.619000  0.622100  0.772700  1.0  -0.0776
  C  C103  1  0.578700  0.690700  0.801100  1.0  0.0383
  C  C104  1  0.618500  0.727000  0.871400  1.0  -0.0871
  C  C105  1  0.735200  0.513600  0.775200  1.0  0.0417
  C  C106  1  0.767000  0.464200  0.818000  1.0  -0.0712
  C  C107  1  0.805000  0.392600  0.790400  1.0  -0.1446
  C  C108  1  0.811100  0.370400  0.718800  1.0  -0.0166
  C  C109  1  0.779200  0.419300  0.673900  1.0  -0.1468
  C  C110  1  0.738600  0.491700  0.701100  1.0  -0.0486
  C  C111  1  0.843100  0.338900  0.836100  1.0  0.7482
  C  C112  1  0.790300  0.396300  0.595500  1.0  0.6691
  C  C113  1  0.503700  0.731200  0.761600  1.0  0.1027
  C  C114  1  0.443400  0.694300  0.718300  1.0  -0.0698
  C  C115  1  0.374100  0.728500  0.677700  1.0  -0.1504
  C  C116  1  0.361200  0.801100  0.681900  1.0  -0.0259
  C  C117  1  0.421400  0.838000  0.728400  1.0  -0.1054
  C  C118  1  0.489000  0.802500  0.766900  1.0  -0.0312
  C  C119  1  0.410300  0.917600  0.732000  1.0  0.6486
  C  C120  1  0.311600  0.688500  0.628500  1.0  0.6535
  C  C121  1  0.180500  0.844900  0.133900  1.0  0.6969
  C  C122  1  0.222100  0.901900  0.178500  1.0  -0.0899
  C  C123  1  0.301300  0.886100  0.182700  1.0  -0.0058
  C  C124  1  0.347500  0.937000  0.225000  1.0  -0.1666
  C  C125  1  0.312100  0.004700  0.264700  1.0  -0.025
  C  C126  1  0.231100  0.021700  0.261500  1.0  0.0605
  C  C127  1  0.189500  0.970000  0.220200  1.0  -0.0727
  C  C128  1  0.438600  0.920600  0.230200  1.0  0.7128
  C  C129  1  0.191600  0.091100  0.303100  1.0  0.0617
  C  C130  1  0.227200  0.125800  0.374800  1.0  -0.0959
  C  C131  1  0.194400  0.192500  0.412700  1.0  0.0774
  C  C132  1  0.119000  0.227300  0.377900  1.0  -0.0782
  C  C133  1  0.078700  0.198900  0.309300  1.0  0.0378
  C  C134  1  0.118500  0.128600  0.273000  1.0  -0.0873
  C  C135  1  0.235200  0.224800  0.486400  1.0  0.0418
  C  C136  1  0.267000  0.182000  0.535800  1.0  -0.0724
  C  C137  1  0.305000  0.209600  0.607400  1.0  -0.1444
  C  C138  1  0.311100  0.281200  0.629600  1.0  -0.0165
  C  C139  1  0.279200  0.326100  0.580700  1.0  -0.1487
  C  C140  1  0.238600  0.298900  0.508300  1.0  -0.0494
  C  C141  1  0.343100  0.163900  0.661100  1.0  0.7493
  C  C142  1  0.290300  0.404500  0.603700  1.0  0.6692
  C  C143  1  0.003700  0.238400  0.268800  1.0  0.1025
  C  C144  1  0.943400  0.281700  0.305700  1.0  -0.0714
  C  C145  1  0.874100  0.322300  0.271500  1.0  -0.1513
  C  C146  1  0.861200  0.318100  0.198900  1.0  -0.0254
  C  C147  1  0.921400  0.271600  0.162000  1.0  -0.1058
  C  C148  1  0.989000  0.233100  0.197500  1.0  -0.032
  C  C149  1  0.910300  0.268000  0.082400  1.0  0.6517
  C  C150  1  0.811600  0.371500  0.311500  1.0  0.6524
  C  C151  1  0.319500  0.133900  0.844900  1.0  0.6966
  C  C152  1  0.277900  0.178500  0.901900  1.0  -0.0904
  C  C153  1  0.198700  0.182700  0.886100  1.0  -0.0048
  C  C154  1  0.152500  0.225000  0.937000  1.0  -0.1656
  C  C155  1  0.187900  0.264700  0.004700  1.0  -0.0265
  C  C156  1  0.268900  0.261500  0.021700  1.0  0.0599
  C  C157  1  0.310500  0.220200  0.970000  1.0  -0.073
  C  C158  1  0.061400  0.230200  0.920600  1.0  0.7127
  C  C159  1  0.308400  0.303100  0.091100  1.0  0.0621
  C  C160  1  0.272800  0.374800  0.125800  1.0  -0.096
  C  C161  1  0.305600  0.412700  0.192500  1.0  0.0781
  C  C162  1  0.381000  0.377900  0.227300  1.0  -0.0775
  C  C163  1  0.421300  0.309300  0.198900  1.0  0.0387
  C  C164  1  0.381500  0.273000  0.128600  1.0  -0.086
  C  C165  1  0.264800  0.486400  0.224800  1.0  0.0416
  C  C166  1  0.233000  0.535800  0.182000  1.0  -0.0703
  C  C167  1  0.195000  0.607400  0.209600  1.0  -0.1432
  C  C168  1  0.188900  0.629600  0.281200  1.0  -0.016
  C  C169  1  0.220800  0.580700  0.326100  1.0  -0.1476
  C  C170  1  0.261400  0.508300  0.298900  1.0  -0.0487
  C  C171  1  0.156900  0.661100  0.163900  1.0  0.7488
  C  C172  1  0.209700  0.603700  0.404500  1.0  0.6693
  C  C173  1  0.496300  0.268800  0.238400  1.0  0.1027
  C  C174  1  0.556600  0.305700  0.281700  1.0  -0.0726
  C  C175  1  0.625900  0.271500  0.322300  1.0  -0.1509
  C  C176  1  0.638800  0.198900  0.318100  1.0  -0.0229
  C  C177  1  0.578600  0.162000  0.271600  1.0  -0.1066
  C  C178  1  0.511000  0.197500  0.233100  1.0  -0.0324
  C  C179  1  0.589700  0.082400  0.268000  1.0  0.6499
  C  C180  1  0.688400  0.311500  0.371500  1.0  0.6525
  O  O181  1  0.893400  0.144500  0.861500  1.0  -0.6938
  O  O182  1  0.789200  0.211400  0.904800  1.0  -0.5715
  O  O183  1  0.539700  0.139200  0.818400  1.0  -0.7102
  O  O184  1  0.521600  0.041200  0.728400  1.0  -0.5235
  O  O185  1  0.660100  0.900400  0.362600  1.0  -0.5529
  O  O186  1  0.628600  0.807900  0.276300  1.0  -0.7216
  O  O187  1  0.682600  0.570600  0.330000  1.0  -0.6026
  O  O188  1  0.725500  0.562100  0.441700  1.0  -0.5924
  O  O189  1  0.051000  0.788500  0.954100  1.0  -0.5837
  O  O190  1  0.138000  0.679000  0.943000  1.0  -0.6011
  O  O191  1  0.259900  0.608900  0.728700  1.0  -0.5456
  O  O192  1  0.169800  0.603600  0.619200  1.0  -0.683
  O  O193  1  0.606600  0.861500  0.144500  1.0  -0.6956
  O  O194  1  0.710800  0.904800  0.211400  1.0  -0.5744
  O  O195  1  0.960300  0.818400  0.139200  1.0  -0.7094
  O  O196  1  0.978400  0.728400  0.041200  1.0  -0.5238
  O  O197  1  0.839900  0.362600  0.900400  1.0  -0.5499
  O  O198  1  0.871400  0.276300  0.807900  1.0  -0.7178
  O  O199  1  0.817400  0.330000  0.570600  1.0  -0.597
  O  O200  1  0.774500  0.441700  0.562100  1.0  -0.5996
  O  O201  1  0.449000  0.954100  0.788500  1.0  -0.5876
  O  O202  1  0.362000  0.943000  0.679000  1.0  -0.6063
  O  O203  1  0.240100  0.728700  0.608900  1.0  -0.5485
  O  O204  1  0.330200  0.619200  0.603600  1.0  -0.679
  O  O205  1  0.106600  0.855500  0.138500  1.0  -0.696
  O  O206  1  0.210800  0.788600  0.095200  1.0  -0.5714
  O  O207  1  0.460300  0.860800  0.181600  1.0  -0.7097
  O  O208  1  0.478400  0.958800  0.271600  1.0  -0.5244
  O  O209  1  0.339900  0.099600  0.637400  1.0  -0.5553
  O  O210  1  0.371400  0.192100  0.723700  1.0  -0.722
  O  O211  1  0.317400  0.429400  0.670000  1.0  -0.6022
  O  O212  1  0.274500  0.437900  0.558300  1.0  -0.595
  O  O213  1  0.949000  0.211500  0.045900  1.0  -0.583
  O  O214  1  0.862000  0.321000  0.057000  1.0  -0.6052
  O  O215  1  0.740100  0.391100  0.271300  1.0  -0.5457
  O  O216  1  0.830200  0.396400  0.380800  1.0  -0.681
  O  O217  1  0.393400  0.138500  0.855500  1.0  -0.694
  O  O218  1  0.289200  0.095200  0.788600  1.0  -0.5748
  O  O219  1  0.039700  0.181600  0.860800  1.0  -0.7088
  O  O220  1  0.021600  0.271600  0.958800  1.0  -0.5236
  O  O221  1  0.160100  0.637400  0.099600  1.0  -0.5506
  O  O222  1  0.128600  0.723700  0.192100  1.0  -0.7195
  O  O223  1  0.182600  0.670000  0.429400  1.0  -0.5997
  O  O224  1  0.225500  0.558300  0.437900  1.0  -0.5964
  O  O225  1  0.551000  0.045900  0.211500  1.0  -0.5876
  O  O226  1  0.638000  0.057000  0.321000  1.0  -0.6046
  O  O227  1  0.759900  0.271300  0.391100  1.0  -0.5479
  O  O228  1  0.669800  0.380800  0.396400  1.0  -0.6806
