# generated using pymatgen
data_Li2H3C7NO4
_symmetry_space_group_name_H-M   'P 1'
_cell_length_a   8.59580000
_cell_length_b   15.80000000
_cell_length_c   18.46000000
_cell_angle_alpha   90.00000000
_cell_angle_beta   90.00000000
_cell_angle_gamma   90.00000000
_symmetry_Int_Tables_number   1
_chemical_formula_structural   Li2H3C7NO4
_chemical_formula_sum   'Li16 H24 C56 N8 O32'
_cell_volume   2507.11979440
_cell_formula_units_Z   8
loop_
 _symmetry_equiv_pos_site_id
 _symmetry_equiv_pos_as_xyz
  1  'x, y, z'
loop_
 _atom_site_type_symbol
 _atom_site_label
 _atom_site_symmetry_multiplicity
 _atom_site_fract_x
 _atom_site_fract_y
 _atom_site_fract_z
 _atom_site_occupancy
 _atom_site_charge
  Li  Li1  1  0.605600  0.082050  0.672270  1.0  0.8802
  Li  Li2  1  0.588400  0.955600  0.545400  1.0  0.8389
  Li  Li3  1  0.894400  0.417950  0.172270  1.0  0.879
  Li  Li4  1  0.911600  0.544400  0.045400  1.0  0.8415
  Li  Li5  1  0.605600  0.917950  0.827730  1.0  0.8791
  Li  Li6  1  0.588400  0.044400  0.954600  1.0  0.8391
  Li  Li7  1  0.894400  0.582050  0.327730  1.0  0.8774
  Li  Li8  1  0.911600  0.455600  0.454600  1.0  0.8417
  Li  Li9  1  0.394400  0.917950  0.327730  1.0  0.8778
  Li  Li10  1  0.411600  0.044400  0.454600  1.0  0.8416
  Li  Li11  1  0.105600  0.582050  0.827730  1.0  0.8789
  Li  Li12  1  0.088400  0.455600  0.954600  1.0  0.8389
  Li  Li13  1  0.394400  0.082050  0.172270  1.0  0.8786
  Li  Li14  1  0.411600  0.955600  0.045400  1.0  0.8419
  Li  Li15  1  0.105600  0.417950  0.672270  1.0  0.8805
  Li  Li16  1  0.088400  0.544400  0.545400  1.0  0.839
  H  H17  1  0.808600  0.744400  0.700600  1.0  0.0855
  H  H18  1  0.715500  0.785200  0.459000  1.0  0.0459
  H  H19  1  0.862600  0.636000  0.619500  1.0  0.0667
  H  H20  1  0.691400  0.755600  0.200600  1.0  0.0851
  H  H21  1  0.784500  0.714800  0.959000  1.0  0.0455
  H  H22  1  0.637400  0.864000  0.119500  1.0  0.0669
  H  H23  1  0.808600  0.255600  0.799400  1.0  0.0852
  H  H24  1  0.715500  0.214800  0.041000  1.0  0.0456
  H  H25  1  0.862600  0.364000  0.880500  1.0  0.0671
  H  H26  1  0.691400  0.244400  0.299400  1.0  0.085
  H  H27  1  0.784500  0.285200  0.541000  1.0  0.0455
  H  H28  1  0.637400  0.136000  0.380500  1.0  0.067
  H  H29  1  0.191400  0.255600  0.299400  1.0  0.0851
  H  H30  1  0.284500  0.214800  0.541000  1.0  0.0455
  H  H31  1  0.137400  0.364000  0.380500  1.0  0.0671
  H  H32  1  0.308600  0.244400  0.799400  1.0  0.0852
  H  H33  1  0.215500  0.285200  0.041000  1.0  0.0457
  H  H34  1  0.362600  0.136000  0.880500  1.0  0.0669
  H  H35  1  0.191400  0.744400  0.200600  1.0  0.0854
  H  H36  1  0.284500  0.785200  0.959000  1.0  0.0456
  H  H37  1  0.137400  0.636000  0.119500  1.0  0.0668
  H  H38  1  0.308600  0.755600  0.700600  1.0  0.0852
  H  H39  1  0.215500  0.714800  0.459000  1.0  0.0458
  H  H40  1  0.362600  0.864000  0.619500  1.0  0.0668
  C  C41  1  0.681970  0.897110  0.676340  1.0  0.669
  C  C42  1  0.831870  0.630990  0.474980  1.0  0.6754
  C  C43  1  0.795550  0.699110  0.529890  1.0  -0.2494
  C  C44  1  0.728090  0.826240  0.625030  1.0  0.0988
  C  C45  1  0.789700  0.751350  0.651370  1.0  -0.1307
  C  C46  1  0.734400  0.776650  0.508050  1.0  0.1704
  C  C47  1  0.822500  0.687100  0.602940  1.0  -0.0053
  C  C48  1  0.818030  0.602890  0.176340  1.0  0.6671
  C  C49  1  0.668130  0.869010  0.974980  1.0  0.6754
  C  C50  1  0.704450  0.800890  0.029890  1.0  -0.2476
  C  C51  1  0.771910  0.673760  0.125030  1.0  0.0989
  C  C52  1  0.710300  0.748650  0.151370  1.0  -0.1317
  C  C53  1  0.765600  0.723350  0.008050  1.0  0.1722
  C  C54  1  0.677500  0.812900  0.102940  1.0  -0.0057
  C  C55  1  0.681970  0.102890  0.823660  1.0  0.6711
  C  C56  1  0.831870  0.369010  0.025020  1.0  0.6751
  C  C57  1  0.795550  0.300890  0.970110  1.0  -0.2478
  C  C58  1  0.728090  0.173760  0.874970  1.0  0.0985
  C  C59  1  0.789700  0.248650  0.848630  1.0  -0.1296
  C  C60  1  0.734400  0.223350  0.991950  1.0  0.1699
  C  C61  1  0.822500  0.312900  0.897060  1.0  -0.0061
  C  C62  1  0.818030  0.397110  0.323660  1.0  0.6707
  C  C63  1  0.668130  0.130990  0.525020  1.0  0.6758
  C  C64  1  0.704450  0.199110  0.470110  1.0  -0.2483
  C  C65  1  0.771910  0.326240  0.374970  1.0  0.0988
  C  C66  1  0.710300  0.251350  0.348630  1.0  -0.13
  C  C67  1  0.765600  0.276650  0.491950  1.0  0.1721
  C  C68  1  0.677500  0.187100  0.397060  1.0  -0.0066
  C  C69  1  0.318030  0.102890  0.323660  1.0  0.667
  C  C70  1  0.168130  0.369010  0.525020  1.0  0.6755
  C  C71  1  0.204450  0.300890  0.470110  1.0  -0.2483
  C  C72  1  0.271910  0.173760  0.374970  1.0  0.0984
  C  C73  1  0.210300  0.248650  0.348630  1.0  -0.1297
  C  C74  1  0.265600  0.223350  0.491950  1.0  0.1719
  C  C75  1  0.177500  0.312900  0.397060  1.0  -0.0064
  C  C76  1  0.181970  0.397110  0.823660  1.0  0.6683
  C  C77  1  0.331870  0.130990  0.025020  1.0  0.6753
  C  C78  1  0.295550  0.199110  0.970110  1.0  -0.2479
  C  C79  1  0.228090  0.326240  0.874970  1.0  0.0989
  C  C80  1  0.289700  0.251350  0.848630  1.0  -0.1298
  C  C81  1  0.234400  0.276650  0.991950  1.0  0.1701
  C  C82  1  0.322500  0.187100  0.897060  1.0  -0.0062
  C  C83  1  0.318030  0.897110  0.176340  1.0  0.6697
  C  C84  1  0.168130  0.630990  0.974980  1.0  0.6751
  C  C85  1  0.204450  0.699110  0.029890  1.0  -0.2489
  C  C86  1  0.271910  0.826240  0.125030  1.0  0.099
  C  C87  1  0.210300  0.751350  0.151370  1.0  -0.1321
  C  C88  1  0.265600  0.776650  0.008050  1.0  0.1717
  C  C89  1  0.177500  0.687100  0.102940  1.0  -0.0059
  C  C90  1  0.181970  0.602890  0.676340  1.0  0.672
  C  C91  1  0.331870  0.869010  0.474980  1.0  0.676
  C  C92  1  0.295550  0.800890  0.529890  1.0  -0.2478
  C  C93  1  0.228090  0.673760  0.625030  1.0  0.0987
  C  C94  1  0.289700  0.748650  0.651370  1.0  -0.1304
  C  C95  1  0.234400  0.723350  0.508050  1.0  0.1708
  C  C96  1  0.322500  0.812900  0.602940  1.0  -0.0054
  N  N97  1  0.701640  0.839610  0.554220  1.0  -0.3577
  N  N98  1  0.798360  0.660390  0.054220  1.0  -0.3556
  N  N99  1  0.701640  0.160390  0.945780  1.0  -0.3538
  N  N100  1  0.798360  0.339610  0.445780  1.0  -0.359
  N  N101  1  0.298360  0.160390  0.445780  1.0  -0.3553
  N  N102  1  0.201640  0.339610  0.945780  1.0  -0.3582
  N  N103  1  0.298360  0.839610  0.054220  1.0  -0.3579
  N  N104  1  0.201640  0.660390  0.554220  1.0  -0.3544
  O  O105  1  0.619700  0.961250  0.647940  1.0  -0.7376
  O  O106  1  0.707670  0.885310  0.741420  1.0  -0.6615
  O  O107  1  0.806670  0.645550  0.410470  1.0  -0.6176
  O  O108  1  0.886780  0.562550  0.500370  1.0  -0.7739
  O  O109  1  0.880300  0.538750  0.147940  1.0  -0.7368
  O  O110  1  0.792330  0.614690  0.241420  1.0  -0.6639
  O  O111  1  0.693330  0.854450  0.910470  1.0  -0.618
  O  O112  1  0.613220  0.937450  0.000370  1.0  -0.7726
  O  O113  1  0.619700  0.038750  0.852060  1.0  -0.7376
  O  O114  1  0.707670  0.114690  0.758580  1.0  -0.6616
  O  O115  1  0.806670  0.354450  0.089530  1.0  -0.6179
  O  O116  1  0.886780  0.437450  0.999630  1.0  -0.7745
  O  O117  1  0.880300  0.461250  0.352060  1.0  -0.7378
  O  O118  1  0.792330  0.385310  0.258580  1.0  -0.6625
  O  O119  1  0.693330  0.145550  0.589530  1.0  -0.6173
  O  O120  1  0.613220  0.062550  0.499630  1.0  -0.7725
  O  O121  1  0.380300  0.038750  0.352060  1.0  -0.7374
  O  O122  1  0.292330  0.114690  0.258580  1.0  -0.6624
  O  O123  1  0.193330  0.354450  0.589530  1.0  -0.6171
  O  O124  1  0.113220  0.437450  0.499630  1.0  -0.7723
  O  O125  1  0.119700  0.461250  0.852060  1.0  -0.7381
  O  O126  1  0.207670  0.385310  0.758580  1.0  -0.6617
  O  O127  1  0.306670  0.145550  0.089530  1.0  -0.6181
  O  O128  1  0.386780  0.062550  0.999630  1.0  -0.7736
  O  O129  1  0.380300  0.961250  0.147940  1.0  -0.7374
  O  O130  1  0.292330  0.885310  0.241420  1.0  -0.6636
  O  O131  1  0.193330  0.645550  0.910470  1.0  -0.6186
  O  O132  1  0.113220  0.562550  0.000370  1.0  -0.7718
  O  O133  1  0.119700  0.538750  0.647940  1.0  -0.7369
  O  O134  1  0.207670  0.614690  0.741420  1.0  -0.6614
  O  O135  1  0.306670  0.854450  0.410470  1.0  -0.6171
  O  O136  1  0.386780  0.937450  0.500370  1.0  -0.773
