# generated using pymatgen
data_Cu3H6C12(NO4)2
_symmetry_space_group_name_H-M   'P 1'
_cell_length_a   5.85950000
_cell_length_b   11.53820000
_cell_length_c   11.53820000
_cell_angle_alpha   94.10910000
_cell_angle_beta   101.72100000
_cell_angle_gamma   78.27920000
_symmetry_Int_Tables_number   1
_chemical_formula_structural   Cu3H6C12(NO4)2
_chemical_formula_sum   'Cu6 H12 C24 N4 O16'
_cell_volume   747.50789882
_cell_formula_units_Z   2
loop_
 _symmetry_equiv_pos_site_id
 _symmetry_equiv_pos_as_xyz
  1  'x, y, z'
loop_
 _atom_site_type_symbol
 _atom_site_label
 _atom_site_symmetry_multiplicity
 _atom_site_fract_x
 _atom_site_fract_y
 _atom_site_fract_z
 _atom_site_occupancy
 _atom_site_charge
  Cu  Cu1  1  0.851510  0.260130  0.991070  1.0  0.8872
  Cu  Cu2  1  0.648490  0.991070  0.260130  1.0  0.8852
  Cu  Cu3  1  0.148490  0.739870  0.008930  1.0  0.8875
  Cu  Cu4  1  0.351510  0.008930  0.739870  1.0  0.8862
  Cu  Cu5  1  0.750000  0.991220  0.991220  1.0  1.0662
  Cu  Cu6  1  0.250000  0.008780  0.008780  1.0  1.0699
  H  H7  1  0.927500  0.095100  0.861500  1.0  0.4335
  H  H8  1  0.841800  0.458500  0.736700  1.0  0.1346
  H  H9  1  0.166000  0.305200  0.757400  1.0  0.1124
  H  H10  1  0.572500  0.861500  0.095100  1.0  0.4325
  H  H11  1  0.658200  0.736700  0.458500  1.0  0.1349
  H  H12  1  0.334000  0.757400  0.305200  1.0  0.1145
  H  H13  1  0.072500  0.904900  0.138500  1.0  0.4342
  H  H14  1  0.158200  0.541500  0.263300  1.0  0.1349
  H  H15  1  0.834000  0.694800  0.242600  1.0  0.1132
  H  H16  1  0.427500  0.138500  0.904900  1.0  0.4337
  H  H17  1  0.341800  0.263300  0.541500  1.0  0.1347
  H  H18  1  0.666000  0.242600  0.694800  1.0  0.114
  C  C19  1  0.786600  0.666000  0.861600  1.0  0.5938
  C  C20  1  0.995300  0.565000  0.862800  1.0  0.0751
  C  C21  1  0.979300  0.464300  0.791700  1.0  -0.0701
  C  C22  1  0.172600  0.373600  0.804800  1.0  -0.163
  C  C23  1  0.380300  0.381000  0.888200  1.0  0.3169
  C  C24  1  0.394200  0.489110  0.955930  1.0  0.0954
  C  C25  1  0.713400  0.861600  0.666000  1.0  0.5932
  C  C26  1  0.504700  0.862800  0.565000  1.0  0.0724
  C  C27  1  0.520700  0.791700  0.464300  1.0  -0.0719
  C  C28  1  0.327400  0.804800  0.373600  1.0  -0.164
  C  C29  1  0.119700  0.888200  0.381000  1.0  0.3149
  C  C30  1  0.105800  0.955930  0.489110  1.0  0.0956
  C  C31  1  0.213400  0.334000  0.138400  1.0  0.5949
  C  C32  1  0.004700  0.435000  0.137200  1.0  0.0741
  C  C33  1  0.020700  0.535700  0.208300  1.0  -0.0698
  C  C34  1  0.827400  0.626400  0.195200  1.0  -0.1622
  C  C35  1  0.619700  0.619000  0.111800  1.0  0.3159
  C  C36  1  0.605800  0.510890  0.044070  1.0  0.0961
  C  C37  1  0.286600  0.138400  0.334000  1.0  0.5927
  C  C38  1  0.495300  0.137200  0.435000  1.0  0.072
  C  C39  1  0.479300  0.208300  0.535700  1.0  -0.072
  C  C40  1  0.672600  0.195200  0.626400  1.0  -0.1641
  C  C41  1  0.880300  0.111800  0.619000  1.0  0.3155
  C  C42  1  0.894200  0.044070  0.510890  1.0  0.0955
  N  N43  1  0.196400  0.577310  0.939730  1.0  -0.3287
  N  N44  1  0.303600  0.939730  0.577310  1.0  -0.328
  N  N45  1  0.803600  0.422690  0.060270  1.0  -0.3277
  N  N46  1  0.696400  0.060270  0.422690  1.0  -0.3281
  O  O47  1  0.933200  0.092510  0.932990  1.0  -0.9456
  O  O48  1  0.822900  0.752920  0.933300  1.0  -0.6027
  O  O49  1  0.593900  0.659020  0.796920  1.0  -0.5284
  O  O50  1  0.547000  0.283800  0.897500  1.0  -0.5454
  O  O51  1  0.566800  0.932990  0.092510  1.0  -0.9464
  O  O52  1  0.677100  0.933300  0.752920  1.0  -0.6003
  O  O53  1  0.906100  0.796920  0.659020  1.0  -0.52
  O  O54  1  0.953000  0.897500  0.283800  1.0  -0.5462
  O  O55  1  0.066800  0.907490  0.067010  1.0  -0.9469
  O  O56  1  0.177100  0.247080  0.066700  1.0  -0.6022
  O  O57  1  0.406100  0.340980  0.203080  1.0  -0.5243
  O  O58  1  0.453000  0.716200  0.102500  1.0  -0.5463
  O  O59  1  0.433200  0.067010  0.907490  1.0  -0.9459
  O  O60  1  0.322900  0.066700  0.247080  1.0  -0.6008
  O  O61  1  0.093900  0.203080  0.340980  1.0  -0.5268
  O  O62  1  0.047000  0.102500  0.716200  1.0  -0.5458
