# generated using pymatgen
data_ZnH8C17N5O
_symmetry_space_group_name_H-M   'P 1'
_cell_length_a   7.83660000
_cell_length_b   14.76320000
_cell_length_c   17.41530000
_cell_angle_alpha   90.00000000
_cell_angle_beta   90.00000000
_cell_angle_gamma   95.43900000
_symmetry_Int_Tables_number   1
_chemical_formula_structural   ZnH8C17N5O
_chemical_formula_sum   'Zn4 H32 C68 N20 O4'
_cell_volume   2005.76197583
_cell_formula_units_Z   4
loop_
 _symmetry_equiv_pos_site_id
 _symmetry_equiv_pos_as_xyz
  1  'x, y, z'
loop_
 _atom_site_type_symbol
 _atom_site_label
 _atom_site_symmetry_multiplicity
 _atom_site_fract_x
 _atom_site_fract_y
 _atom_site_fract_z
 _atom_site_occupancy
 _atom_site_charge
  Zn  Zn1  1  0.785840  0.762670  0.753030  1.0  1.0472
  Zn  Zn2  1  0.714160  0.737330  0.253030  1.0  1.0483
  Zn  Zn3  1  0.214160  0.237330  0.246970  1.0  1.0484
  Zn  Zn4  1  0.285840  0.262670  0.746970  1.0  1.0474
  H  H5  1  0.436400  0.129300  0.564100  1.0  0.101
  H  H6  1  0.919100  0.558200  0.616400  1.0  0.1032
  H  H7  1  0.395600  0.637200  0.005400  1.0  0.1258
  H  H8  1  0.939500  0.570600  0.385900  1.0  0.1039
  H  H9  1  0.593700  0.878500  0.566600  1.0  0.1035
  H  H10  1  0.417000  0.720900  0.894300  1.0  0.1259
  H  H11  1  0.615800  0.523200  0.785400  1.0  0.1262
  H  H12  1  0.601400  0.436000  0.894400  1.0  0.1259
  H  H13  1  0.063600  0.370700  0.064100  1.0  0.1017
  H  H14  1  0.580900  0.941800  0.116400  1.0  0.1035
  H  H15  1  0.104400  0.862800  0.505400  1.0  0.1257
  H  H16  1  0.560500  0.929400  0.885900  1.0  0.1037
  H  H17  1  0.906300  0.621500  0.066600  1.0  0.1031
  H  H18  1  0.083000  0.779100  0.394300  1.0  0.1241
  H  H19  1  0.884200  0.976800  0.285400  1.0  0.126
  H  H20  1  0.898600  0.064000  0.394400  1.0  0.126
  H  H21  1  0.563600  0.870700  0.435900  1.0  0.1018
  H  H22  1  0.080900  0.441800  0.383600  1.0  0.1035
  H  H23  1  0.604400  0.362800  0.994600  1.0  0.126
  H  H24  1  0.060500  0.429400  0.614100  1.0  0.1037
  H  H25  1  0.406300  0.121500  0.433400  1.0  0.1033
  H  H26  1  0.583000  0.279100  0.105700  1.0  0.1241
  H  H27  1  0.384200  0.476800  0.214600  1.0  0.1257
  H  H28  1  0.398600  0.564000  0.105600  1.0  0.1256
  H  H29  1  0.936400  0.629300  0.935900  1.0  0.1011
  H  H30  1  0.419100  0.058200  0.883600  1.0  0.1034
  H  H31  1  0.895600  0.137200  0.494600  1.0  0.1263
  H  H32  1  0.439500  0.070600  0.114100  1.0  0.1039
  H  H33  1  0.093700  0.378500  0.933400  1.0  0.1036
  H  H34  1  0.917000  0.220900  0.605700  1.0  0.1264
  H  H35  1  0.115800  0.023200  0.714600  1.0  0.1262
  H  H36  1  0.101400  0.936000  0.605600  1.0  0.126
  C  C37  1  0.911100  0.579320  0.501590  1.0  0.1123
  C  C38  1  0.818700  0.661860  0.502660  1.0  -0.4481
  C  C39  1  0.479200  0.083870  0.704100  1.0  0.4528
  C  C40  1  0.519300  0.005190  0.580900  1.0  0.1188
  C  C41  1  0.606500  0.941130  0.705560  1.0  0.4646
  C  C42  1  0.462400  0.077080  0.538560  1.0  -0.1286
  C  C43  1  0.752700  0.692530  0.434040  1.0  0.4569
  C  C44  1  0.951000  0.535010  0.569420  1.0  -0.1153
  C  C45  1  0.502300  0.526930  0.964180  1.0  0.0482
  C  C46  1  0.795300  0.706660  0.572150  1.0  0.461
  C  C47  1  0.537100  0.010460  0.665010  1.0  -0.4655
  C  C48  1  0.443700  0.613560  0.961880  1.0  -0.1431
  C  C49  1  0.963300  0.542350  0.431880  1.0  -0.1186
  C  C50  1  0.556200  0.927600  0.540140  1.0  -0.1173
  C  C51  1  0.457200  0.663650  0.895300  1.0  -0.0332
  C  C52  1  0.575300  0.546720  0.830690  1.0  -0.0308
  C  C53  1  0.565400  0.494230  0.895870  1.0  -0.1259
  C  C54  1  0.588900  0.920680  0.001590  1.0  0.1065
  C  C55  1  0.681300  0.838140  0.002660  1.0  -0.4476
  C  C56  1  0.020800  0.416130  0.204100  1.0  0.4514
  C  C57  1  0.980700  0.494810  0.080900  1.0  0.1187
  C  C58  1  0.893500  0.558870  0.205560  1.0  0.4648
  C  C59  1  0.037600  0.422920  0.038560  1.0  -0.1307
  C  C60  1  0.747300  0.807470  0.934040  1.0  0.4564
  C  C61  1  0.549000  0.964990  0.069420  1.0  -0.1162
  C  C62  1  0.997700  0.973070  0.464180  1.0  0.0486
  C  C63  1  0.704700  0.793340  0.072150  1.0  0.4607
  C  C64  1  0.962900  0.489540  0.165010  1.0  -0.4654
  C  C65  1  0.056300  0.886440  0.461880  1.0  -0.146
  C  C66  1  0.536700  0.957650  0.931880  1.0  -0.1167
  C  C67  1  0.943800  0.572400  0.040140  1.0  -0.1169
  C  C68  1  0.042800  0.836350  0.395300  1.0  -0.033
  C  C69  1  0.924700  0.953280  0.330690  1.0  -0.0294
  C  C70  1  0.934600  0.005770  0.395870  1.0  -0.1249
  C  C71  1  0.088900  0.420680  0.498410  1.0  0.1078
  C  C72  1  0.181300  0.338140  0.497340  1.0  -0.4473
  C  C73  1  0.520800  0.916130  0.295900  1.0  0.4511
  C  C74  1  0.480700  0.994810  0.419100  1.0  0.1193
  C  C75  1  0.393500  0.058870  0.294440  1.0  0.4658
  C  C76  1  0.537600  0.922920  0.461440  1.0  -0.1305
  C  C77  1  0.247300  0.307470  0.565960  1.0  0.4569
  C  C78  1  0.049000  0.464990  0.430580  1.0  -0.1123
  C  C79  1  0.497700  0.473070  0.035820  1.0  0.0487
  C  C80  1  0.204700  0.293340  0.427850  1.0  0.4599
  C  C81  1  0.462900  0.989540  0.334990  1.0  -0.4637
  C  C82  1  0.556300  0.386440  0.038120  1.0  -0.1465
  C  C83  1  0.036700  0.457650  0.568120  1.0  -0.1124
  C  C84  1  0.443800  0.072400  0.459860  1.0  -0.1198
  C  C85  1  0.542800  0.336350  0.104700  1.0  -0.0327
  C  C86  1  0.424700  0.453280  0.169310  1.0  -0.0309
  C  C87  1  0.434600  0.505770  0.104130  1.0  -0.1234
  C  C88  1  0.411100  0.079320  0.998410  1.0  0.1134
  C  C89  1  0.318700  0.161860  0.997340  1.0  -0.4479
  C  C90  1  0.979200  0.583870  0.795900  1.0  0.4523
  C  C91  1  0.019300  0.505190  0.919100  1.0  0.1193
  C  C92  1  0.106500  0.441130  0.794440  1.0  0.4656
  C  C93  1  0.962400  0.577080  0.961440  1.0  -0.1287
  C  C94  1  0.252700  0.192530  0.065960  1.0  0.457
  C  C95  1  0.451000  0.035010  0.930580  1.0  -0.11
  C  C96  1  0.002300  0.026930  0.535820  1.0  0.0484
  C  C97  1  0.295300  0.206660  0.927850  1.0  0.4603
  C  C98  1  0.037100  0.510460  0.834990  1.0  -0.464
  C  C99  1  0.943700  0.113560  0.538120  1.0  -0.143
  C  C100  1  0.463300  0.042350  0.068120  1.0  -0.1146
  C  C101  1  0.056200  0.427600  0.959860  1.0  -0.1192
  C  C102  1  0.957200  0.163650  0.604700  1.0  -0.033
  C  C103  1  0.075300  0.046720  0.669310  1.0  -0.031
  C  C104  1  0.065400  0.994230  0.604130  1.0  -0.1236
  N  N105  1  0.664800  0.880680  0.734440  1.0  -0.5272
  N  N106  1  0.782000  0.737520  0.632750  1.0  -0.5327
  N  N107  1  0.527200  0.631650  0.831460  1.0  0.3502
  N  N108  1  0.702000  0.711360  0.373970  1.0  -0.5582
  N  N109  1  0.425200  0.147280  0.730800  1.0  -0.5409
  N  N110  1  0.835200  0.619320  0.234440  1.0  -0.5285
  N  N111  1  0.718000  0.762480  0.132750  1.0  -0.5324
  N  N112  1  0.972800  0.868350  0.331460  1.0  0.3469
  N  N113  1  0.798000  0.788640  0.873970  1.0  -0.5597
  N  N114  1  0.074800  0.352720  0.230800  1.0  -0.5393
  N  N115  1  0.335200  0.119320  0.265560  1.0  -0.5282
  N  N116  1  0.218000  0.262480  0.367250  1.0  -0.5336
  N  N117  1  0.472800  0.368350  0.168540  1.0  0.3454
  N  N118  1  0.298000  0.288640  0.626030  1.0  -0.5605
  N  N119  1  0.574800  0.852720  0.269200  1.0  -0.5399
  N  N120  1  0.164800  0.380680  0.765560  1.0  -0.529
  N  N121  1  0.282000  0.237520  0.867250  1.0  -0.5345
  N  N122  1  0.027200  0.131650  0.668540  1.0  0.3451
  N  N123  1  0.202000  0.211360  0.126030  1.0  -0.5585
  N  N124  1  0.925200  0.647280  0.769200  1.0  -0.5414
  O  O125  1  0.546900  0.683910  0.769100  1.0  -0.5383
  O  O126  1  0.953100  0.816090  0.269100  1.0  -0.5374
  O  O127  1  0.453100  0.316090  0.230900  1.0  -0.5379
  O  O128  1  0.046900  0.183910  0.730900  1.0  -0.5399
