# generated using pymatgen
data_ZnH14(C4N)6
_symmetry_space_group_name_H-M   'P 1'
_cell_length_a   12.63310000
_cell_length_b   7.39370000
_cell_length_c   10.96230000
_cell_angle_alpha   90.00000000
_cell_angle_beta   109.51000000
_cell_angle_gamma   90.00000000
_symmetry_Int_Tables_number   1
_chemical_formula_structural   ZnH14(C4N)6
_chemical_formula_sum   'Zn1 H14 C24 N6'
_cell_volume   965.14628751
_cell_formula_units_Z   1
loop_
 _symmetry_equiv_pos_site_id
 _symmetry_equiv_pos_as_xyz
  1  'x, y, z'
loop_
 _atom_site_type_symbol
 _atom_site_label
 _atom_site_symmetry_multiplicity
 _atom_site_fract_x
 _atom_site_fract_y
 _atom_site_fract_z
 _atom_site_occupancy
 _atom_site_charge
  Zn  Zn1  1  0.000000  0.000000  0.000000  1.0  0.8297
  H  H2  1  0.019500  0.229700  0.610200  1.0  0.097
  H  H3  1  0.980500  0.229700  0.389800  1.0  0.0974
  H  H4  1  0.980500  0.770300  0.389800  1.0  0.0982
  H  H5  1  0.019500  0.770300  0.610200  1.0  0.0975
  H  H6  1  0.750000  0.000000  0.962600  1.0  0.083
  H  H7  1  0.575900  0.000000  0.810100  1.0  0.1197
  H  H8  1  0.722000  0.000000  0.538000  1.0  0.1244
  H  H9  1  0.896200  0.000000  0.700600  1.0  0.0841
  H  H10  1  0.250000  0.000000  0.037400  1.0  0.0825
  H  H11  1  0.424100  0.000000  0.189900  1.0  0.12
  H  H12  1  0.278000  0.000000  0.462000  1.0  0.1244
  H  H13  1  0.103800  0.000000  0.299400  1.0  0.0838
  H  H14  1  0.436610  0.000000  0.599170  1.0  0.13
  H  H15  1  0.563390  0.000000  0.400830  1.0  0.1303
  C  C16  1  0.054300  0.340500  0.845310  1.0  0.4086
  C  C17  1  0.011900  0.339200  0.566400  1.0  -0.0905
  C  C18  1  0.945700  0.340500  0.154690  1.0  0.4094
  C  C19  1  0.988100  0.339200  0.433600  1.0  -0.0934
  C  C20  1  0.945700  0.659500  0.154690  1.0  0.4094
  C  C21  1  0.988100  0.660800  0.433600  1.0  -0.0916
  C  C22  1  0.054300  0.659500  0.845310  1.0  0.4087
  C  C23  1  0.011900  0.660800  0.566400  1.0  -0.0908
  C  C24  1  0.744500  0.000000  0.875800  1.0  0.1698
  C  C25  1  0.639100  0.000000  0.784500  1.0  -0.1626
  C  C26  1  0.626900  0.000000  0.654600  1.0  -0.0209
  C  C27  1  0.510800  0.000000  0.562000  1.0  -0.0983
  C  C28  1  0.725900  0.000000  0.624200  1.0  -0.147
  C  C29  1  0.831200  0.000000  0.722500  1.0  0.1426
  C  C30  1  0.255500  0.000000  0.124200  1.0  0.1709
  C  C31  1  0.360900  0.000000  0.215500  1.0  -0.1622
  C  C32  1  0.373100  0.000000  0.345400  1.0  -0.0204
  C  C33  1  0.489200  0.000000  0.438000  1.0  -0.0987
  C  C34  1  0.274100  0.000000  0.375800  1.0  -0.1451
  C  C35  1  0.168800  0.000000  0.277500  1.0  0.143
  C  C36  1  0.047400  0.500000  0.777200  1.0  -0.3789
  C  C37  1  0.024700  0.500000  0.635600  1.0  0.0304
  C  C38  1  0.952600  0.500000  0.222800  1.0  -0.3771
  C  C39  1  0.975300  0.500000  0.364400  1.0  0.0326
  N  N40  1  0.060200  0.205800  0.900830  1.0  -0.5008
  N  N41  1  0.939800  0.205800  0.099170  1.0  -0.502
  N  N42  1  0.939800  0.794200  0.099170  1.0  -0.5006
  N  N43  1  0.060200  0.794200  0.900830  1.0  -0.4986
  N  N44  1  0.839300  0.000000  0.848000  1.0  -0.3241
  N  N45  1  0.160700  0.000000  0.152000  1.0  -0.3234
