# generated using pymatgen
data_Zn2H10C18N5O8
_symmetry_space_group_name_H-M   'P 1'
_cell_length_a   18.82260000
_cell_length_b   18.64270000
_cell_length_c   14.24850000
_cell_angle_alpha   90.00000000
_cell_angle_beta   130.17500000
_cell_angle_gamma   90.00000000
_symmetry_Int_Tables_number   1
_chemical_formula_structural   Zn2H10C18N5O8
_chemical_formula_sum   'Zn8 H40 C72 N20 O32'
_cell_volume   3820.27857624
_cell_formula_units_Z   4
loop_
 _symmetry_equiv_pos_site_id
 _symmetry_equiv_pos_as_xyz
  1  'x, y, z'
loop_
 _atom_site_type_symbol
 _atom_site_label
 _atom_site_symmetry_multiplicity
 _atom_site_fract_x
 _atom_site_fract_y
 _atom_site_fract_z
 _atom_site_occupancy
 _atom_site_charge
  Zn  Zn1  1  0.529950  0.500000  0.126820  1.0  0.9326
  Zn  Zn2  1  0.029950  0.000000  0.126820  1.0  0.9326
  Zn  Zn3  1  0.470050  0.500000  0.873180  1.0  0.9331
  Zn  Zn4  1  0.970050  0.000000  0.873180  1.0  0.9331
  Zn  Zn5  1  0.000000  0.096940  0.500000  1.0  1.0039
  Zn  Zn6  1  0.500000  0.596940  0.500000  1.0  1.0039
  Zn  Zn7  1  0.000000  0.903060  0.500000  1.0  1.0046
  Zn  Zn8  1  0.500000  0.403060  0.500000  1.0  1.0046
  H  H9  1  0.652500  0.339800  0.951900  1.0  0.1037
  H  H10  1  0.841300  0.192100  0.178700  1.0  0.0996
  H  H11  1  0.736200  0.318400  0.289700  1.0  0.1122
  H  H12  1  0.535600  0.339900  0.341400  1.0  0.3486
  H  H13  1  0.544400  0.364700  0.249900  1.0  0.3615
  H  H14  1  0.152500  0.839800  0.951900  1.0  0.1037
  H  H15  1  0.341300  0.692100  0.178700  1.0  0.0996
  H  H16  1  0.236200  0.818400  0.289700  1.0  0.1122
  H  H17  1  0.035600  0.839900  0.341400  1.0  0.3486
  H  H18  1  0.044400  0.864700  0.249900  1.0  0.3615
  H  H19  1  0.347500  0.339800  0.048100  1.0  0.1025
  H  H20  1  0.158700  0.192100  0.821300  1.0  0.0996
  H  H21  1  0.263800  0.318400  0.710300  1.0  0.1126
  H  H22  1  0.464400  0.339900  0.658600  1.0  0.3493
  H  H23  1  0.455600  0.364700  0.750100  1.0  0.3616
  H  H24  1  0.847500  0.839800  0.048100  1.0  0.1025
  H  H25  1  0.658700  0.692100  0.821300  1.0  0.0996
  H  H26  1  0.763800  0.818400  0.710300  1.0  0.1126
  H  H27  1  0.964400  0.839900  0.658600  1.0  0.3493
  H  H28  1  0.955600  0.864700  0.750100  1.0  0.3616
  H  H29  1  0.347500  0.660200  0.048100  1.0  0.1051
  H  H30  1  0.158700  0.807900  0.821300  1.0  0.1008
  H  H31  1  0.263800  0.681600  0.710300  1.0  0.1126
  H  H32  1  0.464400  0.660100  0.658600  1.0  0.3491
  H  H33  1  0.455600  0.635300  0.750100  1.0  0.3614
  H  H34  1  0.847500  0.160200  0.048100  1.0  0.1051
  H  H35  1  0.658700  0.307900  0.821300  1.0  0.1008
  H  H36  1  0.763800  0.181600  0.710300  1.0  0.1126
  H  H37  1  0.964400  0.160100  0.658600  1.0  0.3491
  H  H38  1  0.955600  0.135300  0.750100  1.0  0.3614
  H  H39  1  0.652500  0.660200  0.951900  1.0  0.1055
  H  H40  1  0.841300  0.807900  0.178700  1.0  0.1003
  H  H41  1  0.736200  0.681600  0.289700  1.0  0.1121
  H  H42  1  0.535600  0.660100  0.341400  1.0  0.3488
  H  H43  1  0.544400  0.635300  0.249900  1.0  0.3616
  H  H44  1  0.152500  0.160200  0.951900  1.0  0.1055
  H  H45  1  0.341300  0.307900  0.178700  1.0  0.1003
  H  H46  1  0.236200  0.181600  0.289700  1.0  0.1121
  H  H47  1  0.035600  0.160100  0.341400  1.0  0.3488
  H  H48  1  0.044400  0.135300  0.249900  1.0  0.3616
  C  C49  1  0.685900  0.338700  0.117500  1.0  -0.1851
  C  C50  1  0.689700  0.316900  0.027700  1.0  -0.0647
  C  C51  1  0.747900  0.261300  0.048600  1.0  -0.0085
  C  C52  1  0.800700  0.228500  0.161800  1.0  -0.076
  C  C53  1  0.795900  0.247200  0.251100  1.0  -0.1783
  C  C54  1  0.738700  0.304000  0.229400  1.0  0.0127
  C  C55  1  0.621900  0.399200  0.087800  1.0  0.7352
  C  C56  1  0.856000  0.206700  0.371500  1.0  0.7227
  C  C57  1  0.535800  0.442700  0.330600  1.0  0.5824
  C  C58  1  0.185900  0.838700  0.117500  1.0  -0.1851
  C  C59  1  0.189700  0.816900  0.027700  1.0  -0.0647
  C  C60  1  0.247900  0.761300  0.048600  1.0  -0.0085
  C  C61  1  0.300700  0.728500  0.161800  1.0  -0.076
  C  C62  1  0.295900  0.747200  0.251100  1.0  -0.1783
  C  C63  1  0.238700  0.804000  0.229400  1.0  0.0127
  C  C64  1  0.121900  0.899200  0.087800  1.0  0.7352
  C  C65  1  0.356000  0.706700  0.371500  1.0  0.7227
  C  C66  1  0.035800  0.942700  0.330600  1.0  0.5824
  C  C67  1  0.314100  0.338700  0.882500  1.0  -0.1841
  C  C68  1  0.310300  0.316900  0.972300  1.0  -0.0646
  C  C69  1  0.252100  0.261300  0.951400  1.0  -0.0082
  C  C70  1  0.199300  0.228500  0.838200  1.0  -0.0752
  C  C71  1  0.204100  0.247200  0.748900  1.0  -0.1778
  C  C72  1  0.261300  0.304000  0.770600  1.0  0.0134
  C  C73  1  0.378100  0.399200  0.912200  1.0  0.7358
  C  C74  1  0.144000  0.206700  0.628500  1.0  0.723
  C  C75  1  0.464200  0.442700  0.669400  1.0  0.5829
  C  C76  1  0.814100  0.838700  0.882500  1.0  -0.1841
  C  C77  1  0.810300  0.816900  0.972300  1.0  -0.0646
  C  C78  1  0.752100  0.761300  0.951400  1.0  -0.0082
  C  C79  1  0.699300  0.728500  0.838200  1.0  -0.0752
  C  C80  1  0.704100  0.747200  0.748900  1.0  -0.1778
  C  C81  1  0.761300  0.804000  0.770600  1.0  0.0134
  C  C82  1  0.878100  0.899200  0.912200  1.0  0.7358
  C  C83  1  0.644000  0.706700  0.628500  1.0  0.723
  C  C84  1  0.964200  0.942700  0.669400  1.0  0.5829
  C  C85  1  0.314100  0.661300  0.882500  1.0  -0.1849
  C  C86  1  0.310300  0.683100  0.972300  1.0  -0.0659
  C  C87  1  0.252100  0.738700  0.951400  1.0  -0.0081
  C  C88  1  0.199300  0.771500  0.838200  1.0  -0.0761
  C  C89  1  0.204100  0.752800  0.748900  1.0  -0.1772
  C  C90  1  0.261300  0.696000  0.770600  1.0  0.0134
  C  C91  1  0.378100  0.600800  0.912200  1.0  0.7356
  C  C92  1  0.144000  0.793300  0.628500  1.0  0.7229
  C  C93  1  0.464200  0.557300  0.669400  1.0  0.5831
  C  C94  1  0.814100  0.161300  0.882500  1.0  -0.1849
  C  C95  1  0.810300  0.183100  0.972300  1.0  -0.0659
  C  C96  1  0.752100  0.238700  0.951400  1.0  -0.0081
  C  C97  1  0.699300  0.271500  0.838200  1.0  -0.0761
  C  C98  1  0.704100  0.252800  0.748900  1.0  -0.1772
  C  C99  1  0.761300  0.196000  0.770600  1.0  0.0134
  C  C100  1  0.878100  0.100800  0.912200  1.0  0.7356
  C  C101  1  0.644000  0.293300  0.628500  1.0  0.7229
  C  C102  1  0.964200  0.057300  0.669400  1.0  0.5831
  C  C103  1  0.685900  0.661300  0.117500  1.0  -0.1852
  C  C104  1  0.689700  0.683100  0.027700  1.0  -0.0664
  C  C105  1  0.747900  0.738700  0.048600  1.0  -0.0084
  C  C106  1  0.800700  0.771500  0.161800  1.0  -0.0763
  C  C107  1  0.795900  0.752800  0.251100  1.0  -0.1784
  C  C108  1  0.738700  0.696000  0.229400  1.0  0.0124
  C  C109  1  0.621900  0.600800  0.087800  1.0  0.7356
  C  C110  1  0.856000  0.793300  0.371500  1.0  0.7232
  C  C111  1  0.535800  0.557300  0.330600  1.0  0.5825
  C  C112  1  0.185900  0.161300  0.117500  1.0  -0.1852
  C  C113  1  0.189700  0.183100  0.027700  1.0  -0.0664
  C  C114  1  0.247900  0.238700  0.048600  1.0  -0.0084
  C  C115  1  0.300700  0.271500  0.161800  1.0  -0.0763
  C  C116  1  0.295900  0.252800  0.251100  1.0  -0.1784
  C  C117  1  0.238700  0.196000  0.229400  1.0  0.0124
  C  C118  1  0.121900  0.100800  0.087800  1.0  0.7356
  C  C119  1  0.356000  0.293300  0.371500  1.0  0.7232
  C  C120  1  0.035800  0.057300  0.330600  1.0  0.5825
  N  N121  1  0.527700  0.462100  0.412500  1.0  -0.3291
  N  N122  1  0.539000  0.374200  0.304200  1.0  -0.7409
  N  N123  1  0.027700  0.962100  0.412500  1.0  -0.3291
  N  N124  1  0.039000  0.874200  0.304200  1.0  -0.7409
  N  N125  1  0.472300  0.462100  0.587500  1.0  -0.3283
  N  N126  1  0.461000  0.374200  0.695800  1.0  -0.7394
  N  N127  1  0.972300  0.962100  0.587500  1.0  -0.3283
  N  N128  1  0.961000  0.874200  0.695800  1.0  -0.7394
  N  N129  1  0.472300  0.537900  0.587500  1.0  -0.3279
  N  N130  1  0.461000  0.625800  0.695800  1.0  -0.7405
  N  N131  1  0.972300  0.037900  0.587500  1.0  -0.3279
  N  N132  1  0.961000  0.125800  0.695800  1.0  -0.7405
  N  N133  1  0.527700  0.537900  0.412500  1.0  -0.3292
  N  N134  1  0.539000  0.625800  0.304200  1.0  -0.7414
  N  N135  1  0.027700  0.037900  0.412500  1.0  -0.3292
  N  N136  1  0.039000  0.125800  0.304200  1.0  -0.7414
  N  N137  1  0.539800  0.500000  0.275700  1.0  -0.3817
  N  N138  1  0.039800  0.000000  0.275700  1.0  -0.3817
  N  N139  1  0.460200  0.500000  0.724300  1.0  -0.3803
  N  N140  1  0.960200  0.000000  0.724300  1.0  -0.3803
  O  O141  1  0.621000  0.420500  0.170300  1.0  -0.5848
  O  O142  1  0.573600  0.424300  0.982200  1.0  -0.6092
  O  O143  1  0.856000  0.220500  0.455200  1.0  -0.4621
  O  O144  1  0.900400  0.156600  0.373300  1.0  -0.6224
  O  O145  1  0.121000  0.920500  0.170300  1.0  -0.5848
  O  O146  1  0.073600  0.924300  0.982200  1.0  -0.6092
  O  O147  1  0.356000  0.720500  0.455200  1.0  -0.4621
  O  O148  1  0.400400  0.656600  0.373300  1.0  -0.6224
  O  O149  1  0.379000  0.420500  0.829700  1.0  -0.5859
  O  O150  1  0.426400  0.424300  0.017800  1.0  -0.6093
  O  O151  1  0.144000  0.220500  0.544800  1.0  -0.46
  O  O152  1  0.099600  0.156600  0.626700  1.0  -0.6218
  O  O153  1  0.879000  0.920500  0.829700  1.0  -0.5859
  O  O154  1  0.926400  0.924300  0.017800  1.0  -0.6093
  O  O155  1  0.644000  0.720500  0.544800  1.0  -0.46
  O  O156  1  0.599600  0.656600  0.626700  1.0  -0.6218
  O  O157  1  0.379000  0.579500  0.829700  1.0  -0.5866
  O  O158  1  0.426400  0.575700  0.017800  1.0  -0.61
  O  O159  1  0.144000  0.779500  0.544800  1.0  -0.4599
  O  O160  1  0.099600  0.843400  0.626700  1.0  -0.621
  O  O161  1  0.879000  0.079500  0.829700  1.0  -0.5866
  O  O162  1  0.926400  0.075700  0.017800  1.0  -0.61
  O  O163  1  0.644000  0.279500  0.544800  1.0  -0.4599
  O  O164  1  0.599600  0.343400  0.626700  1.0  -0.621
  O  O165  1  0.621000  0.579500  0.170300  1.0  -0.5849
  O  O166  1  0.573600  0.575700  0.982200  1.0  -0.6098
  O  O167  1  0.856000  0.779500  0.455200  1.0  -0.4616
  O  O168  1  0.900400  0.843400  0.373300  1.0  -0.6221
  O  O169  1  0.121000  0.079500  0.170300  1.0  -0.5849
  O  O170  1  0.073600  0.075700  0.982200  1.0  -0.6098
  O  O171  1  0.356000  0.279500  0.455200  1.0  -0.4616
  O  O172  1  0.400400  0.343400  0.373300  1.0  -0.6221
