# generated using pymatgen
data_Zn3H22C34(N5O6)2
_symmetry_space_group_name_H-M   'P 1'
_cell_length_a   28.30060000
_cell_length_b   20.08500000
_cell_length_c   15.43350000
_cell_angle_alpha   90.00000000
_cell_angle_beta   92.49800000
_cell_angle_gamma   90.00000000
_symmetry_Int_Tables_number   1
_chemical_formula_structural   Zn3H22C34(N5O6)2
_chemical_formula_sum   'Zn12 H88 C136 N40 O48'
_cell_volume   8764.33598518
_cell_formula_units_Z   4
loop_
 _symmetry_equiv_pos_site_id
 _symmetry_equiv_pos_as_xyz
  1  'x, y, z'
loop_
 _atom_site_type_symbol
 _atom_site_label
 _atom_site_symmetry_multiplicity
 _atom_site_fract_x
 _atom_site_fract_y
 _atom_site_fract_z
 _atom_site_occupancy
 _atom_site_charge
  Zn  Zn1  1  0.064890  0.005180  0.011290  1.0  0.9984
  Zn  Zn2  1  0.564890  0.505180  0.011290  1.0  0.9984
  Zn  Zn3  1  0.935110  0.005180  0.488710  1.0  0.9981
  Zn  Zn4  1  0.435110  0.505180  0.488710  1.0  0.9981
  Zn  Zn5  1  0.935110  0.994820  0.988710  1.0  0.9981
  Zn  Zn6  1  0.435110  0.494820  0.988710  1.0  0.9981
  Zn  Zn7  1  0.064890  0.994820  0.511290  1.0  0.9984
  Zn  Zn8  1  0.564890  0.494820  0.511290  1.0  0.9984
  Zn  Zn9  1  0.500000  0.292710  0.250000  1.0  0.8466
  Zn  Zn10  1  0.000000  0.792710  0.250000  1.0  0.8466
  Zn  Zn11  1  0.500000  0.707290  0.750000  1.0  0.8442
  Zn  Zn12  1  0.000000  0.207290  0.750000  1.0  0.8442
  H  H13  1  0.382900  0.124400  0.383600  1.0  0.0973
  H  H14  1  0.306300  0.088900  0.384200  1.0  0.1248
  H  H15  1  0.275600  0.205500  0.181100  1.0  0.1038
  H  H16  1  0.352300  0.245500  0.186000  1.0  0.1092
  H  H17  1  0.225100  0.113300  0.406300  1.0  0.109
  H  H18  1  0.109800  0.052400  0.266700  1.0  0.1058
  H  H19  1  0.220600  0.129000  0.149000  1.0  0.1057
  H  H20  1  0.103000  0.123700  0.925600  1.0  0.3346
  H  H21  1  0.087000  0.173400  0.859100  1.0  0.3381
  H  H22  1  0.894200  0.096200  0.866500  1.0  0.3792
  H  H23  1  0.910900  0.150200  0.809200  1.0  0.3538
  H  H24  1  0.882900  0.624400  0.383600  1.0  0.0979
  H  H25  1  0.806300  0.588900  0.384200  1.0  0.1255
  H  H26  1  0.775600  0.705500  0.181100  1.0  0.1038
  H  H27  1  0.852300  0.745500  0.186000  1.0  0.1092
  H  H28  1  0.725100  0.613300  0.406300  1.0  0.109
  H  H29  1  0.609800  0.552400  0.266700  1.0  0.1058
  H  H30  1  0.720600  0.629000  0.149000  1.0  0.1057
  H  H31  1  0.603000  0.623700  0.925600  1.0  0.3346
  H  H32  1  0.587000  0.673400  0.859100  1.0  0.3381
  H  H33  1  0.394200  0.596200  0.866500  1.0  0.3792
  H  H34  1  0.410900  0.650200  0.809200  1.0  0.3538
  H  H35  1  0.617100  0.124400  0.116400  1.0  0.0966
  H  H36  1  0.693700  0.088900  0.115800  1.0  0.1244
  H  H37  1  0.724400  0.205500  0.318900  1.0  0.1046
  H  H38  1  0.647700  0.245500  0.314000  1.0  0.1093
  H  H39  1  0.774900  0.113300  0.093700  1.0  0.1096
  H  H40  1  0.890200  0.052400  0.233300  1.0  0.1056
  H  H41  1  0.779400  0.129000  0.351000  1.0  0.1051
  H  H42  1  0.897000  0.123700  0.574400  1.0  0.3353
  H  H43  1  0.913000  0.173400  0.640900  1.0  0.3382
  H  H44  1  0.105800  0.096200  0.633500  1.0  0.3805
  H  H45  1  0.089100  0.150200  0.690800  1.0  0.3561
  H  H46  1  0.117100  0.624400  0.116400  1.0  0.0973
  H  H47  1  0.193700  0.588900  0.115800  1.0  0.125
  H  H48  1  0.224400  0.705500  0.318900  1.0  0.1046
  H  H49  1  0.147700  0.745500  0.314000  1.0  0.1093
  H  H50  1  0.274900  0.613300  0.093700  1.0  0.1096
  H  H51  1  0.390200  0.552400  0.233300  1.0  0.1056
  H  H52  1  0.279400  0.629000  0.351000  1.0  0.1051
  H  H53  1  0.397000  0.623700  0.574400  1.0  0.3353
  H  H54  1  0.413000  0.673400  0.640900  1.0  0.3382
  H  H55  1  0.605800  0.596200  0.633500  1.0  0.3805
  H  H56  1  0.589100  0.650200  0.690800  1.0  0.3561
  H  H57  1  0.617100  0.875600  0.616400  1.0  0.0973
  H  H58  1  0.693700  0.911100  0.615800  1.0  0.1249
  H  H59  1  0.724400  0.794500  0.818900  1.0  0.1041
  H  H60  1  0.647700  0.754500  0.814000  1.0  0.1099
  H  H61  1  0.774900  0.886700  0.593700  1.0  0.1093
  H  H62  1  0.890200  0.947600  0.733300  1.0  0.1058
  H  H63  1  0.779400  0.871000  0.851000  1.0  0.1053
  H  H64  1  0.897000  0.876300  0.074400  1.0  0.3349
  H  H65  1  0.913000  0.826600  0.140900  1.0  0.3412
  H  H66  1  0.105800  0.903800  0.133500  1.0  0.3813
  H  H67  1  0.089100  0.849800  0.190800  1.0  0.3576
  H  H68  1  0.117100  0.375600  0.616400  1.0  0.098
  H  H69  1  0.193700  0.411100  0.615800  1.0  0.1254
  H  H70  1  0.224400  0.294500  0.818900  1.0  0.1041
  H  H71  1  0.147700  0.254500  0.814000  1.0  0.1099
  H  H72  1  0.274900  0.386700  0.593700  1.0  0.1093
  H  H73  1  0.390200  0.447600  0.733300  1.0  0.1058
  H  H74  1  0.279400  0.371000  0.851000  1.0  0.1053
  H  H75  1  0.397000  0.376300  0.074400  1.0  0.3349
  H  H76  1  0.413000  0.326600  0.140900  1.0  0.3412
  H  H77  1  0.605800  0.403800  0.133500  1.0  0.3813
  H  H78  1  0.589100  0.349800  0.190800  1.0  0.3576
  H  H79  1  0.382900  0.875600  0.883600  1.0  0.0965
  H  H80  1  0.306300  0.911100  0.884200  1.0  0.1249
  H  H81  1  0.275600  0.794500  0.681100  1.0  0.1033
  H  H82  1  0.352300  0.754500  0.686000  1.0  0.1092
  H  H83  1  0.225100  0.886700  0.906300  1.0  0.109
  H  H84  1  0.109800  0.947600  0.766700  1.0  0.1059
  H  H85  1  0.220600  0.871000  0.649000  1.0  0.1061
  H  H86  1  0.103000  0.876300  0.425600  1.0  0.3348
  H  H87  1  0.087000  0.826600  0.359100  1.0  0.3436
  H  H88  1  0.894200  0.903800  0.366500  1.0  0.3805
  H  H89  1  0.910900  0.849800  0.309200  1.0  0.3554
  H  H90  1  0.882900  0.375600  0.883600  1.0  0.0973
  H  H91  1  0.806300  0.411100  0.884200  1.0  0.1254
  H  H92  1  0.775600  0.294500  0.681100  1.0  0.1033
  H  H93  1  0.852300  0.254500  0.686000  1.0  0.1092
  H  H94  1  0.725100  0.386700  0.906300  1.0  0.109
  H  H95  1  0.609800  0.447600  0.766700  1.0  0.1059
  H  H96  1  0.720600  0.371000  0.649000  1.0  0.1061
  H  H97  1  0.603000  0.376300  0.425600  1.0  0.3348
  H  H98  1  0.587000  0.326600  0.359100  1.0  0.3436
  H  H99  1  0.394200  0.403800  0.366500  1.0  0.3805
  H  H100  1  0.410900  0.349800  0.309200  1.0  0.3554
  C  C101  1  0.036070  0.120100  0.899500  1.0  0.5908
  C  C102  1  0.962570  0.109600  0.879100  1.0  0.3384
  C  C103  1  0.376180  0.188200  0.284500  1.0  -0.1369
  C  C104  1  0.361080  0.141600  0.342700  1.0  -0.0293
  C  C105  1  0.315330  0.119600  0.342900  1.0  -0.1489
  C  C106  1  0.282130  0.143500  0.280300  1.0  0.067
  C  C107  1  0.297090  0.189200  0.223200  1.0  -0.124
  C  C108  1  0.343590  0.213000  0.225100  1.0  -0.0666
  C  C109  1  0.426290  0.212400  0.288700  1.0  0.6729
  C  C110  1  0.231970  0.119400  0.277300  1.0  -0.0144
  C  C111  1  0.209610  0.104900  0.353100  1.0  -0.0508
  C  C112  1  0.164360  0.077800  0.350800  1.0  -0.1952
  C  C113  1  0.140330  0.069700  0.269400  1.0  0.016
  C  C114  1  0.161340  0.086700  0.195300  1.0  -0.1418
  C  C115  1  0.207120  0.114200  0.199500  1.0  -0.0574
  C  C116  1  0.139840  0.059800  0.431400  1.0  0.7186
  C  C117  1  0.134490  0.076700  0.108900  1.0  0.7456
  C  C118  1  0.536070  0.620100  0.899500  1.0  0.5908
  C  C119  1  0.462570  0.609600  0.879100  1.0  0.3384
  C  C120  1  0.876180  0.688200  0.284500  1.0  -0.1369
  C  C121  1  0.861080  0.641600  0.342700  1.0  -0.0293
  C  C122  1  0.815330  0.619600  0.342900  1.0  -0.1489
  C  C123  1  0.782130  0.643500  0.280300  1.0  0.067
  C  C124  1  0.797090  0.689200  0.223200  1.0  -0.124
  C  C125  1  0.843590  0.713000  0.225100  1.0  -0.0666
  C  C126  1  0.926290  0.712400  0.288700  1.0  0.6729
  C  C127  1  0.731970  0.619400  0.277300  1.0  -0.0144
  C  C128  1  0.709610  0.604900  0.353100  1.0  -0.0508
  C  C129  1  0.664360  0.577800  0.350800  1.0  -0.1952
  C  C130  1  0.640330  0.569700  0.269400  1.0  0.016
  C  C131  1  0.661340  0.586700  0.195300  1.0  -0.1418
  C  C132  1  0.707120  0.614200  0.199500  1.0  -0.0574
  C  C133  1  0.639840  0.559800  0.431400  1.0  0.7186
  C  C134  1  0.634490  0.576700  0.108900  1.0  0.7456
  C  C135  1  0.963930  0.120100  0.600500  1.0  0.5913
  C  C136  1  0.037430  0.109600  0.620900  1.0  0.3379
  C  C137  1  0.623820  0.188200  0.215500  1.0  -0.1379
  C  C138  1  0.638920  0.141600  0.157300  1.0  -0.0289
  C  C139  1  0.684670  0.119600  0.157100  1.0  -0.147
  C  C140  1  0.717870  0.143500  0.219700  1.0  0.0674
  C  C141  1  0.702910  0.189200  0.276800  1.0  -0.1232
  C  C142  1  0.656410  0.213000  0.274900  1.0  -0.0675
  C  C143  1  0.573710  0.212400  0.211300  1.0  0.6721
  C  C144  1  0.768030  0.119400  0.222700  1.0  -0.0148
  C  C145  1  0.790390  0.104900  0.146900  1.0  -0.0487
  C  C146  1  0.835640  0.077800  0.149200  1.0  -0.1944
  C  C147  1  0.859670  0.069700  0.230600  1.0  0.017
  C  C148  1  0.838660  0.086700  0.304700  1.0  -0.1429
  C  C149  1  0.792880  0.114200  0.300500  1.0  -0.0568
  C  C150  1  0.860160  0.059800  0.068600  1.0  0.7196
  C  C151  1  0.865510  0.076700  0.391100  1.0  0.7466
  C  C152  1  0.463930  0.620100  0.600500  1.0  0.5913
  C  C153  1  0.537430  0.609600  0.620900  1.0  0.3379
  C  C154  1  0.123820  0.688200  0.215500  1.0  -0.1379
  C  C155  1  0.138920  0.641600  0.157300  1.0  -0.0289
  C  C156  1  0.184670  0.619600  0.157100  1.0  -0.147
  C  C157  1  0.217870  0.643500  0.219700  1.0  0.0674
  C  C158  1  0.202910  0.689200  0.276800  1.0  -0.1232
  C  C159  1  0.156410  0.713000  0.274900  1.0  -0.0675
  C  C160  1  0.073710  0.712400  0.211300  1.0  0.6721
  C  C161  1  0.268030  0.619400  0.222700  1.0  -0.0148
  C  C162  1  0.290390  0.604900  0.146900  1.0  -0.0487
  C  C163  1  0.335640  0.577800  0.149200  1.0  -0.1944
  C  C164  1  0.359670  0.569700  0.230600  1.0  0.017
  C  C165  1  0.338660  0.586700  0.304700  1.0  -0.1429
  C  C166  1  0.292880  0.614200  0.300500  1.0  -0.0568
  C  C167  1  0.360160  0.559800  0.068600  1.0  0.7196
  C  C168  1  0.365510  0.576700  0.391100  1.0  0.7466
  C  C169  1  0.963930  0.879900  0.100500  1.0  0.5912
  C  C170  1  0.037430  0.890400  0.120900  1.0  0.3379
  C  C171  1  0.623820  0.811800  0.715500  1.0  -0.1373
  C  C172  1  0.638920  0.858400  0.657300  1.0  -0.0292
  C  C173  1  0.684670  0.880400  0.657100  1.0  -0.1485
  C  C174  1  0.717870  0.856500  0.719700  1.0  0.0675
  C  C175  1  0.702910  0.810800  0.776800  1.0  -0.1228
  C  C176  1  0.656410  0.787000  0.774900  1.0  -0.0675
  C  C177  1  0.573710  0.787600  0.711300  1.0  0.6715
  C  C178  1  0.768030  0.880600  0.722700  1.0  -0.0149
  C  C179  1  0.790390  0.895100  0.646900  1.0  -0.0484
  C  C180  1  0.835640  0.922200  0.649200  1.0  -0.1943
  C  C181  1  0.859670  0.930300  0.730600  1.0  0.0167
  C  C182  1  0.838660  0.913300  0.804700  1.0  -0.1429
  C  C183  1  0.792880  0.885800  0.800500  1.0  -0.0566
  C  C184  1  0.860160  0.940200  0.568600  1.0  0.7193
  C  C185  1  0.865510  0.923300  0.891100  1.0  0.7469
  C  C186  1  0.463930  0.379900  0.100500  1.0  0.5912
  C  C187  1  0.537430  0.390400  0.120900  1.0  0.3379
  C  C188  1  0.123820  0.311800  0.715500  1.0  -0.1373
  C  C189  1  0.138920  0.358400  0.657300  1.0  -0.0292
  C  C190  1  0.184670  0.380400  0.657100  1.0  -0.1485
  C  C191  1  0.217870  0.356500  0.719700  1.0  0.0675
  C  C192  1  0.202910  0.310800  0.776800  1.0  -0.1228
  C  C193  1  0.156410  0.287000  0.774900  1.0  -0.0675
  C  C194  1  0.073710  0.287600  0.711300  1.0  0.6715
  C  C195  1  0.268030  0.380600  0.722700  1.0  -0.0149
  C  C196  1  0.290390  0.395100  0.646900  1.0  -0.0484
  C  C197  1  0.335640  0.422200  0.649200  1.0  -0.1943
  C  C198  1  0.359670  0.430300  0.730600  1.0  0.0167
  C  C199  1  0.338660  0.413300  0.804700  1.0  -0.1429
  C  C200  1  0.292880  0.385800  0.800500  1.0  -0.0566
  C  C201  1  0.360160  0.440200  0.568600  1.0  0.7193
  C  C202  1  0.365510  0.423300  0.891100  1.0  0.7469
  C  C203  1  0.036070  0.879900  0.399500  1.0  0.5909
  C  C204  1  0.962570  0.890400  0.379100  1.0  0.3383
  C  C205  1  0.376180  0.811800  0.784500  1.0  -0.1376
  C  C206  1  0.361080  0.858400  0.842700  1.0  -0.0292
  C  C207  1  0.315330  0.880400  0.842900  1.0  -0.1495
  C  C208  1  0.282130  0.856500  0.780300  1.0  0.0673
  C  C209  1  0.297090  0.810800  0.723200  1.0  -0.1233
  C  C210  1  0.343590  0.787000  0.725100  1.0  -0.0665
  C  C211  1  0.426290  0.787600  0.788700  1.0  0.6729
  C  C212  1  0.231970  0.880600  0.777300  1.0  -0.0145
  C  C213  1  0.209610  0.895100  0.853100  1.0  -0.0505
  C  C214  1  0.164360  0.922200  0.850800  1.0  -0.1951
  C  C215  1  0.140330  0.930300  0.769400  1.0  0.0159
  C  C216  1  0.161340  0.913300  0.695300  1.0  -0.1421
  C  C217  1  0.207120  0.885800  0.699500  1.0  -0.0575
  C  C218  1  0.139840  0.940200  0.931400  1.0  0.7191
  C  C219  1  0.134490  0.923300  0.608900  1.0  0.7452
  C  C220  1  0.536070  0.379900  0.399500  1.0  0.5909
  C  C221  1  0.462570  0.390400  0.379100  1.0  0.3383
  C  C222  1  0.876180  0.311800  0.784500  1.0  -0.1376
  C  C223  1  0.861080  0.358400  0.842700  1.0  -0.0292
  C  C224  1  0.815330  0.380400  0.842900  1.0  -0.1495
  C  C225  1  0.782130  0.356500  0.780300  1.0  0.0673
  C  C226  1  0.797090  0.310800  0.723200  1.0  -0.1233
  C  C227  1  0.843590  0.287000  0.725100  1.0  -0.0665
  C  C228  1  0.926290  0.287600  0.788700  1.0  0.6729
  C  C229  1  0.731970  0.380600  0.777300  1.0  -0.0145
  C  C230  1  0.709610  0.395100  0.853100  1.0  -0.0505
  C  C231  1  0.664360  0.422200  0.850800  1.0  -0.1951
  C  C232  1  0.640330  0.430300  0.769400  1.0  0.0159
  C  C233  1  0.661340  0.413300  0.695300  1.0  -0.1421
  C  C234  1  0.707120  0.385800  0.699500  1.0  -0.0575
  C  C235  1  0.639840  0.440200  0.931400  1.0  0.7191
  C  C236  1  0.634490  0.423300  0.608900  1.0  0.7452
  N  N237  1  0.023450  0.070400  0.952900  1.0  -0.3338
  N  N238  1  0.974710  0.064500  0.937900  1.0  -0.2841
  N  N239  1  0.998830  0.147300  0.852500  1.0  -0.4975
  N  N240  1  0.080680  0.141600  0.894100  1.0  -0.7481
  N  N241  1  0.916810  0.119900  0.847700  1.0  -0.748
  N  N242  1  0.523450  0.570400  0.952900  1.0  -0.3338
  N  N243  1  0.474710  0.564500  0.937900  1.0  -0.2841
  N  N244  1  0.498830  0.647300  0.852500  1.0  -0.4975
  N  N245  1  0.580680  0.641600  0.894100  1.0  -0.7481
  N  N246  1  0.416810  0.619900  0.847700  1.0  -0.748
  N  N247  1  0.976550  0.070400  0.547100  1.0  -0.3353
  N  N248  1  0.025290  0.064500  0.562100  1.0  -0.2843
  N  N249  1  0.001170  0.147300  0.647500  1.0  -0.4979
  N  N250  1  0.919320  0.141600  0.605900  1.0  -0.7455
  N  N251  1  0.083190  0.119900  0.652300  1.0  -0.7495
  N  N252  1  0.476550  0.570400  0.547100  1.0  -0.3353
  N  N253  1  0.525290  0.564500  0.562100  1.0  -0.2843
  N  N254  1  0.501170  0.647300  0.647500  1.0  -0.4979
  N  N255  1  0.419320  0.641600  0.605900  1.0  -0.7455
  N  N256  1  0.583190  0.619900  0.652300  1.0  -0.7495
  N  N257  1  0.976550  0.929600  0.047100  1.0  -0.3353
  N  N258  1  0.025290  0.935500  0.062100  1.0  -0.2842
  N  N259  1  0.001170  0.852700  0.147500  1.0  -0.4967
  N  N260  1  0.919320  0.858400  0.105900  1.0  -0.7449
  N  N261  1  0.083190  0.880100  0.152300  1.0  -0.7495
  N  N262  1  0.476550  0.429600  0.047100  1.0  -0.3353
  N  N263  1  0.525290  0.435500  0.062100  1.0  -0.2842
  N  N264  1  0.501170  0.352700  0.147500  1.0  -0.4967
  N  N265  1  0.419320  0.358400  0.105900  1.0  -0.7449
  N  N266  1  0.583190  0.380100  0.152300  1.0  -0.7495
  N  N267  1  0.023450  0.929600  0.452900  1.0  -0.3346
  N  N268  1  0.974710  0.935500  0.437900  1.0  -0.2849
  N  N269  1  0.998830  0.852700  0.352500  1.0  -0.4963
  N  N270  1  0.080680  0.858400  0.394100  1.0  -0.7473
  N  N271  1  0.916810  0.880100  0.347700  1.0  -0.748
  N  N272  1  0.523450  0.429600  0.452900  1.0  -0.3346
  N  N273  1  0.474710  0.435500  0.437900  1.0  -0.2849
  N  N274  1  0.498830  0.352700  0.352500  1.0  -0.4963
  N  N275  1  0.580680  0.358400  0.394100  1.0  -0.7473
  N  N276  1  0.416810  0.380100  0.347700  1.0  -0.748
  O  O277  1  0.436770  0.256700  0.235100  1.0  -0.5959
  O  O278  1  0.455430  0.188700  0.340400  1.0  -0.4405
  O  O279  1  0.156490  0.075700  0.502000  1.0  -0.4816
  O  O280  1  0.101930  0.028600  0.419900  1.0  -0.5846
  O  O281  1  0.147920  0.103500  0.042700  1.0  -0.4766
  O  O282  1  0.099060  0.039500  0.112200  1.0  -0.585
  O  O283  1  0.936770  0.756700  0.235100  1.0  -0.5959
  O  O284  1  0.955430  0.688700  0.340400  1.0  -0.4405
  O  O285  1  0.656490  0.575700  0.502000  1.0  -0.4816
  O  O286  1  0.601930  0.528600  0.419900  1.0  -0.5846
  O  O287  1  0.647920  0.603500  0.042700  1.0  -0.4766
  O  O288  1  0.599060  0.539500  0.112200  1.0  -0.585
  O  O289  1  0.563230  0.256700  0.264900  1.0  -0.595
  O  O290  1  0.544570  0.188700  0.159600  1.0  -0.4377
  O  O291  1  0.843510  0.075700  0.998000  1.0  -0.479
  O  O292  1  0.898070  0.028600  0.080100  1.0  -0.5868
  O  O293  1  0.852080  0.103500  0.457300  1.0  -0.4789
  O  O294  1  0.900940  0.039500  0.387800  1.0  -0.5863
  O  O295  1  0.063230  0.756700  0.264900  1.0  -0.595
  O  O296  1  0.044570  0.688700  0.159600  1.0  -0.4377
  O  O297  1  0.343510  0.575700  0.998000  1.0  -0.479
  O  O298  1  0.398070  0.528600  0.080100  1.0  -0.5868
  O  O299  1  0.352080  0.603500  0.457300  1.0  -0.4789
  O  O300  1  0.400940  0.539500  0.387800  1.0  -0.5863
  O  O301  1  0.563230  0.743300  0.764900  1.0  -0.5942
  O  O302  1  0.544570  0.811300  0.659600  1.0  -0.4413
  O  O303  1  0.843510  0.924300  0.498000  1.0  -0.479
  O  O304  1  0.898070  0.971400  0.580100  1.0  -0.5862
  O  O305  1  0.852080  0.896500  0.957300  1.0  -0.4797
  O  O306  1  0.900940  0.960500  0.887800  1.0  -0.5852
  O  O307  1  0.063230  0.243300  0.764900  1.0  -0.5942
  O  O308  1  0.044570  0.311300  0.659600  1.0  -0.4413
  O  O309  1  0.343510  0.424300  0.498000  1.0  -0.479
  O  O310  1  0.398070  0.471400  0.580100  1.0  -0.5862
  O  O311  1  0.352080  0.396500  0.957300  1.0  -0.4797
  O  O312  1  0.400940  0.460500  0.887800  1.0  -0.5852
  O  O313  1  0.436770  0.743300  0.735100  1.0  -0.5952
  O  O314  1  0.455430  0.811300  0.840400  1.0  -0.4377
  O  O315  1  0.156490  0.924300  0.002000  1.0  -0.4812
  O  O316  1  0.101930  0.971400  0.919900  1.0  -0.5845
  O  O317  1  0.147920  0.896500  0.542700  1.0  -0.4774
  O  O318  1  0.099060  0.960500  0.612200  1.0  -0.5846
  O  O319  1  0.936770  0.243300  0.735100  1.0  -0.5952
  O  O320  1  0.955430  0.311300  0.840400  1.0  -0.4377
  O  O321  1  0.656490  0.424300  0.002000  1.0  -0.4812
  O  O322  1  0.601930  0.471400  0.919900  1.0  -0.5845
  O  O323  1  0.647920  0.396500  0.542700  1.0  -0.4774
  O  O324  1  0.599060  0.460500  0.612200  1.0  -0.5846
