# generated using pymatgen
data_Cu3Re6H24C36(S2N3)4
_symmetry_space_group_name_H-M   'P 1'
_cell_length_a   23.37620000
_cell_length_b   13.44610000
_cell_length_c   21.34990000
_cell_angle_alpha   90.00000000
_cell_angle_beta   90.00000000
_cell_angle_gamma   90.00000000
_symmetry_Int_Tables_number   1
_chemical_formula_structural   Cu3Re6H24C36(S2N3)4
_chemical_formula_sum   'Cu12 Re24 H96 C144 S32 N48'
_cell_volume   6710.67330033
_cell_formula_units_Z   4
loop_
 _symmetry_equiv_pos_site_id
 _symmetry_equiv_pos_as_xyz
  1  'x, y, z'
loop_
 _atom_site_type_symbol
 _atom_site_label
 _atom_site_symmetry_multiplicity
 _atom_site_fract_x
 _atom_site_fract_y
 _atom_site_fract_z
 _atom_site_occupancy
 _atom_site_charge
  Cu  Cu1  1  0.101540  0.156060  0.278000  1.0  0.5495
  Cu  Cu2  1  0.398460  0.343940  0.278000  1.0  0.5495
  Cu  Cu3  1  0.898460  0.656060  0.222000  1.0  0.5505
  Cu  Cu4  1  0.601540  0.843940  0.222000  1.0  0.5494
  Cu  Cu5  1  0.898460  0.843940  0.722000  1.0  0.5493
  Cu  Cu6  1  0.601540  0.656060  0.722000  1.0  0.5493
  Cu  Cu7  1  0.101540  0.343940  0.778000  1.0  0.5496
  Cu  Cu8  1  0.398460  0.156060  0.778000  1.0  0.5507
  Cu  Cu9  1  0.250000  0.750000  0.009220  1.0  0.5929
  Cu  Cu10  1  0.750000  0.250000  0.490780  1.0  0.5927
  Cu  Cu11  1  0.750000  0.250000  0.990780  1.0  0.5927
  Cu  Cu12  1  0.250000  0.750000  0.509220  1.0  0.5929
  Re  Re13  1  0.027640  0.088980  0.941710  1.0  0.0033
  Re  Re14  1  0.063400  0.921280  0.988510  1.0  0.0404
  Re  Re15  1  0.037450  0.068120  0.062780  1.0  0.0575
  Re  Re16  1  0.472360  0.411020  0.941710  1.0  0.0028
  Re  Re17  1  0.436600  0.578720  0.988510  1.0  0.0401
  Re  Re18  1  0.462550  0.431880  0.062780  1.0  0.0598
  Re  Re19  1  0.972360  0.588980  0.558290  1.0  0.0036
  Re  Re20  1  0.936600  0.421280  0.511490  1.0  0.0404
  Re  Re21  1  0.962550  0.568120  0.437220  1.0  0.0591
  Re  Re22  1  0.527640  0.911020  0.558290  1.0  0.0037
  Re  Re23  1  0.563400  0.078720  0.511490  1.0  0.04
  Re  Re24  1  0.537450  0.931880  0.437220  1.0  0.0578
  Re  Re25  1  0.972360  0.911020  0.058290  1.0  0.0037
  Re  Re26  1  0.936600  0.078720  0.011490  1.0  0.0402
  Re  Re27  1  0.962550  0.931880  0.937220  1.0  0.0598
  Re  Re28  1  0.527640  0.588980  0.058290  1.0  0.0036
  Re  Re29  1  0.563400  0.421280  0.011490  1.0  0.0403
  Re  Re30  1  0.537450  0.568120  0.937220  1.0  0.0573
  Re  Re31  1  0.027640  0.411020  0.441710  1.0  0.0032
  Re  Re32  1  0.063400  0.578720  0.488510  1.0  0.0401
  Re  Re33  1  0.037450  0.431880  0.562780  1.0  0.0579
  Re  Re34  1  0.472360  0.088980  0.441710  1.0  0.003
  Re  Re35  1  0.436600  0.921280  0.488510  1.0  0.0403
  Re  Re36  1  0.462550  0.068120  0.562780  1.0  0.0593
  H  H37  1  0.994000  0.018300  0.251900  1.0  0.1106
  H  H38  1  0.959500  0.864900  0.279400  1.0  0.1414
  H  H39  1  0.013800  0.765400  0.345800  1.0  0.1324
  H  H40  1  0.103000  0.820200  0.377500  1.0  0.1439
  H  H41  1  0.188300  0.878500  0.399500  1.0  0.1403
  H  H42  1  0.276700  0.950700  0.419500  1.0  0.1297
  H  H43  1  0.296500  0.105700  0.379000  1.0  0.1463
  H  H44  1  0.228000  0.183600  0.319900  1.0  0.092
  H  H45  1  0.235800  0.977200  0.042800  1.0  0.1087
  H  H46  1  0.200300  0.065200  0.126400  1.0  0.138
  H  H47  1  0.192800  0.986900  0.221500  1.0  0.1106
  H  H48  1  0.219000  0.821400  0.231500  1.0  0.1416
  H  H49  1  0.506000  0.481700  0.251900  1.0  0.1103
  H  H50  1  0.540500  0.635100  0.279400  1.0  0.1413
  H  H51  1  0.486200  0.734600  0.345800  1.0  0.1329
  H  H52  1  0.397000  0.679800  0.377500  1.0  0.1433
  H  H53  1  0.311700  0.621500  0.399500  1.0  0.1398
  H  H54  1  0.223300  0.549300  0.419500  1.0  0.1299
  H  H55  1  0.203500  0.394300  0.379000  1.0  0.1471
  H  H56  1  0.272000  0.316400  0.319900  1.0  0.0926
  H  H57  1  0.264200  0.522800  0.042800  1.0  0.1093
  H  H58  1  0.299700  0.434800  0.126400  1.0  0.1384
  H  H59  1  0.307200  0.513100  0.221500  1.0  0.1106
  H  H60  1  0.281000  0.678600  0.231500  1.0  0.142
  H  H61  1  0.006000  0.518300  0.248100  1.0  0.1101
  H  H62  1  0.040500  0.364900  0.220600  1.0  0.1414
  H  H63  1  0.986200  0.265400  0.154200  1.0  0.1327
  H  H64  1  0.897000  0.320200  0.122500  1.0  0.1436
  H  H65  1  0.811700  0.378500  0.100500  1.0  0.1397
  H  H66  1  0.723300  0.450700  0.080500  1.0  0.1297
  H  H67  1  0.703500  0.605700  0.121000  1.0  0.1467
  H  H68  1  0.772000  0.683600  0.180100  1.0  0.0918
  H  H69  1  0.764200  0.477200  0.457200  1.0  0.1084
  H  H70  1  0.799700  0.565200  0.373600  1.0  0.1382
  H  H71  1  0.807200  0.486900  0.278500  1.0  0.1107
  H  H72  1  0.781000  0.321400  0.268500  1.0  0.1419
  H  H73  1  0.494000  0.981700  0.248100  1.0  0.1104
  H  H74  1  0.459500  0.135100  0.220600  1.0  0.1414
  H  H75  1  0.513800  0.234600  0.154200  1.0  0.1335
  H  H76  1  0.603000  0.179800  0.122500  1.0  0.1436
  H  H77  1  0.688300  0.121500  0.100500  1.0  0.1405
  H  H78  1  0.776700  0.049300  0.080500  1.0  0.13
  H  H79  1  0.796500  0.894300  0.121000  1.0  0.1463
  H  H80  1  0.728000  0.816400  0.180100  1.0  0.0931
  H  H81  1  0.735800  0.022800  0.457200  1.0  0.1084
  H  H82  1  0.700300  0.934800  0.373600  1.0  0.1389
  H  H83  1  0.692800  0.013100  0.278500  1.0  0.1107
  H  H84  1  0.719000  0.178600  0.268500  1.0  0.1419
  H  H85  1  0.006000  0.981700  0.748100  1.0  0.1102
  H  H86  1  0.040500  0.135100  0.720600  1.0  0.1414
  H  H87  1  0.986200  0.234600  0.654200  1.0  0.1334
  H  H88  1  0.897000  0.179800  0.622500  1.0  0.1436
  H  H89  1  0.811700  0.121500  0.600500  1.0  0.14
  H  H90  1  0.723300  0.049300  0.580500  1.0  0.1305
  H  H91  1  0.703500  0.894300  0.621000  1.0  0.147
  H  H92  1  0.772000  0.816400  0.680100  1.0  0.0916
  H  H93  1  0.764200  0.022800  0.957200  1.0  0.1089
  H  H94  1  0.799700  0.934800  0.873600  1.0  0.1388
  H  H95  1  0.807200  0.013100  0.778500  1.0  0.1105
  H  H96  1  0.781000  0.178600  0.768500  1.0  0.1418
  H  H97  1  0.494000  0.518300  0.748100  1.0  0.1099
  H  H98  1  0.459500  0.364900  0.720600  1.0  0.1413
  H  H99  1  0.513800  0.265400  0.654200  1.0  0.1326
  H  H100  1  0.603000  0.320200  0.622500  1.0  0.1437
  H  H101  1  0.688300  0.378500  0.600500  1.0  0.1402
  H  H102  1  0.776700  0.450700  0.580500  1.0  0.1302
  H  H103  1  0.796500  0.605700  0.621000  1.0  0.1466
  H  H104  1  0.728000  0.683600  0.680100  1.0  0.0935
  H  H105  1  0.735800  0.477200  0.957200  1.0  0.1084
  H  H106  1  0.700300  0.565200  0.873600  1.0  0.138
  H  H107  1  0.692800  0.486900  0.778500  1.0  0.1111
  H  H108  1  0.719000  0.321400  0.768500  1.0  0.1419
  H  H109  1  0.994000  0.481700  0.751900  1.0  0.1106
  H  H110  1  0.959500  0.635100  0.779400  1.0  0.1414
  H  H111  1  0.013800  0.734600  0.845800  1.0  0.1329
  H  H112  1  0.103000  0.679800  0.877500  1.0  0.1434
  H  H113  1  0.188300  0.621500  0.899500  1.0  0.1401
  H  H114  1  0.276700  0.549300  0.919500  1.0  0.1303
  H  H115  1  0.296500  0.394300  0.879000  1.0  0.1462
  H  H116  1  0.228000  0.316400  0.819900  1.0  0.0914
  H  H117  1  0.235800  0.522800  0.542800  1.0  0.1089
  H  H118  1  0.200300  0.434800  0.626400  1.0  0.1385
  H  H119  1  0.192800  0.513100  0.721500  1.0  0.1105
  H  H120  1  0.219000  0.678600  0.731500  1.0  0.1419
  H  H121  1  0.506000  0.018300  0.751900  1.0  0.1108
  H  H122  1  0.540500  0.864900  0.779400  1.0  0.1415
  H  H123  1  0.486200  0.765400  0.845800  1.0  0.1325
  H  H124  1  0.397000  0.820200  0.877500  1.0  0.1434
  H  H125  1  0.311700  0.878500  0.899500  1.0  0.1398
  H  H126  1  0.223300  0.950700  0.919500  1.0  0.1299
  H  H127  1  0.203500  0.105700  0.879000  1.0  0.1467
  H  H128  1  0.272000  0.183600  0.819900  1.0  0.093
  H  H129  1  0.264200  0.977200  0.542800  1.0  0.1089
  H  H130  1  0.299700  0.065200  0.626400  1.0  0.1381
  H  H131  1  0.307200  0.986900  0.721500  1.0  0.1104
  H  H132  1  0.281000  0.821400  0.731500  1.0  0.1416
  C  C133  1  0.016300  0.977700  0.277300  1.0  0.1782
  C  C134  1  0.994900  0.886200  0.293900  1.0  -0.1669
  C  C135  1  0.027500  0.826900  0.332600  1.0  -0.0596
  C  C136  1  0.080400  0.859500  0.351500  1.0  -0.1598
  C  C137  1  0.099770  0.952400  0.331290  1.0  0.1875
  C  C138  1  0.157200  0.992300  0.347960  1.0  0.1915
  C  C139  1  0.196900  0.941100  0.383600  1.0  -0.148
  C  C140  1  0.249600  0.984100  0.395400  1.0  -0.1062
  C  C141  1  0.261500  0.075200  0.371700  1.0  -0.0949
  C  C142  1  0.219800  0.121100  0.336300  1.0  0.1938
  C  C143  1  0.078090  0.137900  0.139880  1.0  -0.0017
  C  C144  1  0.058580  0.311000  0.373120  1.0  0.1526
  C  C145  1  0.231800  0.945500  0.081300  1.0  0.1825
  C  C146  1  0.211000  0.999000  0.131000  1.0  -0.1118
  C  C147  1  0.206500  0.952300  0.186900  1.0  -0.0963
  C  C148  1  0.222000  0.853600  0.193100  1.0  -0.1649
  C  C149  1  0.242200  0.803800  0.140800  1.0  0.1784
  C  C150  1  0.135910  0.830500  0.975740  1.0  0.1057
  C  C151  1  0.483700  0.522300  0.277300  1.0  0.1775
  C  C152  1  0.505100  0.613800  0.293900  1.0  -0.1648
  C  C153  1  0.472500  0.673100  0.332600  1.0  -0.0609
  C  C154  1  0.419600  0.640500  0.351500  1.0  -0.1603
  C  C155  1  0.400230  0.547600  0.331290  1.0  0.1881
  C  C156  1  0.342800  0.507700  0.347960  1.0  0.1912
  C  C157  1  0.303100  0.558900  0.383600  1.0  -0.1477
  C  C158  1  0.250400  0.515900  0.395400  1.0  -0.1072
  C  C159  1  0.238500  0.424800  0.371700  1.0  -0.0959
  C  C160  1  0.280200  0.378900  0.336300  1.0  0.1943
  C  C161  1  0.421910  0.362100  0.139880  1.0  -0.0007
  C  C162  1  0.441420  0.189000  0.373120  1.0  0.1526
  C  C163  1  0.268200  0.554500  0.081300  1.0  0.1815
  C  C164  1  0.289000  0.501000  0.131000  1.0  -0.1139
  C  C165  1  0.293500  0.547700  0.186900  1.0  -0.0963
  C  C166  1  0.278000  0.646400  0.193100  1.0  -0.1657
  C  C167  1  0.257800  0.696200  0.140800  1.0  0.1792
  C  C168  1  0.364090  0.669500  0.975740  1.0  0.1046
  C  C169  1  0.983700  0.477700  0.222700  1.0  0.1774
  C  C170  1  0.005100  0.386200  0.206100  1.0  -0.1645
  C  C171  1  0.972500  0.326900  0.167400  1.0  -0.0601
  C  C172  1  0.919600  0.359500  0.148500  1.0  -0.1601
  C  C173  1  0.900230  0.452400  0.168710  1.0  0.188
  C  C174  1  0.842800  0.492300  0.152040  1.0  0.1914
  C  C175  1  0.803100  0.441100  0.116400  1.0  -0.1462
  C  C176  1  0.750400  0.484100  0.104600  1.0  -0.1075
  C  C177  1  0.738500  0.575200  0.128300  1.0  -0.0955
  C  C178  1  0.780200  0.621100  0.163700  1.0  0.194
  C  C179  1  0.921910  0.637900  0.360120  1.0  -0.0017
  C  C180  1  0.941420  0.811000  0.126880  1.0  0.1538
  C  C181  1  0.768200  0.445500  0.418700  1.0  0.1826
  C  C182  1  0.789000  0.499000  0.369000  1.0  -0.1126
  C  C183  1  0.793500  0.452300  0.313100  1.0  -0.0947
  C  C184  1  0.778000  0.353600  0.306900  1.0  -0.1648
  C  C185  1  0.757800  0.303800  0.359200  1.0  0.1786
  C  C186  1  0.864090  0.330500  0.524260  1.0  0.1052
  C  C187  1  0.516300  0.022300  0.222700  1.0  0.179
  C  C188  1  0.494900  0.113800  0.206100  1.0  -0.1672
  C  C189  1  0.527500  0.173100  0.167400  1.0  -0.0612
  C  C190  1  0.580400  0.140500  0.148500  1.0  -0.1591
  C  C191  1  0.599770  0.047600  0.168710  1.0  0.1875
  C  C192  1  0.657200  0.007700  0.152040  1.0  0.1907
  C  C193  1  0.696900  0.058900  0.116400  1.0  -0.1482
  C  C194  1  0.749600  0.015900  0.104600  1.0  -0.1054
  C  C195  1  0.761500  0.924800  0.128300  1.0  -0.0951
  C  C196  1  0.719800  0.878900  0.163700  1.0  0.1942
  C  C197  1  0.578090  0.862100  0.360120  1.0  -0.0011
  C  C198  1  0.558580  0.689000  0.126880  1.0  0.1539
  C  C199  1  0.731800  0.054500  0.418700  1.0  0.1825
  C  C200  1  0.711000  0.001000  0.369000  1.0  -0.1139
  C  C201  1  0.706500  0.047700  0.313100  1.0  -0.0964
  C  C202  1  0.722000  0.146400  0.306900  1.0  -0.1643
  C  C203  1  0.742200  0.196200  0.359200  1.0  0.178
  C  C204  1  0.635910  0.169500  0.524260  1.0  0.106
  C  C205  1  0.983700  0.022300  0.722700  1.0  0.1782
  C  C206  1  0.005100  0.113800  0.706100  1.0  -0.1645
  C  C207  1  0.972500  0.173100  0.667400  1.0  -0.061
  C  C208  1  0.919600  0.140500  0.648500  1.0  -0.1599
  C  C209  1  0.900230  0.047600  0.668710  1.0  0.1877
  C  C210  1  0.842800  0.007700  0.652040  1.0  0.191
  C  C211  1  0.803100  0.058900  0.616400  1.0  -0.1473
  C  C212  1  0.750400  0.015900  0.604600  1.0  -0.1072
  C  C213  1  0.738500  0.924800  0.628300  1.0  -0.0959
  C  C214  1  0.780200  0.878900  0.663700  1.0  0.1942
  C  C215  1  0.921910  0.862100  0.860120  1.0  -0.0008
  C  C216  1  0.941420  0.689000  0.626880  1.0  0.154
  C  C217  1  0.768200  0.054500  0.918700  1.0  0.1828
  C  C218  1  0.789000  0.001000  0.869000  1.0  -0.1143
  C  C219  1  0.793500  0.047700  0.813100  1.0  -0.0955
  C  C220  1  0.778000  0.146400  0.806900  1.0  -0.1645
  C  C221  1  0.757800  0.196200  0.859200  1.0  0.1785
  C  C222  1  0.864090  0.169500  0.024260  1.0  0.1048
  C  C223  1  0.516300  0.477700  0.722700  1.0  0.1775
  C  C224  1  0.494900  0.386200  0.706100  1.0  -0.1673
  C  C225  1  0.527500  0.326900  0.667400  1.0  -0.0604
  C  C226  1  0.580400  0.359500  0.648500  1.0  -0.1591
  C  C227  1  0.599770  0.452400  0.668710  1.0  0.1874
  C  C228  1  0.657200  0.492300  0.652040  1.0  0.1915
  C  C229  1  0.696900  0.441100  0.616400  1.0  -0.1472
  C  C230  1  0.749600  0.484100  0.604600  1.0  -0.1059
  C  C231  1  0.761500  0.575200  0.628300  1.0  -0.0943
  C  C232  1  0.719800  0.621100  0.663700  1.0  0.1938
  C  C233  1  0.578090  0.637900  0.860120  1.0  -0.002
  C  C234  1  0.558580  0.811000  0.626880  1.0  0.1536
  C  C235  1  0.731800  0.445500  0.918700  1.0  0.1825
  C  C236  1  0.711000  0.499000  0.869000  1.0  -0.1125
  C  C237  1  0.706500  0.452300  0.813100  1.0  -0.0954
  C  C238  1  0.722000  0.353600  0.806900  1.0  -0.1643
  C  C239  1  0.742200  0.303800  0.859200  1.0  0.1782
  C  C240  1  0.635910  0.330500  0.024260  1.0  0.1062
  C  C241  1  0.016300  0.522300  0.777300  1.0  0.1785
  C  C242  1  0.994900  0.613800  0.793900  1.0  -0.1667
  C  C243  1  0.027500  0.673100  0.832600  1.0  -0.0608
  C  C244  1  0.080400  0.640500  0.851500  1.0  -0.1597
  C  C245  1  0.099770  0.547600  0.831290  1.0  0.1877
  C  C246  1  0.157200  0.507700  0.847960  1.0  0.191
  C  C247  1  0.196900  0.558900  0.883600  1.0  -0.1486
  C  C248  1  0.249600  0.515900  0.895400  1.0  -0.1058
  C  C249  1  0.261500  0.424800  0.871700  1.0  -0.0952
  C  C250  1  0.219800  0.378900  0.836300  1.0  0.1944
  C  C251  1  0.078090  0.362100  0.639880  1.0  -0.0007
  C  C252  1  0.058580  0.189000  0.873120  1.0  0.1527
  C  C253  1  0.231800  0.554500  0.581300  1.0  0.182
  C  C254  1  0.211000  0.501000  0.631000  1.0  -0.1135
  C  C255  1  0.206500  0.547700  0.686900  1.0  -0.0971
  C  C256  1  0.222000  0.646400  0.693100  1.0  -0.1658
  C  C257  1  0.242200  0.696200  0.640800  1.0  0.1781
  C  C258  1  0.135910  0.669500  0.475740  1.0  0.1054
  C  C259  1  0.483700  0.977700  0.777300  1.0  0.178
  C  C260  1  0.505100  0.886200  0.793900  1.0  -0.1649
  C  C261  1  0.472500  0.826900  0.832600  1.0  -0.0595
  C  C262  1  0.419600  0.859500  0.851500  1.0  -0.1607
  C  C263  1  0.400230  0.952400  0.831290  1.0  0.1882
  C  C264  1  0.342800  0.992300  0.847960  1.0  0.1912
  C  C265  1  0.303100  0.941100  0.883600  1.0  -0.1472
  C  C266  1  0.250400  0.984100  0.895400  1.0  -0.1072
  C  C267  1  0.238500  0.075200  0.871700  1.0  -0.0958
  C  C268  1  0.280200  0.121100  0.836300  1.0  0.194
  C  C269  1  0.421910  0.137900  0.639880  1.0  -0.0016
  C  C270  1  0.441420  0.311000  0.873120  1.0  0.1529
  C  C271  1  0.268200  0.945500  0.581300  1.0  0.182
  C  C272  1  0.289000  0.999000  0.631000  1.0  -0.1124
  C  C273  1  0.293500  0.952300  0.686900  1.0  -0.0958
  C  C274  1  0.278000  0.853600  0.693100  1.0  -0.165
  C  C275  1  0.257800  0.803800  0.640800  1.0  0.1794
  C  C276  1  0.364090  0.830500  0.475740  1.0  0.1049
  S  S277  1  0.067720  0.908380  0.100990  1.0  -0.1556
  S  S278  1  0.049990  0.946690  0.877990  1.0  -0.1917
  S  S279  1  0.001140  0.218050  0.014620  1.0  -0.1731
  S  S280  1  0.119080  0.072900  0.993580  1.0  -0.1888
  S  S281  1  0.432280  0.591620  0.100990  1.0  -0.1542
  S  S282  1  0.450010  0.553310  0.877990  1.0  -0.1915
  S  S283  1  0.498860  0.281950  0.014620  1.0  -0.1737
  S  S284  1  0.380920  0.427100  0.993580  1.0  -0.1912
  S  S285  1  0.932280  0.408380  0.399010  1.0  -0.1542
  S  S286  1  0.950010  0.446690  0.622010  1.0  -0.1893
  S  S287  1  0.998860  0.718050  0.485380  1.0  -0.1731
  S  S288  1  0.880920  0.572900  0.506420  1.0  -0.1906
  S  S289  1  0.567720  0.091620  0.399010  1.0  -0.1548
  S  S290  1  0.549990  0.053310  0.622010  1.0  -0.1892
  S  S291  1  0.501140  0.781950  0.485380  1.0  -0.174
  S  S292  1  0.619080  0.927100  0.506420  1.0  -0.1904
  S  S293  1  0.932280  0.091620  0.899010  1.0  -0.1535
  S  S294  1  0.950010  0.053310  0.122010  1.0  -0.1914
  S  S295  1  0.998860  0.781950  0.985380  1.0  -0.174
  S  S296  1  0.880920  0.927100  0.006420  1.0  -0.1916
  S  S297  1  0.567720  0.408380  0.899010  1.0  -0.1551
  S  S298  1  0.549990  0.446690  0.122010  1.0  -0.1918
  S  S299  1  0.501140  0.718050  0.985380  1.0  -0.1726
  S  S300  1  0.619080  0.572900  0.006420  1.0  -0.1891
  S  S301  1  0.067720  0.591620  0.600990  1.0  -0.1555
  S  S302  1  0.049990  0.553310  0.377990  1.0  -0.1908
  S  S303  1  0.001140  0.281950  0.514620  1.0  -0.1738
  S  S304  1  0.119080  0.427100  0.493580  1.0  -0.1901
  S  S305  1  0.432280  0.908380  0.600990  1.0  -0.1547
  S  S306  1  0.450010  0.946690  0.377990  1.0  -0.1908
  S  S307  1  0.498860  0.218050  0.514620  1.0  -0.1735
  S  S308  1  0.380920  0.072900  0.493580  1.0  -0.1904
  N  N309  1  0.067190  0.011400  0.295470  1.0  -0.2921
  N  N310  1  0.168950  0.082500  0.324180  1.0  -0.3167
  N  N311  1  0.095650  0.164300  0.187230  1.0  -0.4106
  N  N312  1  0.074690  0.257300  0.335360  1.0  -0.3053
  N  N313  1  0.246550  0.849200  0.085800  1.0  -0.2957
  N  N314  1  0.176530  0.783200  0.972490  1.0  -0.4202
  N  N315  1  0.432810  0.488600  0.295470  1.0  -0.29
  N  N316  1  0.331050  0.417500  0.324180  1.0  -0.317
  N  N317  1  0.404350  0.335700  0.187230  1.0  -0.4061
  N  N318  1  0.425310  0.242700  0.335360  1.0  -0.3044
  N  N319  1  0.253450  0.650800  0.085800  1.0  -0.2945
  N  N320  1  0.323470  0.716800  0.972490  1.0  -0.4171
  N  N321  1  0.932810  0.511400  0.204530  1.0  -0.2918
  N  N322  1  0.831050  0.582500  0.175820  1.0  -0.3168
  N  N323  1  0.904350  0.664300  0.312770  1.0  -0.4079
  N  N324  1  0.925310  0.757300  0.164640  1.0  -0.3053
  N  N325  1  0.753450  0.349200  0.414200  1.0  -0.2959
  N  N326  1  0.823470  0.283200  0.527510  1.0  -0.4205
  N  N327  1  0.567190  0.988600  0.204530  1.0  -0.2905
  N  N328  1  0.668950  0.917500  0.175820  1.0  -0.3173
  N  N329  1  0.595650  0.835700  0.312770  1.0  -0.4074
  N  N330  1  0.574690  0.742700  0.164640  1.0  -0.3055
  N  N331  1  0.746550  0.150800  0.414200  1.0  -0.2954
  N  N332  1  0.676530  0.216800  0.527510  1.0  -0.4178
  N  N333  1  0.932810  0.988600  0.704530  1.0  -0.2906
  N  N334  1  0.831050  0.917500  0.675820  1.0  -0.3167
  N  N335  1  0.904350  0.835700  0.812770  1.0  -0.4051
  N  N336  1  0.925310  0.742700  0.664640  1.0  -0.3052
  N  N337  1  0.753450  0.150800  0.914200  1.0  -0.2962
  N  N338  1  0.823470  0.216800  0.027510  1.0  -0.4204
  N  N339  1  0.567190  0.511400  0.704530  1.0  -0.2922
  N  N340  1  0.668950  0.582500  0.675820  1.0  -0.3164
  N  N341  1  0.595650  0.664300  0.812770  1.0  -0.4095
  N  N342  1  0.574690  0.757300  0.664640  1.0  -0.3055
  N  N343  1  0.746550  0.349200  0.914200  1.0  -0.2952
  N  N344  1  0.676530  0.283200  0.027510  1.0  -0.4172
  N  N345  1  0.067190  0.488600  0.795470  1.0  -0.2901
  N  N346  1  0.168950  0.417500  0.824180  1.0  -0.3179
  N  N347  1  0.095650  0.335700  0.687230  1.0  -0.408
  N  N348  1  0.074690  0.242700  0.835360  1.0  -0.3054
  N  N349  1  0.246550  0.650800  0.585800  1.0  -0.2958
  N  N350  1  0.176530  0.716800  0.472490  1.0  -0.4204
  N  N351  1  0.432810  0.011400  0.795470  1.0  -0.2914
  N  N352  1  0.331050  0.082500  0.824180  1.0  -0.317
  N  N353  1  0.404350  0.164300  0.687230  1.0  -0.4094
  N  N354  1  0.425310  0.257300  0.835360  1.0  -0.3046
  N  N355  1  0.253450  0.849200  0.585800  1.0  -0.2948
  N  N356  1  0.323470  0.783200  0.472490  1.0  -0.417
