# generated using pymatgen
data_ZnH16PdC24(NO2)4
_symmetry_space_group_name_H-M   'P 1'
_cell_length_a   12.55660000
_cell_length_b   12.55660000
_cell_length_c   25.08500000
_cell_angle_alpha   90.00000000
_cell_angle_beta   90.00000000
_cell_angle_gamma   95.05110000
_symmetry_Int_Tables_number   1
_chemical_formula_structural   ZnH16PdC24(NO2)4
_chemical_formula_sum   'Zn4 H64 Pd4 C96 N16 O32'
_cell_volume   3939.74750913
_cell_formula_units_Z   4
loop_
 _symmetry_equiv_pos_site_id
 _symmetry_equiv_pos_as_xyz
  1  'x, y, z'
loop_
 _atom_site_type_symbol
 _atom_site_label
 _atom_site_symmetry_multiplicity
 _atom_site_fract_x
 _atom_site_fract_y
 _atom_site_fract_z
 _atom_site_occupancy
 _atom_site_charge
  Zn  Zn1  1  0.750000  0.750000  0.162480  1.0  1.0721
  Zn  Zn2  1  0.750000  0.750000  0.662480  1.0  1.0721
  Zn  Zn3  1  0.250000  0.250000  0.337520  1.0  1.0722
  Zn  Zn4  1  0.250000  0.250000  0.837520  1.0  1.0722
  H  H5  1  0.134800  0.624000  0.826400  1.0  0.1019
  H  H6  1  0.999900  0.644300  0.764800  1.0  0.1114
  H  H7  1  0.988600  0.949600  0.809300  1.0  0.139
  H  H8  1  0.122900  0.923700  0.873300  1.0  0.0989
  H  H9  1  0.414800  0.881000  0.973200  1.0  0.1
  H  H10  1  0.544700  0.855700  0.037700  1.0  0.1191
  H  H11  1  0.450200  0.543000  0.041300  1.0  0.1169
  H  H12  1  0.318400  0.571200  0.977600  1.0  0.1072
  H  H13  1  0.365200  0.876000  0.826400  1.0  0.1025
  H  H14  1  0.500100  0.855700  0.764800  1.0  0.1129
  H  H15  1  0.511400  0.550400  0.809300  1.0  0.1394
  H  H16  1  0.377100  0.576300  0.873300  1.0  0.0986
  H  H17  1  0.085200  0.619000  0.973200  1.0  0.1009
  H  H18  1  0.955300  0.644300  0.037700  1.0  0.1189
  H  H19  1  0.049800  0.957000  0.041300  1.0  0.1171
  H  H20  1  0.181600  0.928800  0.977600  1.0  0.1072
  H  H21  1  0.624000  0.134800  0.326400  1.0  0.1016
  H  H22  1  0.644300  0.999900  0.264800  1.0  0.1126
  H  H23  1  0.949600  0.988600  0.309300  1.0  0.1403
  H  H24  1  0.923700  0.122900  0.373300  1.0  0.0993
  H  H25  1  0.881000  0.414800  0.473200  1.0  0.101
  H  H26  1  0.855700  0.544700  0.537700  1.0  0.119
  H  H27  1  0.543000  0.450200  0.541300  1.0  0.1176
  H  H28  1  0.571200  0.318400  0.477600  1.0  0.1069
  H  H29  1  0.876000  0.365200  0.326400  1.0  0.1019
  H  H30  1  0.855700  0.500100  0.264800  1.0  0.1134
  H  H31  1  0.550400  0.511400  0.309300  1.0  0.1395
  H  H32  1  0.576300  0.377100  0.373300  1.0  0.0986
  H  H33  1  0.619000  0.085200  0.473200  1.0  0.102
  H  H34  1  0.644300  0.955300  0.537700  1.0  0.1189
  H  H35  1  0.957000  0.049800  0.541300  1.0  0.1173
  H  H36  1  0.928800  0.181600  0.477600  1.0  0.107
  H  H37  1  0.376000  0.865200  0.673600  1.0  0.1024
  H  H38  1  0.355700  0.000100  0.735200  1.0  0.1133
  H  H39  1  0.050400  0.011400  0.690700  1.0  0.1395
  H  H40  1  0.076300  0.877100  0.626700  1.0  0.0987
  H  H41  1  0.119000  0.585200  0.526800  1.0  0.101
  H  H42  1  0.144300  0.455300  0.462300  1.0  0.1188
  H  H43  1  0.457000  0.549800  0.458700  1.0  0.1169
  H  H44  1  0.428800  0.681600  0.522400  1.0  0.1073
  H  H45  1  0.124000  0.634800  0.673600  1.0  0.1015
  H  H46  1  0.144300  0.499900  0.735200  1.0  0.1126
  H  H47  1  0.449600  0.488600  0.690700  1.0  0.1403
  H  H48  1  0.423700  0.622900  0.626700  1.0  0.0987
  H  H49  1  0.381000  0.914800  0.526800  1.0  0.1022
  H  H50  1  0.355700  0.044700  0.462300  1.0  0.1195
  H  H51  1  0.043000  0.950200  0.458700  1.0  0.1174
  H  H52  1  0.071200  0.818400  0.522400  1.0  0.107
  H  H53  1  0.865200  0.376000  0.173600  1.0  0.1033
  H  H54  1  0.000100  0.355700  0.235200  1.0  0.1127
  H  H55  1  0.011400  0.050400  0.190700  1.0  0.1393
  H  H56  1  0.877100  0.076300  0.126700  1.0  0.0985
  H  H57  1  0.585200  0.119000  0.026800  1.0  0.1
  H  H58  1  0.455300  0.144300  0.962300  1.0  0.119
  H  H59  1  0.549800  0.457000  0.958700  1.0  0.117
  H  H60  1  0.681600  0.428800  0.022400  1.0  0.1078
  H  H61  1  0.634800  0.124000  0.173600  1.0  0.102
  H  H62  1  0.499900  0.144300  0.235200  1.0  0.1113
  H  H63  1  0.488600  0.449600  0.190700  1.0  0.1392
  H  H64  1  0.622900  0.423700  0.126700  1.0  0.0986
  H  H65  1  0.914800  0.381000  0.026800  1.0  0.1013
  H  H66  1  0.044700  0.355700  0.962300  1.0  0.1194
  H  H67  1  0.950200  0.043000  0.958700  1.0  0.1167
  H  H68  1  0.818400  0.071200  0.022400  1.0  0.1073
  Pd  Pd69  1  0.250000  0.750000  0.911920  1.0  0.3199
  Pd  Pd70  1  0.750000  0.250000  0.411920  1.0  0.3199
  Pd  Pd71  1  0.250000  0.750000  0.588080  1.0  0.3203
  Pd  Pd72  1  0.750000  0.250000  0.088080  1.0  0.3203
  C  C73  1  0.097700  0.866900  0.850300  1.0  0.0973
  C  C74  1  0.017600  0.882600  0.812200  1.0  -0.1012
  C  C75  1  0.983000  0.798600  0.779100  1.0  -0.011
  C  C76  1  0.898300  0.813900  0.737600  1.0  0.6374
  C  C77  1  0.025400  0.703600  0.786200  1.0  -0.1177
  C  C78  1  0.104800  0.690600  0.823200  1.0  0.0726
  C  C79  1  0.366400  0.629200  0.989300  1.0  0.0846
  C  C80  1  0.443800  0.612800  0.027800  1.0  -0.1044
  C  C81  1  0.511600  0.698800  0.046400  1.0  0.0033
  C  C82  1  0.499100  0.796100  0.025700  1.0  -0.1246
  C  C83  1  0.422900  0.811500  0.986600  1.0  0.0761
  C  C84  1  0.595900  0.681700  0.085900  1.0  0.6541
  C  C85  1  0.402300  0.633100  0.850300  1.0  0.0959
  C  C86  1  0.482400  0.617400  0.812200  1.0  -0.1008
  C  C87  1  0.517000  0.701400  0.779100  1.0  -0.0103
  C  C88  1  0.601700  0.686100  0.737600  1.0  0.6365
  C  C89  1  0.474600  0.796400  0.786200  1.0  -0.1138
  C  C90  1  0.395200  0.809400  0.823200  1.0  0.0723
  C  C91  1  0.133600  0.870800  0.989300  1.0  0.085
  C  C92  1  0.056200  0.887200  0.027800  1.0  -0.1044
  C  C93  1  0.988400  0.801200  0.046400  1.0  0.0026
  C  C94  1  0.000900  0.703900  0.025700  1.0  -0.1244
  C  C95  1  0.077100  0.688500  0.986600  1.0  0.0754
  C  C96  1  0.904100  0.818300  0.085900  1.0  0.6547
  C  C97  1  0.866900  0.097700  0.350300  1.0  0.0985
  C  C98  1  0.882600  0.017600  0.312200  1.0  -0.1034
  C  C99  1  0.798600  0.983000  0.279100  1.0  -0.009
  C  C100  1  0.813900  0.898300  0.237600  1.0  0.6384
  C  C101  1  0.703600  0.025400  0.286200  1.0  -0.1148
  C  C102  1  0.690600  0.104800  0.323200  1.0  0.078
  C  C103  1  0.629200  0.366400  0.489300  1.0  0.0856
  C  C104  1  0.612800  0.443800  0.527800  1.0  -0.1007
  C  C105  1  0.698800  0.511600  0.546400  1.0  0.0011
  C  C106  1  0.796100  0.499100  0.525700  1.0  -0.1206
  C  C107  1  0.811500  0.422900  0.486600  1.0  0.0778
  C  C108  1  0.681700  0.595900  0.585900  1.0  0.6563
  C  C109  1  0.633100  0.402300  0.350300  1.0  0.0978
  C  C110  1  0.617400  0.482400  0.312200  1.0  -0.1034
  C  C111  1  0.701400  0.517000  0.279100  1.0  -0.009
  C  C112  1  0.686100  0.601700  0.237600  1.0  0.6397
  C  C113  1  0.796400  0.474600  0.286200  1.0  -0.115
  C  C114  1  0.809400  0.395200  0.323200  1.0  0.0747
  C  C115  1  0.870800  0.133600  0.489300  1.0  0.0853
  C  C116  1  0.887200  0.056200  0.527800  1.0  -0.1009
  C  C117  1  0.801200  0.988400  0.546400  1.0  0.0021
  C  C118  1  0.703900  0.000900  0.525700  1.0  -0.1215
  C  C119  1  0.688500  0.077100  0.486600  1.0  0.0776
  C  C120  1  0.818300  0.904100  0.585900  1.0  0.6551
  C  C121  1  0.133100  0.902300  0.649700  1.0  0.099
  C  C122  1  0.117400  0.982400  0.687800  1.0  -0.1014
  C  C123  1  0.201400  0.017000  0.720900  1.0  -0.0097
  C  C124  1  0.186100  0.101700  0.762400  1.0  0.6386
  C  C125  1  0.296400  0.974600  0.713800  1.0  -0.1149
  C  C126  1  0.309400  0.895200  0.676800  1.0  0.0762
  C  C127  1  0.370800  0.633600  0.510700  1.0  0.0845
  C  C128  1  0.387200  0.556200  0.472200  1.0  -0.0999
  C  C129  1  0.301200  0.488400  0.453600  1.0  0.0013
  C  C130  1  0.203900  0.500900  0.474300  1.0  -0.1214
  C  C131  1  0.188500  0.577100  0.513400  1.0  0.0793
  C  C132  1  0.318300  0.404100  0.414100  1.0  0.6557
  C  C133  1  0.366900  0.597700  0.649700  1.0  0.0991
  C  C134  1  0.382600  0.517600  0.687800  1.0  -0.102
  C  C135  1  0.298600  0.483000  0.720900  1.0  -0.0101
  C  C136  1  0.313900  0.398300  0.762400  1.0  0.6385
  C  C137  1  0.203600  0.525400  0.713800  1.0  -0.1159
  C  C138  1  0.190600  0.604800  0.676800  1.0  0.0778
  C  C139  1  0.129200  0.866400  0.510700  1.0  0.0848
  C  C140  1  0.112800  0.943800  0.472200  1.0  -0.0997
  C  C141  1  0.198800  0.011600  0.453600  1.0  0.0012
  C  C142  1  0.296100  0.999100  0.474300  1.0  -0.12
  C  C143  1  0.311500  0.922900  0.513400  1.0  0.0792
  C  C144  1  0.181700  0.095900  0.414100  1.0  0.6574
  C  C145  1  0.902300  0.133100  0.149700  1.0  0.0968
  C  C146  1  0.982400  0.117400  0.187800  1.0  -0.0993
  C  C147  1  0.017000  0.201400  0.220900  1.0  -0.0111
  C  C148  1  0.101700  0.186100  0.262400  1.0  0.6361
  C  C149  1  0.974600  0.296400  0.213800  1.0  -0.1147
  C  C150  1  0.895200  0.309400  0.176800  1.0  0.0734
  C  C151  1  0.633600  0.370800  0.010700  1.0  0.0844
  C  C152  1  0.556200  0.387200  0.972200  1.0  -0.1037
  C  C153  1  0.488400  0.301200  0.953600  1.0  0.0025
  C  C154  1  0.500900  0.203900  0.974300  1.0  -0.1239
  C  C155  1  0.577100  0.188500  0.013400  1.0  0.0767
  C  C156  1  0.404100  0.318300  0.914100  1.0  0.656
  C  C157  1  0.597700  0.366900  0.149700  1.0  0.0983
  C  C158  1  0.517600  0.382600  0.187800  1.0  -0.0998
  C  C159  1  0.483000  0.298600  0.220900  1.0  -0.0109
  C  C160  1  0.398300  0.313900  0.262400  1.0  0.6366
  C  C161  1  0.525400  0.203600  0.213800  1.0  -0.1184
  C  C162  1  0.604800  0.190600  0.176800  1.0  0.0724
  C  C163  1  0.866400  0.129200  0.010700  1.0  0.0839
  C  C164  1  0.943800  0.112800  0.972200  1.0  -0.1039
  C  C165  1  0.011600  0.198800  0.953600  1.0  0.0026
  C  C166  1  0.999100  0.296100  0.974300  1.0  -0.1242
  C  C167  1  0.922900  0.311500  0.013400  1.0  0.077
  C  C168  1  0.095900  0.181700  0.914100  1.0  0.6549
  N  N169  1  0.359400  0.727600  0.968800  1.0  -0.1834
  N  N170  1  0.139100  0.772500  0.854200  1.0  -0.1962
  N  N171  1  0.140600  0.772400  0.968800  1.0  -0.1821
  N  N172  1  0.360900  0.727500  0.854200  1.0  -0.1979
  N  N173  1  0.727600  0.359400  0.468800  1.0  -0.1865
  N  N174  1  0.772500  0.139100  0.354200  1.0  -0.1991
  N  N175  1  0.772400  0.140600  0.468800  1.0  -0.1832
  N  N176  1  0.727500  0.360900  0.354200  1.0  -0.2004
  N  N177  1  0.272400  0.640600  0.531200  1.0  -0.1844
  N  N178  1  0.227500  0.860900  0.645800  1.0  -0.2012
  N  N179  1  0.227600  0.859400  0.531200  1.0  -0.187
  N  N180  1  0.272500  0.639100  0.645800  1.0  -0.1995
  N  N181  1  0.640600  0.272400  0.031200  1.0  -0.1827
  N  N182  1  0.860900  0.227500  0.145800  1.0  -0.1985
  N  N183  1  0.859400  0.227600  0.031200  1.0  -0.1843
  N  N184  1  0.639100  0.272500  0.145800  1.0  -0.1967
  O  O185  1  0.876700  0.736500  0.707300  1.0  -0.6237
  O  O186  1  0.858500  0.897900  0.736600  1.0  -0.5554
  O  O187  1  0.626300  0.759700  0.115200  1.0  -0.6011
  O  O188  1  0.634600  0.592000  0.087700  1.0  -0.6131
  O  O189  1  0.623300  0.763500  0.707300  1.0  -0.6227
  O  O190  1  0.641500  0.602100  0.736600  1.0  -0.5484
  O  O191  1  0.873700  0.740300  0.115200  1.0  -0.5992
  O  O192  1  0.865400  0.908000  0.087700  1.0  -0.6139
  O  O193  1  0.736500  0.876700  0.207300  1.0  -0.6207
  O  O194  1  0.897900  0.858500  0.236600  1.0  -0.5522
  O  O195  1  0.759700  0.626300  0.615200  1.0  -0.5971
  O  O196  1  0.592000  0.634600  0.587700  1.0  -0.6146
  O  O197  1  0.763500  0.623300  0.207300  1.0  -0.6197
  O  O198  1  0.602100  0.641500  0.236600  1.0  -0.5617
  O  O199  1  0.740300  0.873700  0.615200  1.0  -0.5983
  O  O200  1  0.908000  0.865400  0.587700  1.0  -0.6146
  O  O201  1  0.263500  0.123300  0.792700  1.0  -0.6198
  O  O202  1  0.102100  0.141500  0.763400  1.0  -0.561
  O  O203  1  0.240300  0.373700  0.384800  1.0  -0.5982
  O  O204  1  0.408000  0.365400  0.412300  1.0  -0.6142
  O  O205  1  0.236500  0.376700  0.792700  1.0  -0.6203
  O  O206  1  0.397900  0.358500  0.763400  1.0  -0.5526
  O  O207  1  0.259700  0.126300  0.384800  1.0  -0.5974
  O  O208  1  0.092000  0.134600  0.412300  1.0  -0.615
  O  O209  1  0.123300  0.263500  0.292700  1.0  -0.6229
  O  O210  1  0.141500  0.102100  0.263400  1.0  -0.5484
  O  O211  1  0.373700  0.240300  0.884800  1.0  -0.5983
  O  O212  1  0.365400  0.408000  0.912300  1.0  -0.6138
  O  O213  1  0.376700  0.236500  0.292700  1.0  -0.6233
  O  O214  1  0.358500  0.397900  0.263400  1.0  -0.5545
  O  O215  1  0.126300  0.259700  0.884800  1.0  -0.6
  O  O216  1  0.134600  0.092000  0.912300  1.0  -0.6134
