# generated using pymatgen
data_CdH20C20(NO4)2
_symmetry_space_group_name_H-M   'P 1'
_cell_length_a   11.98930000
_cell_length_b   16.11920000
_cell_length_c   16.11920000
_cell_angle_alpha   120.00000000
_cell_angle_beta   90.00000000
_cell_angle_gamma   90.00000000
_symmetry_Int_Tables_number   1
_chemical_formula_structural   CdH20C20(NO4)2
_chemical_formula_sum   'Cd3 H60 C60 N6 O24'
_cell_volume   2697.81041407
_cell_formula_units_Z   3
loop_
 _symmetry_equiv_pos_site_id
 _symmetry_equiv_pos_as_xyz
  1  'x, y, z'
loop_
 _atom_site_type_symbol
 _atom_site_label
 _atom_site_symmetry_multiplicity
 _atom_site_fract_x
 _atom_site_fract_y
 _atom_site_fract_z
 _atom_site_occupancy
 _atom_site_charge
  Cd  Cd1  1  0.833330  0.000000  0.500000  1.0  1.0376
  Cd  Cd2  1  0.166670  0.500000  0.000000  1.0  1.0374
  Cd  Cd3  1  0.500000  0.500000  0.500000  1.0  1.0376
  H  H4  1  0.569600  0.277800  0.622800  1.0  0.1201
  H  H5  1  0.573400  0.137500  0.770200  1.0  0.1176
  H  H6  1  0.902930  0.345000  0.722200  1.0  0.1211
  H  H7  1  0.906730  0.632700  0.862500  1.0  0.1175
  H  H8  1  0.236270  0.377200  0.655000  1.0  0.1201
  H  H9  1  0.240070  0.229800  0.367300  1.0  0.1181
  H  H10  1  0.569600  0.722200  0.377200  1.0  0.1207
  H  H11  1  0.573400  0.862500  0.229800  1.0  0.1169
  H  H12  1  0.902930  0.655000  0.277800  1.0  0.121
  H  H13  1  0.906730  0.367300  0.137500  1.0  0.1179
  H  H14  1  0.236270  0.622800  0.345000  1.0  0.1201
  H  H15  1  0.240070  0.770200  0.632700  1.0  0.118
  H  H16  1  0.763730  0.655000  0.377200  1.0  0.121
  H  H17  1  0.759930  0.367300  0.229800  1.0  0.1177
  H  H18  1  0.430400  0.622800  0.277800  1.0  0.1202
  H  H19  1  0.426600  0.770200  0.137500  1.0  0.1183
  H  H20  1  0.097070  0.722200  0.345000  1.0  0.1204
  H  H21  1  0.093270  0.862500  0.632700  1.0  0.1171
  H  H22  1  0.763730  0.345000  0.622800  1.0  0.1208
  H  H23  1  0.759930  0.632700  0.770200  1.0  0.118
  H  H24  1  0.430400  0.377200  0.722200  1.0  0.1204
  H  H25  1  0.426600  0.229800  0.862500  1.0  0.118
  H  H26  1  0.097070  0.277800  0.655000  1.0  0.1205
  H  H27  1  0.093270  0.137500  0.367300  1.0  0.1174
  H  H28  1  0.951500  0.966200  0.266300  1.0  0.1454
  H  H29  1  0.913300  0.946100  0.164800  1.0  0.1027
  H  H30  1  0.037800  0.973000  0.196800  1.0  0.1361
  H  H31  1  0.048500  0.733700  0.033800  1.0  0.1448
  H  H32  1  0.086700  0.835200  0.053900  1.0  0.1026
  H  H33  1  0.962200  0.803200  0.027000  1.0  0.1373
  H  H34  1  0.284830  0.300100  0.033800  1.0  0.1453
  H  H35  1  0.246630  0.218700  0.053900  1.0  0.1051
  H  H36  1  0.371130  0.223800  0.027000  1.0  0.1363
  H  H37  1  0.381830  0.300100  0.266300  1.0  0.1448
  H  H38  1  0.420030  0.218700  0.164800  1.0  0.1048
  H  H39  1  0.295530  0.223800  0.196800  1.0  0.1376
  H  H40  1  0.618170  0.733700  0.699900  1.0  0.1444
  H  H41  1  0.579970  0.835200  0.781300  1.0  0.1027
  H  H42  1  0.704470  0.803200  0.776200  1.0  0.1366
  H  H43  1  0.715170  0.966200  0.699900  1.0  0.1465
  H  H44  1  0.753370  0.946100  0.781300  1.0  0.1035
  H  H45  1  0.628870  0.973000  0.776200  1.0  0.1378
  H  H46  1  0.951500  0.033800  0.733700  1.0  0.1468
  H  H47  1  0.913300  0.053900  0.835200  1.0  0.1031
  H  H48  1  0.037800  0.027000  0.803200  1.0  0.1363
  H  H49  1  0.048500  0.266300  0.966200  1.0  0.1456
  H  H50  1  0.086700  0.164800  0.946100  1.0  0.1031
  H  H51  1  0.962200  0.196800  0.973000  1.0  0.138
  H  H52  1  0.284830  0.699900  0.966200  1.0  0.1449
  H  H53  1  0.246630  0.781300  0.946100  1.0  0.1042
  H  H54  1  0.371130  0.776200  0.973000  1.0  0.1358
  H  H55  1  0.381830  0.699900  0.733700  1.0  0.1463
  H  H56  1  0.420030  0.781300  0.835200  1.0  0.1038
  H  H57  1  0.295530  0.776200  0.803200  1.0  0.1371
  H  H58  1  0.618170  0.266300  0.300100  1.0  0.1453
  H  H59  1  0.579970  0.164800  0.218700  1.0  0.1033
  H  H60  1  0.704470  0.196800  0.223800  1.0  0.1363
  H  H61  1  0.715170  0.033800  0.300100  1.0  0.1462
  H  H62  1  0.753370  0.053900  0.218700  1.0  0.1024
  H  H63  1  0.628870  0.027000  0.223800  1.0  0.1371
  C  C64  1  0.677400  0.132400  0.621400  1.0  0.7483
  C  C65  1  0.586600  0.197700  0.686600  1.0  -0.1
  C  C66  1  0.542300  0.269300  0.672100  1.0  -0.0322
  C  C67  1  0.543500  0.184500  0.759400  1.0  -0.0286
  C  C68  1  0.010730  0.489000  0.867600  1.0  0.7502
  C  C69  1  0.919930  0.488900  0.802300  1.0  -0.1007
  C  C70  1  0.875630  0.402800  0.730700  1.0  -0.0318
  C  C71  1  0.876830  0.574900  0.815500  1.0  -0.0268
  C  C72  1  0.344070  0.378600  0.511000  1.0  0.7476
  C  C73  1  0.253270  0.313400  0.511100  1.0  -0.0993
  C  C74  1  0.208970  0.327900  0.597200  1.0  -0.0302
  C  C75  1  0.210170  0.240600  0.425100  1.0  -0.03
  C  C76  1  0.677400  0.867600  0.378600  1.0  0.7482
  C  C77  1  0.586600  0.802300  0.313400  1.0  -0.0997
  C  C78  1  0.542300  0.730700  0.327900  1.0  -0.0317
  C  C79  1  0.543500  0.815500  0.240600  1.0  -0.0289
  C  C80  1  0.010730  0.511000  0.132400  1.0  0.7514
  C  C81  1  0.919930  0.511100  0.197700  1.0  -0.1007
  C  C82  1  0.875630  0.597200  0.269300  1.0  -0.0319
  C  C83  1  0.876830  0.425100  0.184500  1.0  -0.0262
  C  C84  1  0.344070  0.621400  0.489000  1.0  0.7483
  C  C85  1  0.253270  0.686600  0.488900  1.0  -0.0997
  C  C86  1  0.208970  0.672100  0.402800  1.0  -0.0299
  C  C87  1  0.210170  0.759400  0.574900  1.0  -0.0308
  C  C88  1  0.655930  0.511000  0.378600  1.0  0.7494
  C  C89  1  0.746730  0.511100  0.313400  1.0  -0.1015
  C  C90  1  0.791030  0.597200  0.327900  1.0  -0.0273
  C  C91  1  0.789830  0.425100  0.240600  1.0  -0.0271
  C  C92  1  0.322600  0.621400  0.132400  1.0  0.7473
  C  C93  1  0.413400  0.686600  0.197700  1.0  -0.1008
  C  C94  1  0.457700  0.672100  0.269300  1.0  -0.0249
  C  C95  1  0.456500  0.759400  0.184500  1.0  -0.03
  C  C96  1  0.989270  0.867600  0.489000  1.0  0.7475
  C  C97  1  0.080070  0.802300  0.488900  1.0  -0.1005
  C  C98  1  0.124370  0.730700  0.402800  1.0  -0.0273
  C  C99  1  0.123170  0.815500  0.574900  1.0  -0.0279
  C  C100  1  0.655930  0.489000  0.621400  1.0  0.7508
  C  C101  1  0.746730  0.488900  0.686600  1.0  -0.1016
  C  C102  1  0.791030  0.402800  0.672100  1.0  -0.027
  C  C103  1  0.789830  0.574900  0.759400  1.0  -0.0266
  C  C104  1  0.322600  0.378600  0.867600  1.0  0.747
  C  C105  1  0.413400  0.313400  0.802300  1.0  -0.1007
  C  C106  1  0.457700  0.327900  0.730700  1.0  -0.0256
  C  C107  1  0.456500  0.240600  0.815500  1.0  -0.0308
  C  C108  1  0.989270  0.132400  0.511000  1.0  0.7478
  C  C109  1  0.080070  0.197700  0.511100  1.0  -0.1015
  C  C110  1  0.124370  0.269300  0.597200  1.0  -0.0268
  C  C111  1  0.123170  0.184500  0.425100  1.0  -0.0289
  C  C112  1  0.973400  0.939600  0.200500  1.0  -0.1114
  C  C113  1  0.026600  0.799500  0.060400  1.0  -0.1098
  C  C114  1  0.306730  0.260900  0.060400  1.0  -0.1101
  C  C115  1  0.359930  0.260900  0.200500  1.0  -0.1083
  C  C116  1  0.640070  0.799500  0.739100  1.0  -0.1093
  C  C117  1  0.693270  0.939600  0.739100  1.0  -0.1104
  C  C118  1  0.973400  0.060400  0.799500  1.0  -0.1114
  C  C119  1  0.026600  0.200500  0.939600  1.0  -0.1079
  C  C120  1  0.306730  0.739100  0.939600  1.0  -0.1087
  C  C121  1  0.359930  0.739100  0.799500  1.0  -0.1087
  C  C122  1  0.640070  0.200500  0.260900  1.0  -0.1106
  C  C123  1  0.693270  0.060400  0.260900  1.0  -0.1092
  N  N124  1  0.000000  0.839250  0.160750  1.0  -0.3417
  N  N125  1  0.333333  0.321500  0.160750  1.0  -0.3383
  N  N126  1  0.666667  0.839250  0.678500  1.0  -0.3335
  N  N127  1  0.000000  0.160750  0.839250  1.0  -0.3369
  N  N128  1  0.333333  0.678500  0.839250  1.0  -0.3439
  N  N129  1  0.666667  0.160750  0.321500  1.0  -0.3424
  O  O130  1  0.697300  0.132400  0.546400  1.0  -0.5573
  O  O131  1  0.723700  0.076100  0.641200  1.0  -0.6381
  O  O132  1  0.030630  0.414000  0.867600  1.0  -0.5578
  O  O133  1  0.057030  0.565100  0.923900  1.0  -0.6372
  O  O134  1  0.363970  0.453600  0.586000  1.0  -0.5593
  O  O135  1  0.390370  0.358800  0.434900  1.0  -0.6352
  O  O136  1  0.697300  0.867600  0.453600  1.0  -0.5573
  O  O137  1  0.723700  0.923900  0.358800  1.0  -0.6367
  O  O138  1  0.030630  0.586000  0.132400  1.0  -0.5592
  O  O139  1  0.057030  0.434900  0.076100  1.0  -0.6362
  O  O140  1  0.363970  0.546400  0.414000  1.0  -0.5586
  O  O141  1  0.390370  0.641200  0.565100  1.0  -0.6364
  O  O142  1  0.636030  0.586000  0.453600  1.0  -0.5602
  O  O143  1  0.609630  0.434900  0.358800  1.0  -0.636
  O  O144  1  0.302700  0.546400  0.132400  1.0  -0.559
  O  O145  1  0.276300  0.641200  0.076100  1.0  -0.6342
  O  O146  1  0.969370  0.867600  0.414000  1.0  -0.5578
  O  O147  1  0.942970  0.923900  0.565100  1.0  -0.637
  O  O148  1  0.636030  0.414000  0.546400  1.0  -0.5597
  O  O149  1  0.609630  0.565100  0.641200  1.0  -0.6357
  O  O150  1  0.302700  0.453600  0.867600  1.0  -0.5585
  O  O151  1  0.276300  0.358800  0.923900  1.0  -0.6357
  O  O152  1  0.969370  0.132400  0.586000  1.0  -0.5575
  O  O153  1  0.942970  0.076100  0.434900  1.0  -0.6363
