# generated using pymatgen
data_Zn4H36C60N4O13
_symmetry_space_group_name_H-M   'P 1'
_cell_length_a   20.33000000
_cell_length_b   23.16920000
_cell_length_c   32.00810000
_cell_angle_alpha   90.00000000
_cell_angle_beta   90.00000000
_cell_angle_gamma   90.00000000
_symmetry_Int_Tables_number   1
_chemical_formula_structural   Zn4H36C60N4O13
_chemical_formula_sum   'Zn16 H144 C240 N16 O52'
_cell_volume   15076.77009367
_cell_formula_units_Z   4
loop_
 _symmetry_equiv_pos_site_id
 _symmetry_equiv_pos_as_xyz
  1  'x, y, z'
loop_
 _atom_site_type_symbol
 _atom_site_label
 _atom_site_symmetry_multiplicity
 _atom_site_fract_x
 _atom_site_fract_y
 _atom_site_fract_z
 _atom_site_occupancy
 _atom_site_charge
  Zn  Zn1  1  0.172900  0.474110  0.501510  1.0  1.0744
  Zn  Zn2  1  0.291860  0.515530  0.449700  1.0  1.0863
  Zn  Zn3  1  0.253740  0.588360  0.532850  1.0  1.0635
  Zn  Zn4  1  0.313780  0.457820  0.535140  1.0  1.0661
  Zn  Zn5  1  0.327100  0.525890  0.001510  1.0  1.0741
  Zn  Zn6  1  0.208140  0.484470  0.949700  1.0  1.0869
  Zn  Zn7  1  0.246260  0.411640  0.032850  1.0  1.0642
  Zn  Zn8  1  0.186220  0.542180  0.035140  1.0  1.0657
  Zn  Zn9  1  0.827100  0.974110  0.998490  1.0  1.0738
  Zn  Zn10  1  0.708140  0.015530  0.050300  1.0  1.0878
  Zn  Zn11  1  0.746260  0.088360  0.967150  1.0  1.0628
  Zn  Zn12  1  0.686220  0.957820  0.964860  1.0  1.0657
  Zn  Zn13  1  0.672900  0.025890  0.498490  1.0  1.0744
  Zn  Zn14  1  0.791860  0.984470  0.550300  1.0  1.0864
  Zn  Zn15  1  0.753740  0.911640  0.467150  1.0  1.0658
  Zn  Zn16  1  0.813780  0.042180  0.464860  1.0  1.0653
  H  H17  1  0.862600  0.569300  0.746200  1.0  0.1207
  H  H18  1  0.924200  0.600900  0.689000  1.0  0.1024
  H  H19  1  0.756300  0.650900  0.632800  1.0  0.1115
  H  H20  1  0.698700  0.625400  0.690000  1.0  0.0935
  H  H21  1  0.902800  0.544500  0.600500  1.0  0.1369
  H  H22  1  0.997800  0.500800  0.576300  1.0  0.094
  H  H23  1  0.100800  0.648600  0.591500  1.0  0.1195
  H  H24  1  0.002400  0.693800  0.612700  1.0  0.1016
  H  H25  1  0.898700  0.686800  0.543800  1.0  0.116
  H  H26  1  0.873000  0.773900  0.514800  1.0  0.0994
  H  H27  1  0.809000  0.833200  0.626500  1.0  0.0976
  H  H28  1  0.839000  0.747400  0.657700  1.0  0.1156
  H  H29  1  0.662400  0.509200  0.717100  1.0  0.1206
  H  H30  1  0.549100  0.505300  0.715800  1.0  0.1041
  H  H31  1  0.537500  0.631500  0.800300  1.0  0.1095
  H  H32  1  0.651900  0.639500  0.801400  1.0  0.1113
  H  H33  1  0.395400  0.475100  0.733600  1.0  0.1262
  H  H34  1  0.342500  0.460900  0.668900  1.0  0.107
  H  H35  1  0.400900  0.617400  0.632500  1.0  0.0938
  H  H36  1  0.455200  0.632300  0.695100  1.0  0.1298
  H  H37  1  0.337800  0.576500  0.776400  1.0  0.1214
  H  H38  1  0.284100  0.559500  0.837400  1.0  0.0921
  H  H39  1  0.454700  0.521100  0.894400  1.0  0.0997
  H  H40  1  0.509600  0.531700  0.831600  1.0  0.1062
  H  H41  1  0.798500  0.671800  0.785000  1.0  0.112
  H  H42  1  0.841500  0.694600  0.852000  1.0  0.1268
  H  H43  1  0.779500  0.540400  0.894100  1.0  0.1214
  H  H44  1  0.743300  0.514900  0.827400  1.0  0.1211
  H  H45  1  0.918000  0.713400  0.950700  1.0  0.1064
  H  H46  1  0.889500  0.805600  0.971800  1.0  0.1029
  H  H47  1  0.699800  0.775600  0.946100  1.0  0.1018
  H  H48  1  0.724700  0.681700  0.926100  1.0  0.1201
  H  H49  1  0.884000  0.619200  0.994900  1.0  0.122
  H  H50  1  0.985300  0.584800  0.016000  1.0  0.1018
  H  H51  1  0.027500  0.538200  0.897500  1.0  0.1003
  H  H52  1  0.925700  0.574400  0.875700  1.0  0.1056
  H  H53  1  0.637400  0.430700  0.246200  1.0  0.1201
  H  H54  1  0.575800  0.399100  0.189000  1.0  0.1031
  H  H55  1  0.743700  0.349100  0.132800  1.0  0.111
  H  H56  1  0.801300  0.374600  0.190000  1.0  0.0939
  H  H57  1  0.597200  0.455500  0.100500  1.0  0.1363
  H  H58  1  0.502200  0.499200  0.076300  1.0  0.0941
  H  H59  1  0.399200  0.351400  0.091500  1.0  0.1194
  H  H60  1  0.497600  0.306200  0.112700  1.0  0.102
  H  H61  1  0.601300  0.313200  0.043800  1.0  0.116
  H  H62  1  0.627000  0.226100  0.014800  1.0  0.0994
  H  H63  1  0.691000  0.166800  0.126500  1.0  0.0978
  H  H64  1  0.661000  0.252600  0.157700  1.0  0.1156
  H  H65  1  0.837600  0.490800  0.217100  1.0  0.1224
  H  H66  1  0.950900  0.494700  0.215800  1.0  0.1052
  H  H67  1  0.962500  0.368500  0.300300  1.0  0.108
  H  H68  1  0.848100  0.360500  0.301400  1.0  0.1112
  H  H69  1  0.104600  0.524900  0.233600  1.0  0.1261
  H  H70  1  0.157500  0.539100  0.168900  1.0  0.1072
  H  H71  1  0.099100  0.382600  0.132500  1.0  0.0938
  H  H72  1  0.044800  0.367700  0.195100  1.0  0.1301
  H  H73  1  0.162200  0.423500  0.276400  1.0  0.1212
  H  H74  1  0.215900  0.440500  0.337400  1.0  0.0913
  H  H75  1  0.045300  0.478900  0.394400  1.0  0.0999
  H  H76  1  0.990400  0.468300  0.331600  1.0  0.1072
  H  H77  1  0.701500  0.328200  0.285000  1.0  0.1115
  H  H78  1  0.658500  0.305400  0.352000  1.0  0.1268
  H  H79  1  0.720500  0.459600  0.394100  1.0  0.12
  H  H80  1  0.756700  0.485100  0.327400  1.0  0.1213
  H  H81  1  0.582000  0.286600  0.450700  1.0  0.1056
  H  H82  1  0.610500  0.194400  0.471800  1.0  0.1027
  H  H83  1  0.800200  0.224400  0.446100  1.0  0.1019
  H  H84  1  0.775300  0.318300  0.426100  1.0  0.12
  H  H85  1  0.616000  0.380800  0.494900  1.0  0.1215
  H  H86  1  0.514700  0.415200  0.516000  1.0  0.1018
  H  H87  1  0.472500  0.461800  0.397500  1.0  0.1002
  H  H88  1  0.574300  0.425600  0.375700  1.0  0.1054
  H  H89  1  0.137400  0.069300  0.753800  1.0  0.1203
  H  H90  1  0.075800  0.100900  0.811000  1.0  0.1031
  H  H91  1  0.243700  0.150900  0.867200  1.0  0.1105
  H  H92  1  0.301300  0.125400  0.810000  1.0  0.0934
  H  H93  1  0.097200  0.044500  0.899500  1.0  0.134
  H  H94  1  0.002200  0.000800  0.923700  1.0  0.094
  H  H95  1  0.899200  0.148600  0.908500  1.0  0.1197
  H  H96  1  0.997600  0.193800  0.887300  1.0  0.1016
  H  H97  1  0.101300  0.186800  0.956200  1.0  0.1155
  H  H98  1  0.127000  0.273900  0.985200  1.0  0.099
  H  H99  1  0.191000  0.333200  0.873500  1.0  0.0975
  H  H100  1  0.161000  0.247400  0.842300  1.0  0.115
  H  H101  1  0.337600  0.009200  0.782900  1.0  0.1228
  H  H102  1  0.450900  0.005300  0.784200  1.0  0.1047
  H  H103  1  0.462500  0.131500  0.699700  1.0  0.1094
  H  H104  1  0.348100  0.139500  0.698600  1.0  0.1114
  H  H105  1  0.604600  0.975100  0.766400  1.0  0.1256
  H  H106  1  0.657500  0.960900  0.831100  1.0  0.1074
  H  H107  1  0.599100  0.117400  0.867500  1.0  0.0942
  H  H108  1  0.544800  0.132300  0.804900  1.0  0.1303
  H  H109  1  0.662200  0.076500  0.723600  1.0  0.121
  H  H110  1  0.715900  0.059500  0.662600  1.0  0.0915
  H  H111  1  0.545300  0.021100  0.605600  1.0  0.0998
  H  H112  1  0.490400  0.031700  0.668400  1.0  0.1069
  H  H113  1  0.201500  0.171800  0.715000  1.0  0.112
  H  H114  1  0.158500  0.194600  0.648000  1.0  0.1269
  H  H115  1  0.220500  0.040400  0.605900  1.0  0.1196
  H  H116  1  0.256700  0.014900  0.672600  1.0  0.1211
  H  H117  1  0.082000  0.213400  0.549300  1.0  0.1055
  H  H118  1  0.110500  0.305600  0.528200  1.0  0.1024
  H  H119  1  0.300200  0.275600  0.553900  1.0  0.1019
  H  H120  1  0.275300  0.181700  0.573900  1.0  0.12
  H  H121  1  0.116000  0.119200  0.505100  1.0  0.1217
  H  H122  1  0.014700  0.084800  0.484000  1.0  0.1018
  H  H123  1  0.972500  0.038200  0.602500  1.0  0.1001
  H  H124  1  0.074300  0.074400  0.624300  1.0  0.1058
  H  H125  1  0.362600  0.930700  0.253800  1.0  0.1207
  H  H126  1  0.424200  0.899100  0.311000  1.0  0.1034
  H  H127  1  0.256300  0.849100  0.367200  1.0  0.1113
  H  H128  1  0.198700  0.874600  0.310000  1.0  0.0946
  H  H129  1  0.402800  0.955500  0.399500  1.0  0.1355
  H  H130  1  0.497800  0.999200  0.423700  1.0  0.0937
  H  H131  1  0.600800  0.851400  0.408500  1.0  0.1193
  H  H132  1  0.502400  0.806200  0.387300  1.0  0.1024
  H  H133  1  0.398700  0.813200  0.456200  1.0  0.1155
  H  H134  1  0.373000  0.726100  0.485200  1.0  0.0989
  H  H135  1  0.309000  0.666800  0.373500  1.0  0.097
  H  H136  1  0.339000  0.752600  0.342300  1.0  0.1162
  H  H137  1  0.162400  0.990800  0.282900  1.0  0.1229
  H  H138  1  0.049100  0.994700  0.284200  1.0  0.1048
  H  H139  1  0.037500  0.868500  0.199700  1.0  0.1074
  H  H140  1  0.151900  0.860500  0.198600  1.0  0.111
  H  H141  1  0.895400  0.024900  0.266400  1.0  0.1274
  H  H142  1  0.842500  0.039100  0.331100  1.0  0.1073
  H  H143  1  0.900900  0.882600  0.367500  1.0  0.094
  H  H144  1  0.955200  0.867700  0.304900  1.0  0.13
  H  H145  1  0.837800  0.923500  0.223600  1.0  0.1212
  H  H146  1  0.784100  0.940500  0.162600  1.0  0.0925
  H  H147  1  0.954700  0.978900  0.105600  1.0  0.1001
  H  H148  1  0.009600  0.968300  0.168400  1.0  0.1072
  H  H149  1  0.298500  0.828200  0.215000  1.0  0.1114
  H  H150  1  0.341500  0.805400  0.148000  1.0  0.1266
  H  H151  1  0.279500  0.959600  0.105900  1.0  0.1213
  H  H152  1  0.243300  0.985100  0.172600  1.0  0.1218
  H  H153  1  0.418000  0.786600  0.049300  1.0  0.1061
  H  H154  1  0.389500  0.694400  0.028200  1.0  0.1026
  H  H155  1  0.199800  0.724400  0.053900  1.0  0.1017
  H  H156  1  0.224700  0.818300  0.073900  1.0  0.1197
  H  H157  1  0.384000  0.880800  0.005100  1.0  0.1214
  H  H158  1  0.485300  0.915200  0.984000  1.0  0.1017
  H  H159  1  0.527500  0.961800  0.102500  1.0  0.1001
  H  H160  1  0.425700  0.925600  0.124300  1.0  0.1045
  C  C161  1  0.774400  0.593600  0.723500  1.0  0.1899
  C  C162  1  0.841100  0.586900  0.723100  1.0  -0.2045
  C  C163  1  0.877800  0.605700  0.688800  1.0  -0.1235
  C  C164  1  0.848600  0.630900  0.655100  1.0  0.1773
  C  C165  1  0.778900  0.635700  0.656300  1.0  -0.1731
  C  C166  1  0.744900  0.619300  0.689600  1.0  -0.0858
  C  C167  1  0.944700  0.624700  0.609200  1.0  0.1446
  C  C168  1  0.942500  0.565900  0.598200  1.0  -0.2048
  C  C169  1  0.999100  0.540300  0.584200  1.0  -0.0457
  C  C170  1  0.057300  0.569300  0.581200  1.0  -0.1083
  C  C171  1  0.060600  0.627700  0.592600  1.0  -0.0766
  C  C172  1  0.001900  0.653900  0.605900  1.0  -0.1864
  C  C173  1  0.871000  0.706300  0.604200  1.0  0.2092
  C  C174  1  0.881000  0.716500  0.560900  1.0  -0.2051
  C  C175  1  0.865400  0.768100  0.543800  1.0  -0.0163
  C  C176  1  0.838300  0.813500  0.567500  1.0  -0.1538
  C  C177  1  0.828100  0.803600  0.609900  1.0  -0.0252
  C  C178  1  0.844900  0.752300  0.628400  1.0  -0.2258
  C  C179  1  0.669300  0.575200  0.759000  1.0  0.1609
  C  C180  1  0.637500  0.534900  0.734000  1.0  -0.2141
  C  C181  1  0.570400  0.532400  0.733600  1.0  -0.0885
  C  C182  1  0.533000  0.568000  0.758200  1.0  0.1634
  C  C183  1  0.563200  0.606900  0.783100  1.0  -0.1479
  C  C184  1  0.631300  0.611700  0.784000  1.0  -0.182
  C  C185  1  0.429200  0.556000  0.720000  1.0  0.182
  C  C186  1  0.396500  0.504300  0.712800  1.0  -0.2256
  C  C187  1  0.365300  0.495900  0.674300  1.0  -0.0102
  C  C188  1  0.367500  0.538200  0.644500  1.0  -0.0893
  C  C189  1  0.400100  0.587900  0.653100  1.0  -0.0333
  C  C190  1  0.431900  0.597400  0.690300  1.0  -0.1975
  C  C191  1  0.430200  0.553900  0.797400  1.0  0.1869
  C  C192  1  0.361600  0.563700  0.800200  1.0  -0.2286
  C  C193  1  0.330500  0.554700  0.836600  1.0  -0.041
  C  C194  1  0.362200  0.539100  0.872500  1.0  -0.1248
  C  C195  1  0.430800  0.531200  0.870000  1.0  -0.0615
  C  C196  1  0.463500  0.538100  0.832800  1.0  -0.1901
  C  C197  1  0.767100  0.590100  0.800200  1.0  0.1471
  C  C198  1  0.795900  0.644500  0.807100  1.0  -0.1467
  C  C199  1  0.820900  0.658400  0.847000  1.0  -0.1888
  C  C200  1  0.814800  0.618800  0.878100  1.0  0.1269
  C  C201  1  0.784800  0.566600  0.871500  1.0  -0.147
  C  C202  1  0.762200  0.551800  0.832100  1.0  -0.21
  C  C203  1  0.825000  0.687700  0.934800  1.0  0.1895
  C  C204  1  0.873400  0.725500  0.949400  1.0  -0.2478
  C  C205  1  0.856300  0.780300  0.961800  1.0  -0.0166
  C  C206  1  0.791700  0.799600  0.960100  1.0  -0.125
  C  C207  1  0.744200  0.762800  0.946900  1.0  -0.0212
  C  C208  1  0.758900  0.707100  0.934600  1.0  -0.2056
  C  C209  1  0.899000  0.606500  0.932000  1.0  0.1942
  C  C210  1  0.914500  0.605200  0.974800  1.0  -0.1932
  C  C211  1  0.973900  0.583700  0.987300  1.0  -0.0278
  C  C212  1  0.019000  0.559700  0.958200  1.0  -0.1149
  C  C213  1  0.999400  0.556200  0.917300  1.0  -0.0272
  C  C214  1  0.939000  0.578600  0.904000  1.0  -0.1572
  C  C215  1  0.116500  0.542000  0.562400  1.0  0.6926
  C  C216  1  0.819900  0.868900  0.548200  1.0  0.7148
  C  C217  1  0.337400  0.527600  0.602200  1.0  0.6776
  C  C218  1  0.327300  0.529000  0.911700  1.0  0.7106
  C  C219  1  0.775700  0.862000  0.971300  1.0  0.7197
  C  C220  1  0.084300  0.541500  0.971500  1.0  0.7289
  C  C221  1  0.725600  0.406400  0.223500  1.0  0.1904
  C  C222  1  0.658900  0.413100  0.223100  1.0  -0.2059
  C  C223  1  0.622200  0.394300  0.188800  1.0  -0.125
  C  C224  1  0.651400  0.369100  0.155100  1.0  0.1766
  C  C225  1  0.721100  0.364300  0.156300  1.0  -0.1714
  C  C226  1  0.755100  0.380700  0.189600  1.0  -0.0872
  C  C227  1  0.555300  0.375300  0.109200  1.0  0.1438
  C  C228  1  0.557500  0.434100  0.098200  1.0  -0.2054
  C  C229  1  0.500900  0.459700  0.084200  1.0  -0.0446
  C  C230  1  0.442700  0.430700  0.081200  1.0  -0.1074
  C  C231  1  0.439400  0.372300  0.092600  1.0  -0.0762
  C  C232  1  0.498100  0.346100  0.105900  1.0  -0.1883
  C  C233  1  0.629000  0.293700  0.104200  1.0  0.2092
  C  C234  1  0.619000  0.283500  0.060900  1.0  -0.2053
  C  C235  1  0.634600  0.231900  0.043800  1.0  -0.0153
  C  C236  1  0.661700  0.186500  0.067500  1.0  -0.1545
  C  C237  1  0.671900  0.196400  0.109900  1.0  -0.0254
  C  C238  1  0.655100  0.247700  0.128400  1.0  -0.2249
  C  C239  1  0.830700  0.424800  0.259000  1.0  0.1622
  C  C240  1  0.862500  0.465100  0.234000  1.0  -0.2137
  C  C241  1  0.929600  0.467600  0.233600  1.0  -0.086
  C  C242  1  0.967000  0.432000  0.258200  1.0  0.1631
  C  C243  1  0.936800  0.393100  0.283100  1.0  -0.1492
  C  C244  1  0.868700  0.388300  0.284000  1.0  -0.183
  C  C245  1  0.070800  0.444000  0.220000  1.0  0.182
  C  C246  1  0.103500  0.495700  0.212800  1.0  -0.2248
  C  C247  1  0.134700  0.504100  0.174300  1.0  -0.0093
  C  C248  1  0.132500  0.461800  0.144500  1.0  -0.0897
  C  C249  1  0.099900  0.412100  0.153100  1.0  -0.0341
  C  C250  1  0.068100  0.402600  0.190300  1.0  -0.2007
  C  C251  1  0.069800  0.446100  0.297400  1.0  0.1866
  C  C252  1  0.138400  0.436300  0.300200  1.0  -0.2273
  C  C253  1  0.169500  0.445300  0.336600  1.0  -0.0419
  C  C254  1  0.137800  0.460900  0.372500  1.0  -0.126
  C  C255  1  0.069200  0.468800  0.370000  1.0  -0.0623
  C  C256  1  0.036500  0.461900  0.332800  1.0  -0.1907
  C  C257  1  0.732900  0.409900  0.300200  1.0  0.1466
  C  C258  1  0.704100  0.355500  0.307100  1.0  -0.1456
  C  C259  1  0.679100  0.341600  0.347000  1.0  -0.1898
  C  C260  1  0.685200  0.381200  0.378100  1.0  0.1277
  C  C261  1  0.715200  0.433400  0.371500  1.0  -0.1488
  C  C262  1  0.737800  0.448200  0.332100  1.0  -0.2082
  C  C263  1  0.675000  0.312300  0.434800  1.0  0.1898
  C  C264  1  0.626600  0.274500  0.449400  1.0  -0.2488
  C  C265  1  0.643700  0.219700  0.461800  1.0  -0.0173
  C  C266  1  0.708300  0.200400  0.460100  1.0  -0.1242
  C  C267  1  0.755800  0.237200  0.446900  1.0  -0.0225
  C  C268  1  0.741100  0.292900  0.434600  1.0  -0.203
  C  C269  1  0.601000  0.393500  0.432000  1.0  0.1945
  C  C270  1  0.585500  0.394800  0.474800  1.0  -0.1919
  C  C271  1  0.526100  0.416300  0.487300  1.0  -0.0284
  C  C272  1  0.481000  0.440300  0.458200  1.0  -0.1159
  C  C273  1  0.500600  0.443800  0.417300  1.0  -0.0267
  C  C274  1  0.561000  0.421400  0.404000  1.0  -0.157
  C  C275  1  0.383500  0.458000  0.062400  1.0  0.6926
  C  C276  1  0.680100  0.131100  0.048200  1.0  0.7145
  C  C277  1  0.162600  0.472400  0.102200  1.0  0.677
  C  C278  1  0.172700  0.471000  0.411700  1.0  0.7106
  C  C279  1  0.724300  0.138000  0.471300  1.0  0.7188
  C  C280  1  0.415700  0.458500  0.471500  1.0  0.7298
  C  C281  1  0.225600  0.093600  0.776500  1.0  0.1904
  C  C282  1  0.158900  0.086900  0.776900  1.0  -0.2062
  C  C283  1  0.122200  0.105700  0.811200  1.0  -0.1248
  C  C284  1  0.151400  0.130900  0.844900  1.0  0.1771
  C  C285  1  0.221100  0.135700  0.843700  1.0  -0.1708
  C  C286  1  0.255100  0.119300  0.810400  1.0  -0.0894
  C  C287  1  0.055300  0.124700  0.890800  1.0  0.1438
  C  C288  1  0.057500  0.065900  0.901800  1.0  -0.2051
  C  C289  1  0.000900  0.040300  0.915800  1.0  -0.0462
  C  C290  1  0.942700  0.069300  0.918800  1.0  -0.1085
  C  C291  1  0.939400  0.127700  0.907400  1.0  -0.0779
  C  C292  1  0.998100  0.153900  0.894100  1.0  -0.187
  C  C293  1  0.129000  0.206300  0.895800  1.0  0.2096
  C  C294  1  0.119000  0.216500  0.939100  1.0  -0.2073
  C  C295  1  0.134600  0.268100  0.956200  1.0  -0.02
  C  C296  1  0.161700  0.313500  0.932500  1.0  -0.1544
  C  C297  1  0.171900  0.303600  0.890100  1.0  -0.028
  C  C298  1  0.155100  0.252300  0.871600  1.0  -0.2246
  C  C299  1  0.330700  0.075200  0.741000  1.0  0.1621
  C  C300  1  0.362500  0.034900  0.766000  1.0  -0.2137
  C  C301  1  0.429600  0.032400  0.766400  1.0  -0.0879
  C  C302  1  0.467000  0.068000  0.741800  1.0  0.1632
  C  C303  1  0.436800  0.106900  0.716900  1.0  -0.145
  C  C304  1  0.368700  0.111700  0.716000  1.0  -0.1821
  C  C305  1  0.570800  0.056000  0.780000  1.0  0.1823
  C  C306  1  0.603500  0.004300  0.787200  1.0  -0.2251
  C  C307  1  0.634700  0.995900  0.825700  1.0  -0.0108
  C  C308  1  0.632500  0.038200  0.855500  1.0  -0.0906
  C  C309  1  0.599900  0.087900  0.846900  1.0  -0.0328
  C  C310  1  0.568100  0.097400  0.809700  1.0  -0.1991
  C  C311  1  0.569800  0.053900  0.702600  1.0  0.1866
  C  C312  1  0.638400  0.063700  0.699800  1.0  -0.228
  C  C313  1  0.669500  0.054700  0.663400  1.0  -0.0421
  C  C314  1  0.637800  0.039100  0.627500  1.0  -0.1243
  C  C315  1  0.569200  0.031200  0.630000  1.0  -0.0612
  C  C316  1  0.536500  0.038100  0.667200  1.0  -0.1912
  C  C317  1  0.232900  0.090100  0.699800  1.0  0.1463
  C  C318  1  0.204100  0.144500  0.692900  1.0  -0.1454
  C  C319  1  0.179100  0.158400  0.653000  1.0  -0.1879
  C  C320  1  0.185200  0.118800  0.621900  1.0  0.127
  C  C321  1  0.215200  0.066600  0.628500  1.0  -0.1472
  C  C322  1  0.237800  0.051800  0.667900  1.0  -0.2087
  C  C323  1  0.175000  0.187700  0.565200  1.0  0.1904
  C  C324  1  0.126600  0.225500  0.550600  1.0  -0.248
  C  C325  1  0.143700  0.280300  0.538200  1.0  -0.0168
  C  C326  1  0.208300  0.299600  0.539900  1.0  -0.1243
  C  C327  1  0.255800  0.262800  0.553100  1.0  -0.0219
  C  C328  1  0.241100  0.207100  0.565400  1.0  -0.2031
  C  C329  1  0.101000  0.106500  0.568000  1.0  0.1938
  C  C330  1  0.085500  0.105200  0.525200  1.0  -0.1917
  C  C331  1  0.026100  0.083700  0.512700  1.0  -0.0283
  C  C332  1  0.981000  0.059700  0.541800  1.0  -0.1166
  C  C333  1  0.000600  0.056200  0.582700  1.0  -0.0262
  C  C334  1  0.061000  0.078600  0.596000  1.0  -0.1567
  C  C335  1  0.883500  0.042000  0.937600  1.0  0.6931
  C  C336  1  0.180100  0.368900  0.951800  1.0  0.7147
  C  C337  1  0.662600  0.027600  0.897800  1.0  0.6776
  C  C338  1  0.672700  0.029000  0.588300  1.0  0.7114
  C  C339  1  0.224300  0.362000  0.528700  1.0  0.7197
  C  C340  1  0.915700  0.041500  0.528500  1.0  0.7294
  C  C341  1  0.274400  0.906400  0.276500  1.0  0.1899
  C  C342  1  0.341100  0.913100  0.276900  1.0  -0.2057
  C  C343  1  0.377800  0.894300  0.311200  1.0  -0.1235
  C  C344  1  0.348600  0.869100  0.344900  1.0  0.1762
  C  C345  1  0.278900  0.864300  0.343700  1.0  -0.173
  C  C346  1  0.244900  0.880700  0.310400  1.0  -0.0872
  C  C347  1  0.444700  0.875300  0.390800  1.0  0.1441
  C  C348  1  0.442500  0.934100  0.401800  1.0  -0.2067
  C  C349  1  0.499100  0.959700  0.415800  1.0  -0.0439
  C  C350  1  0.557300  0.930700  0.418800  1.0  -0.1081
  C  C351  1  0.560600  0.872300  0.407400  1.0  -0.0771
  C  C352  1  0.501900  0.846100  0.394100  1.0  -0.1861
  C  C353  1  0.371000  0.793700  0.395800  1.0  0.2089
  C  C354  1  0.381000  0.783500  0.439100  1.0  -0.2063
  C  C355  1  0.365400  0.731900  0.456200  1.0  -0.0188
  C  C356  1  0.338300  0.686500  0.432500  1.0  -0.1548
  C  C357  1  0.328100  0.696400  0.390100  1.0  -0.026
  C  C358  1  0.344900  0.747700  0.371600  1.0  -0.2234
  C  C359  1  0.169300  0.924800  0.241000  1.0  0.1611
  C  C360  1  0.137500  0.965100  0.266000  1.0  -0.2131
  C  C361  1  0.070400  0.967600  0.266400  1.0  -0.086
  C  C362  1  0.033000  0.932000  0.241800  1.0  0.1636
  C  C363  1  0.063200  0.893100  0.216900  1.0  -0.1492
  C  C364  1  0.131300  0.888300  0.216000  1.0  -0.1809
  C  C365  1  0.929200  0.944000  0.280000  1.0  0.1826
  C  C366  1  0.896500  0.995700  0.287200  1.0  -0.2244
  C  C367  1  0.865300  0.004100  0.325700  1.0  -0.0103
  C  C368  1  0.867500  0.961800  0.355500  1.0  -0.0897
  C  C369  1  0.900100  0.912100  0.346900  1.0  -0.0349
  C  C370  1  0.931900  0.902600  0.309700  1.0  -0.1992
  C  C371  1  0.930200  0.946100  0.202600  1.0  0.187
  C  C372  1  0.861600  0.936300  0.199800  1.0  -0.2283
  C  C373  1  0.830500  0.945300  0.163400  1.0  -0.041
  C  C374  1  0.862200  0.960900  0.127500  1.0  -0.1238
  C  C375  1  0.930800  0.968800  0.130000  1.0  -0.0624
  C  C376  1  0.963500  0.961900  0.167200  1.0  -0.1905
  C  C377  1  0.267100  0.909900  0.199800  1.0  0.1474
  C  C378  1  0.295900  0.855500  0.192900  1.0  -0.1463
  C  C379  1  0.320900  0.841600  0.153000  1.0  -0.1914
  C  C380  1  0.314800  0.881200  0.121900  1.0  0.127
  C  C381  1  0.284800  0.933400  0.128500  1.0  -0.1483
  C  C382  1  0.262200  0.948200  0.167900  1.0  -0.2089
  C  C383  1  0.325000  0.812300  0.065200  1.0  0.1898
  C  C384  1  0.373400  0.774500  0.050600  1.0  -0.2479
  C  C385  1  0.356300  0.719700  0.038200  1.0  -0.0177
  C  C386  1  0.291700  0.700400  0.039900  1.0  -0.1248
  C  C387  1  0.244200  0.737200  0.053100  1.0  -0.0207
  C  C388  1  0.258900  0.792900  0.065400  1.0  -0.2068
  C  C389  1  0.399000  0.893500  0.068000  1.0  0.1942
  C  C390  1  0.414500  0.894800  0.025200  1.0  -0.1902
  C  C391  1  0.473900  0.916300  0.012700  1.0  -0.0286
  C  C392  1  0.519000  0.940300  0.041800  1.0  -0.1148
  C  C393  1  0.499400  0.943800  0.082700  1.0  -0.0259
  C  C394  1  0.439000  0.921400  0.096000  1.0  -0.1575
  C  C395  1  0.616500  0.958000  0.437600  1.0  0.6933
  C  C396  1  0.319900  0.631100  0.451800  1.0  0.7146
  C  C397  1  0.837400  0.972400  0.397800  1.0  0.6774
  C  C398  1  0.827300  0.971000  0.088300  1.0  0.7119
  C  C399  1  0.275700  0.638000  0.028700  1.0  0.7187
  C  C400  1  0.584300  0.958500  0.028500  1.0  0.7288
  N  N401  1  0.738800  0.578000  0.760100  1.0  -0.1538
  N  N402  1  0.884300  0.653500  0.620500  1.0  -0.1342
  N  N403  1  0.461900  0.564300  0.759100  1.0  -0.1501
  N  N404  1  0.840000  0.633900  0.919400  1.0  -0.1951
  N  N405  1  0.761200  0.422000  0.260100  1.0  -0.1528
  N  N406  1  0.615700  0.346500  0.120500  1.0  -0.1342
  N  N407  1  0.038100  0.435700  0.259100  1.0  -0.1499
  N  N408  1  0.660000  0.366100  0.419400  1.0  -0.195
  N  N409  1  0.261200  0.078000  0.739900  1.0  -0.154
  N  N410  1  0.115700  0.153500  0.879500  1.0  -0.1344
  N  N411  1  0.538100  0.064300  0.740900  1.0  -0.1496
  N  N412  1  0.160000  0.133900  0.580600  1.0  -0.1947
  N  N413  1  0.238800  0.922000  0.239900  1.0  -0.1528
  N  N414  1  0.384300  0.846500  0.379500  1.0  -0.1339
  N  N415  1  0.961900  0.935700  0.240900  1.0  -0.1506
  N  N416  1  0.340000  0.866100  0.080600  1.0  -0.1953
  O  O417  1  0.257600  0.510200  0.505590  1.0  -1.2055
  O  O418  1  0.105700  0.499800  0.538890  1.0  -0.5855
  O  O419  1  0.173300  0.562700  0.571600  1.0  -0.6472
  O  O420  1  0.821800  0.874700  0.509140  1.0  -0.6329
  O  O421  1  0.802800  0.908500  0.572700  1.0  -0.5953
  O  O422  1  0.325400  0.474000  0.593830  1.0  -0.5998
  O  O423  1  0.328500  0.567800  0.577900  1.0  -0.6312
  O  O424  1  0.265900  0.527700  0.910940  1.0  -0.5757
  O  O425  1  0.362000  0.523200  0.945000  1.0  -0.6022
  O  O426  1  0.718200  0.877200  0.964800  1.0  -0.5851
  O  O427  1  0.820800  0.890400  0.986930  1.0  -0.5926
  O  O428  1  0.098300  0.546700  0.009890  1.0  -0.5904
  O  O429  1  0.121200  0.521000  0.943980  1.0  -0.5987
  O  O430  1  0.242400  0.489800  0.005590  1.0  -1.2044
  O  O431  1  0.394300  0.500200  0.038890  1.0  -0.5851
  O  O432  1  0.326700  0.437300  0.071600  1.0  -0.647
  O  O433  1  0.678200  0.125300  0.009140  1.0  -0.6333
  O  O434  1  0.697200  0.091500  0.072700  1.0  -0.5948
  O  O435  1  0.174600  0.526000  0.093830  1.0  -0.6016
  O  O436  1  0.171500  0.432200  0.077900  1.0  -0.6313
  O  O437  1  0.234100  0.472300  0.410940  1.0  -0.5765
  O  O438  1  0.138000  0.476800  0.445000  1.0  -0.6018
  O  O439  1  0.781800  0.122800  0.464800  1.0  -0.5863
  O  O440  1  0.679200  0.109600  0.486930  1.0  -0.5931
  O  O441  1  0.401700  0.453300  0.509890  1.0  -0.5893
  O  O442  1  0.378800  0.479000  0.443980  1.0  -0.5996
  O  O443  1  0.742400  0.010200  0.994410  1.0  -1.2055
  O  O444  1  0.894300  0.999800  0.961110  1.0  -0.5849
  O  O445  1  0.826700  0.062700  0.928400  1.0  -0.6468
  O  O446  1  0.178200  0.374700  0.990860  1.0  -0.6349
  O  O447  1  0.197200  0.408500  0.927300  1.0  -0.595
  O  O448  1  0.674600  0.974000  0.906170  1.0  -0.6
  O  O449  1  0.671500  0.067800  0.922100  1.0  -0.632
  O  O450  1  0.734100  0.027700  0.589060  1.0  -0.5767
  O  O451  1  0.638000  0.023200  0.555000  1.0  -0.6007
  O  O452  1  0.281800  0.377200  0.535200  1.0  -0.5857
  O  O453  1  0.179200  0.390400  0.513070  1.0  -0.5925
  O  O454  1  0.901700  0.046700  0.490110  1.0  -0.5883
  O  O455  1  0.878800  0.021000  0.556020  1.0  -0.6005
  O  O456  1  0.757600  0.989800  0.494410  1.0  -1.2043
  O  O457  1  0.605700  0.000200  0.461110  1.0  -0.5855
  O  O458  1  0.673300  0.937300  0.428400  1.0  -0.6468
  O  O459  1  0.321800  0.625300  0.490860  1.0  -0.6337
  O  O460  1  0.302800  0.591500  0.427300  1.0  -0.5951
  O  O461  1  0.825400  0.026000  0.406170  1.0  -0.6011
  O  O462  1  0.828500  0.932200  0.422100  1.0  -0.6319
  O  O463  1  0.765900  0.972300  0.089060  1.0  -0.5759
  O  O464  1  0.862000  0.976800  0.055000  1.0  -0.6006
  O  O465  1  0.218200  0.622800  0.035200  1.0  -0.5855
  O  O466  1  0.320800  0.609600  0.013070  1.0  -0.5928
  O  O467  1  0.598300  0.953300  0.990110  1.0  -0.5896
  O  O468  1  0.621200  0.979000  0.056020  1.0  -0.5996
