# generated using pymatgen
data_LiCdH14C18NO8
_symmetry_space_group_name_H-M   'P 1'
_cell_length_a   6.59090000
_cell_length_b   10.38210000
_cell_length_c   17.69210000
_cell_angle_alpha   92.27870000
_cell_angle_beta   100.73500000
_cell_angle_gamma   77.67490000
_symmetry_Int_Tables_number   1
_chemical_formula_structural   LiCdH14C18NO8
_chemical_formula_sum   'Li2 Cd2 H28 C36 N2 O16'
_cell_volume   1162.02324347
_cell_formula_units_Z   2
loop_
 _symmetry_equiv_pos_site_id
 _symmetry_equiv_pos_as_xyz
  1  'x, y, z'
loop_
 _atom_site_type_symbol
 _atom_site_label
 _atom_site_symmetry_multiplicity
 _atom_site_fract_x
 _atom_site_fract_y
 _atom_site_fract_z
 _atom_site_occupancy
 _atom_site_charge
  Li  Li1  1  0.377070  0.750000  0.754140  1.0  0.9183
  Li  Li2  1  0.622930  0.250000  0.245860  1.0  0.9173
  Cd  Cd3  1  0.879920  0.750000  0.759840  1.0  1.0289
  Cd  Cd4  1  0.120080  0.250000  0.240160  1.0  1.0291
  H  H5  1  0.293400  0.605400  0.580600  1.0  0.1781
  H  H6  1  0.875300  0.470900  0.534000  1.0  0.1245
  H  H7  1  0.314200  0.884800  0.905800  1.0  0.12
  H  H8  1  0.826800  0.039800  0.988600  1.0  0.1051
  H  H9  1  0.287200  0.894600  0.580600  1.0  0.1776
  H  H10  1  0.658700  0.029100  0.534000  1.0  0.1234
  H  H11  1  0.591600  0.615200  0.905800  1.0  0.1199
  H  H12  1  0.161800  0.460200  0.988600  1.0  0.1046
  H  H13  1  0.706600  0.394600  0.419400  1.0  0.1773
  H  H14  1  0.124700  0.529100  0.466000  1.0  0.126
  H  H15  1  0.685800  0.115200  0.094200  1.0  0.1199
  H  H16  1  0.173200  0.960200  0.011400  1.0  0.105
  H  H17  1  0.712800  0.105400  0.419400  1.0  0.178
  H  H18  1  0.341300  0.970900  0.466000  1.0  0.1251
  H  H19  1  0.408400  0.384800  0.094200  1.0  0.1203
  H  H20  1  0.838200  0.539800  0.011400  1.0  0.1052
  H  H21  1  0.737000  0.882600  0.239600  1.0  0.1454
  H  H22  1  0.601700  0.933400  0.303000  1.0  0.136
  H  H23  1  0.491700  0.894200  0.221400  1.0  0.1206
  H  H24  1  0.502600  0.617400  0.239600  1.0  0.1491
  H  H25  1  0.701300  0.566600  0.303000  1.0  0.1353
  H  H26  1  0.729700  0.605800  0.221400  1.0  0.1224
  H  H27  1  0.263000  0.117400  0.760400  1.0  0.1471
  H  H28  1  0.398300  0.066600  0.697000  1.0  0.1365
  H  H29  1  0.508300  0.105800  0.778600  1.0  0.1202
  H  H30  1  0.497400  0.382600  0.760400  1.0  0.1477
  H  H31  1  0.298700  0.433400  0.697000  1.0  0.1348
  H  H32  1  0.270300  0.394200  0.778600  1.0  0.1219
  C  C33  1  0.680940  0.602400  0.646080  1.0  0.6615
  C  C34  1  0.585030  0.548900  0.570260  1.0  -0.1356
  C  C35  1  0.368580  0.565000  0.548760  1.0  -0.0917
  C  C36  1  0.716890  0.483900  0.520980  1.0  -0.1007
  C  C37  1  0.688020  0.895300  0.869240  1.0  0.6607
  C  C38  1  0.588310  0.950710  0.936220  1.0  -0.1138
  C  C39  1  0.394150  0.927200  0.944700  1.0  -0.0429
  C  C40  1  0.692720  0.024500  0.991840  1.0  -0.0243
  C  C41  1  0.965140  0.897600  0.646080  1.0  0.6639
  C  C42  1  0.985230  0.951100  0.570260  1.0  -0.1355
  C  C43  1  0.180180  0.935000  0.548760  1.0  -0.093
  C  C44  1  0.804090  0.016100  0.520980  1.0  -0.0999
  C  C45  1  0.181220  0.604700  0.869240  1.0  0.6582
  C  C46  1  0.347910  0.549290  0.936220  1.0  -0.1124
  C  C47  1  0.550550  0.572800  0.944700  1.0  -0.0439
  C  C48  1  0.299120  0.475500  0.991840  1.0  -0.0252
  C  C49  1  0.319060  0.397600  0.353920  1.0  0.6629
  C  C50  1  0.414970  0.451100  0.429740  1.0  -0.1369
  C  C51  1  0.631420  0.435000  0.451240  1.0  -0.0925
  C  C52  1  0.283110  0.516100  0.479020  1.0  -0.1007
  C  C53  1  0.311980  0.104700  0.130760  1.0  0.6601
  C  C54  1  0.411690  0.049290  0.063780  1.0  -0.1146
  C  C55  1  0.605850  0.072800  0.055300  1.0  -0.0429
  C  C56  1  0.307280  0.975500  0.008160  1.0  -0.0239
  C  C57  1  0.034860  0.102400  0.353920  1.0  0.6644
  C  C58  1  0.014770  0.048900  0.429740  1.0  -0.1342
  C  C59  1  0.819820  0.065000  0.451240  1.0  -0.0929
  C  C60  1  0.195910  0.983900  0.479020  1.0  -0.0997
  C  C61  1  0.818780  0.395300  0.130760  1.0  0.6597
  C  C62  1  0.652090  0.450710  0.063780  1.0  -0.1116
  C  C63  1  0.449450  0.427200  0.055300  1.0  -0.0426
  C  C64  1  0.700880  0.524500  0.008160  1.0  -0.025
  C  C65  1  0.616200  0.873800  0.260400  1.0  -0.063
  C  C66  1  0.644200  0.626200  0.260400  1.0  -0.0633
  C  C67  1  0.383800  0.126200  0.739600  1.0  -0.0633
  C  C68  1  0.355800  0.373800  0.739600  1.0  -0.0634
  N  N69  1  0.642380  0.750000  0.284760  1.0  -0.2491
  N  N70  1  0.357620  0.250000  0.715240  1.0  -0.2449
  O  O71  1  0.875810  0.597500  0.660020  1.0  -0.5833
  O  O72  1  0.561860  0.650800  0.691320  1.0  -0.6893
  O  O73  1  0.585720  0.832970  0.818240  1.0  -0.6794
  O  O74  1  0.868500  0.909920  0.865000  1.0  -0.58
  O  O75  1  0.784210  0.902500  0.660020  1.0  -0.5812
  O  O76  1  0.129460  0.849200  0.691320  1.0  -0.6888
  O  O77  1  0.232520  0.667030  0.818240  1.0  -0.6788
  O  O78  1  0.996500  0.590080  0.865000  1.0  -0.5821
  O  O79  1  0.124190  0.402500  0.339980  1.0  -0.5833
  O  O80  1  0.438140  0.349200  0.308680  1.0  -0.6909
  O  O81  1  0.414280  0.167030  0.181760  1.0  -0.6806
  O  O82  1  0.131500  0.090080  0.135000  1.0  -0.5803
  O  O83  1  0.215790  0.097500  0.339980  1.0  -0.5817
  O  O84  1  0.870540  0.150800  0.308680  1.0  -0.6899
  O  O85  1  0.767480  0.332970  0.181760  1.0  -0.678
  O  O86  1  0.003500  0.409920  0.135000  1.0  -0.581
