# generated using pymatgen
data_Li2Cd3H48(C3O)16
_symmetry_space_group_name_H-M   'P 1'
_cell_length_a   9.68920000
_cell_length_b   17.68100000
_cell_length_c   21.15800000
_cell_angle_alpha   90.00000000
_cell_angle_beta   90.00000000
_cell_angle_gamma   105.42600000
_symmetry_Int_Tables_number   1
_chemical_formula_structural   Li2Cd3H48(C3O)16
_chemical_formula_sum   'Li4 Cd6 H96 C96 O32'
_cell_volume   3494.09764937
_cell_formula_units_Z   2
loop_
 _symmetry_equiv_pos_site_id
 _symmetry_equiv_pos_as_xyz
  1  'x, y, z'
loop_
 _atom_site_type_symbol
 _atom_site_label
 _atom_site_symmetry_multiplicity
 _atom_site_fract_x
 _atom_site_fract_y
 _atom_site_fract_z
 _atom_site_occupancy
 _atom_site_charge
  Li  Li1  1  0.976900  0.492100  0.285400  1.0  0.9595
  Li  Li2  1  0.523100  0.007900  0.785400  1.0  0.9568
  Li  Li3  1  0.023100  0.507900  0.714600  1.0  0.9575
  Li  Li4  1  0.476900  0.992100  0.214600  1.0  0.9604
  Cd  Cd5  1  0.424380  0.925710  0.647380  1.0  1.0868
  Cd  Cd6  1  0.075620  0.574290  0.147380  1.0  1.0865
  Cd  Cd7  1  0.575620  0.074290  0.352620  1.0  1.0851
  Cd  Cd8  1  0.924380  0.425710  0.852620  1.0  1.0847
  Cd  Cd9  1  0.500000  0.000000  0.500000  1.0  1.2359
  Cd  Cd10  1  0.000000  0.500000  0.000000  1.0  1.2359
  H  H11  1  0.663000  0.859000  0.463400  1.0  0.0945
  H  H12  1  0.092000  0.875000  0.444100  1.0  0.0963
  H  H13  1  0.936000  0.926000  0.607300  1.0  0.1037
  H  H14  1  0.673600  0.863200  0.355800  1.0  0.1133
  H  H15  1  0.642800  0.775100  0.376100  1.0  0.1121
  H  H16  1  0.699200  0.800700  0.307800  1.0  0.1122
  H  H17  1  0.842400  0.715700  0.393000  1.0  0.0996
  H  H18  1  0.999000  0.767900  0.382700  1.0  0.1028
  H  H19  1  0.897800  0.740700  0.324500  1.0  0.1159
  H  H20  1  0.924500  0.938200  0.332800  1.0  0.1177
  H  H21  1  0.945700  0.870200  0.289400  1.0  0.1087
  H  H22  1  0.047000  0.898000  0.347500  1.0  0.1137
  H  H23  1  0.302000  0.807000  0.265100  1.0  0.1039
  H  H24  1  0.379000  0.819000  0.456000  1.0  0.1059
  H  H25  1  0.161000  0.613000  0.372000  1.0  0.0719
  H  H26  1  0.116800  0.725200  0.530100  1.0  0.1128
  H  H27  1  0.277000  0.773800  0.536800  1.0  0.1208
  H  H28  1  0.216900  0.699500  0.579100  1.0  0.1161
  H  H29  1  0.407800  0.646500  0.549400  1.0  0.1116
  H  H30  1  0.470600  0.723200  0.510100  1.0  0.1215
  H  H31  1  0.447300  0.640800  0.478000  1.0  0.1064
  H  H32  1  0.066400  0.592300  0.478700  1.0  0.1103
  H  H33  1  0.161200  0.570700  0.532200  1.0  0.1072
  H  H34  1  0.197100  0.559800  0.461100  1.0  0.1061
  H  H35  1  0.837000  0.641000  0.963400  1.0  0.0945
  H  H36  1  0.408000  0.625000  0.944100  1.0  0.0969
  H  H37  1  0.564000  0.574000  0.107300  1.0  0.1041
  H  H38  1  0.826400  0.636800  0.855800  1.0  0.1126
  H  H39  1  0.857200  0.724900  0.876100  1.0  0.1111
  H  H40  1  0.800800  0.699300  0.807800  1.0  0.1147
  H  H41  1  0.657600  0.784300  0.893000  1.0  0.0998
  H  H42  1  0.501000  0.732100  0.882700  1.0  0.1017
  H  H43  1  0.602200  0.759300  0.824500  1.0  0.1171
  H  H44  1  0.575500  0.561800  0.832800  1.0  0.116
  H  H45  1  0.554300  0.629800  0.789400  1.0  0.109
  H  H46  1  0.453000  0.602000  0.847500  1.0  0.1126
  H  H47  1  0.198000  0.693000  0.765100  1.0  0.1041
  H  H48  1  0.121000  0.681000  0.956000  1.0  0.1064
  H  H49  1  0.339000  0.887000  0.872000  1.0  0.0716
  H  H50  1  0.383200  0.774800  0.030100  1.0  0.1116
  H  H51  1  0.223000  0.726200  0.036800  1.0  0.1234
  H  H52  1  0.283100  0.800500  0.079100  1.0  0.1153
  H  H53  1  0.092200  0.853500  0.049400  1.0  0.1113
  H  H54  1  0.029400  0.776800  0.010100  1.0  0.1209
  H  H55  1  0.052700  0.859200  0.978000  1.0  0.1064
  H  H56  1  0.433600  0.907700  0.978700  1.0  0.1105
  H  H57  1  0.338800  0.929300  0.032200  1.0  0.1066
  H  H58  1  0.302900  0.940200  0.961100  1.0  0.1074
  H  H59  1  0.337000  0.141000  0.536600  1.0  0.0943
  H  H60  1  0.908000  0.125000  0.555900  1.0  0.0968
  H  H61  1  0.064000  0.074000  0.392700  1.0  0.1033
  H  H62  1  0.326400  0.136800  0.644200  1.0  0.1128
  H  H63  1  0.357200  0.224900  0.623900  1.0  0.1122
  H  H64  1  0.300800  0.199300  0.692200  1.0  0.1147
  H  H65  1  0.157600  0.284300  0.607000  1.0  0.1004
  H  H66  1  0.001000  0.232100  0.617300  1.0  0.1016
  H  H67  1  0.102200  0.259300  0.675500  1.0  0.1165
  H  H68  1  0.075500  0.061800  0.667200  1.0  0.1162
  H  H69  1  0.054300  0.129800  0.710600  1.0  0.1086
  H  H70  1  0.953000  0.102000  0.652500  1.0  0.1138
  H  H71  1  0.698000  0.193000  0.734900  1.0  0.1017
  H  H72  1  0.621000  0.181000  0.544000  1.0  0.106
  H  H73  1  0.839000  0.387000  0.628000  1.0  0.0711
  H  H74  1  0.883200  0.274800  0.469900  1.0  0.1135
  H  H75  1  0.723000  0.226200  0.463200  1.0  0.1215
  H  H76  1  0.783100  0.300500  0.420900  1.0  0.115
  H  H77  1  0.592200  0.353500  0.450600  1.0  0.1111
  H  H78  1  0.529400  0.276800  0.489900  1.0  0.1214
  H  H79  1  0.552700  0.359200  0.522000  1.0  0.1069
  H  H80  1  0.933600  0.407700  0.521300  1.0  0.1107
  H  H81  1  0.838800  0.429300  0.467800  1.0  0.1066
  H  H82  1  0.802900  0.440200  0.538900  1.0  0.107
  H  H83  1  0.163000  0.359000  0.036600  1.0  0.094
  H  H84  1  0.592000  0.375000  0.055900  1.0  0.0964
  H  H85  1  0.436000  0.426000  0.892700  1.0  0.1029
  H  H86  1  0.173600  0.363200  0.144200  1.0  0.1134
  H  H87  1  0.142800  0.275100  0.123900  1.0  0.1131
  H  H88  1  0.199200  0.300700  0.192200  1.0  0.114
  H  H89  1  0.342400  0.215700  0.107000  1.0  0.0992
  H  H90  1  0.499000  0.267900  0.117300  1.0  0.1031
  H  H91  1  0.397800  0.240700  0.175500  1.0  0.1165
  H  H92  1  0.424500  0.438200  0.167200  1.0  0.1168
  H  H93  1  0.445700  0.370200  0.210600  1.0  0.1084
  H  H94  1  0.547000  0.398000  0.152500  1.0  0.1121
  H  H95  1  0.802000  0.307000  0.234900  1.0  0.1016
  H  H96  1  0.879000  0.319000  0.044000  1.0  0.1058
  H  H97  1  0.661000  0.113000  0.128000  1.0  0.0717
  H  H98  1  0.616800  0.225200  0.969900  1.0  0.112
  H  H99  1  0.777000  0.273800  0.963200  1.0  0.1188
  H  H100  1  0.716900  0.199500  0.920900  1.0  0.1149
  H  H101  1  0.907800  0.146500  0.950600  1.0  0.1125
  H  H102  1  0.970600  0.223200  0.989900  1.0  0.1222
  H  H103  1  0.947300  0.140800  0.022000  1.0  0.1069
  H  H104  1  0.566400  0.092300  0.021300  1.0  0.1105
  H  H105  1  0.661200  0.070700  0.967800  1.0  0.1061
  H  H106  1  0.697100  0.059800  0.038900  1.0  0.1065
  C  C107  1  0.656100  0.897690  0.583180  1.0  0.6813
  C  C108  1  0.779700  0.890970  0.542980  1.0  -0.1484
  C  C109  1  0.757200  0.866470  0.480220  1.0  -0.1031
  C  C110  1  0.870400  0.859000  0.442000  1.0  0.0067
  C  C111  1  0.006800  0.879700  0.468370  1.0  -0.0739
  C  C112  1  0.030900  0.904130  0.530880  1.0  -0.1551
  C  C113  1  0.916400  0.909110  0.568530  1.0  0.0091
  C  C114  1  0.182200  0.925010  0.555100  1.0  0.7066
  C  C115  1  0.849500  0.830000  0.373560  1.0  0.2482
  C  C116  1  0.704200  0.816100  0.351500  1.0  -0.4033
  C  C117  1  0.902000  0.756900  0.367900  1.0  -0.386
  C  C118  1  0.951000  0.889600  0.332000  1.0  -0.3828
  C  C119  1  0.165900  0.659000  0.252320  1.0  0.734
  C  C120  1  0.225200  0.705190  0.310350  1.0  -0.1535
  C  C121  1  0.291700  0.784470  0.304870  1.0  0.0221
  C  C122  1  0.348100  0.827230  0.358280  1.0  -0.1693
  C  C123  1  0.335300  0.790420  0.417260  1.0  -0.0552
  C  C124  1  0.267300  0.710990  0.423790  1.0  -0.0028
  C  C125  1  0.213000  0.669060  0.369060  1.0  -0.075
  C  C126  1  0.426900  0.913390  0.351490  1.0  0.7565
  C  C127  1  0.255000  0.672000  0.489060  1.0  0.2287
  C  C128  1  0.212600  0.722100  0.538100  1.0  -0.3862
  C  C129  1  0.410200  0.670500  0.508500  1.0  -0.3775
  C  C130  1  0.161900  0.591800  0.490400  1.0  -0.3848
  C  C131  1  0.843900  0.602310  0.083180  1.0  0.6806
  C  C132  1  0.720300  0.609030  0.042980  1.0  -0.1482
  C  C133  1  0.742800  0.633530  0.980220  1.0  -0.1015
  C  C134  1  0.629600  0.641000  0.942000  1.0  0.007
  C  C135  1  0.493200  0.620300  0.968370  1.0  -0.0755
  C  C136  1  0.469100  0.595870  0.030880  1.0  -0.1549
  C  C137  1  0.583600  0.590890  0.068530  1.0  0.0096
  C  C138  1  0.317800  0.574990  0.055100  1.0  0.705
  C  C139  1  0.650500  0.670000  0.873560  1.0  0.248
  C  C140  1  0.795800  0.683900  0.851500  1.0  -0.4021
  C  C141  1  0.598000  0.743100  0.867900  1.0  -0.3867
  C  C142  1  0.549000  0.610400  0.832000  1.0  -0.3819
  C  C143  1  0.334100  0.841000  0.752320  1.0  0.7338
  C  C144  1  0.274800  0.794810  0.810350  1.0  -0.1525
  C  C145  1  0.208300  0.715530  0.804870  1.0  0.0225
  C  C146  1  0.151900  0.672770  0.858280  1.0  -0.1697
  C  C147  1  0.164700  0.709580  0.917260  1.0  -0.0538
  C  C148  1  0.232700  0.789010  0.923790  1.0  -0.003
  C  C149  1  0.287000  0.830940  0.869060  1.0  -0.0804
  C  C150  1  0.073100  0.586610  0.851490  1.0  0.7463
  C  C151  1  0.245000  0.828000  0.989060  1.0  0.2287
  C  C152  1  0.287400  0.777900  0.038100  1.0  -0.3856
  C  C153  1  0.089800  0.829500  0.008500  1.0  -0.3791
  C  C154  1  0.338100  0.908200  0.990400  1.0  -0.3862
  C  C155  1  0.343900  0.102310  0.416820  1.0  0.6792
  C  C156  1  0.220300  0.109030  0.457020  1.0  -0.1505
  C  C157  1  0.242800  0.133530  0.519780  1.0  -0.1005
  C  C158  1  0.129600  0.141000  0.558000  1.0  0.0073
  C  C159  1  0.993200  0.120300  0.531630  1.0  -0.0758
  C  C160  1  0.969100  0.095870  0.469120  1.0  -0.1571
  C  C161  1  0.083600  0.090890  0.431470  1.0  0.0097
  C  C162  1  0.817800  0.074990  0.444900  1.0  0.7054
  C  C163  1  0.150500  0.170000  0.626440  1.0  0.2477
  C  C164  1  0.295800  0.183900  0.648500  1.0  -0.4022
  C  C165  1  0.098000  0.243100  0.632100  1.0  -0.3861
  C  C166  1  0.049000  0.110400  0.668000  1.0  -0.3824
  C  C167  1  0.834100  0.341000  0.747680  1.0  0.7351
  C  C168  1  0.774800  0.294810  0.689650  1.0  -0.154
  C  C169  1  0.708300  0.215530  0.695130  1.0  0.0211
  C  C170  1  0.651900  0.172770  0.641720  1.0  -0.1662
  C  C171  1  0.664700  0.209580  0.582740  1.0  -0.055
  C  C172  1  0.732700  0.289010  0.576210  1.0  -0.0044
  C  C173  1  0.787000  0.330940  0.630940  1.0  -0.0765
  C  C174  1  0.573100  0.086610  0.648510  1.0  0.7611
  C  C175  1  0.745000  0.328000  0.510940  1.0  0.2272
  C  C176  1  0.787400  0.277900  0.461900  1.0  -0.3843
  C  C177  1  0.589800  0.329500  0.491500  1.0  -0.3785
  C  C178  1  0.838100  0.408200  0.509600  1.0  -0.3858
  C  C179  1  0.156100  0.397690  0.916820  1.0  0.6801
  C  C180  1  0.279700  0.390970  0.957020  1.0  -0.1507
  C  C181  1  0.257200  0.366470  0.019780  1.0  -0.1019
  C  C182  1  0.370400  0.359000  0.058000  1.0  0.007
  C  C183  1  0.506800  0.379700  0.031630  1.0  -0.0744
  C  C184  1  0.530900  0.404130  0.969120  1.0  -0.1587
  C  C185  1  0.416400  0.409110  0.931470  1.0  0.0096
  C  C186  1  0.682200  0.425010  0.944900  1.0  0.7053
  C  C187  1  0.349500  0.330000  0.126440  1.0  0.247
  C  C188  1  0.204200  0.316100  0.148500  1.0  -0.4035
  C  C189  1  0.402000  0.256900  0.132100  1.0  -0.3853
  C  C190  1  0.451000  0.389600  0.168000  1.0  -0.3822
  C  C191  1  0.665900  0.159000  0.247680  1.0  0.7356
  C  C192  1  0.725200  0.205190  0.189650  1.0  -0.1514
  C  C193  1  0.791700  0.284470  0.195130  1.0  0.0216
  C  C194  1  0.848100  0.327230  0.141720  1.0  -0.1681
  C  C195  1  0.835300  0.290420  0.082740  1.0  -0.0553
  C  C196  1  0.767300  0.210990  0.076210  1.0  -0.0046
  C  C197  1  0.713000  0.169060  0.130940  1.0  -0.0747
  C  C198  1  0.926900  0.413390  0.148510  1.0  0.7655
  C  C199  1  0.755000  0.172000  0.010940  1.0  0.2275
  C  C200  1  0.712600  0.222100  0.961900  1.0  -0.3858
  C  C201  1  0.910200  0.170500  0.991500  1.0  -0.3781
  C  C202  1  0.661900  0.091800  0.009600  1.0  -0.3845
  O  O203  1  0.536100  0.894940  0.555690  1.0  -0.6885
  O  O204  1  0.668900  0.905850  0.641250  1.0  -0.5885
  O  O205  1  0.203500  0.924280  0.612900  1.0  -0.6008
  O  O206  1  0.276600  0.940250  0.512740  1.0  -0.6321
  O  O207  1  0.171400  0.692790  0.200260  1.0  -0.5765
  O  O208  1  0.113800  0.585800  0.257110  1.0  -0.8394
  O  O209  1  0.434100  0.944140  0.299040  1.0  -0.7956
  O  O210  1  0.488700  0.949330  0.398990  1.0  -0.6628
  O  O211  1  0.963900  0.605060  0.055690  1.0  -0.6894
  O  O212  1  0.831100  0.594150  0.141250  1.0  -0.5893
  O  O213  1  0.296500  0.575720  0.112900  1.0  -0.5994
  O  O214  1  0.223400  0.559750  0.012740  1.0  -0.6299
  O  O215  1  0.328600  0.807210  0.700260  1.0  -0.5778
  O  O216  1  0.386200  0.914200  0.757110  1.0  -0.8403
  O  O217  1  0.065900  0.555860  0.799040  1.0  -0.7916
  O  O218  1  0.011300  0.550670  0.898990  1.0  -0.6626
  O  O219  1  0.463900  0.105060  0.444310  1.0  -0.6899
  O  O220  1  0.331100  0.094150  0.358750  1.0  -0.5877
  O  O221  1  0.796500  0.075720  0.387100  1.0  -0.6004
  O  O222  1  0.723400  0.059750  0.487260  1.0  -0.6311
  O  O223  1  0.828600  0.307210  0.799740  1.0  -0.5788
  O  O224  1  0.886200  0.414200  0.742890  1.0  -0.8398
  O  O225  1  0.565900  0.055860  0.700960  1.0  -0.7809
  O  O226  1  0.511300  0.050670  0.601010  1.0  -0.6623
  O  O227  1  0.036100  0.394940  0.944310  1.0  -0.6891
  O  O228  1  0.168900  0.405850  0.858750  1.0  -0.5868
  O  O229  1  0.703500  0.424280  0.887100  1.0  -0.6013
  O  O230  1  0.776600  0.440250  0.987260  1.0  -0.6329
  O  O231  1  0.671400  0.192790  0.299740  1.0  -0.578
  O  O232  1  0.613800  0.085800  0.242890  1.0  -0.839
  O  O233  1  0.934100  0.444140  0.200960  1.0  -0.7892
  O  O234  1  0.988700  0.449330  0.101010  1.0  -0.6627
