# generated using pymatgen
data_LiCdH16(C14O5)2
_symmetry_space_group_name_H-M   'P 1'
_cell_length_a   23.30330000
_cell_length_b   23.30330000
_cell_length_c   6.57880000
_cell_angle_alpha   90.00000000
_cell_angle_beta   90.00000000
_cell_angle_gamma   90.00000000
_symmetry_Int_Tables_number   1
_chemical_formula_structural   LiCdH16(C14O5)2
_chemical_formula_sum   'Li4 Cd4 H64 C112 O40'
_cell_volume   3572.57649151
_cell_formula_units_Z   4
loop_
 _symmetry_equiv_pos_site_id
 _symmetry_equiv_pos_as_xyz
  1  'x, y, z'
loop_
 _atom_site_type_symbol
 _atom_site_label
 _atom_site_symmetry_multiplicity
 _atom_site_fract_x
 _atom_site_fract_y
 _atom_site_fract_z
 _atom_site_occupancy
 _atom_site_charge
  Li  Li1  1  0.000000  0.500000  0.250000  1.0  0.8791
  Li  Li2  1  0.500000  0.000000  0.750000  1.0  0.8791
  Li  Li3  1  0.500000  0.500000  0.500000  1.0  0.8791
  Li  Li4  1  0.000000  0.000000  0.000000  1.0  0.8791
  Cd  Cd5  1  0.000000  0.500000  0.750000  1.0  1.0283
  Cd  Cd6  1  0.500000  0.000000  0.250000  1.0  1.0283
  Cd  Cd7  1  0.500000  0.500000  0.000000  1.0  1.0283
  Cd  Cd8  1  0.000000  0.000000  0.500000  1.0  1.0283
  H  H9  1  0.844600  0.644700  0.657300  1.0  0.1098
  H  H10  1  0.796600  0.716600  0.487800  1.0  0.1207
  H  H11  1  0.888700  0.682300  0.989200  1.0  0.1225
  H  H12  1  0.938100  0.612900  0.161600  1.0  0.1057
  H  H13  1  0.344600  0.144700  0.157300  1.0  0.1098
  H  H14  1  0.296600  0.216600  0.987800  1.0  0.1207
  H  H15  1  0.388700  0.182300  0.489200  1.0  0.1225
  H  H16  1  0.438100  0.112900  0.661600  1.0  0.1057
  H  H17  1  0.155400  0.355300  0.657300  1.0  0.1098
  H  H18  1  0.203400  0.283400  0.487800  1.0  0.1213
  H  H19  1  0.111300  0.317700  0.989200  1.0  0.1229
  H  H20  1  0.061900  0.387100  0.161600  1.0  0.1052
  H  H21  1  0.655400  0.855300  0.157300  1.0  0.1098
  H  H22  1  0.703400  0.783400  0.987800  1.0  0.1213
  H  H23  1  0.611300  0.817700  0.489200  1.0  0.1229
  H  H24  1  0.561900  0.887100  0.661600  1.0  0.1052
  H  H25  1  0.644700  0.155400  0.342700  1.0  0.1101
  H  H26  1  0.716600  0.203400  0.512200  1.0  0.1213
  H  H27  1  0.682300  0.111300  0.010800  1.0  0.1219
  H  H28  1  0.612900  0.061900  0.838400  1.0  0.1052
  H  H29  1  0.144700  0.655400  0.842700  1.0  0.1101
  H  H30  1  0.216600  0.703400  0.012200  1.0  0.1213
  H  H31  1  0.182300  0.611300  0.510800  1.0  0.1219
  H  H32  1  0.112900  0.561900  0.338400  1.0  0.1052
  H  H33  1  0.355300  0.844600  0.342700  1.0  0.1097
  H  H34  1  0.283400  0.796600  0.512200  1.0  0.1213
  H  H35  1  0.317700  0.888700  0.010800  1.0  0.1225
  H  H36  1  0.387100  0.938100  0.838400  1.0  0.105
  H  H37  1  0.855300  0.344600  0.842700  1.0  0.1097
  H  H38  1  0.783400  0.296600  0.012200  1.0  0.1213
  H  H39  1  0.817700  0.388700  0.510800  1.0  0.1225
  H  H40  1  0.887100  0.438100  0.338400  1.0  0.105
  H  H41  1  0.655400  0.644700  0.092700  1.0  0.1098
  H  H42  1  0.703400  0.716600  0.262200  1.0  0.121
  H  H43  1  0.611300  0.682300  0.760800  1.0  0.1225
  H  H44  1  0.561900  0.612900  0.588400  1.0  0.1051
  H  H45  1  0.155400  0.144700  0.592700  1.0  0.1098
  H  H46  1  0.203400  0.216600  0.762200  1.0  0.121
  H  H47  1  0.111300  0.182300  0.260800  1.0  0.1225
  H  H48  1  0.061900  0.112900  0.088400  1.0  0.1051
  H  H49  1  0.344600  0.355300  0.092700  1.0  0.1098
  H  H50  1  0.296600  0.283400  0.262200  1.0  0.121
  H  H51  1  0.388700  0.317700  0.760800  1.0  0.1229
  H  H52  1  0.438100  0.387100  0.588400  1.0  0.105
  H  H53  1  0.844600  0.855300  0.592700  1.0  0.1098
  H  H54  1  0.796600  0.783400  0.762200  1.0  0.121
  H  H55  1  0.888700  0.817700  0.260800  1.0  0.1229
  H  H56  1  0.938100  0.887100  0.088400  1.0  0.105
  H  H57  1  0.855300  0.155400  0.407300  1.0  0.1095
  H  H58  1  0.783400  0.203400  0.237800  1.0  0.121
  H  H59  1  0.817700  0.111300  0.739200  1.0  0.1221
  H  H60  1  0.887100  0.061900  0.911600  1.0  0.1055
  H  H61  1  0.355300  0.655400  0.907300  1.0  0.1095
  H  H62  1  0.283400  0.703400  0.737800  1.0  0.121
  H  H63  1  0.317700  0.611300  0.239200  1.0  0.1221
  H  H64  1  0.387100  0.561900  0.411600  1.0  0.1055
  H  H65  1  0.144700  0.844600  0.407300  1.0  0.1101
  H  H66  1  0.216600  0.796600  0.237800  1.0  0.1213
  H  H67  1  0.182300  0.888700  0.739200  1.0  0.1219
  H  H68  1  0.112900  0.938100  0.911600  1.0  0.1055
  H  H69  1  0.644700  0.344600  0.907300  1.0  0.1101
  H  H70  1  0.716600  0.296600  0.737800  1.0  0.1213
  H  H71  1  0.682300  0.388700  0.239200  1.0  0.1219
  H  H72  1  0.612900  0.438100  0.411600  1.0  0.1055
  C  C73  1  0.929170  0.578100  0.547200  1.0  0.7172
  C  C74  1  0.897880  0.622540  0.427600  1.0  -0.1552
  C  C75  1  0.854300  0.653200  0.523600  1.0  -0.0375
  C  C76  1  0.825500  0.696200  0.422300  1.0  -0.2137
  C  C77  1  0.839300  0.708670  0.227500  1.0  0.3015
  C  C78  1  0.880900  0.675600  0.125900  1.0  -0.1456
  C  C79  1  0.909890  0.633890  0.228100  1.0  -0.0038
  C  C80  1  0.429170  0.078100  0.047200  1.0  0.7172
  C  C81  1  0.397880  0.122540  0.927600  1.0  -0.1552
  C  C82  1  0.354300  0.153200  0.023600  1.0  -0.0375
  C  C83  1  0.325500  0.196200  0.922300  1.0  -0.2137
  C  C84  1  0.339300  0.208670  0.727500  1.0  0.3015
  C  C85  1  0.380900  0.175600  0.625900  1.0  -0.1456
  C  C86  1  0.409890  0.133890  0.728100  1.0  -0.0038
  C  C87  1  0.070830  0.421900  0.547200  1.0  0.7176
  C  C88  1  0.102120  0.377460  0.427600  1.0  -0.1555
  C  C89  1  0.145700  0.346800  0.523600  1.0  -0.0364
  C  C90  1  0.174500  0.303800  0.422300  1.0  -0.2136
  C  C91  1  0.160700  0.291330  0.227500  1.0  0.301
  C  C92  1  0.119100  0.324400  0.125900  1.0  -0.1458
  C  C93  1  0.090110  0.366110  0.228100  1.0  -0.0021
  C  C94  1  0.570830  0.921900  0.047200  1.0  0.7176
  C  C95  1  0.602120  0.877460  0.927600  1.0  -0.1555
  C  C96  1  0.645700  0.846800  0.023600  1.0  -0.0364
  C  C97  1  0.674500  0.803800  0.922300  1.0  -0.2136
  C  C98  1  0.660700  0.791330  0.727500  1.0  0.301
  C  C99  1  0.619100  0.824400  0.625900  1.0  -0.1458
  C  C100  1  0.590110  0.866110  0.728100  1.0  -0.0021
  C  C101  1  0.578100  0.070830  0.452800  1.0  0.7179
  C  C102  1  0.622540  0.102120  0.572400  1.0  -0.1576
  C  C103  1  0.653200  0.145700  0.476400  1.0  -0.0355
  C  C104  1  0.696200  0.174500  0.577700  1.0  -0.2136
  C  C105  1  0.708670  0.160700  0.772500  1.0  0.3018
  C  C106  1  0.675600  0.119100  0.874100  1.0  -0.1447
  C  C107  1  0.633890  0.090110  0.771900  1.0  -0.0033
  C  C108  1  0.078100  0.570830  0.952800  1.0  0.7179
  C  C109  1  0.122540  0.602120  0.072400  1.0  -0.1576
  C  C110  1  0.153200  0.645700  0.976400  1.0  -0.0355
  C  C111  1  0.196200  0.674500  0.077700  1.0  -0.2136
  C  C112  1  0.208670  0.660700  0.272500  1.0  0.3018
  C  C113  1  0.175600  0.619100  0.374100  1.0  -0.1447
  C  C114  1  0.133890  0.590110  0.271900  1.0  -0.0033
  C  C115  1  0.421900  0.929170  0.452800  1.0  0.7176
  C  C116  1  0.377460  0.897880  0.572400  1.0  -0.1576
  C  C117  1  0.346800  0.854300  0.476400  1.0  -0.0355
  C  C118  1  0.303800  0.825500  0.577700  1.0  -0.2138
  C  C119  1  0.291330  0.839300  0.772500  1.0  0.3016
  C  C120  1  0.324400  0.880900  0.874100  1.0  -0.1458
  C  C121  1  0.366110  0.909890  0.771900  1.0  -0.0036
  C  C122  1  0.921900  0.429170  0.952800  1.0  0.7176
  C  C123  1  0.877460  0.397880  0.072400  1.0  -0.1576
  C  C124  1  0.846800  0.354300  0.976400  1.0  -0.0355
  C  C125  1  0.803800  0.325500  0.077700  1.0  -0.2138
  C  C126  1  0.791330  0.339300  0.272500  1.0  0.3016
  C  C127  1  0.824400  0.380900  0.374100  1.0  -0.1458
  C  C128  1  0.866110  0.409890  0.271900  1.0  -0.0036
  C  C129  1  0.570830  0.578100  0.202800  1.0  0.718
  C  C130  1  0.602120  0.622540  0.322400  1.0  -0.156
  C  C131  1  0.645700  0.653200  0.226400  1.0  -0.0365
  C  C132  1  0.674500  0.696200  0.327700  1.0  -0.2126
  C  C133  1  0.660700  0.708670  0.522500  1.0  0.3016
  C  C134  1  0.619100  0.675600  0.624100  1.0  -0.1456
  C  C135  1  0.590110  0.633890  0.521900  1.0  -0.0029
  C  C136  1  0.070830  0.078100  0.702800  1.0  0.718
  C  C137  1  0.102120  0.122540  0.822400  1.0  -0.156
  C  C138  1  0.145700  0.153200  0.726400  1.0  -0.0365
  C  C139  1  0.174500  0.196200  0.827700  1.0  -0.2126
  C  C140  1  0.160700  0.208670  0.022500  1.0  0.3016
  C  C141  1  0.119100  0.175600  0.124100  1.0  -0.1456
  C  C142  1  0.090110  0.133890  0.021900  1.0  -0.0029
  C  C143  1  0.429170  0.421900  0.202800  1.0  0.7169
  C  C144  1  0.397880  0.377460  0.322400  1.0  -0.1554
  C  C145  1  0.354300  0.346800  0.226400  1.0  -0.0359
  C  C146  1  0.325500  0.303800  0.327700  1.0  -0.2134
  C  C147  1  0.339300  0.291330  0.522500  1.0  0.3015
  C  C148  1  0.380900  0.324400  0.624100  1.0  -0.1458
  C  C149  1  0.409890  0.366110  0.521900  1.0  -0.0041
  C  C150  1  0.929170  0.921900  0.702800  1.0  0.7169
  C  C151  1  0.897880  0.877460  0.822400  1.0  -0.1554
  C  C152  1  0.854300  0.846800  0.726400  1.0  -0.0359
  C  C153  1  0.825500  0.803800  0.827700  1.0  -0.2134
  C  C154  1  0.839300  0.791330  0.022500  1.0  0.3015
  C  C155  1  0.880900  0.824400  0.124100  1.0  -0.1458
  C  C156  1  0.909890  0.866110  0.021900  1.0  -0.0041
  C  C157  1  0.921900  0.070830  0.297200  1.0  0.7176
  C  C158  1  0.877460  0.102120  0.177600  1.0  -0.1572
  C  C159  1  0.846800  0.145700  0.273600  1.0  -0.037
  C  C160  1  0.803800  0.174500  0.172300  1.0  -0.2136
  C  C161  1  0.791330  0.160700  0.977500  1.0  0.3019
  C  C162  1  0.824400  0.119100  0.875900  1.0  -0.1452
  C  C163  1  0.866110  0.090110  0.978100  1.0  -0.0033
  C  C164  1  0.421900  0.570830  0.797200  1.0  0.7176
  C  C165  1  0.377460  0.602120  0.677600  1.0  -0.1572
  C  C166  1  0.346800  0.645700  0.773600  1.0  -0.037
  C  C167  1  0.303800  0.674500  0.672300  1.0  -0.2136
  C  C168  1  0.291330  0.660700  0.477500  1.0  0.3019
  C  C169  1  0.324400  0.619100  0.375900  1.0  -0.1452
  C  C170  1  0.366110  0.590110  0.478100  1.0  -0.0033
  C  C171  1  0.078100  0.929170  0.297200  1.0  0.7184
  C  C172  1  0.122540  0.897880  0.177600  1.0  -0.1571
  C  C173  1  0.153200  0.854300  0.273600  1.0  -0.0359
  C  C174  1  0.196200  0.825500  0.172300  1.0  -0.2145
  C  C175  1  0.208670  0.839300  0.977500  1.0  0.301
  C  C176  1  0.175600  0.880900  0.875900  1.0  -0.145
  C  C177  1  0.133890  0.909890  0.978100  1.0  -0.0025
  C  C178  1  0.578100  0.429170  0.797200  1.0  0.7184
  C  C179  1  0.622540  0.397880  0.677600  1.0  -0.1571
  C  C180  1  0.653200  0.354300  0.773600  1.0  -0.0359
  C  C181  1  0.696200  0.325500  0.672300  1.0  -0.2145
  C  C182  1  0.708670  0.339300  0.477500  1.0  0.301
  C  C183  1  0.675600  0.380900  0.375900  1.0  -0.145
  C  C184  1  0.633890  0.409890  0.478100  1.0  -0.0025
  O  O185  1  0.962750  0.544340  0.454500  1.0  -0.7039
  O  O186  1  0.925580  0.575700  0.732300  1.0  -0.5722
  O  O187  1  0.462750  0.044340  0.954500  1.0  -0.7039
  O  O188  1  0.425580  0.075700  0.232300  1.0  -0.5722
  O  O189  1  0.037250  0.455660  0.454500  1.0  -0.7049
  O  O190  1  0.074420  0.424300  0.732300  1.0  -0.5723
  O  O191  1  0.537250  0.955660  0.954500  1.0  -0.7049
  O  O192  1  0.574420  0.924300  0.232300  1.0  -0.5723
  O  O193  1  0.544340  0.037250  0.545500  1.0  -0.7047
  O  O194  1  0.575700  0.074420  0.267700  1.0  -0.5702
  O  O195  1  0.044340  0.537250  0.045500  1.0  -0.7047
  O  O196  1  0.075700  0.574420  0.767700  1.0  -0.5702
  O  O197  1  0.455660  0.962750  0.545500  1.0  -0.7041
  O  O198  1  0.424300  0.925580  0.267700  1.0  -0.5706
  O  O199  1  0.955660  0.462750  0.045500  1.0  -0.7041
  O  O200  1  0.924300  0.425580  0.767700  1.0  -0.5706
  O  O201  1  0.537250  0.544340  0.295500  1.0  -0.7047
  O  O202  1  0.574420  0.575700  0.017700  1.0  -0.5726
  O  O203  1  0.037250  0.044340  0.795500  1.0  -0.7047
  O  O204  1  0.074420  0.075700  0.517700  1.0  -0.5726
  O  O205  1  0.462750  0.455660  0.295500  1.0  -0.7038
  O  O206  1  0.425580  0.424300  0.017700  1.0  -0.5726
  O  O207  1  0.962750  0.955660  0.795500  1.0  -0.7038
  O  O208  1  0.925580  0.924300  0.517700  1.0  -0.5726
  O  O209  1  0.955660  0.037250  0.204500  1.0  -0.7041
  O  O210  1  0.924300  0.074420  0.482300  1.0  -0.5704
  O  O211  1  0.455660  0.537250  0.704500  1.0  -0.7041
  O  O212  1  0.424300  0.574420  0.982300  1.0  -0.5704
  O  O213  1  0.044340  0.962750  0.204500  1.0  -0.7049
  O  O214  1  0.075700  0.925580  0.482300  1.0  -0.5699
  O  O215  1  0.544340  0.462750  0.704500  1.0  -0.7049
  O  O216  1  0.575700  0.425580  0.982300  1.0  -0.5699
  O  O217  1  0.808520  0.750000  0.125000  1.0  -0.2467
  O  O218  1  0.308520  0.250000  0.625000  1.0  -0.2467
  O  O219  1  0.191480  0.250000  0.125000  1.0  -0.247
  O  O220  1  0.750000  0.191480  0.875000  1.0  -0.2477
  O  O221  1  0.250000  0.691480  0.375000  1.0  -0.2477
  O  O222  1  0.250000  0.808520  0.875000  1.0  -0.2495
  O  O223  1  0.750000  0.308520  0.375000  1.0  -0.2495
  O  O224  1  0.691480  0.750000  0.625000  1.0  -0.247
