# generated using pymatgen
data_LaCu2H20C22N5O18
_symmetry_space_group_name_H-M   'P 1'
_cell_length_a   10.94900000
_cell_length_b   13.37100000
_cell_length_c   14.45300000
_cell_angle_alpha   64.42700000
_cell_angle_beta   71.90500000
_cell_angle_gamma   74.32700000
_symmetry_Int_Tables_number   1
_chemical_formula_structural   LaCu2H20C22N5O18
_chemical_formula_sum   'La2 Cu4 H40 C44 N10 O36'
_cell_volume   1791.23541756
_cell_formula_units_Z   2
loop_
 _symmetry_equiv_pos_site_id
 _symmetry_equiv_pos_as_xyz
  1  'x, y, z'
loop_
 _atom_site_type_symbol
 _atom_site_label
 _atom_site_symmetry_multiplicity
 _atom_site_fract_x
 _atom_site_fract_y
 _atom_site_fract_z
 _atom_site_occupancy
 _atom_site_charge
  La  La1  1  0.223560  0.820170  0.768430  1.0  2.1045
  La  La2  1  0.776440  0.179830  0.231570  1.0  2.103
  Cu  Cu3  1  0.681280  0.602550  0.937260  1.0  0.7815
  Cu  Cu4  1  0.190370  0.123250  0.438560  1.0  0.7742
  Cu  Cu5  1  0.318720  0.397450  0.062740  1.0  0.7784
  Cu  Cu6  1  0.809630  0.876750  0.561440  1.0  0.7724
  H  H7  1  0.394900  0.643400  0.060800  1.0  0.1075
  H  H8  1  0.406200  0.758300  0.060200  1.0  0.101
  H  H9  1  0.614100  0.812900  0.996300  1.0  0.1095
  H  H10  1  0.620900  0.747000  0.114900  1.0  0.0959
  H  H11  1  0.637100  0.561400  0.189700  1.0  0.1109
  H  H12  1  0.491400  0.558100  0.199500  1.0  0.1032
  H  H13  1  0.913100  0.449000  0.910000  1.0  0.0928
  H  H14  1  0.029300  0.357300  0.799200  1.0  0.1271
  H  H15  1  0.778800  0.532900  0.611500  1.0  0.1232
  H  H16  1  0.672200  0.623700  0.724500  1.0  0.0852
  H  H17  1  0.156500  0.909200  0.416900  1.0  0.1112
  H  H18  1  0.302600  0.851400  0.406800  1.0  0.1048
  H  H19  1  0.460800  0.938600  0.384800  1.0  0.1181
  H  H20  1  0.463000  0.027600  0.270000  1.0  0.1103
  H  H21  1  0.277500  0.131900  0.212700  1.0  0.0986
  H  H22  1  0.241800  0.016100  0.234900  1.0  0.0987
  H  H23  1  0.949500  0.291800  0.450000  1.0  0.0915
  H  H24  1  0.848000  0.408200  0.541100  1.0  0.1306
  H  H25  1  0.146300  0.300600  0.682400  1.0  0.1303
  H  H26  1  0.239200  0.186000  0.589900  1.0  0.0964
  H  H27  1  0.605100  0.356600  0.939200  1.0  0.1075
  H  H28  1  0.593800  0.241700  0.939800  1.0  0.102
  H  H29  1  0.385900  0.187100  0.003700  1.0  0.1078
  H  H30  1  0.379100  0.253000  0.885100  1.0  0.096
  H  H31  1  0.362900  0.438600  0.810300  1.0  0.1095
  H  H32  1  0.508600  0.441900  0.800500  1.0  0.1041
  H  H33  1  0.086900  0.551000  0.090000  1.0  0.0935
  H  H34  1  0.970700  0.642700  0.200800  1.0  0.1284
  H  H35  1  0.221200  0.467100  0.388500  1.0  0.1225
  H  H36  1  0.327800  0.376300  0.275500  1.0  0.0855
  H  H37  1  0.843500  0.090800  0.583100  1.0  0.1109
  H  H38  1  0.697400  0.148600  0.593200  1.0  0.1039
  H  H39  1  0.539200  0.061400  0.615200  1.0  0.1178
  H  H40  1  0.537000  0.972400  0.730000  1.0  0.1109
  H  H41  1  0.722500  0.868100  0.787300  1.0  0.0989
  H  H42  1  0.758200  0.983900  0.765100  1.0  0.0987
  H  H43  1  0.050500  0.708200  0.550000  1.0  0.0908
  H  H44  1  0.152000  0.591800  0.458900  1.0  0.1312
  H  H45  1  0.853700  0.699400  0.317600  1.0  0.1289
  H  H46  1  0.760800  0.814000  0.410100  1.0  0.0962
  C  C47  1  0.448100  0.702300  0.029600  1.0  -0.1398
  C  C48  1  0.458200  0.755900  0.911600  1.0  0.7338
  C  C49  1  0.643900  0.740800  0.046900  1.0  -0.1741
  C  C50  1  0.790700  0.712500  0.014400  1.0  0.7492
  C  C51  1  0.578000  0.556300  0.154500  1.0  -0.1495
  C  C52  1  0.618200  0.446800  0.139200  1.0  0.7486
  C  C53  1  0.886400  0.466100  0.849000  1.0  0.1728
  C  C54  1  0.955500  0.409700  0.783400  1.0  -0.1787
  C  C55  1  0.914300  0.431300  0.693600  1.0  0.0806
  C  C56  1  0.807600  0.514100  0.672000  1.0  -0.1587
  C  C57  1  0.744000  0.568600  0.740100  1.0  0.1761
  C  C58  1  0.239800  0.908700  0.427800  1.0  -0.1721
  C  C59  1  0.227600  0.880700  0.543600  1.0  0.7209
  C  C60  1  0.423800  0.013700  0.343700  1.0  -0.1644
  C  C61  1  0.457300  0.097100  0.372500  1.0  0.7373
  C  C62  1  0.230400  0.071600  0.264600  1.0  -0.1847
  C  C63  1  0.086300  0.117400  0.292700  1.0  0.7323
  C  C64  1  0.988600  0.292600  0.498300  1.0  0.1753
  C  C65  1  0.926700  0.362400  0.553400  1.0  -0.1521
  C  C66  1  0.982400  0.363700  0.626900  1.0  0.0441
  C  C67  1  0.103100  0.298600  0.637200  1.0  -0.1797
  C  C68  1  0.159200  0.230700  0.580600  1.0  0.1612
  C  C69  1  0.551900  0.297700  0.970400  1.0  -0.1383
  C  C70  1  0.541800  0.244100  0.088400  1.0  0.7328
  C  C71  1  0.356100  0.259200  0.953100  1.0  -0.1734
  C  C72  1  0.209300  0.287500  0.985600  1.0  0.7497
  C  C73  1  0.422000  0.443700  0.845500  1.0  -0.1481
  C  C74  1  0.381800  0.553200  0.860800  1.0  0.7479
  C  C75  1  0.113600  0.533900  0.151000  1.0  0.1705
  C  C76  1  0.044500  0.590300  0.216600  1.0  -0.1771
  C  C77  1  0.085700  0.568700  0.306400  1.0  0.0802
  C  C78  1  0.192400  0.485900  0.328000  1.0  -0.1599
  C  C79  1  0.256000  0.431400  0.259900  1.0  0.1771
  C  C80  1  0.760200  0.091300  0.572200  1.0  -0.1767
  C  C81  1  0.772400  0.119300  0.456400  1.0  0.7223
  C  C82  1  0.576200  0.986300  0.656300  1.0  -0.1658
  C  C83  1  0.542700  0.902900  0.627500  1.0  0.7384
  C  C84  1  0.769600  0.928400  0.735400  1.0  -0.1882
  C  C85  1  0.913700  0.882600  0.707300  1.0  0.733
  C  C86  1  0.011400  0.707400  0.501700  1.0  0.1739
  C  C87  1  0.073300  0.637600  0.446600  1.0  -0.1554
  C  C88  1  0.017600  0.636300  0.373100  1.0  0.044
  C  C89  1  0.896900  0.701400  0.362800  1.0  -0.1814
  C  C90  1  0.840800  0.769300  0.419400  1.0  0.1611
  N  N91  1  0.577900  0.654500  0.053500  1.0  -0.0698
  N  N92  1  0.782000  0.544900  0.827600  1.0  -0.3104
  N  N93  1  0.281500  0.019400  0.362000  1.0  -0.0525
  N  N94  1  0.102400  0.226800  0.512400  1.0  -0.3291
  N  N95  1  0.422100  0.345500  0.946500  1.0  -0.0693
  N  N96  1  0.218000  0.455100  0.172400  1.0  -0.3111
  N  N97  1  0.718500  0.980600  0.638000  1.0  -0.0523
  N  N98  1  0.897600  0.773200  0.487600  1.0  -0.3287
  N  N99  1  0.848000  0.153500  0.818600  1.0  0.8268
  N  N100  1  0.152000  0.846500  0.181400  1.0  0.8261
  O  O101  1  0.361700  0.818600  0.879100  1.0  -0.6658
  O  O102  1  0.566400  0.731000  0.853200  1.0  -0.5639
  O  O103  1  0.857300  0.752600  0.041700  1.0  -0.5635
  O  O104  1  0.835700  0.653500  0.958700  1.0  -0.5556
  O  O105  1  0.615000  0.358600  0.220000  1.0  -0.6201
  O  O106  1  0.655900  0.449300  0.046700  1.0  -0.5618
  O  O107  1  0.247500  0.780100  0.603800  1.0  -0.6546
  O  O108  1  0.196000  0.960800  0.574500  1.0  -0.6328
  O  O109  1  0.573600  0.105200  0.353400  1.0  -0.7168
  O  O110  1  0.365100  0.152500  0.418300  1.0  -0.551
  O  O111  1  0.015000  0.123800  0.237700  1.0  -0.6479
  O  O112  1  0.049600  0.147300  0.370300  1.0  -0.5596
  O  O113  1  0.151800  0.010500  0.783800  1.0  -0.2151
  O  O114  1  0.101800  0.781000  0.956900  1.0  -0.2485
  O  O115  1  0.104600  0.643100  0.838700  1.0  -0.1906
  O  O116  1  0.638300  0.181400  0.120900  1.0  -0.6657
  O  O117  1  0.433600  0.269000  0.146800  1.0  -0.5639
  O  O118  1  0.142700  0.247400  0.958300  1.0  -0.5659
  O  O119  1  0.164300  0.346500  0.041300  1.0  -0.5536
  O  O120  1  0.385000  0.641400  0.780000  1.0  -0.6218
  O  O121  1  0.344100  0.550700  0.953300  1.0  -0.5609
  O  O122  1  0.752500  0.219900  0.396200  1.0  -0.6563
  O  O123  1  0.804000  0.039200  0.425500  1.0  -0.6335
  O  O124  1  0.426400  0.894800  0.646600  1.0  -0.7166
  O  O125  1  0.634900  0.847500  0.581700  1.0  -0.5522
  O  O126  1  0.985000  0.876200  0.762300  1.0  -0.6483
  O  O127  1  0.950400  0.852700  0.629700  1.0  -0.5608
  O  O128  1  0.848200  0.989500  0.216200  1.0  -0.2165
  O  O129  1  0.898200  0.219000  0.043100  1.0  -0.2498
  O  O130  1  0.895400  0.356900  0.161300  1.0  -0.1903
  O  O131  1  0.894900  0.121700  0.897300  1.0  -0.5139
  O  O132  1  0.759100  0.238600  0.799000  1.0  -0.4803
  O  O133  1  0.901100  0.111500  0.749400  1.0  -0.4943
  O  O134  1  0.105100  0.878300  0.102700  1.0  -0.5126
  O  O135  1  0.240900  0.761400  0.201000  1.0  -0.4826
  O  O136  1  0.098900  0.888500  0.250600  1.0  -0.4925
