# generated using pymatgen
data_U2H14C15(NO2)6
_symmetry_space_group_name_H-M   'P 1'
_cell_length_a   11.46000000
_cell_length_b   19.96800000
_cell_length_c   14.94900000
_cell_angle_alpha   90.00000000
_cell_angle_beta   99.62800000
_cell_angle_gamma   90.00000000
_symmetry_Int_Tables_number   1
_chemical_formula_structural   U2H14C15(NO2)6
_chemical_formula_sum   'U8 H56 C60 N24 O48'
_cell_volume   3372.64434893
_cell_formula_units_Z   4
loop_
 _symmetry_equiv_pos_site_id
 _symmetry_equiv_pos_as_xyz
  1  'x, y, z'
loop_
 _atom_site_type_symbol
 _atom_site_label
 _atom_site_symmetry_multiplicity
 _atom_site_fract_x
 _atom_site_fract_y
 _atom_site_fract_z
 _atom_site_occupancy
 _atom_site_charge
  U  U1  1  0.732950  0.532710  0.855910  1.0  1.8386
  U  U2  1  0.245520  0.613470  0.587100  1.0  1.7235
  U  U3  1  0.767050  0.032710  0.644090  1.0  1.8413
  U  U4  1  0.254480  0.113470  0.912910  1.0  1.72
  U  U5  1  0.267050  0.467290  0.144090  1.0  1.8414
  U  U6  1  0.754480  0.386530  0.412900  1.0  1.7184
  U  U7  1  0.232950  0.967290  0.355910  1.0  1.8388
  U  U8  1  0.745520  0.886530  0.087100  1.0  1.7216
  H  H9  1  0.648200  0.528900  0.537500  1.0  0.0923
  H  H10  1  0.581200  0.596400  0.546800  1.0  0.0851
  H  H11  1  0.895600  0.564200  0.605700  1.0  0.0832
  H  H12  1  0.919200  0.601600  0.518000  1.0  0.0757
  H  H13  1  0.059400  0.743000  0.603800  1.0  0.0981
  H  H14  1  0.121400  0.804500  0.567200  1.0  0.0945
  H  H15  1  0.898800  0.877900  0.446700  1.0  0.1096
  H  H16  1  0.022500  0.893200  0.505000  1.0  0.1065
  H  H17  1  0.604200  0.896600  0.518200  1.0  0.0781
  H  H18  1  0.521400  0.886200  0.590600  1.0  0.0871
  H  H19  1  0.438400  0.722200  0.498100  1.0  0.097
  H  H20  1  0.364800  0.788300  0.497800  1.0  0.0846
  H  H21  1  0.977500  0.715900  0.374900  1.0  0.3816
  H  H22  1  0.450200  0.780300  0.732300  1.0  0.3455
  H  H23  1  0.851800  0.028900  0.962500  1.0  0.0926
  H  H24  1  0.918800  0.096400  0.953200  1.0  0.0856
  H  H25  1  0.604400  0.064200  0.894300  1.0  0.0844
  H  H26  1  0.580800  0.101600  0.982000  1.0  0.0754
  H  H27  1  0.440600  0.243000  0.896200  1.0  0.0977
  H  H28  1  0.378600  0.304500  0.932800  1.0  0.0952
  H  H29  1  0.601200  0.377900  0.053300  1.0  0.1101
  H  H30  1  0.477500  0.393200  0.995000  1.0  0.1065
  H  H31  1  0.895800  0.396600  0.981800  1.0  0.0782
  H  H32  1  0.978600  0.386200  0.909400  1.0  0.0874
  H  H33  1  0.061600  0.222200  0.001900  1.0  0.0968
  H  H34  1  0.135200  0.288300  0.002200  1.0  0.0819
  H  H35  1  0.522500  0.215900  0.125100  1.0  0.3825
  H  H36  1  0.049800  0.280300  0.767700  1.0  0.344
  H  H37  1  0.351800  0.471100  0.462500  1.0  0.0915
  H  H38  1  0.418800  0.403600  0.453200  1.0  0.0852
  H  H39  1  0.104400  0.435800  0.394300  1.0  0.0836
  H  H40  1  0.080800  0.398400  0.482000  1.0  0.0762
  H  H41  1  0.940600  0.257000  0.396200  1.0  0.0976
  H  H42  1  0.878600  0.195500  0.432800  1.0  0.0956
  H  H43  1  0.101200  0.122100  0.553300  1.0  0.1101
  H  H44  1  0.977500  0.106800  0.495000  1.0  0.1067
  H  H45  1  0.395800  0.103400  0.481800  1.0  0.0794
  H  H46  1  0.478600  0.113800  0.409400  1.0  0.0874
  H  H47  1  0.561600  0.277800  0.501900  1.0  0.0961
  H  H48  1  0.635200  0.211700  0.502200  1.0  0.0824
  H  H49  1  0.022500  0.284100  0.625100  1.0  0.3834
  H  H50  1  0.549800  0.219700  0.267700  1.0  0.344
  H  H51  1  0.148200  0.971100  0.037500  1.0  0.0918
  H  H52  1  0.081200  0.903600  0.046800  1.0  0.0858
  H  H53  1  0.395600  0.935800  0.105700  1.0  0.0833
  H  H54  1  0.419200  0.898400  0.018000  1.0  0.0762
  H  H55  1  0.559400  0.757000  0.103800  1.0  0.0976
  H  H56  1  0.621400  0.695500  0.067200  1.0  0.095
  H  H57  1  0.398800  0.622100  0.946700  1.0  0.1093
  H  H58  1  0.522500  0.606800  0.005000  1.0  0.1063
  H  H59  1  0.104200  0.603400  0.018200  1.0  0.0783
  H  H60  1  0.021400  0.613800  0.090600  1.0  0.0872
  H  H61  1  0.938400  0.777800  0.998100  1.0  0.098
  H  H62  1  0.864800  0.711700  0.997800  1.0  0.085
  H  H63  1  0.477500  0.784100  0.874900  1.0  0.3814
  H  H64  1  0.950200  0.719700  0.232300  1.0  0.3456
  C  C65  1  0.671900  0.563200  0.667800  1.0  0.7184
  C  C66  1  0.844900  0.509700  0.490700  1.0  0.7244
  C  C67  1  0.071900  0.733600  0.469700  1.0  0.5915
  C  C68  1  0.886500  0.931100  0.560500  1.0  0.7554
  C  C69  1  0.430800  0.907100  0.465700  1.0  0.78
  C  C70  1  0.420800  0.752300  0.625700  1.0  0.5981
  C  C71  1  0.654700  0.572500  0.566600  1.0  -0.1301
  C  C72  1  0.863100  0.573700  0.542800  1.0  -0.1007
  C  C73  1  0.055600  0.773600  0.553100  1.0  -0.1517
  C  C74  1  0.942200  0.879200  0.508200  1.0  -0.1674
  C  C75  1  0.530700  0.876400  0.528600  1.0  -0.134
  C  C76  1  0.434600  0.765000  0.528200  1.0  -0.1365
  C  C77  1  0.750500  0.677900  0.539800  1.0  0.5869
  C  C78  1  0.842900  0.776300  0.539000  1.0  0.4186
  C  C79  1  0.645600  0.773400  0.529200  1.0  0.5631
  C  C80  1  0.828100  0.063200  0.832200  1.0  0.7174
  C  C81  1  0.655100  0.009700  0.009300  1.0  0.7252
  C  C82  1  0.428100  0.233600  0.030300  1.0  0.593
  C  C83  1  0.613500  0.431100  0.939500  1.0  0.7569
  C  C84  1  0.069200  0.407100  0.034300  1.0  0.7802
  C  C85  1  0.079200  0.252300  0.874300  1.0  0.5966
  C  C86  1  0.845300  0.072500  0.933400  1.0  -0.1303
  C  C87  1  0.636900  0.073700  0.957200  1.0  -0.0999
  C  C88  1  0.444400  0.273600  0.946900  1.0  -0.1499
  C  C89  1  0.557800  0.379200  0.991800  1.0  -0.1707
  C  C90  1  0.969300  0.376400  0.971400  1.0  -0.134
  C  C91  1  0.065400  0.265000  0.971800  1.0  -0.1398
  C  C92  1  0.749500  0.177900  0.960200  1.0  0.5882
  C  C93  1  0.657100  0.276300  0.961000  1.0  0.4188
  C  C94  1  0.854400  0.273400  0.970800  1.0  0.5627
  C  C95  1  0.328100  0.436800  0.332200  1.0  0.7167
  C  C96  1  0.155100  0.490300  0.509300  1.0  0.7239
  C  C97  1  0.928100  0.266400  0.530300  1.0  0.5922
  C  C98  1  0.113500  0.068900  0.439500  1.0  0.7554
  C  C99  1  0.569200  0.092900  0.534300  1.0  0.781
  C  C100  1  0.579200  0.247700  0.374300  1.0  0.5965
  C  C101  1  0.345300  0.427500  0.433400  1.0  -0.1297
  C  C102  1  0.136900  0.426300  0.457200  1.0  -0.101
  C  C103  1  0.944400  0.226400  0.446900  1.0  -0.1494
  C  C104  1  0.057800  0.120800  0.491800  1.0  -0.1688
  C  C105  1  0.469300  0.123600  0.471400  1.0  -0.1337
  C  C106  1  0.565400  0.235000  0.471800  1.0  -0.1401
  C  C107  1  0.249500  0.322100  0.460200  1.0  0.5879
  C  C108  1  0.157100  0.223700  0.461000  1.0  0.419
  C  C109  1  0.354400  0.226600  0.470800  1.0  0.5627
  C  C110  1  0.171900  0.936800  0.167800  1.0  0.7187
  C  C111  1  0.344900  0.990300  0.990700  1.0  0.7241
  C  C112  1  0.571900  0.766400  0.969700  1.0  0.5913
  C  C113  1  0.386500  0.568900  0.060500  1.0  0.7555
  C  C114  1  0.930800  0.592900  0.965700  1.0  0.7796
  C  C115  1  0.920800  0.747700  0.125700  1.0  0.5965
  C  C116  1  0.154700  0.927500  0.066600  1.0  -0.1298
  C  C117  1  0.363100  0.926300  0.042800  1.0  -0.1013
  C  C118  1  0.555600  0.726400  0.053100  1.0  -0.1514
  C  C119  1  0.442200  0.620800  0.008200  1.0  -0.1669
  C  C120  1  0.030700  0.623600  0.028600  1.0  -0.1335
  C  C121  1  0.934600  0.735000  0.028200  1.0  -0.1368
  C  C122  1  0.250500  0.822100  0.039800  1.0  0.5867
  C  C123  1  0.342900  0.723700  0.039000  1.0  0.4192
  C  C124  1  0.145600  0.726600  0.029200  1.0  0.5633
  N  N125  1  0.853300  0.709100  0.543100  1.0  -0.5233
  N  N126  1  0.741900  0.811500  0.530000  1.0  -0.5182
  N  N127  1  0.644100  0.706600  0.536500  1.0  -0.5948
  N  N128  1  0.751100  0.609300  0.538100  1.0  -0.2442
  N  N129  1  0.946200  0.811500  0.545400  1.0  -0.2126
  N  N130  1  0.538100  0.803800  0.517600  1.0  -0.1955
  N  N131  1  0.646700  0.209100  0.956900  1.0  -0.5257
  N  N132  1  0.758100  0.311500  0.970000  1.0  -0.5189
  N  N133  1  0.855900  0.206600  0.963500  1.0  -0.5925
  N  N134  1  0.748900  0.109300  0.961900  1.0  -0.2419
  N  N135  1  0.553800  0.311500  0.954600  1.0  -0.2127
  N  N136  1  0.961900  0.303800  0.982400  1.0  -0.1948
  N  N137  1  0.146700  0.290900  0.456900  1.0  -0.5252
  N  N138  1  0.258100  0.188500  0.470000  1.0  -0.518
  N  N139  1  0.355900  0.293400  0.463500  1.0  -0.5923
  N  N140  1  0.248900  0.390700  0.461900  1.0  -0.2419
  N  N141  1  0.053800  0.188500  0.454600  1.0  -0.2125
  N  N142  1  0.461900  0.196200  0.482400  1.0  -0.195
  N  N143  1  0.353300  0.790900  0.043100  1.0  -0.5231
  N  N144  1  0.241900  0.688500  0.030000  1.0  -0.5174
  N  N145  1  0.144100  0.793400  0.036500  1.0  -0.594
  N  N146  1  0.251100  0.890700  0.038100  1.0  -0.2442
  N  N147  1  0.446200  0.688500  0.045400  1.0  -0.2124
  N  N148  1  0.038100  0.696200  0.017600  1.0  -0.1952
  O  O149  1  0.604000  0.524150  0.702300  1.0  -0.6929
  O  O150  1  0.755400  0.593000  0.717700  1.0  -0.6901
  O  O151  1  0.885700  0.455550  0.526400  1.0  -0.7004
  O  O152  1  0.784700  0.509200  0.412600  1.0  -0.6624
  O  O153  1  0.149200  0.686580  0.483600  1.0  -0.71
  O  O154  1  0.017300  0.748100  0.396000  1.0  -0.5203
  O  O155  1  0.816200  0.972100  0.515400  1.0  -0.7187
  O  O156  1  0.911400  0.937660  0.644500  1.0  -0.6761
  O  O157  1  0.373200  0.952900  0.495600  1.0  -0.7106
  O  O158  1  0.402600  0.888800  0.384200  1.0  -0.6859
  O  O159  1  0.481500  0.781800  0.686800  1.0  -0.5143
  O  O160  1  0.338000  0.710300  0.636800  1.0  -0.7132
  O  O161  1  0.896000  0.024150  0.797700  1.0  -0.6953
  O  O162  1  0.744600  0.093000  0.782300  1.0  -0.6873
  O  O163  1  0.614300  0.955550  0.973600  1.0  -0.705
  O  O164  1  0.715300  0.009200  0.087400  1.0  -0.665
  O  O165  1  0.350800  0.186580  0.016400  1.0  -0.71
  O  O166  1  0.482700  0.248100  0.104000  1.0  -0.5207
  O  O167  1  0.683800  0.472100  0.984600  1.0  -0.7193
  O  O168  1  0.588600  0.437660  0.855500  1.0  -0.6804
  O  O169  1  0.126800  0.452900  0.004400  1.0  -0.7113
  O  O170  1  0.097400  0.388800  0.115800  1.0  -0.6881
  O  O171  1  0.018500  0.281800  0.813200  1.0  -0.517
  O  O172  1  0.162000  0.210300  0.863200  1.0  -0.7153
  O  O173  1  0.396000  0.475850  0.297700  1.0  -0.6952
  O  O174  1  0.244600  0.407000  0.282300  1.0  -0.6873
  O  O175  1  0.114300  0.544450  0.473600  1.0  -0.7056
  O  O176  1  0.215300  0.490800  0.587400  1.0  -0.6644
  O  O177  1  0.850800  0.313420  0.516400  1.0  -0.7118
  O  O178  1  0.982700  0.251900  0.604000  1.0  -0.5237
  O  O179  1  0.183800  0.027900  0.484600  1.0  -0.7173
  O  O180  1  0.088600  0.062340  0.355500  1.0  -0.6799
  O  O181  1  0.626800  0.047100  0.504400  1.0  -0.7117
  O  O182  1  0.597400  0.111200  0.615800  1.0  -0.6891
  O  O183  1  0.518500  0.218200  0.313200  1.0  -0.5183
  O  O184  1  0.662000  0.289700  0.363200  1.0  -0.7154
  O  O185  1  0.104000  0.975850  0.202300  1.0  -0.6959
  O  O186  1  0.255400  0.907000  0.217700  1.0  -0.6891
  O  O187  1  0.385700  0.044450  0.026400  1.0  -0.704
  O  O188  1  0.284700  0.990800  0.912600  1.0  -0.6623
  O  O189  1  0.649200  0.813420  0.983600  1.0  -0.7104
  O  O190  1  0.517300  0.751900  0.896000  1.0  -0.5218
  O  O191  1  0.316200  0.527900  0.015400  1.0  -0.7178
  O  O192  1  0.411400  0.562340  0.144500  1.0  -0.676
  O  O193  1  0.873200  0.547100  0.995600  1.0  -0.7093
  O  O194  1  0.902600  0.611200  0.884200  1.0  -0.6867
  O  O195  1  0.981500  0.718200  0.186800  1.0  -0.5159
  O  O196  1  0.838000  0.789700  0.136800  1.0  -0.714
