# generated using pymatgen
data_UH4C5(NO2)2
_symmetry_space_group_name_H-M   'P 1'
_cell_length_a   12.62400000
_cell_length_b   15.89100000
_cell_length_c   16.58500000
_cell_angle_alpha   90.00000000
_cell_angle_beta   105.21700000
_cell_angle_gamma   90.00000000
_symmetry_Int_Tables_number   1
_chemical_formula_structural   UH4C5(NO2)2
_chemical_formula_sum   'U12 H48 C60 N24 O48'
_cell_volume   3210.43140817
_cell_formula_units_Z   12
loop_
 _symmetry_equiv_pos_site_id
 _symmetry_equiv_pos_as_xyz
  1  'x, y, z'
loop_
 _atom_site_type_symbol
 _atom_site_label
 _atom_site_symmetry_multiplicity
 _atom_site_fract_x
 _atom_site_fract_y
 _atom_site_fract_z
 _atom_site_occupancy
 _atom_site_charge
  U  U1  1  0.349270  0.801680  0.107880  1.0  1.4909
  U  U2  1  0.263930  0.107500  0.237910  1.0  1.3919
  U  U3  1  0.188950  0.472020  0.246020  1.0  1.797
  U  U4  1  0.650730  0.301680  0.392120  1.0  1.4929
  U  U5  1  0.736070  0.607500  0.262090  1.0  1.3952
  U  U6  1  0.811050  0.972020  0.253980  1.0  1.7963
  U  U7  1  0.650730  0.198320  0.892120  1.0  1.4928
  U  U8  1  0.736070  0.892500  0.762090  1.0  1.3742
  U  U9  1  0.811050  0.527980  0.753980  1.0  1.7965
  U  U10  1  0.349270  0.698320  0.607880  1.0  1.4911
  U  U11  1  0.263930  0.392500  0.737910  1.0  1.3722
  U  U12  1  0.188950  0.027980  0.746020  1.0  1.7971
  H  H13  1  0.243800  0.508300  0.002600  1.0  0.1185
  H  H14  1  0.363300  0.544100  0.023000  1.0  0.1153
  H  H15  1  0.472700  0.507200  0.168300  1.0  0.1016
  H  H16  1  0.509200  0.421900  0.136400  1.0  0.1071
  H  H17  1  0.550800  0.224200  0.113000  1.0  0.1077
  H  H18  1  0.566200  0.126900  0.125600  1.0  0.1083
  H  H19  1  0.455400  0.065100  0.011500  1.0  0.0935
  H  H20  1  0.332000  0.091200  0.978300  1.0  0.1064
  H  H21  1  0.963800  0.192400  0.878200  1.0  0.1165
  H  H22  1  0.053200  0.158400  0.955400  1.0  0.1329
  H  H23  1  0.025000  0.386200  0.938200  1.0  0.1044
  H  H24  1  0.937500  0.325200  0.883900  1.0  0.0803
  H  H25  1  0.756200  0.008300  0.497400  1.0  0.1162
  H  H26  1  0.636700  0.044100  0.477000  1.0  0.1149
  H  H27  1  0.527300  0.007200  0.331700  1.0  0.1028
  H  H28  1  0.490800  0.921900  0.363600  1.0  0.1069
  H  H29  1  0.449200  0.724200  0.387000  1.0  0.1078
  H  H30  1  0.433800  0.626900  0.374400  1.0  0.1085
  H  H31  1  0.544600  0.565100  0.488500  1.0  0.0936
  H  H32  1  0.668000  0.591200  0.521700  1.0  0.1069
  H  H33  1  0.036200  0.692400  0.621800  1.0  0.1119
  H  H34  1  0.946800  0.658400  0.544600  1.0  0.1309
  H  H35  1  0.975000  0.886200  0.561800  1.0  0.1032
  H  H36  1  0.062500  0.825200  0.616100  1.0  0.0752
  H  H37  1  0.756200  0.491700  0.997400  1.0  0.1164
  H  H38  1  0.636700  0.455900  0.977000  1.0  0.1157
  H  H39  1  0.527300  0.492800  0.831700  1.0  0.1021
  H  H40  1  0.490800  0.578100  0.863600  1.0  0.1068
  H  H41  1  0.449200  0.775800  0.887000  1.0  0.1088
  H  H42  1  0.433800  0.873100  0.874400  1.0  0.1087
  H  H43  1  0.544600  0.934900  0.988500  1.0  0.0936
  H  H44  1  0.668000  0.908800  0.021700  1.0  0.1067
  H  H45  1  0.036200  0.807600  0.121800  1.0  0.1128
  H  H46  1  0.946800  0.841600  0.044600  1.0  0.1314
  H  H47  1  0.975000  0.613800  0.061800  1.0  0.1033
  H  H48  1  0.062500  0.674800  0.116100  1.0  0.0755
  H  H49  1  0.243800  0.991700  0.502600  1.0  0.1188
  H  H50  1  0.363300  0.955900  0.523000  1.0  0.1156
  H  H51  1  0.472700  0.992800  0.668300  1.0  0.1021
  H  H52  1  0.509200  0.078100  0.636400  1.0  0.107
  H  H53  1  0.550800  0.275800  0.613000  1.0  0.108
  H  H54  1  0.566200  0.373100  0.625600  1.0  0.1079
  H  H55  1  0.455400  0.434900  0.511500  1.0  0.0934
  H  H56  1  0.332000  0.408800  0.478300  1.0  0.1068
  H  H57  1  0.963800  0.307600  0.378200  1.0  0.1166
  H  H58  1  0.053200  0.341600  0.455400  1.0  0.1322
  H  H59  1  0.025000  0.113800  0.438200  1.0  0.1054
  H  H60  1  0.937500  0.174800  0.383900  1.0  0.0805
  C  C61  1  0.275500  0.591300  0.101600  1.0  0.7469
  C  C62  1  0.446400  0.405800  0.238500  1.0  0.7542
  C  C63  1  0.521600  0.183900  0.222300  1.0  0.784
  C  C64  1  0.358300  0.011200  0.075100  1.0  0.7325
  C  C65  1  0.094400  0.139200  0.845000  1.0  0.6885
  C  C66  1  0.028200  0.385800  0.814500  1.0  0.7414
  C  C67  1  0.307600  0.521900  0.047800  1.0  -0.1568
  C  C68  1  0.452300  0.448700  0.156900  1.0  -0.199
  C  C69  1  0.519500  0.174000  0.130700  1.0  -0.1582
  C  C70  1  0.390500  0.081500  0.028600  1.0  -0.1248
  C  C71  1  0.042300  0.189300  0.903400  1.0  -0.1965
  C  C72  1  0.012900  0.344200  0.894300  1.0  -0.1939
  C  C73  1  0.183900  0.284400  0.976800  1.0  0.4613
  C  C74  1  0.312500  0.367100  0.060200  1.0  0.5218
  C  C75  1  0.341500  0.228700  0.053400  1.0  0.3421
  C  C76  1  0.724500  0.091300  0.398400  1.0  0.7445
  C  C77  1  0.553600  0.905800  0.261500  1.0  0.7537
  C  C78  1  0.478400  0.683900  0.277700  1.0  0.7854
  C  C79  1  0.641700  0.511200  0.424900  1.0  0.7313
  C  C80  1  0.905600  0.639200  0.655000  1.0  0.6883
  C  C81  1  0.971800  0.885800  0.685500  1.0  0.7397
  C  C82  1  0.692400  0.021900  0.452200  1.0  -0.156
  C  C83  1  0.547700  0.948700  0.343100  1.0  -0.1997
  C  C84  1  0.480500  0.674000  0.369300  1.0  -0.1596
  C  C85  1  0.609500  0.581500  0.471400  1.0  -0.127
  C  C86  1  0.957700  0.689300  0.596600  1.0  -0.1978
  C  C87  1  0.987100  0.844200  0.605700  1.0  -0.1943
  C  C88  1  0.816100  0.784400  0.523200  1.0  0.4622
  C  C89  1  0.687500  0.867100  0.439800  1.0  0.5218
  C  C90  1  0.658500  0.728700  0.446600  1.0  0.3417
  C  C91  1  0.724500  0.408700  0.898400  1.0  0.7438
  C  C92  1  0.553600  0.594200  0.761500  1.0  0.7544
  C  C93  1  0.478400  0.816100  0.777700  1.0  0.7852
  C  C94  1  0.641700  0.988800  0.924900  1.0  0.7316
  C  C95  1  0.905600  0.860800  0.155000  1.0  0.6881
  C  C96  1  0.971800  0.614200  0.185500  1.0  0.7406
  C  C97  1  0.692400  0.478100  0.952200  1.0  -0.155
  C  C98  1  0.547700  0.551300  0.843100  1.0  -0.1995
  C  C99  1  0.480500  0.826000  0.869300  1.0  -0.159
  C  C100  1  0.609500  0.918500  0.971400  1.0  -0.127
  C  C101  1  0.957700  0.810700  0.096600  1.0  -0.1969
  C  C102  1  0.987100  0.655800  0.105700  1.0  -0.1926
  C  C103  1  0.816100  0.715600  0.023200  1.0  0.4621
  C  C104  1  0.687500  0.632900  0.939800  1.0  0.5219
  C  C105  1  0.658500  0.771300  0.946600  1.0  0.3415
  C  C106  1  0.275500  0.908700  0.601600  1.0  0.7464
  C  C107  1  0.446400  0.094200  0.738500  1.0  0.7538
  C  C108  1  0.521600  0.316100  0.722300  1.0  0.7842
  C  C109  1  0.358300  0.488800  0.575100  1.0  0.7352
  C  C110  1  0.094400  0.360800  0.345000  1.0  0.6889
  C  C111  1  0.028200  0.114200  0.314500  1.0  0.7417
  C  C112  1  0.307600  0.978100  0.547800  1.0  -0.1559
  C  C113  1  0.452300  0.051300  0.656900  1.0  -0.1986
  C  C114  1  0.519500  0.326000  0.630700  1.0  -0.1574
  C  C115  1  0.390500  0.418500  0.528600  1.0  -0.1254
  C  C116  1  0.042300  0.310700  0.403400  1.0  -0.1975
  C  C117  1  0.012900  0.155800  0.394300  1.0  -0.193
  C  C118  1  0.183900  0.215600  0.476800  1.0  0.4614
  C  C119  1  0.312500  0.132900  0.560200  1.0  0.5219
  C  C120  1  0.341500  0.271300  0.553400  1.0  0.3419
  N  N121  1  0.245600  0.214900  0.999200  1.0  -0.451
  N  N122  1  0.379500  0.302000  0.089800  1.0  -0.5033
  N  N123  1  0.216200  0.364000  0.003000  1.0  -0.547
  N  N124  1  0.349000  0.444800  0.092200  1.0  -0.1689
  N  N125  1  0.083700  0.274800  0.923100  1.0  -0.0864
  N  N126  1  0.413400  0.160400  0.075300  1.0  -0.1607
  N  N127  1  0.754400  0.714900  0.500800  1.0  -0.4513
  N  N128  1  0.620500  0.802000  0.410200  1.0  -0.5046
  N  N129  1  0.783800  0.864000  0.497000  1.0  -0.5478
  N  N130  1  0.651000  0.944800  0.407800  1.0  -0.1686
  N  N131  1  0.916300  0.774800  0.576900  1.0  -0.0854
  N  N132  1  0.586600  0.660400  0.424700  1.0  -0.1598
  N  N133  1  0.754400  0.785100  0.000800  1.0  -0.4518
  N  N134  1  0.620500  0.698000  0.910200  1.0  -0.5044
  N  N135  1  0.783800  0.636000  0.997000  1.0  -0.5476
  N  N136  1  0.651000  0.555200  0.907800  1.0  -0.1683
  N  N137  1  0.916300  0.725200  0.076900  1.0  -0.0856
  N  N138  1  0.586600  0.839600  0.924700  1.0  -0.1598
  N  N139  1  0.245600  0.285100  0.499200  1.0  -0.4512
  N  N140  1  0.379500  0.198000  0.589800  1.0  -0.5031
  N  N141  1  0.216200  0.136000  0.503000  1.0  -0.5474
  N  N142  1  0.349000  0.055200  0.592200  1.0  -0.1687
  N  N143  1  0.083700  0.225200  0.423100  1.0  -0.0867
  N  N144  1  0.413400  0.339600  0.575300  1.0  -0.1609
  O  O145  1  0.270800  0.664400  0.073100  1.0  -0.7268
  O  O146  1  0.255500  0.570900  0.169300  1.0  -0.7641
  O  O147  1  0.356700  0.403200  0.257500  1.0  -0.7409
  O  O148  1  0.535700  0.379100  0.282800  1.0  -0.7525
  O  O149  1  0.604400  0.222200  0.266600  1.0  -0.749
  O  O150  1  0.449300  0.151500  0.251000  1.0  -0.7517
  O  O151  1  0.319900  0.025300  0.137700  1.0  -0.7477
  O  O152  1  0.366300  0.936400  0.047500  1.0  -0.724
  O  O153  1  0.054000  0.068000  0.822200  1.0  -0.6277
  O  O154  1  0.175700  0.163000  0.820000  1.0  -0.6801
  O  O155  1  0.113100  0.371400  0.792500  1.0  -0.7744
  O  O156  1  0.952200  0.428600  0.774300  1.0  -0.7461
  O  O157  1  0.729200  0.164400  0.426900  1.0  -0.7251
  O  O158  1  0.744500  0.070900  0.330700  1.0  -0.7628
  O  O159  1  0.643300  0.903200  0.242500  1.0  -0.7416
  O  O160  1  0.464300  0.879100  0.217200  1.0  -0.7537
  O  O161  1  0.395600  0.722200  0.233400  1.0  -0.749
  O  O162  1  0.550700  0.651500  0.249000  1.0  -0.7506
  O  O163  1  0.680100  0.525300  0.362300  1.0  -0.7496
  O  O164  1  0.633700  0.436400  0.452500  1.0  -0.7246
  O  O165  1  0.946000  0.568000  0.677800  1.0  -0.6293
  O  O166  1  0.824300  0.663000  0.680000  1.0  -0.6789
  O  O167  1  0.886900  0.871400  0.707500  1.0  -0.7733
  O  O168  1  0.047800  0.928600  0.725700  1.0  -0.7461
  O  O169  1  0.729200  0.335600  0.926900  1.0  -0.7238
  O  O170  1  0.744500  0.429100  0.830700  1.0  -0.7639
  O  O171  1  0.643300  0.596800  0.742500  1.0  -0.7415
  O  O172  1  0.464300  0.620900  0.717200  1.0  -0.7532
  O  O173  1  0.395600  0.777800  0.733400  1.0  -0.7487
  O  O174  1  0.550700  0.848500  0.749000  1.0  -0.7503
  O  O175  1  0.680100  0.974700  0.862300  1.0  -0.7494
  O  O176  1  0.633700  0.063600  0.952500  1.0  -0.7195
  O  O177  1  0.946000  0.932000  0.177800  1.0  -0.6264
  O  O178  1  0.824300  0.837000  0.180000  1.0  -0.6788
  O  O179  1  0.886900  0.628600  0.207500  1.0  -0.7734
  O  O180  1  0.047800  0.571400  0.225700  1.0  -0.746
  O  O181  1  0.270800  0.835600  0.573100  1.0  -0.7252
  O  O182  1  0.255500  0.929100  0.669300  1.0  -0.7647
  O  O183  1  0.356700  0.096800  0.757500  1.0  -0.7414
  O  O184  1  0.535700  0.120900  0.782800  1.0  -0.7533
  O  O185  1  0.604400  0.277800  0.766600  1.0  -0.7488
  O  O186  1  0.449300  0.348500  0.751000  1.0  -0.7517
  O  O187  1  0.319900  0.474700  0.637700  1.0  -0.7485
  O  O188  1  0.366300  0.563600  0.547500  1.0  -0.7237
  O  O189  1  0.054000  0.432000  0.322200  1.0  -0.6273
  O  O190  1  0.175700  0.337000  0.320000  1.0  -0.6803
  O  O191  1  0.113100  0.128600  0.292500  1.0  -0.774
  O  O192  1  0.952200  0.071400  0.274300  1.0  -0.7468
