# generated using pymatgen
data_U5H25C30(NO2)12
_symmetry_space_group_name_H-M   'P 1'
_cell_length_a   14.53300000
_cell_length_b   15.47900000
_cell_length_c   15.66600000
_cell_angle_alpha   74.64300000
_cell_angle_beta   74.57600000
_cell_angle_gamma   81.43100000
_symmetry_Int_Tables_number   1
_chemical_formula_structural   U5H25C30(NO2)12
_chemical_formula_sum   'U10 H50 C60 N24 O48'
_cell_volume   3264.21744461
_cell_formula_units_Z   2
loop_
 _symmetry_equiv_pos_site_id
 _symmetry_equiv_pos_as_xyz
  1  'x, y, z'
loop_
 _atom_site_type_symbol
 _atom_site_label
 _atom_site_symmetry_multiplicity
 _atom_site_fract_x
 _atom_site_fract_y
 _atom_site_fract_z
 _atom_site_occupancy
 _atom_site_charge
  U  U1  1  0.455850  0.343300  0.762940  1.0  2.0452
  U  U2  1  0.521060  0.858950  0.820520  1.0  1.5123
  U  U3  1  0.268240  0.921170  0.584510  1.0  1.4962
  U  U4  1  0.841900  0.497010  0.807620  1.0  1.8552
  U  U5  1  0.813480  0.521010  0.432920  1.0  1.6904
  U  U6  1  0.544150  0.656700  0.237060  1.0  2.0483
  U  U7  1  0.478940  0.141050  0.179480  1.0  1.5096
  U  U8  1  0.731760  0.078830  0.415490  1.0  1.4978
  U  U9  1  0.158100  0.502990  0.192380  1.0  1.8545
  U  U10  1  0.186520  0.478990  0.567080  1.0  1.6896
  H  H11  1  0.499500  0.602100  0.534600  1.0  0.0956
  H  H12  1  0.419400  0.663300  0.584600  1.0  0.1045
  H  H13  1  0.636600  0.610900  0.578100  1.0  0.0916
  H  H14  1  0.635700  0.589100  0.681700  1.0  0.0994
  H  H15  1  0.612500  0.536000  0.914200  1.0  0.0939
  H  H16  1  0.616000  0.577700  0.994000  1.0  0.1025
  H  H17  1  0.459900  0.589200  0.083900  1.0  0.0801
  H  H18  1  0.375500  0.638800  0.039800  1.0  0.0788
  H  H19  1  0.104900  0.673900  0.797800  1.0  0.0924
  H  H20  1  0.197300  0.633300  0.738300  1.0  0.1067
  H  H21  1  0.106400  0.715600  0.925100  1.0  0.0811
  H  H22  1  0.204900  0.741000  0.930600  1.0  0.0972
  H  H23  1  0.875100  0.749200  0.563600  1.0  0.0958
  H  H24  1  0.979300  0.703400  0.560000  1.0  0.0943
  H  H25  1  0.072500  0.674600  0.429300  1.0  0.1008
  H  H26  1  0.056900  0.751300  0.345200  1.0  0.0969
  H  H27  1  0.640500  0.770300  0.570200  1.0  0.0897
  H  H28  1  0.539700  0.823100  0.569300  1.0  0.0954
  H  H29  1  0.549200  0.854100  0.368300  1.0  0.1156
  H  H30  1  0.499400  0.901300  0.447400  1.0  0.1059
  H  H31  1  0.783300  0.861700  0.070800  1.0  0.0965
  H  H32  1  0.723900  0.902800  0.151800  1.0  0.1042
  H  H33  1  0.929300  0.788400  0.073300  1.0  0.08
  H  H34  1  0.960200  0.752000  0.167400  1.0  0.0749
  H  H35  1  0.052400  0.806200  0.076200  1.0  0.2488
  H  H36  1  0.500500  0.397900  0.465400  1.0  0.0977
  H  H37  1  0.580600  0.336700  0.415400  1.0  0.1019
  H  H38  1  0.363400  0.389100  0.421900  1.0  0.0918
  H  H39  1  0.364300  0.410900  0.318300  1.0  0.1013
  H  H40  1  0.387500  0.464000  0.085800  1.0  0.0955
  H  H41  1  0.384000  0.422300  0.006000  1.0  0.1029
  H  H42  1  0.540100  0.410800  0.916100  1.0  0.0773
  H  H43  1  0.624500  0.361200  0.960200  1.0  0.0784
  H  H44  1  0.895100  0.326100  0.202200  1.0  0.0906
  H  H45  1  0.802700  0.366700  0.261700  1.0  0.106
  H  H46  1  0.893600  0.284400  0.074900  1.0  0.0795
  H  H47  1  0.795100  0.259000  0.069400  1.0  0.0986
  H  H48  1  0.124900  0.250800  0.436400  1.0  0.0941
  H  H49  1  0.020700  0.296600  0.440000  1.0  0.0942
  H  H50  1  0.927500  0.325400  0.570700  1.0  0.1015
  H  H51  1  0.943100  0.248700  0.654800  1.0  0.0967
  H  H52  1  0.359500  0.229700  0.429800  1.0  0.0884
  H  H53  1  0.460300  0.176900  0.430700  1.0  0.0896
  H  H54  1  0.450800  0.145900  0.631700  1.0  0.1161
  H  H55  1  0.500600  0.098700  0.552600  1.0  0.1067
  H  H56  1  0.216700  0.138300  0.929200  1.0  0.0969
  H  H57  1  0.276100  0.097200  0.848200  1.0  0.105
  H  H58  1  0.070700  0.211600  0.926700  1.0  0.0812
  H  H59  1  0.039800  0.248000  0.832600  1.0  0.075
  H  H60  1  0.947600  0.193800  0.923800  1.0  0.248
  C  C61  1  0.382200  0.535800  0.608500  1.0  0.7478
  C  C62  1  0.453400  0.603900  0.591800  1.0  -0.0954
  C  C63  1  0.642400  0.479700  0.635500  1.0  0.7598
  C  C64  1  0.610200  0.573000  0.637300  1.0  -0.1008
  C  C65  1  0.668500  0.660100  0.867300  1.0  0.6933
  C  C66  1  0.600600  0.591200  0.935000  1.0  -0.2078
  C  C67  1  0.463300  0.726500  0.049400  1.0  0.6987
  C  C68  1  0.443400  0.638000  0.035600  1.0  -0.1614
  C  C69  1  0.192600  0.770600  0.714500  1.0  0.7031
  C  C70  1  0.173500  0.677400  0.774600  1.0  -0.1608
  C  C71  1  0.166600  0.620400  0.018200  1.0  0.6237
  C  C72  1  0.170900  0.691900  0.930000  1.0  -0.1477
  C  C73  1  0.882200  0.614600  0.582200  1.0  0.7229
  C  C74  1  0.921100  0.703400  0.540900  1.0  -0.1676
  C  C75  1  0.027400  0.627900  0.336600  1.0  0.6911
  C  C76  1  0.029700  0.698900  0.388900  1.0  -0.1477
  C  C77  1  0.634200  0.896900  0.590400  1.0  0.7436
  C  C78  1  0.608200  0.828500  0.548900  1.0  -0.1514
  C  C79  1  0.573200  0.982700  0.338700  1.0  0.7321
  C  C80  1  0.558500  0.895300  0.401900  1.0  -0.161
  C  C81  1  0.690000  0.775300  0.164100  1.0  0.715
  C  C82  1  0.759500  0.848600  0.136500  1.0  -0.1849
  C  C83  1  0.317800  0.637400  0.834600  1.0  0.4165
  C  C84  1  0.456700  0.605200  0.744300  1.0  0.383
  C  C85  1  0.450200  0.619600  0.881400  1.0  0.3769
  C  C86  1  0.869900  0.770300  0.399600  1.0  0.4615
  C  C87  1  0.720100  0.828900  0.402600  1.0  0.5529
  C  C88  1  0.821900  0.820600  0.267500  1.0  0.6024
  C  C89  1  0.929400  0.802300  0.130100  1.0  -0.0202
  C  C90  1  0.973000  0.890000  0.115000  1.0  0.2496
  C  C91  1  0.617800  0.464200  0.391500  1.0  0.7462
  C  C92  1  0.546600  0.396100  0.408200  1.0  -0.0973
  C  C93  1  0.357600  0.520300  0.364500  1.0  0.7642
  C  C94  1  0.389800  0.427000  0.362700  1.0  -0.1021
  C  C95  1  0.331500  0.339900  0.132700  1.0  0.6907
  C  C96  1  0.399400  0.408800  0.065000  1.0  -0.2082
  C  C97  1  0.536700  0.273500  0.950600  1.0  0.6981
  C  C98  1  0.556600  0.362000  0.964400  1.0  -0.1622
  C  C99  1  0.807400  0.229400  0.285500  1.0  0.7041
  C  C100  1  0.826500  0.322600  0.225400  1.0  -0.1603
  C  C101  1  0.833400  0.379600  0.981800  1.0  0.6234
  C  C102  1  0.829100  0.308100  0.070000  1.0  -0.1494
  C  C103  1  0.117800  0.385400  0.417800  1.0  0.7243
  C  C104  1  0.078900  0.296600  0.459100  1.0  -0.1651
  C  C105  1  0.972600  0.372100  0.663400  1.0  0.6891
  C  C106  1  0.970300  0.301100  0.611100  1.0  -0.1495
  C  C107  1  0.365800  0.103100  0.409600  1.0  0.744
  C  C108  1  0.391800  0.171500  0.451100  1.0  -0.1518
  C  C109  1  0.426800  0.017300  0.661300  1.0  0.7326
  C  C110  1  0.441500  0.104700  0.598100  1.0  -0.1622
  C  C111  1  0.310000  0.224700  0.835900  1.0  0.7133
  C  C112  1  0.240500  0.151400  0.863500  1.0  -0.1825
  C  C113  1  0.682200  0.362600  0.165400  1.0  0.4159
  C  C114  1  0.543300  0.394800  0.255700  1.0  0.3829
  C  C115  1  0.549800  0.380400  0.118600  1.0  0.377
  C  C116  1  0.130100  0.229700  0.600400  1.0  0.4606
  C  C117  1  0.279900  0.171100  0.597400  1.0  0.5542
  C  C118  1  0.178100  0.179400  0.732500  1.0  0.6018
  C  C119  1  0.070600  0.197700  0.869900  1.0  -0.0208
  C  C120  1  0.027000  0.110000  0.885000  1.0  0.2539
  N  N121  1  0.504700  0.600500  0.805400  1.0  -0.4328
  N  N122  1  0.355300  0.635300  0.902200  1.0  -0.4203
  N  N123  1  0.361200  0.623800  0.752700  1.0  -0.4637
  N  N124  1  0.504100  0.592600  0.659800  1.0  -0.1634
  N  N125  1  0.219000  0.655300  0.851300  1.0  -0.2185
  N  N126  1  0.498100  0.621300  0.946400  1.0  -0.1595
  N  N127  1  0.787000  0.791400  0.448200  1.0  -0.4745
  N  N128  1  0.732600  0.844300  0.311400  1.0  -0.552
  N  N129  1  0.895400  0.788500  0.305200  1.0  -0.5049
  N  N130  1  0.634600  0.853100  0.450100  1.0  -0.0984
  N  N131  1  0.942400  0.726600  0.440200  1.0  -0.1745
  N  N132  1  0.838500  0.829000  0.176200  1.0  -0.0041
  N  N133  1  0.495300  0.399500  0.194600  1.0  -0.4343
  N  N134  1  0.644700  0.364700  0.097800  1.0  -0.421
  N  N135  1  0.638800  0.376200  0.247300  1.0  -0.4624
  N  N136  1  0.495900  0.407400  0.340200  1.0  -0.1618
  N  N137  1  0.781000  0.344700  0.148700  1.0  -0.2182
  N  N138  1  0.501900  0.378700  0.053600  1.0  -0.1618
  N  N139  1  0.213000  0.208600  0.551800  1.0  -0.4729
  N  N140  1  0.267400  0.155700  0.688600  1.0  -0.5504
  N  N141  1  0.104600  0.211500  0.694800  1.0  -0.5044
  N  N142  1  0.365400  0.146900  0.549900  1.0  -0.1004
  N  N143  1  0.057600  0.273400  0.559800  1.0  -0.175
  N  N144  1  0.161500  0.171000  0.823800  1.0  -0.0017
  O  O145  1  0.308900  0.559900  0.578600  1.0  -0.6839
  O  O146  1  0.401100  0.455900  0.651100  1.0  -0.7767
  O  O147  1  0.596200  0.416000  0.697800  1.0  -0.7349
  O  O148  1  0.718500  0.460300  0.582400  1.0  -0.7487
  O  O149  1  0.755600  0.629900  0.846500  1.0  -0.7384
  O  O150  1  0.638400  0.737000  0.838600  1.0  -0.7691
  O  O151  1  0.486400  0.789300  0.984300  1.0  -0.7302
  O  O152  1  0.447600  0.728700  0.132900  1.0  -0.7194
  O  O153  1  0.237800  0.821800  0.737600  1.0  -0.6628
  O  O154  1  0.168000  0.792700  0.640700  1.0  -0.631
  O  O155  1  0.185600  0.540900  0.025500  1.0  -0.6069
  O  O156  1  0.138000  0.650000  0.091200  1.0  -0.6782
  O  O157  1  0.856900  0.596100  0.665900  1.0  -0.71
  O  O158  1  0.879300  0.559500  0.536300  1.0  -0.7366
  O  O159  1  0.955500  0.589500  0.348400  1.0  -0.7268
  O  O160  1  0.105700  0.611700  0.280800  1.0  -0.7439
  O  O161  1  0.629700  0.873100  0.674700  1.0  -0.7107
  O  O162  1  0.662000  0.972000  0.543000  1.0  -0.7483
  O  O163  1  0.625300  0.031200  0.350400  1.0  -0.7587
  O  O164  1  0.527300  0.006300  0.280000  1.0  -0.6875
  O  O165  1  0.708100  0.701700  0.214200  1.0  -0.6231
  O  O166  1  0.613400  0.794200  0.135300  1.0  -0.6504
  O  O167  1  0.016100  0.953300  0.114100  1.0  -0.4998
  O  O168  1  0.053000  0.860000  0.071000  1.0  -0.558
  O  O169  1  0.691100  0.440100  0.421400  1.0  -0.6852
  O  O170  1  0.598900  0.544100  0.348900  1.0  -0.7732
  O  O171  1  0.403800  0.584000  0.302200  1.0  -0.734
  O  O172  1  0.281500  0.539700  0.417600  1.0  -0.747
  O  O173  1  0.244400  0.370100  0.153500  1.0  -0.7397
  O  O174  1  0.361600  0.263000  0.161400  1.0  -0.7655
  O  O175  1  0.513600  0.210700  0.015700  1.0  -0.7312
  O  O176  1  0.552400  0.271300  0.867100  1.0  -0.7166
  O  O177  1  0.762200  0.178200  0.262400  1.0  -0.6552
  O  O178  1  0.832000  0.207300  0.359300  1.0  -0.6306
  O  O179  1  0.814400  0.459100  0.974500  1.0  -0.6057
  O  O180  1  0.862000  0.350000  0.908800  1.0  -0.6774
  O  O181  1  0.143100  0.403900  0.334100  1.0  -0.7111
  O  O182  1  0.120700  0.440500  0.463700  1.0  -0.7362
  O  O183  1  0.044500  0.410500  0.651600  1.0  -0.7257
  O  O184  1  0.894300  0.388300  0.719200  1.0  -0.7434
  O  O185  1  0.370300  0.126900  0.325300  1.0  -0.7092
  O  O186  1  0.338000  0.028000  0.457000  1.0  -0.7487
  O  O187  1  0.374700  0.968800  0.649600  1.0  -0.7581
  O  O188  1  0.472700  0.993700  0.720000  1.0  -0.6819
  O  O189  1  0.291900  0.298300  0.785800  1.0  -0.6229
  O  O190  1  0.386600  0.205800  0.864700  1.0  -0.6504
  O  O191  1  0.983900  0.046700  0.885900  1.0  -0.5004
  O  O192  1  0.947000  0.140000  0.929000  1.0  -0.5551
