# generated using pymatgen
data_Zn3H21C33N2O11
_symmetry_space_group_name_H-M   'P 1'
_cell_length_a   11.49700000
_cell_length_b   33.54200000
_cell_length_c   12.10600000
_cell_angle_alpha   90.00000000
_cell_angle_beta   116.84000000
_cell_angle_gamma   90.00000000
_symmetry_Int_Tables_number   1
_chemical_formula_structural   Zn3H21C33N2O11
_chemical_formula_sum   'Zn12 H84 C132 N8 O44'
_cell_volume   4165.53559963
_cell_formula_units_Z   4
loop_
 _symmetry_equiv_pos_site_id
 _symmetry_equiv_pos_as_xyz
  1  'x, y, z'
loop_
 _atom_site_type_symbol
 _atom_site_label
 _atom_site_symmetry_multiplicity
 _atom_site_fract_x
 _atom_site_fract_y
 _atom_site_fract_z
 _atom_site_occupancy
 _atom_site_charge
  Zn  Zn1  1  0.745840  0.139470  0.730110  1.0  0.9701
  Zn  Zn2  1  0.476350  0.130190  0.761940  1.0  1.0879
  Zn  Zn3  1  0.758690  0.145820  0.011570  1.0  1.0794
  Zn  Zn4  1  0.254160  0.639470  0.769890  1.0  0.9664
  Zn  Zn5  1  0.523650  0.630190  0.738060  1.0  1.086
  Zn  Zn6  1  0.241310  0.645820  0.488430  1.0  1.0823
  Zn  Zn7  1  0.254160  0.860530  0.269890  1.0  0.9613
  Zn  Zn8  1  0.523650  0.869810  0.238060  1.0  1.0862
  Zn  Zn9  1  0.241310  0.854180  0.988430  1.0  1.0824
  Zn  Zn10  1  0.745840  0.360530  0.230110  1.0  0.9632
  Zn  Zn11  1  0.476350  0.369810  0.261940  1.0  1.0882
  Zn  Zn12  1  0.758690  0.354180  0.511570  1.0  1.0803
  H  H13  1  0.011400  0.107000  0.766100  1.0  0.0681
  H  H14  1  0.134900  0.100800  0.661000  1.0  0.1259
  H  H15  1  0.822900  0.132700  0.351800  1.0  0.1151
  H  H16  1  0.709000  0.139500  0.466300  1.0  0.0733
  H  H17  1  0.186300  0.067800  0.510400  1.0  0.1174
  H  H18  1  0.293800  0.066300  0.388700  1.0  0.0827
  H  H19  1  0.102900  0.161600  0.207300  1.0  0.0886
  H  H20  1  0.983700  0.162100  0.315300  1.0  0.1125
  H  H21  1  0.649000  0.180100  0.837200  1.0  0.4387
  H  H22  1  0.460700  0.107300  0.363100  1.0  0.1196
  H  H23  1  0.573300  0.108200  0.242200  1.0  0.0882
  H  H24  1  0.239000  0.124000  0.936200  1.0  0.1018
  H  H25  1  0.123500  0.120900  0.053600  1.0  0.1035
  H  H26  1  0.158500  0.201900  0.654700  1.0  0.1135
  H  H27  1  0.010200  0.253500  0.605400  1.0  0.0933
  H  H28  1  0.087500  0.286000  0.325800  1.0  0.1008
  H  H29  1  0.241900  0.236400  0.380900  1.0  0.095
  H  H30  1  0.391300  0.010400  0.618600  1.0  0.0992
  H  H31  1  0.641900  0.047900  0.492100  1.0  0.0999
  H  H32  1  0.995600  0.036200  0.160700  1.0  0.0913
  H  H33  1  0.899300  0.024400  0.799900  1.0  0.0975
  H  H34  1  0.988600  0.607000  0.733900  1.0  0.0693
  H  H35  1  0.865100  0.600800  0.839000  1.0  0.1268
  H  H36  1  0.177100  0.632700  0.148200  1.0  0.1151
  H  H37  1  0.291000  0.639500  0.033700  1.0  0.0717
  H  H38  1  0.813700  0.567800  0.989600  1.0  0.1173
  H  H39  1  0.706200  0.566300  0.111300  1.0  0.0826
  H  H40  1  0.897100  0.661600  0.292700  1.0  0.0884
  H  H41  1  0.016300  0.662100  0.184700  1.0  0.1123
  H  H42  1  0.351000  0.680100  0.662800  1.0  0.4385
  H  H43  1  0.539300  0.607300  0.136900  1.0  0.1208
  H  H44  1  0.426700  0.608200  0.257800  1.0  0.0888
  H  H45  1  0.761000  0.624000  0.563800  1.0  0.1025
  H  H46  1  0.876500  0.620900  0.446400  1.0  0.1039
  H  H47  1  0.841500  0.701900  0.845300  1.0  0.1134
  H  H48  1  0.989800  0.753500  0.894600  1.0  0.0927
  H  H49  1  0.912500  0.786000  0.174200  1.0  0.1008
  H  H50  1  0.758100  0.736400  0.119100  1.0  0.0945
  H  H51  1  0.608700  0.510400  0.881400  1.0  0.0992
  H  H52  1  0.358100  0.547900  0.007900  1.0  0.1
  H  H53  1  0.004400  0.536200  0.339300  1.0  0.0912
  H  H54  1  0.100700  0.524400  0.700100  1.0  0.0973
  H  H55  1  0.988600  0.893000  0.233900  1.0  0.0693
  H  H56  1  0.865100  0.899200  0.339000  1.0  0.1269
  H  H57  1  0.177100  0.867300  0.648200  1.0  0.1153
  H  H58  1  0.291000  0.860500  0.533700  1.0  0.0716
  H  H59  1  0.813700  0.932200  0.489600  1.0  0.1174
  H  H60  1  0.706200  0.933700  0.611300  1.0  0.083
  H  H61  1  0.897100  0.838400  0.792700  1.0  0.0885
  H  H62  1  0.016300  0.837900  0.684700  1.0  0.1124
  H  H63  1  0.351000  0.819900  0.162800  1.0  0.4372
  H  H64  1  0.539300  0.892700  0.636900  1.0  0.1206
  H  H65  1  0.426700  0.891800  0.757800  1.0  0.0885
  H  H66  1  0.761000  0.876000  0.063800  1.0  0.1025
  H  H67  1  0.876500  0.879100  0.946400  1.0  0.1041
  H  H68  1  0.841500  0.798100  0.345300  1.0  0.1132
  H  H69  1  0.989800  0.746500  0.394600  1.0  0.093
  H  H70  1  0.912500  0.714000  0.674200  1.0  0.101
  H  H71  1  0.758100  0.763600  0.619100  1.0  0.0947
  H  H72  1  0.608700  0.989600  0.381400  1.0  0.099
  H  H73  1  0.358100  0.952100  0.507900  1.0  0.1002
  H  H74  1  0.004400  0.963800  0.839300  1.0  0.0914
  H  H75  1  0.100700  0.975600  0.200100  1.0  0.0975
  H  H76  1  0.011400  0.393000  0.266100  1.0  0.068
  H  H77  1  0.134900  0.399200  0.161000  1.0  0.1254
  H  H78  1  0.822900  0.367300  0.851800  1.0  0.1151
  H  H79  1  0.709000  0.360500  0.966300  1.0  0.0732
  H  H80  1  0.186300  0.432200  0.010400  1.0  0.1177
  H  H81  1  0.293800  0.433700  0.888700  1.0  0.0831
  H  H82  1  0.102900  0.338400  0.707300  1.0  0.0882
  H  H83  1  0.983700  0.337900  0.815300  1.0  0.112
  H  H84  1  0.649000  0.319900  0.337200  1.0  0.4375
  H  H85  1  0.460700  0.392700  0.863100  1.0  0.1205
  H  H86  1  0.573300  0.391800  0.742200  1.0  0.0882
  H  H87  1  0.239000  0.376000  0.436200  1.0  0.1021
  H  H88  1  0.123500  0.379100  0.553600  1.0  0.1039
  H  H89  1  0.158500  0.298100  0.154700  1.0  0.1131
  H  H90  1  0.010200  0.246500  0.105400  1.0  0.0934
  H  H91  1  0.087500  0.214000  0.825800  1.0  0.1009
  H  H92  1  0.241900  0.263600  0.880900  1.0  0.095
  H  H93  1  0.391300  0.489600  0.118600  1.0  0.099
  H  H94  1  0.641900  0.452100  0.992100  1.0  0.1006
  H  H95  1  0.995600  0.463800  0.660700  1.0  0.0915
  H  H96  1  0.899300  0.475600  0.299900  1.0  0.0977
  C  C97  1  0.973200  0.112600  0.681700  1.0  0.1527
  C  C98  1  0.048100  0.108600  0.619500  1.0  -0.2026
  C  C99  1  0.990800  0.116500  0.494800  1.0  0.0328
  C  C100  1  0.863600  0.127600  0.436400  1.0  -0.2275
  C  C101  1  0.795700  0.131400  0.506000  1.0  0.1668
  C  C102  1  0.070000  0.114800  0.422500  1.0  0.0428
  C  C103  1  0.166600  0.086300  0.447300  1.0  -0.1656
  C  C104  1  0.232500  0.086100  0.376000  1.0  0.0189
  C  C105  1  0.118300  0.142200  0.267300  1.0  0.0399
  C  C106  1  0.047500  0.142700  0.332300  1.0  -0.1559
  C  C107  1  0.283600  0.114600  0.216500  1.0  0.1475
  C  C108  1  0.416800  0.110400  0.277700  1.0  -0.2238
  C  C109  1  0.483200  0.111200  0.205000  1.0  -0.0274
  C  C110  1  0.415600  0.116300  0.078300  1.0  -0.1527
  C  C111  1  0.283200  0.120300  0.021400  1.0  -0.0239
  C  C112  1  0.213900  0.118900  0.091200  1.0  -0.2013
  C  C113  1  0.486100  0.119500  0.997700  1.0  0.7203
  C  C114  1  0.318400  0.182300  0.559100  1.0  0.6642
  C  C115  1  0.216200  0.214500  0.522800  1.0  -0.1562
  C  C116  1  0.145700  0.219200  0.590300  1.0  -0.0484
  C  C117  1  0.056600  0.250000  0.560000  1.0  -0.0077
  C  C118  1  0.035500  0.275740  0.463500  1.0  -0.1392
  C  C119  1  0.103700  0.269700  0.393500  1.0  -0.0643
  C  C120  1  0.194500  0.239700  0.425500  1.0  -0.0323
  C  C121  1  0.939800  0.309060  0.431800  1.0  0.7136
  C  C122  1  0.535000  0.073710  0.633200  1.0  0.6775
  C  C123  1  0.519200  0.035320  0.566900  1.0  -0.1341
  C  C124  1  0.434800  0.006190  0.570900  1.0  -0.013
  C  C125  1  0.585100  0.028750  0.495100  1.0  -0.061
  C  C126  1  0.865500  0.076880  0.948500  1.0  0.6594
  C  C127  1  0.937000  0.037100  0.977000  1.0  -0.1332
  C  C128  1  0.997300  0.021800  0.095800  1.0  -0.0721
  C  C129  1  0.939900  0.014700  0.880500  1.0  -0.0562
  C  C130  1  0.026800  0.612600  0.818300  1.0  0.1513
  C  C131  1  0.951900  0.608600  0.880500  1.0  -0.2032
  C  C132  1  0.009200  0.616500  0.005200  1.0  0.0344
  C  C133  1  0.136400  0.627600  0.063600  1.0  -0.2267
  C  C134  1  0.204300  0.631400  0.994000  1.0  0.1686
  C  C135  1  0.930000  0.614800  0.077500  1.0  0.0441
  C  C136  1  0.833400  0.586300  0.052700  1.0  -0.1677
  C  C137  1  0.767500  0.586100  0.124000  1.0  0.0188
  C  C138  1  0.881700  0.642200  0.232700  1.0  0.0392
  C  C139  1  0.952500  0.642700  0.167700  1.0  -0.157
  C  C140  1  0.716400  0.614600  0.283500  1.0  0.1475
  C  C141  1  0.583200  0.610400  0.222300  1.0  -0.2258
  C  C142  1  0.516800  0.611200  0.295000  1.0  -0.0272
  C  C143  1  0.584400  0.616300  0.421700  1.0  -0.1527
  C  C144  1  0.716800  0.620300  0.478600  1.0  -0.0246
  C  C145  1  0.786100  0.618900  0.408800  1.0  -0.2025
  C  C146  1  0.513900  0.619500  0.502300  1.0  0.7208
  C  C147  1  0.681600  0.682300  0.940900  1.0  0.6648
  C  C148  1  0.783800  0.714500  0.977200  1.0  -0.1566
  C  C149  1  0.854300  0.719200  0.909700  1.0  -0.0469
  C  C150  1  0.943400  0.750000  0.940000  1.0  -0.0085
  C  C151  1  0.964500  0.775740  0.036500  1.0  -0.1374
  C  C152  1  0.896300  0.769700  0.106500  1.0  -0.0644
  C  C153  1  0.805500  0.739700  0.074500  1.0  -0.0313
  C  C154  1  0.060200  0.809060  0.068200  1.0  0.712
  C  C155  1  0.465000  0.573710  0.866800  1.0  0.6778
  C  C156  1  0.480800  0.535320  0.933100  1.0  -0.1329
  C  C157  1  0.565200  0.506190  0.929100  1.0  -0.0155
  C  C158  1  0.414900  0.528750  0.004900  1.0  -0.0617
  C  C159  1  0.134500  0.576880  0.551500  1.0  0.6601
  C  C160  1  0.063000  0.537100  0.523000  1.0  -0.1337
  C  C161  1  0.002700  0.521800  0.404200  1.0  -0.0719
  C  C162  1  0.060100  0.514700  0.619500  1.0  -0.0573
  C  C163  1  0.026800  0.887400  0.318300  1.0  0.1516
  C  C164  1  0.951900  0.891400  0.380500  1.0  -0.2037
  C  C165  1  0.009200  0.883500  0.505200  1.0  0.0344
  C  C166  1  0.136400  0.872400  0.563600  1.0  -0.2266
  C  C167  1  0.204300  0.868600  0.494000  1.0  0.1692
  C  C168  1  0.930000  0.885200  0.577500  1.0  0.0438
  C  C169  1  0.833400  0.913700  0.552700  1.0  -0.1672
  C  C170  1  0.767500  0.913900  0.624000  1.0  0.0185
  C  C171  1  0.881700  0.857800  0.732700  1.0  0.039
  C  C172  1  0.952500  0.857300  0.667700  1.0  -0.1565
  C  C173  1  0.716400  0.885400  0.783500  1.0  0.1475
  C  C174  1  0.583200  0.889600  0.722300  1.0  -0.226
  C  C175  1  0.516800  0.888800  0.795000  1.0  -0.0272
  C  C176  1  0.584400  0.883700  0.921700  1.0  -0.1528
  C  C177  1  0.716800  0.879700  0.978600  1.0  -0.0245
  C  C178  1  0.786100  0.881100  0.908800  1.0  -0.2024
  C  C179  1  0.513900  0.880500  0.002300  1.0  0.7202
  C  C180  1  0.681600  0.817700  0.440900  1.0  0.6625
  C  C181  1  0.783800  0.785500  0.477200  1.0  -0.1565
  C  C182  1  0.854300  0.780800  0.409700  1.0  -0.0468
  C  C183  1  0.943400  0.750000  0.440000  1.0  -0.0085
  C  C184  1  0.964500  0.724260  0.536500  1.0  -0.1376
  C  C185  1  0.896300  0.730300  0.606500  1.0  -0.0645
  C  C186  1  0.805500  0.760300  0.574500  1.0  -0.0309
  C  C187  1  0.060200  0.690940  0.568200  1.0  0.7121
  C  C188  1  0.465000  0.926290  0.366800  1.0  0.6779
  C  C189  1  0.480800  0.964680  0.433100  1.0  -0.133
  C  C190  1  0.565200  0.993810  0.429100  1.0  -0.0154
  C  C191  1  0.414900  0.971250  0.504900  1.0  -0.0621
  C  C192  1  0.134500  0.923120  0.051500  1.0  0.6606
  C  C193  1  0.063000  0.962900  0.023000  1.0  -0.1329
  C  C194  1  0.002700  0.978200  0.904200  1.0  -0.0675
  C  C195  1  0.060100  0.985300  0.119500  1.0  -0.0575
  C  C196  1  0.973200  0.387400  0.181700  1.0  0.1523
  C  C197  1  0.048100  0.391400  0.119500  1.0  -0.2037
  C  C198  1  0.990800  0.383500  0.994800  1.0  0.0324
  C  C199  1  0.863600  0.372400  0.936400  1.0  -0.2276
  C  C200  1  0.795700  0.368600  0.006000  1.0  0.1681
  C  C201  1  0.070000  0.385200  0.922500  1.0  0.0428
  C  C202  1  0.166600  0.413700  0.947300  1.0  -0.1658
  C  C203  1  0.232500  0.413900  0.876000  1.0  0.0192
  C  C204  1  0.118300  0.357800  0.767300  1.0  0.0393
  C  C205  1  0.047500  0.357300  0.832300  1.0  -0.1557
  C  C206  1  0.283600  0.385400  0.716500  1.0  0.1474
  C  C207  1  0.416800  0.389600  0.777700  1.0  -0.2238
  C  C208  1  0.483200  0.388800  0.705000  1.0  -0.0275
  C  C209  1  0.415600  0.383700  0.578300  1.0  -0.1526
  C  C210  1  0.283200  0.379700  0.521400  1.0  -0.0238
  C  C211  1  0.213900  0.381100  0.591200  1.0  -0.2009
  C  C212  1  0.486100  0.380500  0.497700  1.0  0.7198
  C  C213  1  0.318400  0.317700  0.059100  1.0  0.6632
  C  C214  1  0.216200  0.285500  0.022800  1.0  -0.1561
  C  C215  1  0.145700  0.280800  0.090300  1.0  -0.0479
  C  C216  1  0.056600  0.250000  0.060000  1.0  -0.0075
  C  C217  1  0.035500  0.224260  0.963500  1.0  -0.1396
  C  C218  1  0.103700  0.230300  0.893500  1.0  -0.0643
  C  C219  1  0.194500  0.260300  0.925500  1.0  -0.0327
  C  C220  1  0.939800  0.190940  0.931800  1.0  0.7138
  C  C221  1  0.535000  0.426290  0.133200  1.0  0.6777
  C  C222  1  0.519200  0.464680  0.066900  1.0  -0.1339
  C  C223  1  0.434800  0.493810  0.070900  1.0  -0.0131
  C  C224  1  0.585100  0.471250  0.995100  1.0  -0.0611
  C  C225  1  0.865500  0.423120  0.448500  1.0  0.6595
  C  C226  1  0.937000  0.462900  0.477000  1.0  -0.1331
  C  C227  1  0.997300  0.478200  0.595800  1.0  -0.0683
  C  C228  1  0.939900  0.485300  0.380500  1.0  -0.0554
  N  N229  1  0.848900  0.123980  0.626300  1.0  -0.3081
  N  N230  1  0.209900  0.114190  0.288100  1.0  0.0417
  N  N231  1  0.151100  0.623980  0.873700  1.0  -0.3098
  N  N232  1  0.790100  0.614190  0.211900  1.0  0.0413
  N  N233  1  0.151100  0.876020  0.373700  1.0  -0.3098
  N  N234  1  0.790100  0.885810  0.711900  1.0  0.0413
  N  N235  1  0.848900  0.376020  0.126300  1.0  -0.3078
  N  N236  1  0.209900  0.385810  0.788100  1.0  0.0417
  O  O237  1  0.606800  0.117760  0.048600  1.0  -0.6471
  O  O238  1  0.413300  0.122500  0.885600  1.0  -0.5895
  O  O239  1  0.330400  0.161510  0.650900  1.0  -0.6114
  O  O240  1  0.380700  0.177620  0.498400  1.0  -0.5535
  O  O241  1  0.913200  0.320930  0.515700  1.0  -0.6282
  O  O242  1  0.896000  0.322670  0.325100  1.0  -0.6034
  O  O243  1  0.593700  0.101640  0.610300  1.0  -0.6112
  O  O244  1  0.483300  0.076160  0.705500  1.0  -0.6
  O  O245  1  0.826300  0.089620  0.842000  1.0  -0.5984
  O  O246  1  0.851900  0.093810  0.038300  1.0  -0.5887
  O  O247  1  0.645200  0.156450  0.833300  1.0  -0.9984
  O  O248  1  0.393200  0.617760  0.451400  1.0  -0.6472
  O  O249  1  0.586700  0.622500  0.614400  1.0  -0.5898
  O  O250  1  0.669600  0.661510  0.849100  1.0  -0.6105
  O  O251  1  0.619300  0.677620  0.001600  1.0  -0.5549
  O  O252  1  0.086800  0.820930  0.984300  1.0  -0.6295
  O  O253  1  0.104000  0.822670  0.174900  1.0  -0.6041
  O  O254  1  0.406300  0.601640  0.889700  1.0  -0.6122
  O  O255  1  0.516700  0.576160  0.794500  1.0  -0.5979
  O  O256  1  0.173700  0.589620  0.658000  1.0  -0.5986
  O  O257  1  0.148100  0.593810  0.461700  1.0  -0.5894
  O  O258  1  0.354800  0.656450  0.666667  1.0  -0.999
  O  O259  1  0.393200  0.882240  0.951400  1.0  -0.6477
  O  O260  1  0.586700  0.877500  0.114400  1.0  -0.5898
  O  O261  1  0.669600  0.838490  0.349100  1.0  -0.6102
  O  O262  1  0.619300  0.822380  0.501600  1.0  -0.5518
  O  O263  1  0.086800  0.679070  0.484300  1.0  -0.6282
  O  O264  1  0.104000  0.677330  0.674900  1.0  -0.6042
  O  O265  1  0.406300  0.898360  0.389700  1.0  -0.6128
  O  O266  1  0.516700  0.923840  0.294500  1.0  -0.5989
  O  O267  1  0.173700  0.910380  0.158000  1.0  -0.5993
  O  O268  1  0.148100  0.906190  0.961700  1.0  -0.5887
  O  O269  1  0.354800  0.843550  0.166700  1.0  -0.9977
  O  O270  1  0.606800  0.382240  0.548600  1.0  -0.648
  O  O271  1  0.413300  0.377500  0.385600  1.0  -0.5891
  O  O272  1  0.330400  0.338490  0.150900  1.0  -0.6108
  O  O273  1  0.380700  0.322380  0.998400  1.0  -0.5528
  O  O274  1  0.913200  0.179070  0.015700  1.0  -0.6275
  O  O275  1  0.896000  0.177330  0.825100  1.0  -0.603
  O  O276  1  0.593700  0.398360  0.110300  1.0  -0.6119
  O  O277  1  0.483300  0.423840  0.205500  1.0  -0.6007
  O  O278  1  0.826300  0.410380  0.342000  1.0  -0.5986
  O  O279  1  0.851900  0.406190  0.538300  1.0  -0.5884
  O  O280  1  0.645200  0.343550  0.333333  1.0  -0.9978
