# generated using pymatgen
data_Co5H6(C10O9)2
_symmetry_space_group_name_H-M   'P 1'
_cell_length_a   7.45200000
_cell_length_b   14.58600000
_cell_length_c   16.47200000
_cell_angle_alpha   90.00000000
_cell_angle_beta   90.00000000
_cell_angle_gamma   95.46000000
_symmetry_Int_Tables_number   1
_chemical_formula_structural   Co5H6(C10O9)2
_chemical_formula_sum   'Co10 H12 C40 O36'
_cell_volume   1782.29855228
_cell_formula_units_Z   2
loop_
 _symmetry_equiv_pos_site_id
 _symmetry_equiv_pos_as_xyz
  1  'x, y, z'
loop_
 _atom_site_type_symbol
 _atom_site_label
 _atom_site_symmetry_multiplicity
 _atom_site_fract_x
 _atom_site_fract_y
 _atom_site_fract_z
 _atom_site_occupancy
 _atom_site_charge
  Co  Co1  1  0.209000  0.676110  0.486470  1.0  1.0933
  Co  Co2  1  0.188710  0.472510  0.372160  1.0  1.1232
  Co  Co3  1  0.291000  0.823890  0.986470  1.0  1.0929
  Co  Co4  1  0.311290  0.027490  0.872160  1.0  1.1223
  Co  Co5  1  0.791000  0.323890  0.513530  1.0  1.0923
  Co  Co6  1  0.811290  0.527490  0.627840  1.0  1.1189
  Co  Co7  1  0.709000  0.176110  0.013530  1.0  1.0929
  Co  Co8  1  0.688710  0.972510  0.127840  1.0  1.119
  Co  Co9  1  0.500000  0.500000  0.500000  1.0  1.2117
  Co  Co10  1  0.000000  0.000000  0.000000  1.0  1.2118
  H  H11  1  0.837000  0.490200  0.475900  1.0  0.4511
  H  H12  1  0.432100  0.669600  0.205100  1.0  0.1181
  H  H13  1  0.050500  0.725900  0.225000  1.0  0.1145
  H  H14  1  0.663000  0.009800  0.975900  1.0  0.4514
  H  H15  1  0.067900  0.830400  0.705100  1.0  0.1174
  H  H16  1  0.449500  0.774100  0.725000  1.0  0.1157
  H  H17  1  0.163000  0.509800  0.524100  1.0  0.4512
  H  H18  1  0.567900  0.330400  0.794900  1.0  0.1172
  H  H19  1  0.949500  0.274100  0.775000  1.0  0.1158
  H  H20  1  0.337000  0.990200  0.024100  1.0  0.4507
  H  H21  1  0.932100  0.169600  0.294900  1.0  0.1183
  H  H22  1  0.550500  0.225900  0.275000  1.0  0.1147
  C  C23  1  0.832700  0.663200  0.280500  1.0  -0.0282
  C  C24  1  0.646700  0.645800  0.275600  1.0  -0.121
  C  C25  1  0.556100  0.683300  0.210100  1.0  -0.0212
  C  C26  1  0.647400  0.740200  0.152700  1.0  -0.111
  C  C27  1  0.835500  0.756000  0.158700  1.0  -0.1008
  C  C28  1  0.925500  0.716300  0.222100  1.0  -0.0579
  C  C29  1  0.943700  0.625800  0.346600  1.0  0.7163
  C  C30  1  0.532100  0.591600  0.337200  1.0  0.7009
  C  C31  1  0.530500  0.778500  0.088700  1.0  0.6914
  C  C32  1  0.951400  0.816800  0.101900  1.0  0.7383
  C  C33  1  0.667300  0.836800  0.780500  1.0  -0.0276
  C  C34  1  0.853300  0.854200  0.775600  1.0  -0.1214
  C  C35  1  0.943900  0.816700  0.710100  1.0  -0.0194
  C  C36  1  0.852600  0.759800  0.652700  1.0  -0.1109
  C  C37  1  0.664500  0.744000  0.658700  1.0  -0.1002
  C  C38  1  0.574500  0.783700  0.722100  1.0  -0.0611
  C  C39  1  0.556300  0.874200  0.846600  1.0  0.7173
  C  C40  1  0.967900  0.908400  0.837200  1.0  0.7001
  C  C41  1  0.969500  0.721500  0.588700  1.0  0.6923
  C  C42  1  0.548600  0.683200  0.601900  1.0  0.7388
  C  C43  1  0.167300  0.336800  0.719500  1.0  -0.0279
  C  C44  1  0.353300  0.354200  0.724400  1.0  -0.1213
  C  C45  1  0.443900  0.316700  0.789900  1.0  -0.0195
  C  C46  1  0.352600  0.259800  0.847300  1.0  -0.1104
  C  C47  1  0.164500  0.244000  0.841300  1.0  -0.1003
  C  C48  1  0.074500  0.283700  0.777900  1.0  -0.0615
  C  C49  1  0.056300  0.374200  0.653400  1.0  0.7172
  C  C50  1  0.467900  0.408400  0.662800  1.0  0.7008
  C  C51  1  0.469500  0.221500  0.911300  1.0  0.6922
  C  C52  1  0.048600  0.183200  0.898100  1.0  0.7392
  C  C53  1  0.332700  0.163200  0.219500  1.0  -0.0283
  C  C54  1  0.146700  0.145800  0.224400  1.0  -0.1211
  C  C55  1  0.056100  0.183300  0.289900  1.0  -0.0212
  C  C56  1  0.147400  0.240200  0.347300  1.0  -0.1107
  C  C57  1  0.335500  0.256000  0.341300  1.0  -0.1004
  C  C58  1  0.425500  0.216300  0.277900  1.0  -0.0581
  C  C59  1  0.443700  0.125800  0.153400  1.0  0.7164
  C  C60  1  0.032100  0.091600  0.162800  1.0  0.7018
  C  C61  1  0.030500  0.278500  0.411300  1.0  0.6911
  C  C62  1  0.451400  0.316800  0.398100  1.0  0.7388
  O  O63  1  0.962200  0.539400  0.343500  1.0  -0.6385
  O  O64  1  0.014200  0.679800  0.396700  1.0  -0.6004
  O  O65  1  0.373700  0.562000  0.317600  1.0  -0.6317
  O  O66  1  0.602900  0.582100  0.405600  1.0  -0.5892
  O  O67  1  0.520300  0.863200  0.082700  1.0  -0.625
  O  O68  1  0.432900  0.723200  0.046900  1.0  -0.544
  O  O69  1  0.093900  0.788500  0.075800  1.0  -0.6
  O  O70  1  0.899700  0.896400  0.084300  1.0  -0.6696
  O  O71  1  0.758000  0.459300  0.517200  1.0  -1.01
  O  O72  1  0.537800  0.960600  0.843500  1.0  -0.6387
  O  O73  1  0.485800  0.820200  0.896700  1.0  -0.6018
  O  O74  1  0.126300  0.938000  0.817600  1.0  -0.6323
  O  O75  1  0.897100  0.917900  0.905600  1.0  -0.5893
  O  O76  1  0.979700  0.636800  0.582700  1.0  -0.6245
  O  O77  1  0.067100  0.776800  0.546900  1.0  -0.5453
  O  O78  1  0.406100  0.711500  0.575800  1.0  -0.5994
  O  O79  1  0.600300  0.603600  0.584300  1.0  -0.6703
  O  O80  1  0.742000  0.040700  0.017200  1.0  -1.0105
  O  O81  1  0.037800  0.460600  0.656500  1.0  -0.6388
  O  O82  1  0.985800  0.320200  0.603300  1.0  -0.6015
  O  O83  1  0.626300  0.438000  0.682400  1.0  -0.6315
  O  O84  1  0.397100  0.417900  0.594400  1.0  -0.5898
  O  O85  1  0.479700  0.136800  0.917300  1.0  -0.6247
  O  O86  1  0.567100  0.276800  0.953100  1.0  -0.5456
  O  O87  1  0.906100  0.211500  0.924200  1.0  -0.5992
  O  O88  1  0.100300  0.103600  0.915700  1.0  -0.6704
  O  O89  1  0.242000  0.540700  0.482800  1.0  -1.0111
  O  O90  1  0.462200  0.039400  0.156500  1.0  -0.6387
  O  O91  1  0.514200  0.179800  0.103300  1.0  -0.6008
  O  O92  1  0.873700  0.062000  0.182400  1.0  -0.6324
  O  O93  1  0.102900  0.082100  0.094400  1.0  -0.5899
  O  O94  1  0.020300  0.363200  0.417300  1.0  -0.6254
  O  O95  1  0.932900  0.223200  0.453100  1.0  -0.5449
  O  O96  1  0.593900  0.288500  0.424200  1.0  -0.5998
  O  O97  1  0.399700  0.396400  0.415700  1.0  -0.6701
  O  O98  1  0.258000  0.959300  0.982800  1.0  -1.0107
