# generated using pymatgen
data_Co5H4(C10O9)2
_symmetry_space_group_name_H-M   'P 1'
_cell_length_a   7.41200000
_cell_length_b   16.46660000
_cell_length_c   14.50280000
_cell_angle_alpha   90.00000000
_cell_angle_beta   95.35200000
_cell_angle_gamma   90.00000000
_symmetry_Int_Tables_number   1
_chemical_formula_structural   Co5H4(C10O9)2
_chemical_formula_sum   'Co10 H8 C40 O36'
_cell_volume   1762.35639666
_cell_formula_units_Z   2
loop_
 _symmetry_equiv_pos_site_id
 _symmetry_equiv_pos_as_xyz
  1  'x, y, z'
loop_
 _atom_site_type_symbol
 _atom_site_label
 _atom_site_symmetry_multiplicity
 _atom_site_fract_x
 _atom_site_fract_y
 _atom_site_fract_z
 _atom_site_occupancy
 _atom_site_charge
  Co  Co1  1  0.709140  0.013250  0.676710  1.0  1.0385
  Co  Co2  1  0.689010  0.127920  0.473370  1.0  1.0717
  Co  Co3  1  0.790860  0.513250  0.823290  1.0  1.036
  Co  Co4  1  0.810990  0.627920  0.026630  1.0  1.0696
  Co  Co5  1  0.290860  0.986750  0.323290  1.0  1.0367
  Co  Co6  1  0.310990  0.872080  0.526630  1.0  1.0676
  Co  Co7  1  0.209140  0.486750  0.176710  1.0  1.0392
  Co  Co8  1  0.189010  0.372080  0.973370  1.0  1.0698
  Co  Co9  1  0.000000  0.000000  0.500000  1.0  1.1991
  Co  Co10  1  0.500000  0.500000  0.000000  1.0  1.1966
  H  H11  1  0.932300  0.295600  0.669200  1.0  0.1241
  H  H12  1  0.551700  0.274600  0.725800  1.0  0.1286
  H  H13  1  0.567700  0.795600  0.830800  1.0  0.1235
  H  H14  1  0.948300  0.774600  0.774200  1.0  0.128
  H  H15  1  0.067700  0.704400  0.330800  1.0  0.1236
  H  H16  1  0.448300  0.725400  0.274200  1.0  0.1278
  H  H17  1  0.432300  0.204400  0.169200  1.0  0.1243
  H  H18  1  0.051700  0.225400  0.225800  1.0  0.1283
  C  C19  1  0.442600  0.152080  0.624700  1.0  0.7309
  C  C20  1  0.337300  0.340090  0.757870  1.0  -0.0844
  C  C21  1  0.144100  0.224850  0.646970  1.0  -0.1329
  C  C22  1  0.452500  0.397850  0.818450  1.0  0.7519
  C  C23  1  0.331400  0.218970  0.662960  1.0  -0.0209
  C  C24  1  0.056600  0.289840  0.683480  1.0  -0.0199
  C  C25  1  0.031600  0.162230  0.592790  1.0  0.7272
  C  C26  1  0.426000  0.277480  0.716950  1.0  -0.0502
  C  C27  1  0.147600  0.346540  0.740380  1.0  -0.078
  C  C28  1  0.030100  0.410130  0.778590  1.0  0.7053
  C  C29  1  0.057400  0.652080  0.875300  1.0  0.7316
  C  C30  1  0.162700  0.840090  0.742130  1.0  -0.0838
  C  C31  1  0.355900  0.724850  0.853030  1.0  -0.1337
  C  C32  1  0.047500  0.897850  0.681550  1.0  0.7515
  C  C33  1  0.168600  0.718970  0.837040  1.0  -0.0202
  C  C34  1  0.443400  0.789840  0.816520  1.0  -0.0169
  C  C35  1  0.468400  0.662230  0.907210  1.0  0.7278
  C  C36  1  0.074000  0.777480  0.783050  1.0  -0.0529
  C  C37  1  0.352400  0.846540  0.759620  1.0  -0.0764
  C  C38  1  0.469900  0.910130  0.721410  1.0  0.7059
  C  C39  1  0.557400  0.847920  0.375300  1.0  0.7318
  C  C40  1  0.662700  0.659910  0.242130  1.0  -0.0845
  C  C41  1  0.855900  0.775150  0.353030  1.0  -0.134
  C  C42  1  0.547500  0.602150  0.181550  1.0  0.7511
  C  C43  1  0.668600  0.781030  0.337040  1.0  -0.0196
  C  C44  1  0.943400  0.710160  0.316520  1.0  -0.0171
  C  C45  1  0.968400  0.837770  0.407210  1.0  0.7284
  C  C46  1  0.574000  0.722520  0.283050  1.0  -0.0528
  C  C47  1  0.852400  0.653460  0.259620  1.0  -0.0767
  C  C48  1  0.969900  0.589870  0.221410  1.0  0.7065
  C  C49  1  0.942600  0.347920  0.124700  1.0  0.7315
  C  C50  1  0.837300  0.159910  0.257870  1.0  -0.0846
  C  C51  1  0.644100  0.275150  0.146970  1.0  -0.133
  C  C52  1  0.952500  0.102150  0.318450  1.0  0.7512
  C  C53  1  0.831400  0.281030  0.162960  1.0  -0.0203
  C  C54  1  0.556600  0.210160  0.183480  1.0  -0.0197
  C  C55  1  0.531600  0.337770  0.092790  1.0  0.7278
  C  C56  1  0.926000  0.222520  0.216950  1.0  -0.0503
  C  C57  1  0.647600  0.153460  0.240380  1.0  -0.0783
  C  C58  1  0.530100  0.089870  0.278590  1.0  0.7063
  O  O59  1  0.741100  0.016560  0.540000  1.0  -0.7134
  O  O60  1  0.514000  0.102960  0.681470  1.0  -0.6013
  O  O61  1  0.463000  0.155460  0.539530  1.0  -0.6087
  O  O62  1  0.019300  0.417610  0.864390  1.0  -0.612
  O  O63  1  0.102100  0.094160  0.582450  1.0  -0.574
  O  O64  1  0.931400  0.451940  0.722500  1.0  -0.5436
  O  O65  1  0.400600  0.415280  0.896890  1.0  -0.6384
  O  O66  1  0.873100  0.183020  0.564730  1.0  -0.6033
  O  O67  1  0.592300  0.423040  0.788640  1.0  -0.5925
  O  O68  1  0.758900  0.516560  0.960000  1.0  -0.713
  O  O69  1  0.986000  0.602960  0.818530  1.0  -0.6015
  O  O70  1  0.037000  0.655460  0.960470  1.0  -0.6087
  O  O71  1  0.480700  0.917610  0.635610  1.0  -0.6139
  O  O72  1  0.397900  0.594160  0.917550  1.0  -0.5746
  O  O73  1  0.568600  0.951940  0.777500  1.0  -0.5442
  O  O74  1  0.099400  0.915280  0.603110  1.0  -0.639
  O  O75  1  0.626900  0.683020  0.935270  1.0  -0.6039
  O  O76  1  0.907700  0.923040  0.711360  1.0  -0.5924
  O  O77  1  0.258900  0.983440  0.460000  1.0  -0.712
  O  O78  1  0.486000  0.897040  0.318530  1.0  -0.6011
  O  O79  1  0.537000  0.844540  0.460470  1.0  -0.6103
  O  O80  1  0.980700  0.582390  0.135610  1.0  -0.6144
  O  O81  1  0.897900  0.905840  0.417550  1.0  -0.5741
  O  O82  1  0.068600  0.548060  0.277500  1.0  -0.5446
  O  O83  1  0.599400  0.584720  0.103110  1.0  -0.6396
  O  O84  1  0.126900  0.816980  0.435270  1.0  -0.604
  O  O85  1  0.407700  0.576960  0.211360  1.0  -0.5919
  O  O86  1  0.241100  0.483440  0.040000  1.0  -0.7122
  O  O87  1  0.014000  0.397040  0.181470  1.0  -0.6018
  O  O88  1  0.963000  0.344540  0.039530  1.0  -0.6102
  O  O89  1  0.519300  0.082390  0.364390  1.0  -0.6127
  O  O90  1  0.602100  0.405840  0.082450  1.0  -0.5735
  O  O91  1  0.431400  0.048060  0.222500  1.0  -0.5435
  O  O92  1  0.900600  0.084720  0.396890  1.0  -0.6388
  O  O93  1  0.373100  0.316980  0.064730  1.0  -0.6035
  O  O94  1  0.092300  0.076960  0.288640  1.0  -0.5921
