# generated using pymatgen
data_KFe(CN)6
_symmetry_space_group_name_H-M   'P 1'
_cell_length_a   15.38050000
_cell_length_b   8.43350000
_cell_length_c   13.89690000
_cell_angle_alpha   90.00000000
_cell_angle_beta   107.58300000
_cell_angle_gamma   90.00000000
_symmetry_Int_Tables_number   1
_chemical_formula_structural   KFe(CN)6
_chemical_formula_sum   'K4 Fe4 C24 N24'
_cell_volume   1718.37075380
_cell_formula_units_Z   4
loop_
 _symmetry_equiv_pos_site_id
 _symmetry_equiv_pos_as_xyz
  1  'x, y, z'
loop_
 _atom_site_type_symbol
 _atom_site_label
 _atom_site_symmetry_multiplicity
 _atom_site_fract_x
 _atom_site_fract_y
 _atom_site_fract_z
 _atom_site_occupancy
 _atom_site_charge
  K  K1  1  0.500000  0.780050  0.250000  1.0  1.0577
  K  K2  1  0.000000  0.280050  0.250000  1.0  1.0577
  K  K3  1  0.500000  0.219950  0.750000  1.0  1.059
  K  K4  1  0.000000  0.719950  0.750000  1.0  1.059
  Fe  Fe5  1  0.750000  0.250000  0.500000  1.0  0.1747
  Fe  Fe6  1  0.250000  0.250000  0.000000  1.0  0.1747
  Fe  Fe7  1  0.250000  0.750000  0.500000  1.0  0.1747
  Fe  Fe8  1  0.750000  0.750000  0.000000  1.0  0.1747
  C  C9  1  0.686960  0.438780  0.430540  1.0  0.2903
  C  C10  1  0.664910  0.120160  0.398490  1.0  0.272
  C  C11  1  0.836350  0.248250  0.422310  1.0  0.2934
  C  C12  1  0.186960  0.938780  0.430540  1.0  0.2903
  C  C13  1  0.164910  0.620160  0.398490  1.0  0.272
  C  C14  1  0.336350  0.748250  0.422310  1.0  0.2934
  C  C15  1  0.313040  0.438780  0.069460  1.0  0.3212
  C  C16  1  0.335090  0.120160  0.101510  1.0  0.2779
  C  C17  1  0.163650  0.248250  0.077690  1.0  0.2925
  C  C18  1  0.813040  0.938780  0.069460  1.0  0.3212
  C  C19  1  0.835090  0.620160  0.101510  1.0  0.2779
  C  C20  1  0.663650  0.748250  0.077690  1.0  0.2925
  C  C21  1  0.313040  0.561220  0.569460  1.0  0.3233
  C  C22  1  0.335090  0.879840  0.601510  1.0  0.2778
  C  C23  1  0.163650  0.751750  0.577690  1.0  0.2925
  C  C24  1  0.813040  0.061220  0.569460  1.0  0.3233
  C  C25  1  0.835090  0.379840  0.601510  1.0  0.2778
  C  C26  1  0.663650  0.251750  0.577690  1.0  0.2925
  C  C27  1  0.686960  0.561220  0.930540  1.0  0.2991
  C  C28  1  0.664910  0.879840  0.898490  1.0  0.2695
  C  C29  1  0.836350  0.751750  0.922310  1.0  0.2933
  C  C30  1  0.186960  0.061220  0.930540  1.0  0.2991
  C  C31  1  0.164910  0.379840  0.898490  1.0  0.2695
  C  C32  1  0.336350  0.251750  0.922310  1.0  0.2933
  N  N33  1  0.646090  0.547780  0.391340  1.0  -0.5049
  N  N34  1  0.613840  0.045060  0.337940  1.0  -0.4854
  N  N35  1  0.889110  0.245580  0.378800  1.0  -0.4976
  N  N36  1  0.146090  0.047780  0.391340  1.0  -0.5049
  N  N37  1  0.113840  0.545060  0.337940  1.0  -0.4854
  N  N38  1  0.389110  0.745580  0.378800  1.0  -0.4976
  N  N39  1  0.353910  0.547780  0.108660  1.0  -0.5074
  N  N40  1  0.386160  0.045060  0.162060  1.0  -0.4892
  N  N41  1  0.110890  0.245580  0.121200  1.0  -0.4987
  N  N42  1  0.853910  0.047780  0.108660  1.0  -0.5074
  N  N43  1  0.886160  0.545060  0.162060  1.0  -0.4892
  N  N44  1  0.610890  0.745580  0.121200  1.0  -0.4987
  N  N45  1  0.353910  0.452220  0.608660  1.0  -0.5063
  N  N46  1  0.386160  0.954940  0.662060  1.0  -0.4905
  N  N47  1  0.110890  0.754420  0.621200  1.0  -0.4988
  N  N48  1  0.853910  0.952220  0.608660  1.0  -0.5063
  N  N49  1  0.886160  0.454940  0.662060  1.0  -0.4905
  N  N50  1  0.610890  0.254420  0.621200  1.0  -0.4988
  N  N51  1  0.646090  0.452220  0.891340  1.0  -0.5038
  N  N52  1  0.613840  0.954940  0.837940  1.0  -0.486
  N  N53  1  0.889110  0.754420  0.878800  1.0  -0.5002
  N  N54  1  0.146090  0.952220  0.891340  1.0  -0.5038
  N  N55  1  0.113840  0.454940  0.837940  1.0  -0.486
  N  N56  1  0.389110  0.254420  0.878800  1.0  -0.5002
