# generated using pymatgen
data_YPH7C7NO9
_symmetry_space_group_name_H-M   'P 1'
_cell_length_a   11.35800000
_cell_length_b   14.82900000
_cell_length_c   16.32500000
_cell_angle_alpha   90.00000000
_cell_angle_beta   90.00000000
_cell_angle_gamma   90.00000000
_symmetry_Int_Tables_number   1
_chemical_formula_structural   YPH7C7NO9
_chemical_formula_sum   'Y8 P8 H56 C56 N8 O72'
_cell_volume   2749.58354115
_cell_formula_units_Z   8
loop_
 _symmetry_equiv_pos_site_id
 _symmetry_equiv_pos_as_xyz
  1  'x, y, z'
loop_
 _atom_site_type_symbol
 _atom_site_label
 _atom_site_symmetry_multiplicity
 _atom_site_fract_x
 _atom_site_fract_y
 _atom_site_fract_z
 _atom_site_occupancy
 _atom_site_charge
  Y  Y1  1  0.275550  0.744970  0.431340  1.0  2.0054
  Y  Y2  1  0.232800  0.805030  0.054520  1.0  1.9762
  Y  Y3  1  0.224450  0.255030  0.931340  1.0  2.0061
  Y  Y4  1  0.267200  0.194970  0.554520  1.0  1.9757
  Y  Y5  1  0.724450  0.244970  0.068660  1.0  2.006
  Y  Y6  1  0.767200  0.305030  0.445480  1.0  1.9763
  Y  Y7  1  0.775550  0.755030  0.568660  1.0  2.0057
  Y  Y8  1  0.732800  0.694970  0.945480  1.0  1.9756
  P  P9  1  0.256600  0.817740  0.832530  1.0  1.4676
  P  P10  1  0.321400  0.948200  0.546870  1.0  1.517
  P  P11  1  0.243400  0.182260  0.332530  1.0  1.4665
  P  P12  1  0.178600  0.051800  0.046870  1.0  1.5175
  P  P13  1  0.743400  0.317740  0.667470  1.0  1.4667
  P  P14  1  0.678600  0.448200  0.953130  1.0  1.5175
  P  P15  1  0.756600  0.682260  0.167470  1.0  1.4678
  P  P16  1  0.821400  0.551800  0.453130  1.0  1.5184
  H  H17  1  0.397500  0.747400  0.797200  1.0  0.4513
  H  H18  1  0.476800  0.004700  0.532900  1.0  0.4449
  H  H19  1  0.236400  0.006700  0.694100  1.0  0.2194
  H  H20  1  0.870600  0.152900  0.740700  1.0  0.2993
  H  H21  1  0.333700  0.958300  0.803900  1.0  0.2022
  H  H22  1  0.200400  0.967200  0.826000  1.0  0.165
  H  H23  1  0.390600  0.902400  0.676900  1.0  0.1845
  H  H24  1  0.291500  0.836200  0.647700  1.0  0.174
  H  H25  1  0.091400  0.859100  0.685800  1.0  0.1151
  H  H26  1  0.089300  0.940300  0.624300  1.0  0.1252
  H  H27  1  0.997200  0.878200  0.819900  1.0  0.1171
  H  H28  1  0.870000  0.963700  0.904800  1.0  0.1309
  H  H29  1  0.800400  0.099100  0.860000  1.0  0.1225
  H  H30  1  0.005000  0.081000  0.661700  1.0  0.117
  H  H31  1  0.102500  0.252600  0.297200  1.0  0.451
  H  H32  1  0.023200  0.995300  0.032900  1.0  0.4446
  H  H33  1  0.263600  0.993300  0.194100  1.0  0.2196
  H  H34  1  0.629400  0.847100  0.240700  1.0  0.3002
  H  H35  1  0.166300  0.041700  0.303900  1.0  0.1986
  H  H36  1  0.299600  0.032800  0.326000  1.0  0.167
  H  H37  1  0.109400  0.097600  0.176900  1.0  0.1834
  H  H38  1  0.208500  0.163800  0.147700  1.0  0.1763
  H  H39  1  0.408600  0.140900  0.185800  1.0  0.1122
  H  H40  1  0.410700  0.059700  0.124300  1.0  0.1269
  H  H41  1  0.502800  0.121800  0.319900  1.0  0.1173
  H  H42  1  0.630000  0.036300  0.404800  1.0  0.1302
  H  H43  1  0.699600  0.900900  0.360000  1.0  0.1221
  H  H44  1  0.495000  0.919000  0.161700  1.0  0.1169
  H  H45  1  0.602500  0.247400  0.702800  1.0  0.4516
  H  H46  1  0.523200  0.504700  0.967100  1.0  0.4452
  H  H47  1  0.763600  0.506700  0.805900  1.0  0.2204
  H  H48  1  0.129400  0.652900  0.759300  1.0  0.3
  H  H49  1  0.666300  0.458300  0.696100  1.0  0.2006
  H  H50  1  0.799600  0.467200  0.674000  1.0  0.1632
  H  H51  1  0.609400  0.402400  0.823100  1.0  0.1836
  H  H52  1  0.708500  0.336200  0.852300  1.0  0.1751
  H  H53  1  0.908600  0.359100  0.814200  1.0  0.1154
  H  H54  1  0.910700  0.440300  0.875700  1.0  0.1247
  H  H55  1  0.002800  0.378200  0.680100  1.0  0.1161
  H  H56  1  0.130000  0.463700  0.595200  1.0  0.1309
  H  H57  1  0.199600  0.599100  0.640000  1.0  0.122
  H  H58  1  0.995000  0.581000  0.838300  1.0  0.1162
  H  H59  1  0.897500  0.752600  0.202800  1.0  0.4506
  H  H60  1  0.976800  0.495300  0.467100  1.0  0.444
  H  H61  1  0.736400  0.493300  0.305900  1.0  0.2196
  H  H62  1  0.370600  0.347100  0.259300  1.0  0.3003
  H  H63  1  0.833700  0.541700  0.196100  1.0  0.2017
  H  H64  1  0.700400  0.532800  0.174000  1.0  0.1613
  H  H65  1  0.890600  0.597600  0.323100  1.0  0.1846
  H  H66  1  0.791500  0.663800  0.352300  1.0  0.1746
  H  H67  1  0.591400  0.640900  0.314200  1.0  0.114
  H  H68  1  0.589300  0.559700  0.375700  1.0  0.126
  H  H69  1  0.497200  0.621800  0.180100  1.0  0.1176
  H  H70  1  0.370000  0.536300  0.095200  1.0  0.1301
  H  H71  1  0.300400  0.400900  0.140000  1.0  0.1221
  H  H72  1  0.505000  0.419000  0.338300  1.0  0.117
  C  C73  1  0.256400  0.932700  0.793900  1.0  -0.5215
  C  C74  1  0.313400  0.899200  0.651600  1.0  -0.5389
  C  C75  1  0.102300  0.923800  0.681100  1.0  -0.1134
  C  C76  1  0.012500  0.970200  0.733200  1.0  -0.0152
  C  C77  1  0.973200  0.935400  0.803700  1.0  0.0133
  C  C78  1  0.894000  0.986500  0.854400  1.0  -0.1105
  C  C79  1  0.854800  0.067000  0.828900  1.0  0.1149
  C  C80  1  0.975800  0.055100  0.709400  1.0  0.0944
  C  C81  1  0.501900  0.739700  0.543400  1.0  0.5481
  C  C82  1  0.550500  0.763200  0.459000  1.0  0.5644
  C  C83  1  0.261800  0.823900  0.250400  1.0  0.5413
  C  C84  1  0.246400  0.722600  0.237100  1.0  0.5482
  C  C85  1  0.458400  0.702600  0.987800  1.0  0.5392
  C  C86  1  0.505800  0.797400  0.008500  1.0  0.5545
  C  C87  1  0.243600  0.067300  0.293900  1.0  -0.5237
  C  C88  1  0.186600  0.100800  0.151600  1.0  -0.539
  C  C89  1  0.397700  0.076200  0.181100  1.0  -0.114
  C  C90  1  0.487500  0.029800  0.233200  1.0  -0.0132
  C  C91  1  0.526800  0.064600  0.303700  1.0  0.0144
  C  C92  1  0.606000  0.013500  0.354400  1.0  -0.1088
  C  C93  1  0.645200  0.933000  0.328900  1.0  0.1115
  C  C94  1  0.524200  0.944900  0.209400  1.0  0.0934
  C  C95  1  0.998100  0.260300  0.043400  1.0  0.5461
  C  C96  1  0.949500  0.236800  0.959000  1.0  0.5612
  C  C97  1  0.238200  0.176100  0.750400  1.0  0.5434
  C  C98  1  0.253600  0.277400  0.737100  1.0  0.5485
  C  C99  1  0.041600  0.297400  0.487800  1.0  0.5412
  C  C100  1  0.994200  0.202600  0.508500  1.0  0.5539
  C  C101  1  0.743600  0.432700  0.706100  1.0  -0.5201
  C  C102  1  0.686600  0.399200  0.848400  1.0  -0.5384
  C  C103  1  0.897700  0.423800  0.818900  1.0  -0.1141
  C  C104  1  0.987500  0.470200  0.766800  1.0  -0.0149
  C  C105  1  0.026800  0.435400  0.696300  1.0  0.017
  C  C106  1  0.106000  0.486500  0.645600  1.0  -0.1082
  C  C107  1  0.145200  0.567000  0.671100  1.0  0.1121
  C  C108  1  0.024200  0.555100  0.790600  1.0  0.0913
  C  C109  1  0.498100  0.239700  0.956600  1.0  0.5476
  C  C110  1  0.449500  0.263200  0.041000  1.0  0.5599
  C  C111  1  0.738200  0.323900  0.249600  1.0  0.5427
  C  C112  1  0.753600  0.222600  0.262900  1.0  0.5484
  C  C113  1  0.541600  0.202600  0.512200  1.0  0.5403
  C  C114  1  0.494200  0.297400  0.491500  1.0  0.5523
  C  C115  1  0.756400  0.567300  0.206100  1.0  -0.5211
  C  C116  1  0.813400  0.600800  0.348400  1.0  -0.5358
  C  C117  1  0.602300  0.576200  0.318900  1.0  -0.1149
  C  C118  1  0.512500  0.529800  0.266800  1.0  -0.0154
  C  C119  1  0.473200  0.564600  0.196300  1.0  0.0129
  C  C120  1  0.394000  0.513500  0.145600  1.0  -0.1105
  C  C121  1  0.354800  0.433000  0.171100  1.0  0.1142
  C  C122  1  0.475800  0.444900  0.290600  1.0  0.0945
  C  C123  1  0.001900  0.760300  0.456600  1.0  0.5491
  C  C124  1  0.050500  0.736800  0.541000  1.0  0.5626
  C  C125  1  0.761800  0.676100  0.749600  1.0  0.5419
  C  C126  1  0.746400  0.777400  0.762900  1.0  0.5496
  C  C127  1  0.958400  0.797400  0.012200  1.0  0.5399
  C  C128  1  0.005800  0.702600  0.991500  1.0  0.5522
  N  N129  1  0.227200  0.946800  0.704200  1.0  0.2364
  N  N130  1  0.895600  0.101100  0.757000  1.0  -0.1168
  N  N131  1  0.272800  0.053200  0.204200  1.0  0.2363
  N  N132  1  0.604400  0.898900  0.257000  1.0  -0.1163
  N  N133  1  0.772800  0.446800  0.795800  1.0  0.2365
  N  N134  1  0.104400  0.601100  0.743000  1.0  -0.1207
  N  N135  1  0.727200  0.553200  0.295800  1.0  0.2361
  N  N136  1  0.395600  0.398900  0.243000  1.0  -0.1147
  O  O137  1  0.177100  0.760700  0.782100  1.0  -0.8157
  O  O138  1  0.227100  0.829200  0.920300  1.0  -0.8754
  O  O139  1  0.389500  0.789600  0.829100  1.0  -0.6959
  O  O140  1  0.264600  0.039700  0.549900  1.0  -0.8545
  O  O141  1  0.268100  0.884300  0.487500  1.0  -0.8672
  O  O142  1  0.454400  0.952300  0.530200  1.0  -0.7173
  O  O143  1  0.393500  0.725600  0.550700  1.0  -0.6152
  O  O144  1  0.577500  0.734800  0.599200  1.0  -0.6055
  O  O145  1  0.654700  0.778300  0.452000  1.0  -0.5802
  O  O146  1  0.474200  0.762800  0.399200  1.0  -0.6549
  O  O147  1  0.277600  0.849900  0.321900  1.0  -0.5748
  O  O148  1  0.259900  0.869500  0.186500  1.0  -0.5996
  O  O149  1  0.226200  0.697000  0.165200  1.0  -0.5875
  O  O150  1  0.249300  0.673200  0.300700  1.0  -0.6675
  O  O151  1  0.530800  0.650600  0.951200  1.0  -0.6623
  O  O152  1  0.357500  0.684400  0.006800  1.0  -0.5794
  O  O153  1  0.434300  0.847100  0.043200  1.0  -0.6301
  O  O154  1  0.606600  0.815900  0.986800  1.0  -0.5841
  O  O155  1  0.322900  0.239300  0.282100  1.0  -0.8169
  O  O156  1  0.272900  0.170800  0.420300  1.0  -0.875
  O  O157  1  0.110500  0.210400  0.329100  1.0  -0.6952
  O  O158  1  0.235400  0.960300  0.049900  1.0  -0.8543
  O  O159  1  0.231900  0.115700  0.987500  1.0  -0.868
  O  O160  1  0.045600  0.047700  0.030200  1.0  -0.7177
  O  O161  1  0.106500  0.274400  0.050700  1.0  -0.6147
  O  O162  1  0.922500  0.265200  0.099200  1.0  -0.6052
  O  O163  1  0.845300  0.221700  0.952000  1.0  -0.5798
  O  O164  1  0.025800  0.237200  0.899200  1.0  -0.656
  O  O165  1  0.222400  0.150100  0.821900  1.0  -0.5735
  O  O166  1  0.240100  0.130500  0.686500  1.0  -0.599
  O  O167  1  0.273800  0.303000  0.665200  1.0  -0.5868
  O  O168  1  0.250700  0.326800  0.800700  1.0  -0.6691
  O  O169  1  0.969200  0.349400  0.451200  1.0  -0.6633
  O  O170  1  0.142500  0.315600  0.506800  1.0  -0.579
  O  O171  1  0.065700  0.152900  0.543200  1.0  -0.6303
  O  O172  1  0.893400  0.184100  0.486800  1.0  -0.5828
  O  O173  1  0.822900  0.260700  0.717900  1.0  -0.8174
  O  O174  1  0.772900  0.329200  0.579700  1.0  -0.8748
  O  O175  1  0.610500  0.289600  0.670900  1.0  -0.6958
  O  O176  1  0.735400  0.539700  0.950100  1.0  -0.855
  O  O177  1  0.731900  0.384300  0.012500  1.0  -0.8672
  O  O178  1  0.545600  0.452300  0.969800  1.0  -0.7159
  O  O179  1  0.606500  0.225600  0.949300  1.0  -0.6161
  O  O180  1  0.422500  0.234800  0.900800  1.0  -0.6049
  O  O181  1  0.345300  0.278300  0.048000  1.0  -0.5799
  O  O182  1  0.525800  0.262800  0.100800  1.0  -0.6563
  O  O183  1  0.722400  0.349900  0.178100  1.0  -0.5726
  O  O184  1  0.740100  0.369500  0.313500  1.0  -0.6007
  O  O185  1  0.773800  0.197000  0.334800  1.0  -0.5871
  O  O186  1  0.750700  0.173200  0.199300  1.0  -0.6697
  O  O187  1  0.469200  0.150600  0.548800  1.0  -0.6621
  O  O188  1  0.642500  0.184400  0.493200  1.0  -0.5796
  O  O189  1  0.565700  0.347100  0.456800  1.0  -0.6308
  O  O190  1  0.393400  0.315900  0.513200  1.0  -0.5833
  O  O191  1  0.677100  0.739300  0.217900  1.0  -0.8168
  O  O192  1  0.727100  0.670800  0.079700  1.0  -0.8754
  O  O193  1  0.889500  0.710400  0.170900  1.0  -0.6968
  O  O194  1  0.764600  0.460300  0.450100  1.0  -0.8538
  O  O195  1  0.768100  0.615700  0.512500  1.0  -0.8673
  O  O196  1  0.954400  0.547700  0.469800  1.0  -0.7162
  O  O197  1  0.893500  0.774400  0.449300  1.0  -0.615
  O  O198  1  0.077500  0.765200  0.400800  1.0  -0.6056
  O  O199  1  0.154700  0.721700  0.548000  1.0  -0.5816
  O  O200  1  0.974200  0.737200  0.600800  1.0  -0.6553
  O  O201  1  0.777600  0.650100  0.678100  1.0  -0.5734
  O  O202  1  0.759900  0.630500  0.813500  1.0  -0.6003
  O  O203  1  0.726200  0.803000  0.834800  1.0  -0.5888
  O  O204  1  0.749300  0.826800  0.699300  1.0  -0.6712
  O  O205  1  0.030800  0.849400  0.048800  1.0  -0.6613
  O  O206  1  0.857500  0.815600  0.993200  1.0  -0.5792
  O  O207  1  0.934300  0.652900  0.956800  1.0  -0.6297
  O  O208  1  0.106600  0.684100  0.013200  1.0  -0.5839
