# generated using pymatgen
data_DyPH7C7NO9
_symmetry_space_group_name_H-M   'P 1'
_cell_length_a   11.43190000
_cell_length_b   14.84570000
_cell_length_c   16.38900000
_cell_angle_alpha   90.00000000
_cell_angle_beta   90.00000000
_cell_angle_gamma   90.00000000
_symmetry_Int_Tables_number   1
_chemical_formula_structural   DyPH7C7NO9
_chemical_formula_sum   'Dy8 P8 H56 C56 N8 O72'
_cell_volume   2781.45188828
_cell_formula_units_Z   8
loop_
 _symmetry_equiv_pos_site_id
 _symmetry_equiv_pos_as_xyz
  1  'x, y, z'
loop_
 _atom_site_type_symbol
 _atom_site_label
 _atom_site_symmetry_multiplicity
 _atom_site_fract_x
 _atom_site_fract_y
 _atom_site_fract_z
 _atom_site_occupancy
 _atom_site_charge
  Dy  Dy1  1  0.274060  0.744080  0.431430  1.0  2.2426
  Dy  Dy2  1  0.236270  0.805140  0.054960  1.0  2.2819
  Dy  Dy3  1  0.225940  0.255920  0.931430  1.0  2.2419
  Dy  Dy4  1  0.263730  0.194860  0.554960  1.0  2.2812
  Dy  Dy5  1  0.725940  0.244080  0.068570  1.0  2.2425
  Dy  Dy6  1  0.763730  0.305140  0.445040  1.0  2.2814
  Dy  Dy7  1  0.774060  0.755920  0.568570  1.0  2.242
  Dy  Dy8  1  0.736270  0.694860  0.945040  1.0  2.2809
  P  P9  1  0.258300  0.817800  0.832400  1.0  1.532
  P  P10  1  0.317500  0.947700  0.547300  1.0  1.5456
  P  P11  1  0.241700  0.182200  0.332400  1.0  1.5319
  P  P12  1  0.182500  0.052300  0.047300  1.0  1.5484
  P  P13  1  0.741700  0.317800  0.667600  1.0  1.5318
  P  P14  1  0.682500  0.447700  0.952700  1.0  1.5527
  P  P15  1  0.758300  0.682200  0.167600  1.0  1.5314
  P  P16  1  0.817500  0.552300  0.452700  1.0  1.5518
  H  H17  1  0.398900  0.747300  0.796600  1.0  0.4457
  H  H18  1  0.470900  0.007300  0.534100  1.0  0.4458
  H  H19  1  0.232200  0.005100  0.694400  1.0  0.2205
  H  H20  1  0.877400  0.153700  0.743600  1.0  0.2925
  H  H21  1  0.335100  0.956600  0.802300  1.0  0.2009
  H  H22  1  0.203900  0.966400  0.827400  1.0  0.166
  H  H23  1  0.387400  0.905400  0.677600  1.0  0.1871
  H  H24  1  0.292000  0.836400  0.649100  1.0  0.1693
  H  H25  1  0.088700  0.937900  0.626000  1.0  0.1179
  H  H26  1  0.090600  0.858300  0.688600  1.0  0.1141
  H  H27  1  0.993900  0.882900  0.822800  1.0  0.1003
  H  H28  1  0.858900  0.959900  0.899300  1.0  0.137
  H  H29  1  0.801700  0.101400  0.858000  1.0  0.1166
  H  H30  1  0.989000  0.072300  0.657600  1.0  0.1163
  H  H31  1  0.101100  0.252700  0.296600  1.0  0.4461
  H  H32  1  0.029100  0.992700  0.034100  1.0  0.4454
  H  H33  1  0.267800  0.994900  0.194400  1.0  0.2199
  H  H34  1  0.622600  0.846300  0.243600  1.0  0.2916
  H  H35  1  0.164900  0.043400  0.302300  1.0  0.1955
  H  H36  1  0.296100  0.033600  0.327400  1.0  0.1679
  H  H37  1  0.112600  0.094600  0.177600  1.0  0.1882
  H  H38  1  0.208000  0.163600  0.149100  1.0  0.1668
  H  H39  1  0.411300  0.062100  0.126000  1.0  0.1182
  H  H40  1  0.409400  0.141700  0.188600  1.0  0.1139
  H  H41  1  0.506100  0.117100  0.322800  1.0  0.101
  H  H42  1  0.641100  0.040100  0.399300  1.0  0.1365
  H  H43  1  0.698300  0.898600  0.358000  1.0  0.1174
  H  H44  1  0.511000  0.927700  0.157600  1.0  0.1166
  H  H45  1  0.601100  0.247300  0.703400  1.0  0.4464
  H  H46  1  0.529100  0.507300  0.965900  1.0  0.4462
  H  H47  1  0.767800  0.505100  0.805600  1.0  0.2206
  H  H48  1  0.122600  0.653700  0.756400  1.0  0.293
  H  H49  1  0.664900  0.456600  0.697700  1.0  0.1986
  H  H50  1  0.796100  0.466400  0.672600  1.0  0.1658
  H  H51  1  0.612600  0.405400  0.822400  1.0  0.188
  H  H52  1  0.708000  0.336400  0.850900  1.0  0.1682
  H  H53  1  0.911300  0.437900  0.874000  1.0  0.1149
  H  H54  1  0.909400  0.358300  0.811400  1.0  0.1159
  H  H55  1  0.006100  0.382900  0.677200  1.0  0.0998
  H  H56  1  0.141100  0.459900  0.600700  1.0  0.1372
  H  H57  1  0.198300  0.601400  0.642000  1.0  0.1176
  H  H58  1  0.011000  0.572300  0.842400  1.0  0.1159
  H  H59  1  0.898900  0.752700  0.203400  1.0  0.446
  H  H60  1  0.970900  0.492700  0.465900  1.0  0.4447
  H  H61  1  0.732200  0.494900  0.305600  1.0  0.2203
  H  H62  1  0.377400  0.346300  0.256400  1.0  0.2926
  H  H63  1  0.835100  0.543400  0.197700  1.0  0.2012
  H  H64  1  0.703900  0.533600  0.172600  1.0  0.1659
  H  H65  1  0.887400  0.594600  0.322400  1.0  0.1871
  H  H66  1  0.792000  0.663600  0.350900  1.0  0.1641
  H  H67  1  0.588700  0.562100  0.374000  1.0  0.1168
  H  H68  1  0.590600  0.641700  0.311400  1.0  0.1159
  H  H69  1  0.493900  0.617100  0.177200  1.0  0.1013
  H  H70  1  0.358900  0.540100  0.100700  1.0  0.1367
  H  H71  1  0.301700  0.398600  0.142000  1.0  0.117
  H  H72  1  0.489000  0.427700  0.342400  1.0  0.1163
  C  C73  1  0.257600  0.931500  0.794200  1.0  -0.5387
  C  C74  1  0.311000  0.900000  0.652400  1.0  -0.5385
  C  C75  1  0.102000  0.922800  0.682800  1.0  -0.1259
  C  C76  1  0.010000  0.971600  0.735100  1.0  -0.0072
  C  C77  1  0.968000  0.939000  0.805000  1.0  0.0143
  C  C78  1  0.888600  0.985100  0.851600  1.0  -0.114
  C  C79  1  0.854000  0.068000  0.827000  1.0  0.1181
  C  C80  1  0.968700  0.050800  0.709000  1.0  0.0815
  C  C81  1  0.500100  0.739900  0.543400  1.0  0.5421
  C  C82  1  0.548700  0.764700  0.457400  1.0  0.5895
  C  C83  1  0.261300  0.823500  0.251200  1.0  0.5636
  C  C84  1  0.243000  0.723100  0.237200  1.0  0.5608
  C  C85  1  0.462500  0.702400  0.987500  1.0  0.5614
  C  C86  1  0.508200  0.798200  0.007700  1.0  0.5575
  C  C87  1  0.242400  0.068500  0.294200  1.0  -0.5406
  C  C88  1  0.189000  0.100000  0.152400  1.0  -0.5375
  C  C89  1  0.398000  0.077200  0.182800  1.0  -0.1258
  C  C90  1  0.490000  0.028400  0.235100  1.0  -0.0013
  C  C91  1  0.532000  0.061000  0.305000  1.0  0.0228
  C  C92  1  0.611400  0.014900  0.351600  1.0  -0.1141
  C  C93  1  0.646000  0.932000  0.327000  1.0  0.1228
  C  C94  1  0.531300  0.949200  0.209000  1.0  0.0826
  C  C95  1  0.999900  0.260100  0.043400  1.0  0.5413
  C  C96  1  0.951300  0.235300  0.957400  1.0  0.5886
  C  C97  1  0.238700  0.176500  0.751200  1.0  0.5655
  C  C98  1  0.257000  0.276900  0.737200  1.0  0.5608
  C  C99  1  0.037500  0.297600  0.487500  1.0  0.5618
  C  C100  1  0.991800  0.201800  0.507700  1.0  0.5562
  C  C101  1  0.742400  0.431500  0.705800  1.0  -0.5378
  C  C102  1  0.689000  0.400000  0.847600  1.0  -0.5394
  C  C103  1  0.898000  0.422800  0.817200  1.0  -0.1249
  C  C104  1  0.990000  0.471600  0.764900  1.0  -0.004
  C  C105  1  0.032000  0.439000  0.695000  1.0  0.0199
  C  C106  1  0.111400  0.485100  0.648400  1.0  -0.1139
  C  C107  1  0.146000  0.568000  0.673000  1.0  0.1222
  C  C108  1  0.031300  0.550800  0.791000  1.0  0.0831
  C  C109  1  0.499900  0.239900  0.956600  1.0  0.5425
  C  C110  1  0.451300  0.264700  0.042600  1.0  0.5892
  C  C111  1  0.738700  0.323500  0.248800  1.0  0.5649
  C  C112  1  0.757000  0.223100  0.262800  1.0  0.561
  C  C113  1  0.537500  0.202400  0.512500  1.0  0.5622
  C  C114  1  0.491800  0.298200  0.492300  1.0  0.5566
  C  C115  1  0.757600  0.568500  0.205800  1.0  -0.5387
  C  C116  1  0.811000  0.600000  0.347600  1.0  -0.5371
  C  C117  1  0.602000  0.577200  0.317200  1.0  -0.1268
  C  C118  1  0.510000  0.528400  0.264900  1.0  -0.0074
  C  C119  1  0.468000  0.561000  0.195000  1.0  0.0162
  C  C120  1  0.388600  0.514900  0.148400  1.0  -0.1145
  C  C121  1  0.354000  0.432000  0.173000  1.0  0.1165
  C  C122  1  0.468700  0.449200  0.291000  1.0  0.0833
  C  C123  1  0.000100  0.760100  0.456600  1.0  0.5442
  C  C124  1  0.048700  0.735300  0.542600  1.0  0.59
  C  C125  1  0.761300  0.676500  0.748800  1.0  0.5651
  C  C126  1  0.743000  0.776900  0.762800  1.0  0.5619
  C  C127  1  0.962500  0.797600  0.012500  1.0  0.5609
  C  C128  1  0.008200  0.701800  0.992300  1.0  0.5558
  N  N129  1  0.224000  0.945100  0.704300  1.0  0.2312
  N  N130  1  0.896100  0.100000  0.758100  1.0  -0.0997
  N  N131  1  0.276000  0.054900  0.204300  1.0  0.231
  N  N132  1  0.603900  0.900000  0.258100  1.0  -0.1029
  N  N133  1  0.776000  0.445100  0.795700  1.0  0.2309
  N  N134  1  0.103900  0.600000  0.741900  1.0  -0.1015
  N  N135  1  0.724000  0.554900  0.295700  1.0  0.231
  N  N136  1  0.396100  0.400000  0.241900  1.0  -0.0996
  O  O137  1  0.181000  0.763900  0.783800  1.0  -0.8164
  O  O138  1  0.232400  0.829800  0.919300  1.0  -0.933
  O  O139  1  0.391200  0.789400  0.828500  1.0  -0.7061
  O  O140  1  0.260800  0.038800  0.551300  1.0  -0.9019
  O  O141  1  0.263000  0.884500  0.489400  1.0  -0.9129
  O  O142  1  0.450300  0.954500  0.531100  1.0  -0.7319
  O  O143  1  0.392800  0.726400  0.551600  1.0  -0.6504
  O  O144  1  0.574000  0.736800  0.600300  1.0  -0.6462
  O  O145  1  0.652400  0.779500  0.453000  1.0  -0.6161
  O  O146  1  0.471600  0.761700  0.401300  1.0  -0.7019
  O  O147  1  0.272100  0.849700  0.322100  1.0  -0.6069
  O  O148  1  0.259400  0.868600  0.187000  1.0  -0.6541
  O  O149  1  0.228200  0.696100  0.166200  1.0  -0.6183
  O  O150  1  0.250900  0.672700  0.300300  1.0  -0.7231
  O  O151  1  0.531400  0.650400  0.952300  1.0  -0.6531
  O  O152  1  0.361300  0.683900  0.008000  1.0  -0.6451
  O  O153  1  0.435600  0.847200  0.044400  1.0  -0.6919
  O  O154  1  0.608400  0.815900  0.986300  1.0  -0.6122
  O  O155  1  0.319000  0.236100  0.283800  1.0  -0.8288
  O  O156  1  0.267600  0.170200  0.419300  1.0  -0.9321
  O  O157  1  0.108800  0.210600  0.328500  1.0  -0.7064
  O  O158  1  0.239200  0.961200  0.051300  1.0  -0.902
  O  O159  1  0.237000  0.115500  0.989400  1.0  -0.9127
  O  O160  1  0.049700  0.045500  0.031100  1.0  -0.7314
  O  O161  1  0.107200  0.273600  0.051600  1.0  -0.6504
  O  O162  1  0.926000  0.263200  0.100300  1.0  -0.6455
  O  O163  1  0.847600  0.220500  0.953000  1.0  -0.6179
  O  O164  1  0.028400  0.238300  0.901300  1.0  -0.702
  O  O165  1  0.227900  0.150300  0.822100  1.0  -0.6059
  O  O166  1  0.240600  0.131400  0.687000  1.0  -0.6515
  O  O167  1  0.271800  0.303900  0.666200  1.0  -0.621
  O  O168  1  0.249100  0.327300  0.800300  1.0  -0.7273
  O  O169  1  0.968600  0.349600  0.452300  1.0  -0.6584
  O  O170  1  0.138700  0.316100  0.508000  1.0  -0.6456
  O  O171  1  0.064400  0.152800  0.544400  1.0  -0.6921
  O  O172  1  0.891600  0.184100  0.486300  1.0  -0.6114
  O  O173  1  0.819000  0.263900  0.716200  1.0  -0.8204
  O  O174  1  0.767600  0.329800  0.580700  1.0  -0.9324
  O  O175  1  0.608800  0.289400  0.671500  1.0  -0.7068
  O  O176  1  0.739200  0.538800  0.948700  1.0  -0.9017
  O  O177  1  0.737000  0.384500  0.010600  1.0  -0.9132
  O  O178  1  0.549700  0.454500  0.968900  1.0  -0.7303
  O  O179  1  0.607200  0.226400  0.948400  1.0  -0.6509
  O  O180  1  0.426000  0.236800  0.899700  1.0  -0.6439
  O  O181  1  0.347600  0.279500  0.047000  1.0  -0.6175
  O  O182  1  0.528400  0.261700  0.098700  1.0  -0.7037
  O  O183  1  0.727900  0.349700  0.177900  1.0  -0.6048
  O  O184  1  0.740600  0.368600  0.313000  1.0  -0.6558
  O  O185  1  0.771800  0.196100  0.333800  1.0  -0.6215
  O  O186  1  0.749100  0.172700  0.199700  1.0  -0.7252
  O  O187  1  0.468600  0.150400  0.547700  1.0  -0.6592
  O  O188  1  0.638700  0.183900  0.492000  1.0  -0.6459
  O  O189  1  0.564400  0.347200  0.455600  1.0  -0.6933
  O  O190  1  0.391600  0.315900  0.513700  1.0  -0.6097
  O  O191  1  0.681000  0.736100  0.216200  1.0  -0.8263
  O  O192  1  0.732400  0.670200  0.080700  1.0  -0.9337
  O  O193  1  0.891200  0.710600  0.171500  1.0  -0.7076
  O  O194  1  0.760800  0.461200  0.448700  1.0  -0.9012
  O  O195  1  0.763000  0.615500  0.510600  1.0  -0.9146
  O  O196  1  0.950300  0.545500  0.468900  1.0  -0.7312
  O  O197  1  0.892800  0.773600  0.448400  1.0  -0.6504
  O  O198  1  0.074000  0.763200  0.399700  1.0  -0.6447
  O  O199  1  0.152400  0.720500  0.547000  1.0  -0.6193
  O  O200  1  0.971600  0.738300  0.598700  1.0  -0.703
  O  O201  1  0.772100  0.650300  0.677900  1.0  -0.6059
  O  O202  1  0.759400  0.631400  0.813000  1.0  -0.655
  O  O203  1  0.728200  0.803900  0.833800  1.0  -0.6219
  O  O204  1  0.750900  0.827300  0.699700  1.0  -0.7302
  O  O205  1  0.031400  0.849600  0.047700  1.0  -0.6523
  O  O206  1  0.861300  0.816100  0.992000  1.0  -0.6451
  O  O207  1  0.935600  0.652800  0.955600  1.0  -0.693
  O  O208  1  0.108400  0.684100  0.013700  1.0  -0.612
