# generated using pymatgen
data_LuPH7C7NO9
_symmetry_space_group_name_H-M   'P 1'
_cell_length_a   11.25060000
_cell_length_b   14.83540000
_cell_length_c   16.18430000
_cell_angle_alpha   90.00000000
_cell_angle_beta   90.00000000
_cell_angle_gamma   90.00000000
_symmetry_Int_Tables_number   1
_chemical_formula_structural   LuPH7C7NO9
_chemical_formula_sum   'Lu8 P8 H56 C56 N8 O72'
_cell_volume   2701.27540781
_cell_formula_units_Z   8
loop_
 _symmetry_equiv_pos_site_id
 _symmetry_equiv_pos_as_xyz
  1  'x, y, z'
loop_
 _atom_site_type_symbol
 _atom_site_label
 _atom_site_symmetry_multiplicity
 _atom_site_fract_x
 _atom_site_fract_y
 _atom_site_fract_z
 _atom_site_occupancy
 _atom_site_charge
  Lu  Lu1  1  0.272970  0.747300  0.431890  1.0  1.8421
  Lu  Lu2  1  0.243090  0.804650  0.055020  1.0  1.7677
  Lu  Lu3  1  0.227030  0.252700  0.931890  1.0  1.8417
  Lu  Lu4  1  0.256910  0.195350  0.555020  1.0  1.7668
  Lu  Lu5  1  0.727030  0.247300  0.068110  1.0  1.8422
  Lu  Lu6  1  0.756910  0.304650  0.444980  1.0  1.768
  Lu  Lu7  1  0.772970  0.752700  0.568110  1.0  1.8416
  Lu  Lu8  1  0.743090  0.695350  0.944980  1.0  1.7673
  P  P9  1  0.261400  0.818500  0.833190  1.0  1.4689
  P  P10  1  0.312200  0.950500  0.545200  1.0  1.5059
  P  P11  1  0.238600  0.181500  0.333190  1.0  1.4684
  P  P12  1  0.187800  0.049500  0.045200  1.0  1.5065
  P  P13  1  0.738600  0.318500  0.666810  1.0  1.468
  P  P14  1  0.687800  0.450500  0.954800  1.0  1.5064
  P  P15  1  0.761400  0.681500  0.166810  1.0  1.469
  P  P16  1  0.812200  0.549500  0.454800  1.0  1.5064
  H  H17  1  0.404000  0.751200  0.794100  1.0  0.4506
  H  H18  1  0.466000  0.011800  0.528700  1.0  0.4358
  H  H19  1  0.227400  0.007000  0.695800  1.0  0.2124
  H  H20  1  0.862900  0.152100  0.742300  1.0  0.297
  H  H21  1  0.327800  0.963700  0.805100  1.0  0.1884
  H  H22  1  0.192700  0.964600  0.827000  1.0  0.1626
  H  H23  1  0.387400  0.908600  0.675100  1.0  0.1902
  H  H24  1  0.290500  0.839100  0.647300  1.0  0.1688
  H  H25  1  0.085300  0.933000  0.627300  1.0  0.1226
  H  H26  1  0.089900  0.856900  0.694500  1.0  0.1107
  H  H27  1  0.982800  0.877700  0.826300  1.0  0.1304
  H  H28  1  0.852800  0.959500  0.903500  1.0  0.1293
  H  H29  1  0.797000  0.101900  0.863500  1.0  0.119
  H  H30  1  0.999600  0.077100  0.662600  1.0  0.1176
  H  H31  1  0.096000  0.248800  0.294100  1.0  0.4511
  H  H32  1  0.034000  0.988200  0.028700  1.0  0.436
  H  H33  1  0.272600  0.993000  0.195800  1.0  0.2127
  H  H34  1  0.637100  0.847900  0.242300  1.0  0.2985
  H  H35  1  0.172200  0.036300  0.305100  1.0  0.1769
  H  H36  1  0.307300  0.035400  0.327000  1.0  0.1663
  H  H37  1  0.112600  0.091400  0.175100  1.0  0.1896
  H  H38  1  0.209500  0.160900  0.147300  1.0  0.1716
  H  H39  1  0.414700  0.067000  0.127300  1.0  0.1246
  H  H40  1  0.410100  0.143100  0.194500  1.0  0.1115
  H  H41  1  0.517200  0.122300  0.326300  1.0  0.1302
  H  H42  1  0.647200  0.040500  0.403500  1.0  0.128
  H  H43  1  0.703000  0.898100  0.363500  1.0  0.1191
  H  H44  1  0.500400  0.922900  0.162600  1.0  0.118
  H  H45  1  0.596000  0.251200  0.705900  1.0  0.4511
  H  H46  1  0.534000  0.511800  0.971300  1.0  0.4362
  H  H47  1  0.772600  0.507000  0.804200  1.0  0.2134
  H  H48  1  0.137100  0.652100  0.757700  1.0  0.2983
  H  H49  1  0.672200  0.463700  0.694900  1.0  0.1814
  H  H50  1  0.807300  0.464600  0.673000  1.0  0.1645
  H  H51  1  0.612600  0.408600  0.824900  1.0  0.1898
  H  H52  1  0.709500  0.339100  0.852700  1.0  0.1705
  H  H53  1  0.914700  0.433000  0.872700  1.0  0.1248
  H  H54  1  0.910100  0.356900  0.805500  1.0  0.1118
  H  H55  1  0.017200  0.377700  0.673700  1.0  0.1297
  H  H56  1  0.147200  0.459500  0.596500  1.0  0.1296
  H  H57  1  0.203000  0.601900  0.636500  1.0  0.1189
  H  H58  1  0.000400  0.577100  0.837400  1.0  0.1172
  H  H59  1  0.904000  0.748800  0.205900  1.0  0.4509
  H  H60  1  0.966000  0.488200  0.471300  1.0  0.4358
  H  H61  1  0.727400  0.493000  0.304200  1.0  0.2132
  H  H62  1  0.362900  0.347900  0.257700  1.0  0.2986
  H  H63  1  0.827800  0.536300  0.194900  1.0  0.1883
  H  H64  1  0.692700  0.535400  0.173000  1.0  0.1613
  H  H65  1  0.887400  0.591400  0.324900  1.0  0.1902
  H  H66  1  0.790500  0.660900  0.352700  1.0  0.1691
  H  H67  1  0.585300  0.567000  0.372700  1.0  0.1257
  H  H68  1  0.589900  0.643100  0.305500  1.0  0.1121
  H  H69  1  0.482800  0.622300  0.173700  1.0  0.1308
  H  H70  1  0.352800  0.540500  0.096500  1.0  0.1278
  H  H71  1  0.297000  0.398100  0.136500  1.0  0.1192
  H  H72  1  0.499600  0.422900  0.337400  1.0  0.1178
  C  C73  1  0.252700  0.933800  0.794500  1.0  -0.5097
  C  C74  1  0.308900  0.902900  0.650800  1.0  -0.5486
  C  C75  1  0.099700  0.921100  0.685400  1.0  -0.1164
  C  C76  1  0.007300  0.972800  0.737500  1.0  -0.018
  C  C77  1  0.960600  0.935300  0.809600  1.0  0.009
  C  C78  1  0.883100  0.983800  0.854900  1.0  -0.116
  C  C79  1  0.848000  0.068100  0.830600  1.0  0.142
  C  C80  1  0.970300  0.052700  0.711500  1.0  0.0853
  C  C81  1  0.498500  0.743700  0.543900  1.0  0.5346
  C  C82  1  0.545800  0.766200  0.456700  1.0  0.5669
  C  C83  1  0.263100  0.822300  0.250100  1.0  0.5315
  C  C84  1  0.248100  0.723300  0.236500  1.0  0.5588
  C  C85  1  0.469400  0.701700  0.986200  1.0  0.5489
  C  C86  1  0.515400  0.795800  0.006000  1.0  0.524
  C  C87  1  0.247300  0.066200  0.294500  1.0  -0.5116
  C  C88  1  0.191100  0.097100  0.150800  1.0  -0.5489
  C  C89  1  0.400300  0.078900  0.185400  1.0  -0.1131
  C  C90  1  0.492700  0.027200  0.237500  1.0  -0.0156
  C  C91  1  0.539400  0.064700  0.309600  1.0  0.0016
  C  C92  1  0.616900  0.016200  0.354900  1.0  -0.1153
  C  C93  1  0.652000  0.931900  0.330600  1.0  0.1446
  C  C94  1  0.529700  0.947300  0.211500  1.0  0.0855
  C  C95  1  0.001500  0.256300  0.043900  1.0  0.5335
  C  C96  1  0.954200  0.233800  0.956700  1.0  0.566
  C  C97  1  0.236900  0.177700  0.750100  1.0  0.5343
  C  C98  1  0.251900  0.276700  0.736500  1.0  0.5573
  C  C99  1  0.030600  0.298300  0.486200  1.0  0.5497
  C  C100  1  0.984600  0.204200  0.506000  1.0  0.524
  C  C101  1  0.747300  0.433800  0.705500  1.0  -0.5019
  C  C102  1  0.691100  0.402900  0.849200  1.0  -0.5491
  C  C103  1  0.900300  0.421100  0.814600  1.0  -0.1128
  C  C104  1  0.992700  0.472800  0.762500  1.0  -0.0163
  C  C105  1  0.039400  0.435300  0.690400  1.0  0.0096
  C  C106  1  0.116900  0.483800  0.645100  1.0  -0.1142
  C  C107  1  0.152000  0.568100  0.669400  1.0  0.1445
  C  C108  1  0.029700  0.552700  0.788500  1.0  0.0852
  C  C109  1  0.501500  0.243700  0.956100  1.0  0.5352
  C  C110  1  0.454200  0.266200  0.043300  1.0  0.5654
  C  C111  1  0.736900  0.322300  0.249900  1.0  0.5317
  C  C112  1  0.751900  0.223300  0.263500  1.0  0.5588
  C  C113  1  0.530600  0.201700  0.513800  1.0  0.5497
  C  C114  1  0.484600  0.295800  0.494000  1.0  0.5227
  C  C115  1  0.752700  0.566200  0.205500  1.0  -0.5055
  C  C116  1  0.808900  0.597100  0.349200  1.0  -0.5483
  C  C117  1  0.599700  0.578900  0.314600  1.0  -0.1169
  C  C118  1  0.507300  0.527200  0.262500  1.0  -0.0181
  C  C119  1  0.460600  0.564700  0.190400  1.0  0.0103
  C  C120  1  0.383100  0.516200  0.145100  1.0  -0.1161
  C  C121  1  0.348000  0.431900  0.169400  1.0  0.1401
  C  C122  1  0.470300  0.447300  0.288500  1.0  0.0853
  C  C123  1  0.998500  0.756300  0.456100  1.0  0.5353
  C  C124  1  0.045800  0.733800  0.543300  1.0  0.5661
  C  C125  1  0.763100  0.677700  0.749900  1.0  0.5338
  C  C126  1  0.748100  0.776700  0.763500  1.0  0.5583
  C  C127  1  0.969400  0.798300  0.013800  1.0  0.5488
  C  C128  1  0.015400  0.704200  0.994000  1.0  0.5247
  N  N129  1  0.221700  0.946800  0.705700  1.0  0.2572
  N  N130  1  0.887600  0.100700  0.759700  1.0  -0.1109
  N  N131  1  0.278300  0.053200  0.205700  1.0  0.2568
  N  N132  1  0.612400  0.899300  0.259700  1.0  -0.1072
  N  N133  1  0.778300  0.446800  0.794300  1.0  0.2573
  N  N134  1  0.112400  0.600700  0.740300  1.0  -0.1081
  N  N135  1  0.721700  0.553200  0.294300  1.0  0.2567
  N  N136  1  0.387600  0.399300  0.240300  1.0  -0.106
  O  O137  1  0.179200  0.761000  0.784200  1.0  -0.8187
  O  O138  1  0.236600  0.827800  0.921400  1.0  -0.8281
  O  O139  1  0.396000  0.793500  0.826100  1.0  -0.6901
  O  O140  1  0.254200  0.040600  0.548100  1.0  -0.8208
  O  O141  1  0.259300  0.884400  0.486300  1.0  -0.8423
  O  O142  1  0.445800  0.958800  0.525600  1.0  -0.7194
  O  O143  1  0.388700  0.731300  0.551200  1.0  -0.5914
  O  O144  1  0.573900  0.738000  0.601500  1.0  -0.5791
  O  O145  1  0.652400  0.779200  0.451300  1.0  -0.5677
  O  O146  1  0.471000  0.764900  0.400000  1.0  -0.6084
  O  O147  1  0.275400  0.849900  0.322900  1.0  -0.5602
  O  O148  1  0.264500  0.869500  0.185400  1.0  -0.5897
  O  O149  1  0.233700  0.697900  0.164900  1.0  -0.5535
  O  O150  1  0.252100  0.674300  0.301800  1.0  -0.6531
  O  O151  1  0.542400  0.652100  0.949500  1.0  -0.6177
  O  O152  1  0.367300  0.684600  0.007200  1.0  -0.5692
  O  O153  1  0.443000  0.847800  0.044700  1.0  -0.6012
  O  O154  1  0.620800  0.816800  0.988200  1.0  -0.5584
  O  O155  1  0.320800  0.239000  0.284200  1.0  -0.8185
  O  O156  1  0.263400  0.172200  0.421400  1.0  -0.8272
  O  O157  1  0.104000  0.206500  0.326100  1.0  -0.6897
  O  O158  1  0.245800  0.959400  0.048100  1.0  -0.8217
  O  O159  1  0.240700  0.115600  0.986300  1.0  -0.8424
  O  O160  1  0.054200  0.041200  0.025600  1.0  -0.7188
  O  O161  1  0.111300  0.268700  0.051200  1.0  -0.5925
  O  O162  1  0.926100  0.262000  0.101500  1.0  -0.579
  O  O163  1  0.847600  0.220800  0.951300  1.0  -0.567
  O  O164  1  0.029000  0.235100  0.900000  1.0  -0.6084
  O  O165  1  0.224600  0.150100  0.822900  1.0  -0.5596
  O  O166  1  0.235500  0.130500  0.685400  1.0  -0.5905
  O  O167  1  0.266300  0.302100  0.664900  1.0  -0.5536
  O  O168  1  0.247900  0.325700  0.801800  1.0  -0.6538
  O  O169  1  0.957600  0.347900  0.449500  1.0  -0.6191
  O  O170  1  0.132700  0.315400  0.507200  1.0  -0.5689
  O  O171  1  0.057000  0.152200  0.544700  1.0  -0.6007
  O  O172  1  0.879200  0.183200  0.488200  1.0  -0.5552
  O  O173  1  0.820800  0.261000  0.715800  1.0  -0.8186
  O  O174  1  0.763400  0.327800  0.578600  1.0  -0.8268
  O  O175  1  0.604000  0.293500  0.673900  1.0  -0.6901
  O  O176  1  0.745800  0.540600  0.951900  1.0  -0.8223
  O  O177  1  0.740700  0.384400  0.013700  1.0  -0.842
  O  O178  1  0.554200  0.458800  0.974400  1.0  -0.7186
  O  O179  1  0.611300  0.231300  0.948800  1.0  -0.592
  O  O180  1  0.426100  0.238000  0.898500  1.0  -0.578
  O  O181  1  0.347600  0.279200  0.048700  1.0  -0.5673
  O  O182  1  0.529000  0.264900  0.100000  1.0  -0.609
  O  O183  1  0.724600  0.349900  0.177100  1.0  -0.556
  O  O184  1  0.735500  0.369500  0.314600  1.0  -0.5916
  O  O185  1  0.766300  0.197900  0.335100  1.0  -0.5548
  O  O186  1  0.747900  0.174300  0.198200  1.0  -0.6546
  O  O187  1  0.457600  0.152100  0.550500  1.0  -0.6181
  O  O188  1  0.632700  0.184600  0.492800  1.0  -0.5681
  O  O189  1  0.557000  0.347800  0.455300  1.0  -0.6018
  O  O190  1  0.379200  0.316800  0.511800  1.0  -0.5543
  O  O191  1  0.679200  0.739000  0.215800  1.0  -0.8182
  O  O192  1  0.736600  0.672200  0.078600  1.0  -0.8278
  O  O193  1  0.896000  0.706500  0.173900  1.0  -0.6911
  O  O194  1  0.754200  0.459400  0.451900  1.0  -0.8216
  O  O195  1  0.759300  0.615600  0.513700  1.0  -0.8428
  O  O196  1  0.945800  0.541200  0.474400  1.0  -0.7184
  O  O197  1  0.888700  0.768700  0.448800  1.0  -0.5911
  O  O198  1  0.073900  0.762000  0.398500  1.0  -0.5781
  O  O199  1  0.152400  0.720800  0.548700  1.0  -0.5697
  O  O200  1  0.971000  0.735100  0.600000  1.0  -0.6089
  O  O201  1  0.775400  0.650100  0.677100  1.0  -0.5571
  O  O202  1  0.764500  0.630500  0.814600  1.0  -0.5923
  O  O203  1  0.733700  0.802100  0.835100  1.0  -0.555
  O  O204  1  0.752100  0.825700  0.698200  1.0  -0.6564
  O  O205  1  0.042400  0.847900  0.050500  1.0  -0.6166
  O  O206  1  0.867300  0.815400  0.992800  1.0  -0.5683
  O  O207  1  0.943000  0.652200  0.955300  1.0  -0.6014
  O  O208  1  0.120800  0.683200  0.011800  1.0  -0.556
