# generated using pymatgen
data_ErPH7C7NO9
_symmetry_space_group_name_H-M   'P 1'
_cell_length_a   11.36560000
_cell_length_b   14.84490000
_cell_length_c   16.30710000
_cell_angle_alpha   90.00000000
_cell_angle_beta   90.00000000
_cell_angle_gamma   90.00000000
_symmetry_Int_Tables_number   1
_chemical_formula_structural   ErPH7C7NO9
_chemical_formula_sum   'Er8 P8 H56 C56 N8 O72'
_cell_volume   2751.35340616
_cell_formula_units_Z   8
loop_
 _symmetry_equiv_pos_site_id
 _symmetry_equiv_pos_as_xyz
  1  'x, y, z'
loop_
 _atom_site_type_symbol
 _atom_site_label
 _atom_site_symmetry_multiplicity
 _atom_site_fract_x
 _atom_site_fract_y
 _atom_site_fract_z
 _atom_site_occupancy
 _atom_site_charge
  Er  Er1  1  0.276450  0.745180  0.431330  1.0  1.4589
  Er  Er2  1  0.234060  0.804920  0.054900  1.0  1.4025
  Er  Er3  1  0.223550  0.254820  0.931330  1.0  1.4583
  Er  Er4  1  0.265940  0.195080  0.554900  1.0  1.402
  Er  Er5  1  0.723550  0.245180  0.068670  1.0  1.4583
  Er  Er6  1  0.765940  0.304920  0.445100  1.0  1.4022
  Er  Er7  1  0.776450  0.754820  0.568670  1.0  1.4575
  Er  Er8  1  0.734060  0.695080  0.945100  1.0  1.4017
  P  P9  1  0.257700  0.817900  0.832810  1.0  1.4742
  P  P10  1  0.320500  0.948300  0.546720  1.0  1.4718
  P  P11  1  0.242300  0.182100  0.332810  1.0  1.4729
  P  P12  1  0.179500  0.051700  0.046720  1.0  1.4729
  P  P13  1  0.742300  0.317900  0.667190  1.0  1.4725
  P  P14  1  0.679500  0.448300  0.953280  1.0  1.4742
  P  P15  1  0.757700  0.682100  0.167190  1.0  1.4745
  P  P16  1  0.820500  0.551700  0.453280  1.0  1.4736
  H  H17  1  0.398100  0.747800  0.797200  1.0  0.4559
  H  H18  1  0.474900  0.009900  0.532600  1.0  0.4384
  H  H19  1  0.231900  0.006000  0.694800  1.0  0.2222
  H  H20  1  0.869900  0.152100  0.743100  1.0  0.3023
  H  H21  1  0.329300  0.959000  0.803900  1.0  0.2048
  H  H22  1  0.195800  0.964900  0.825600  1.0  0.1635
  H  H23  1  0.389900  0.905500  0.676800  1.0  0.1889
  H  H24  1  0.293900  0.836900  0.647500  1.0  0.1728
  H  H25  1  0.090600  0.937300  0.624900  1.0  0.1298
  H  H26  1  0.092900  0.857900  0.688400  1.0  0.1212
  H  H27  1  0.996500  0.880200  0.822500  1.0  0.118
  H  H28  1  0.859200  0.959300  0.899300  1.0  0.1475
  H  H29  1  0.809600  0.098500  0.861400  1.0  0.1145
  H  H30  1  0.000600  0.080100  0.660300  1.0  0.1262
  H  H31  1  0.101900  0.252200  0.297200  1.0  0.4553
  H  H32  1  0.025100  0.990100  0.032600  1.0  0.4386
  H  H33  1  0.268100  0.994000  0.194800  1.0  0.2215
  H  H34  1  0.630100  0.847900  0.243100  1.0  0.3027
  H  H35  1  0.170700  0.041000  0.303900  1.0  0.2012
  H  H36  1  0.304200  0.035100  0.325600  1.0  0.1665
  H  H37  1  0.110100  0.094500  0.176800  1.0  0.1894
  H  H38  1  0.206100  0.163100  0.147500  1.0  0.1789
  H  H39  1  0.409400  0.062700  0.124900  1.0  0.1313
  H  H40  1  0.407100  0.142100  0.188400  1.0  0.121
  H  H41  1  0.503500  0.119800  0.322500  1.0  0.1175
  H  H42  1  0.640800  0.040700  0.399300  1.0  0.1469
  H  H43  1  0.690400  0.901500  0.361400  1.0  0.1157
  H  H44  1  0.499400  0.919900  0.160300  1.0  0.1271
  H  H45  1  0.601900  0.247800  0.702800  1.0  0.4553
  H  H46  1  0.525100  0.509900  0.967400  1.0  0.4393
  H  H47  1  0.768100  0.506000  0.805200  1.0  0.2229
  H  H48  1  0.130100  0.652100  0.756900  1.0  0.3026
  H  H49  1  0.670700  0.459000  0.696100  1.0  0.2028
  H  H50  1  0.804200  0.464900  0.674400  1.0  0.1614
  H  H51  1  0.610100  0.405500  0.823200  1.0  0.1893
  H  H52  1  0.706100  0.336900  0.852500  1.0  0.1733
  H  H53  1  0.909400  0.437300  0.875100  1.0  0.1291
  H  H54  1  0.907100  0.357900  0.811600  1.0  0.1225
  H  H55  1  0.003500  0.380200  0.677500  1.0  0.1168
  H  H56  1  0.140800  0.459300  0.600700  1.0  0.1483
  H  H57  1  0.190400  0.598500  0.638600  1.0  0.116
  H  H58  1  0.999400  0.580100  0.839700  1.0  0.1264
  H  H59  1  0.898100  0.752200  0.202800  1.0  0.4549
  H  H60  1  0.974900  0.490100  0.467400  1.0  0.4382
  H  H61  1  0.731900  0.494000  0.305200  1.0  0.2221
  H  H62  1  0.369900  0.347900  0.256900  1.0  0.3031
  H  H63  1  0.829300  0.541000  0.196100  1.0  0.2043
  H  H64  1  0.695800  0.535100  0.174400  1.0  0.1568
  H  H65  1  0.889900  0.594500  0.323200  1.0  0.1888
  H  H66  1  0.793900  0.663100  0.352500  1.0  0.177
  H  H67  1  0.590600  0.562700  0.375100  1.0  0.1297
  H  H68  1  0.592900  0.642100  0.311600  1.0  0.1222
  H  H69  1  0.496500  0.619800  0.177500  1.0  0.1182
  H  H70  1  0.359200  0.540700  0.100700  1.0  0.1478
  H  H71  1  0.309600  0.401500  0.138600  1.0  0.1151
  H  H72  1  0.500600  0.419900  0.339700  1.0  0.1266
  C  C73  1  0.253100  0.931800  0.793600  1.0  -0.5037
  C  C74  1  0.313100  0.900400  0.651300  1.0  -0.5298
  C  C75  1  0.103600  0.922400  0.682100  1.0  -0.1094
  C  C76  1  0.013900  0.971200  0.734300  1.0  -0.0135
  C  C77  1  0.971300  0.936600  0.805000  1.0  0.0161
  C  C78  1  0.890500  0.984300  0.851800  1.0  -0.1156
  C  C79  1  0.859300  0.064800  0.828000  1.0  0.126
  C  C80  1  0.974400  0.055000  0.709300  1.0  0.0973
  C  C81  1  0.501900  0.740100  0.542500  1.0  0.5337
  C  C82  1  0.549600  0.762900  0.456100  1.0  0.5651
  C  C83  1  0.262200  0.822700  0.251200  1.0  0.5265
  C  C84  1  0.245200  0.722600  0.237600  1.0  0.5441
  C  C85  1  0.460700  0.700700  0.985700  1.0  0.5535
  C  C86  1  0.506200  0.796200  0.006600  1.0  0.5241
  C  C87  1  0.246900  0.068200  0.293600  1.0  -0.5087
  C  C88  1  0.186900  0.099600  0.151300  1.0  -0.5295
  C  C89  1  0.396400  0.077600  0.182100  1.0  -0.1044
  C  C90  1  0.486100  0.028800  0.234300  1.0  -0.0094
  C  C91  1  0.528700  0.063400  0.305000  1.0  0.0157
  C  C92  1  0.609500  0.015700  0.351800  1.0  -0.1137
  C  C93  1  0.640700  0.935200  0.328000  1.0  0.1259
  C  C94  1  0.525600  0.945000  0.209300  1.0  0.0978
  C  C95  1  0.998100  0.259900  0.042500  1.0  0.5329
  C  C96  1  0.950400  0.237100  0.956100  1.0  0.5644
  C  C97  1  0.237800  0.177300  0.751200  1.0  0.5322
  C  C98  1  0.254800  0.277400  0.737600  1.0  0.5439
  C  C99  1  0.039300  0.299300  0.485700  1.0  0.5531
  C  C100  1  0.993800  0.203800  0.506600  1.0  0.5238
  C  C101  1  0.746900  0.431800  0.706400  1.0  -0.5022
  C  C102  1  0.686900  0.400400  0.848700  1.0  -0.5285
  C  C103  1  0.896400  0.422400  0.817900  1.0  -0.1071
  C  C104  1  0.986100  0.471200  0.765700  1.0  -0.01
  C  C105  1  0.028700  0.436600  0.695000  1.0  0.017
  C  C106  1  0.109500  0.484300  0.648200  1.0  -0.1141
  C  C107  1  0.140700  0.564800  0.672000  1.0  0.1247
  C  C108  1  0.025600  0.555000  0.790700  1.0  0.0977
  C  C109  1  0.498100  0.240100  0.957500  1.0  0.5333
  C  C110  1  0.450400  0.262900  0.043900  1.0  0.5645
  C  C111  1  0.737800  0.322700  0.248800  1.0  0.5288
  C  C112  1  0.754800  0.222600  0.262400  1.0  0.5431
  C  C113  1  0.539300  0.200700  0.514300  1.0  0.5525
  C  C114  1  0.493800  0.296200  0.493400  1.0  0.5222
  C  C115  1  0.753100  0.568200  0.206400  1.0  -0.4974
  C  C116  1  0.813100  0.599600  0.348700  1.0  -0.5268
  C  C117  1  0.603600  0.577600  0.317900  1.0  -0.1115
  C  C118  1  0.513900  0.528800  0.265700  1.0  -0.0127
  C  C119  1  0.471300  0.563400  0.195000  1.0  0.0152
  C  C120  1  0.390500  0.515700  0.148200  1.0  -0.1177
  C  C121  1  0.359300  0.435200  0.172000  1.0  0.1229
  C  C122  1  0.474400  0.445000  0.290700  1.0  0.0989
  C  C123  1  0.001900  0.759900  0.457500  1.0  0.5341
  C  C124  1  0.049600  0.737100  0.543900  1.0  0.5644
  C  C125  1  0.762200  0.677300  0.748800  1.0  0.5292
  C  C126  1  0.745200  0.777400  0.762400  1.0  0.5451
  C  C127  1  0.960700  0.799300  0.014300  1.0  0.5541
  C  C128  1  0.006200  0.703800  0.993400  1.0  0.5229
  N  N129  1  0.224300  0.945900  0.704400  1.0  0.2545
  N  N130  1  0.895700  0.100200  0.758100  1.0  -0.089
  N  N131  1  0.275700  0.054100  0.204400  1.0  0.2542
  N  N132  1  0.604300  0.899800  0.258100  1.0  -0.09
  N  N133  1  0.775700  0.445900  0.795600  1.0  0.2544
  N  N134  1  0.104300  0.600200  0.741900  1.0  -0.0905
  N  N135  1  0.724300  0.554100  0.295600  1.0  0.2542
  N  N136  1  0.395700  0.399800  0.241900  1.0  -0.0871
  O  O137  1  0.178300  0.761800  0.783100  1.0  -0.8132
  O  O138  1  0.229500  0.829300  0.920500  1.0  -0.8623
  O  O139  1  0.390100  0.790000  0.829100  1.0  -0.6943
  O  O140  1  0.263400  0.039300  0.549800  1.0  -0.8036
  O  O141  1  0.268900  0.884100  0.486900  1.0  -0.8391
  O  O142  1  0.455300  0.956900  0.529400  1.0  -0.7146
  O  O143  1  0.393700  0.726300  0.550000  1.0  -0.5384
  O  O144  1  0.577600  0.735300  0.600300  1.0  -0.5307
  O  O145  1  0.654900  0.777100  0.451900  1.0  -0.5452
  O  O146  1  0.474600  0.763400  0.400600  1.0  -0.5817
  O  O147  1  0.279000  0.850900  0.322500  1.0  -0.4928
  O  O148  1  0.261800  0.869400  0.186200  1.0  -0.5583
  O  O149  1  0.227000  0.696300  0.165400  1.0  -0.5171
  O  O150  1  0.250500  0.673300  0.301200  1.0  -0.5839
  O  O151  1  0.530800  0.650400  0.951300  1.0  -0.5453
  O  O152  1  0.358900  0.683400  0.006800  1.0  -0.5002
  O  O153  1  0.435400  0.848100  0.044100  1.0  -0.5076
  O  O154  1  0.609800  0.815900  0.986800  1.0  -0.477
  O  O155  1  0.321700  0.238200  0.283100  1.0  -0.8152
  O  O156  1  0.270500  0.170700  0.420500  1.0  -0.8612
  O  O157  1  0.109900  0.210000  0.329100  1.0  -0.6943
  O  O158  1  0.236600  0.960700  0.049800  1.0  -0.805
  O  O159  1  0.231100  0.115900  0.986900  1.0  -0.8391
  O  O160  1  0.044700  0.043100  0.029400  1.0  -0.7146
  O  O161  1  0.106300  0.273700  0.050000  1.0  -0.5405
  O  O162  1  0.922400  0.264700  0.100300  1.0  -0.531
  O  O163  1  0.845100  0.222900  0.951900  1.0  -0.5438
  O  O164  1  0.025400  0.236600  0.900600  1.0  -0.582
  O  O165  1  0.221000  0.149100  0.822500  1.0  -0.4896
  O  O166  1  0.238200  0.130600  0.686200  1.0  -0.5585
  O  O167  1  0.273000  0.303700  0.665400  1.0  -0.515
  O  O168  1  0.249500  0.326700  0.801200  1.0  -0.5856
  O  O169  1  0.969200  0.349600  0.451300  1.0  -0.5462
  O  O170  1  0.141100  0.316600  0.506800  1.0  -0.4995
  O  O171  1  0.064600  0.151900  0.544100  1.0  -0.5083
  O  O172  1  0.890200  0.184100  0.486800  1.0  -0.4623
  O  O173  1  0.821700  0.261800  0.716900  1.0  -0.8137
  O  O174  1  0.770500  0.329300  0.579500  1.0  -0.8608
  O  O175  1  0.609900  0.290000  0.670900  1.0  -0.695
  O  O176  1  0.736600  0.539300  0.950200  1.0  -0.8042
  O  O177  1  0.731100  0.384100  0.013100  1.0  -0.839
  O  O178  1  0.544700  0.456900  0.970600  1.0  -0.7135
  O  O179  1  0.606300  0.226300  0.950000  1.0  -0.5392
  O  O180  1  0.422400  0.235300  0.899700  1.0  -0.5292
  O  O181  1  0.345100  0.277100  0.048100  1.0  -0.5443
  O  O182  1  0.525400  0.263400  0.099400  1.0  -0.5803
  O  O183  1  0.721000  0.350900  0.177500  1.0  -0.4876
  O  O184  1  0.738200  0.369400  0.313800  1.0  -0.5589
  O  O185  1  0.773000  0.196300  0.334600  1.0  -0.5166
  O  O186  1  0.749500  0.173300  0.198800  1.0  -0.5856
  O  O187  1  0.469200  0.150400  0.548700  1.0  -0.5452
  O  O188  1  0.641100  0.183400  0.493200  1.0  -0.4989
  O  O189  1  0.564600  0.348100  0.455900  1.0  -0.5143
  O  O190  1  0.390200  0.315900  0.513200  1.0  -0.4635
  O  O191  1  0.678300  0.738200  0.216900  1.0  -0.8145
  O  O192  1  0.729500  0.670700  0.079500  1.0  -0.8617
  O  O193  1  0.890100  0.710000  0.170900  1.0  -0.6957
  O  O194  1  0.763400  0.460700  0.450200  1.0  -0.804
  O  O195  1  0.768900  0.615900  0.513100  1.0  -0.8397
  O  O196  1  0.955300  0.543100  0.470600  1.0  -0.7148
  O  O197  1  0.893700  0.773700  0.450000  1.0  -0.5379
  O  O198  1  0.077600  0.764700  0.399700  1.0  -0.5299
  O  O199  1  0.154900  0.722900  0.548100  1.0  -0.5488
  O  O200  1  0.974600  0.736600  0.599400  1.0  -0.5801
  O  O201  1  0.779000  0.649100  0.677500  1.0  -0.4898
  O  O202  1  0.761800  0.630600  0.813800  1.0  -0.5593
  O  O203  1  0.727000  0.803700  0.834600  1.0  -0.5219
  O  O204  1  0.750500  0.826700  0.698800  1.0  -0.5895
  O  O205  1  0.030800  0.849600  0.048700  1.0  -0.5445
  O  O206  1  0.858900  0.816600  0.993200  1.0  -0.4992
  O  O207  1  0.935400  0.651900  0.955900  1.0  -0.5083
  O  O208  1  0.109800  0.684100  0.013200  1.0  -0.4737
