# generated using pymatgen
data_CaH8C14SO6
_symmetry_space_group_name_H-M   'P 1'
_cell_length_a   11.68840000
_cell_length_b   5.56430000
_cell_length_c   22.81590000
_cell_angle_alpha   90.00000000
_cell_angle_beta   100.69100000
_cell_angle_gamma   90.00000000
_symmetry_Int_Tables_number   1
_chemical_formula_structural   CaH8C14SO6
_chemical_formula_sum   'Ca4 H32 C56 S4 O24'
_cell_volume   1458.13759497
_cell_formula_units_Z   4
loop_
 _symmetry_equiv_pos_site_id
 _symmetry_equiv_pos_as_xyz
  1  'x, y, z'
loop_
 _atom_site_type_symbol
 _atom_site_label
 _atom_site_symmetry_multiplicity
 _atom_site_fract_x
 _atom_site_fract_y
 _atom_site_fract_z
 _atom_site_occupancy
 _atom_site_charge
  Ca  Ca1  1  0.862580  0.756330  0.278180  1.0  1.5939
  Ca  Ca2  1  0.637420  0.256330  0.221820  1.0  1.5928
  Ca  Ca3  1  0.137420  0.243670  0.721820  1.0  1.5928
  Ca  Ca4  1  0.362580  0.743670  0.778180  1.0  1.5942
  H  H5  1  0.227800  0.211100  0.492800  1.0  0.124
  H  H6  1  0.272200  0.128300  0.595300  1.0  0.1267
  H  H7  1  0.128700  0.466300  0.564900  1.0  0.1114
  H  H8  1  0.079600  0.549900  0.462600  1.0  0.1213
  H  H9  1  0.307100  0.205100  0.381100  1.0  0.1162
  H  H10  1  0.457600  0.124500  0.328500  1.0  0.126
  H  H11  1  0.314600  0.473200  0.280100  1.0  0.0962
  H  H12  1  0.158600  0.558800  0.328700  1.0  0.127
  H  H13  1  0.272200  0.711100  0.007200  1.0  0.123
  H  H14  1  0.227800  0.628300  0.904700  1.0  0.1265
  H  H15  1  0.371300  0.966300  0.935100  1.0  0.1113
  H  H16  1  0.420400  0.049900  0.037400  1.0  0.1212
  H  H17  1  0.192900  0.705100  0.118900  1.0  0.1167
  H  H18  1  0.042400  0.624500  0.171500  1.0  0.1261
  H  H19  1  0.185400  0.973200  0.219900  1.0  0.0964
  H  H20  1  0.341400  0.058800  0.171300  1.0  0.1263
  H  H21  1  0.772200  0.788900  0.507200  1.0  0.123
  H  H22  1  0.727800  0.871700  0.404700  1.0  0.1261
  H  H23  1  0.871300  0.533700  0.435100  1.0  0.1118
  H  H24  1  0.920400  0.450100  0.537400  1.0  0.1208
  H  H25  1  0.692900  0.794900  0.618900  1.0  0.1164
  H  H26  1  0.542400  0.875500  0.671500  1.0  0.1253
  H  H27  1  0.685400  0.526800  0.719900  1.0  0.0963
  H  H28  1  0.841400  0.441200  0.671300  1.0  0.1261
  H  H29  1  0.727800  0.288900  0.992800  1.0  0.1238
  H  H30  1  0.772200  0.371700  0.095300  1.0  0.1272
  H  H31  1  0.628700  0.033700  0.064900  1.0  0.1117
  H  H32  1  0.579600  0.950100  0.962600  1.0  0.1216
  H  H33  1  0.807100  0.294900  0.881100  1.0  0.1162
  H  H34  1  0.957600  0.375500  0.828500  1.0  0.1265
  H  H35  1  0.814600  0.026800  0.780100  1.0  0.096
  H  H36  1  0.658600  0.941200  0.828700  1.0  0.1265
  C  C37  1  0.146700  0.890900  0.469290  1.0  -0.2026
  C  C38  1  0.205950  0.062000  0.507750  1.0  -0.0598
  C  C39  1  0.232760  0.012200  0.568370  1.0  -0.0602
  C  C40  1  0.201700  0.791400  0.589600  1.0  -0.1014
  C  C41  1  0.146770  0.618800  0.550250  1.0  -0.0813
  C  C42  1  0.118020  0.667000  0.489620  1.0  -0.1001
  C  C43  1  0.226190  0.738400  0.655250  1.0  0.7346
  C  C44  1  0.218730  0.890800  0.358110  1.0  -0.2286
  C  C45  1  0.307790  0.059100  0.359550  1.0  -0.0737
  C  C46  1  0.397630  0.009800  0.328970  1.0  -0.0273
  C  C47  1  0.399520  0.791800  0.299020  1.0  -0.1198
  C  C48  1  0.311630  0.623200  0.299720  1.0  -0.0408
  C  C49  1  0.219400  0.672100  0.328840  1.0  -0.0885
  C  C50  1  0.493520  0.741000  0.262890  1.0  0.7523
  C  C51  1  0.353300  0.390900  0.030710  1.0  -0.2013
  C  C52  1  0.294050  0.562000  0.992250  1.0  -0.0628
  C  C53  1  0.267240  0.512200  0.931630  1.0  -0.0603
  C  C54  1  0.298300  0.291400  0.910400  1.0  -0.1002
  C  C55  1  0.353230  0.118800  0.949750  1.0  -0.0827
  C  C56  1  0.381980  0.167000  0.010380  1.0  -0.1023
  C  C57  1  0.273810  0.238400  0.844750  1.0  0.7351
  C  C58  1  0.281270  0.390800  0.141890  1.0  -0.2276
  C  C59  1  0.192210  0.559100  0.140450  1.0  -0.0737
  C  C60  1  0.102370  0.509800  0.171030  1.0  -0.0277
  C  C61  1  0.100480  0.291800  0.200980  1.0  -0.1201
  C  C62  1  0.188370  0.123200  0.200280  1.0  -0.0409
  C  C63  1  0.280600  0.172100  0.171160  1.0  -0.089
  C  C64  1  0.006480  0.241000  0.237110  1.0  0.7536
  C  C65  1  0.853300  0.109100  0.530710  1.0  -0.201
  C  C66  1  0.794050  0.938000  0.492250  1.0  -0.063
  C  C67  1  0.767240  0.987800  0.431630  1.0  -0.0595
  C  C68  1  0.798300  0.208600  0.410400  1.0  -0.1001
  C  C69  1  0.853230  0.381200  0.449750  1.0  -0.0823
  C  C70  1  0.881980  0.333000  0.510380  1.0  -0.1018
  C  C71  1  0.773810  0.261600  0.344750  1.0  0.7352
  C  C72  1  0.781270  0.109200  0.641890  1.0  -0.2276
  C  C73  1  0.692210  0.940900  0.640450  1.0  -0.0738
  C  C74  1  0.602370  0.990200  0.671030  1.0  -0.0272
  C  C75  1  0.600480  0.208200  0.700980  1.0  -0.1196
  C  C76  1  0.688370  0.376800  0.700280  1.0  -0.0395
  C  C77  1  0.780600  0.327900  0.671160  1.0  -0.0895
  C  C78  1  0.506480  0.259000  0.737110  1.0  0.7536
  C  C79  1  0.646700  0.609100  0.969290  1.0  -0.2027
  C  C80  1  0.705950  0.438000  0.007750  1.0  -0.0596
  C  C81  1  0.732760  0.487800  0.068370  1.0  -0.0599
  C  C82  1  0.701700  0.708600  0.089600  1.0  -0.1016
  C  C83  1  0.646770  0.881200  0.050250  1.0  -0.0821
  C  C84  1  0.618020  0.833000  0.989620  1.0  -0.1001
  C  C85  1  0.726190  0.761600  0.155250  1.0  0.7344
  C  C86  1  0.718730  0.609200  0.858110  1.0  -0.2284
  C  C87  1  0.807790  0.440900  0.859550  1.0  -0.0741
  C  C88  1  0.897630  0.490200  0.828970  1.0  -0.0267
  C  C89  1  0.899520  0.708200  0.799020  1.0  -0.1203
  C  C90  1  0.811630  0.876800  0.799720  1.0  -0.0392
  C  C91  1  0.719400  0.827900  0.828840  1.0  -0.0886
  C  C92  1  0.993520  0.759000  0.762890  1.0  0.7522
  S  S93  1  0.101450  0.964540  0.393300  1.0  1.1588
  S  S94  1  0.398550  0.464540  0.106700  1.0  1.1572
  S  S95  1  0.898550  0.035460  0.606700  1.0  1.1571
  S  S96  1  0.601450  0.535460  0.893300  1.0  1.1585
  O  O97  1  0.239700  0.915050  0.690920  1.0  -0.7276
  O  O98  1  0.236210  0.523430  0.672120  1.0  -0.6995
  O  O99  1  0.542110  0.918790  0.244610  1.0  -0.7086
  O  O100  1  0.512960  0.523830  0.253480  1.0  -0.6962
  O  O101  1  0.084460  0.220590  0.389500  1.0  -0.5472
  O  O102  1  0.004940  0.805620  0.370300  1.0  -0.6195
  O  O103  1  0.260300  0.415050  0.809080  1.0  -0.7267
  O  O104  1  0.263790  0.023430  0.827880  1.0  -0.7004
  O  O105  1  0.957890  0.418790  0.255390  1.0  -0.7079
  O  O106  1  0.987040  0.023830  0.246520  1.0  -0.7
  O  O107  1  0.415540  0.720590  0.110500  1.0  -0.5479
  O  O108  1  0.495060  0.305620  0.129700  1.0  -0.6208
  O  O109  1  0.760300  0.084950  0.309080  1.0  -0.7272
  O  O110  1  0.763790  0.476570  0.327880  1.0  -0.7009
  O  O111  1  0.457890  0.081210  0.755390  1.0  -0.7073
  O  O112  1  0.487040  0.476170  0.746520  1.0  -0.698
  O  O113  1  0.915540  0.779410  0.610500  1.0  -0.5488
  O  O114  1  0.995060  0.194380  0.629700  1.0  -0.6203
  O  O115  1  0.739700  0.584950  0.190920  1.0  -0.7268
  O  O116  1  0.736210  0.976570  0.172120  1.0  -0.7007
  O  O117  1  0.042110  0.581210  0.744610  1.0  -0.7084
  O  O118  1  0.012960  0.976170  0.753480  1.0  -0.6987
  O  O119  1  0.584460  0.279410  0.889500  1.0  -0.5483
  O  O120  1  0.504940  0.694380  0.870300  1.0  -0.6191
