# generated using pymatgen
data_CaH8C14SO6
_symmetry_space_group_name_H-M   'P 1'
_cell_length_a   11.80130000
_cell_length_b   5.58270000
_cell_length_c   22.72300000
_cell_angle_alpha   90.00000000
_cell_angle_beta   100.09200000
_cell_angle_gamma   90.00000000
_symmetry_Int_Tables_number   1
_chemical_formula_structural   CaH8C14SO6
_chemical_formula_sum   'Ca4 H32 C56 S4 O24'
_cell_volume   1473.89901999
_cell_formula_units_Z   4
loop_
 _symmetry_equiv_pos_site_id
 _symmetry_equiv_pos_as_xyz
  1  'x, y, z'
loop_
 _atom_site_type_symbol
 _atom_site_label
 _atom_site_symmetry_multiplicity
 _atom_site_fract_x
 _atom_site_fract_y
 _atom_site_fract_z
 _atom_site_occupancy
 _atom_site_charge
  Ca  Ca1  1  0.637830  0.244230  0.222870  1.0  1.5918
  Ca  Ca2  1  0.862170  0.744230  0.277130  1.0  1.5931
  Ca  Ca3  1  0.362170  0.755770  0.777130  1.0  1.5931
  Ca  Ca4  1  0.137830  0.255770  0.722870  1.0  1.5932
  H  H5  1  0.373100  0.532800  0.935400  1.0  0.111
  H  H6  1  0.421100  0.450700  0.037800  1.0  0.1186
  H  H7  1  0.279400  0.787300  0.008500  1.0  0.1212
  H  H8  1  0.234500  0.869400  0.905700  1.0  0.1217
  H  H9  1  0.341300  0.442600  0.172300  1.0  0.1244
  H  H10  1  0.184700  0.526000  0.220300  1.0  0.0992
  H  H11  1  0.046300  0.874600  0.172300  1.0  0.1229
  H  H12  1  0.198100  0.793800  0.120800  1.0  0.1166
  H  H13  1  0.126900  0.032800  0.564600  1.0  0.1111
  H  H14  1  0.078900  0.950700  0.462200  1.0  0.1193
  H  H15  1  0.220600  0.287300  0.491500  1.0  0.1213
  H  H16  1  0.265500  0.369400  0.594300  1.0  0.1236
  H  H17  1  0.158700  0.942600  0.327700  1.0  0.1248
  H  H18  1  0.315300  0.026000  0.279700  1.0  0.0992
  H  H19  1  0.453700  0.374600  0.327700  1.0  0.1241
  H  H20  1  0.301900  0.293800  0.379200  1.0  0.116
  H  H21  1  0.626900  0.467200  0.064600  1.0  0.1108
  H  H22  1  0.578900  0.549300  0.962200  1.0  0.1188
  H  H23  1  0.720600  0.212700  0.991500  1.0  0.1219
  H  H24  1  0.765500  0.130600  0.094300  1.0  0.123
  H  H25  1  0.658700  0.557400  0.827700  1.0  0.1253
  H  H26  1  0.815300  0.474000  0.779700  1.0  0.0993
  H  H27  1  0.953700  0.125400  0.827700  1.0  0.1238
  H  H28  1  0.801900  0.206200  0.879200  1.0  0.1158
  H  H29  1  0.873100  0.967200  0.435400  1.0  0.1105
  H  H30  1  0.921100  0.049300  0.537800  1.0  0.1188
  H  H31  1  0.779400  0.712700  0.508500  1.0  0.1214
  H  H32  1  0.734500  0.630600  0.405700  1.0  0.1221
  H  H33  1  0.841300  0.057400  0.672300  1.0  0.1245
  H  H34  1  0.684700  0.974000  0.720300  1.0  0.0991
  H  H35  1  0.546300  0.625400  0.672300  1.0  0.1234
  H  H36  1  0.698100  0.706200  0.620800  1.0  0.1167
  C  C37  1  0.276110  0.260900  0.844850  1.0  0.7498
  C  C38  1  0.302250  0.207500  0.910900  1.0  -0.0982
  C  C39  1  0.355750  0.380500  0.950240  1.0  -0.0939
  C  C40  1  0.384090  0.332900  0.010960  1.0  -0.0969
  C  C41  1  0.357190  0.108800  0.031650  1.0  -0.2091
  C  C42  1  0.299800  0.936700  0.993290  1.0  -0.0698
  C  C43  1  0.272830  0.986000  0.932460  1.0  -0.0659
  C  C44  1  0.283800  0.108900  0.143220  1.0  -0.218
  C  C45  1  0.281440  0.328700  0.172170  1.0  -0.0605
  C  C46  1  0.188840  0.376400  0.200830  1.0  -0.0455
  C  C47  1  0.102130  0.207500  0.201370  1.0  -0.1123
  C  C48  1  0.005970  0.259700  0.236140  1.0  0.7465
  C  C49  1  0.105610  0.989400  0.171900  1.0  -0.0262
  C  C50  1  0.196040  0.940100  0.141890  1.0  -0.0677
  C  C51  1  0.223890  0.760900  0.655150  1.0  0.7494
  C  C52  1  0.197750  0.707500  0.589100  1.0  -0.0995
  C  C53  1  0.144250  0.880500  0.549760  1.0  -0.093
  C  C54  1  0.115910  0.832900  0.489040  1.0  -0.0949
  C  C55  1  0.142810  0.608800  0.468350  1.0  -0.2098
  C  C56  1  0.200200  0.436700  0.506710  1.0  -0.0664
  C  C57  1  0.227170  0.486000  0.567540  1.0  -0.0669
  C  C58  1  0.216200  0.608900  0.356780  1.0  -0.2196
  C  C59  1  0.218560  0.828700  0.327830  1.0  -0.0599
  C  C60  1  0.311160  0.876400  0.299170  1.0  -0.0454
  C  C61  1  0.397870  0.707500  0.298630  1.0  -0.1139
  C  C62  1  0.494030  0.759700  0.263860  1.0  0.7452
  C  C63  1  0.394390  0.489400  0.328100  1.0  -0.0278
  C  C64  1  0.303960  0.440100  0.358110  1.0  -0.0681
  C  C65  1  0.723890  0.739100  0.155150  1.0  0.7494
  C  C66  1  0.697750  0.792500  0.089100  1.0  -0.0995
  C  C67  1  0.644250  0.619500  0.049760  1.0  -0.0923
  C  C68  1  0.615910  0.667100  0.989040  1.0  -0.0945
  C  C69  1  0.642810  0.891200  0.968350  1.0  -0.2097
  C  C70  1  0.700200  0.063300  0.006710  1.0  -0.0664
  C  C71  1  0.727170  0.014000  0.067540  1.0  -0.0673
  C  C72  1  0.716200  0.891100  0.856780  1.0  -0.2198
  C  C73  1  0.718560  0.671300  0.827830  1.0  -0.0594
  C  C74  1  0.811160  0.623600  0.799170  1.0  -0.0464
  C  C75  1  0.897870  0.792500  0.798630  1.0  -0.1135
  C  C76  1  0.994030  0.740300  0.763860  1.0  0.7454
  C  C77  1  0.894390  0.010600  0.828100  1.0  -0.0284
  C  C78  1  0.803960  0.059900  0.858110  1.0  -0.0677
  C  C79  1  0.776110  0.239100  0.344850  1.0  0.7495
  C  C80  1  0.802250  0.292500  0.410900  1.0  -0.0984
  C  C81  1  0.855750  0.119500  0.450240  1.0  -0.094
  C  C82  1  0.884090  0.167100  0.510960  1.0  -0.0969
  C  C83  1  0.857190  0.391200  0.531650  1.0  -0.2093
  C  C84  1  0.799800  0.563300  0.493290  1.0  -0.0695
  C  C85  1  0.772830  0.514000  0.432460  1.0  -0.0664
  C  C86  1  0.783800  0.391100  0.643220  1.0  -0.2178
  C  C87  1  0.781440  0.171300  0.672170  1.0  -0.0599
  C  C88  1  0.688840  0.123600  0.700830  1.0  -0.0468
  C  C89  1  0.602130  0.292500  0.701370  1.0  -0.1128
  C  C90  1  0.505970  0.240300  0.736140  1.0  0.7465
  C  C91  1  0.605610  0.510600  0.671900  1.0  -0.0268
  C  C92  1  0.696040  0.559900  0.641890  1.0  -0.0674
  S  S93  1  0.401150  0.036400  0.108050  1.0  1.1561
  S  S94  1  0.098850  0.536400  0.391950  1.0  1.1569
  S  S95  1  0.598850  0.963600  0.891950  1.0  1.1572
  S  S96  1  0.901150  0.463600  0.608050  1.0  1.1563
  O  O97  1  0.265760  0.475300  0.828290  1.0  -0.7025
  O  O98  1  0.261770  0.084100  0.809200  1.0  -0.7435
  O  O99  1  0.418540  0.781600  0.112150  1.0  -0.5375
  O  O100  1  0.495920  0.195800  0.130920  1.0  -0.6156
  O  O101  1  0.985690  0.476200  0.244940  1.0  -0.7136
  O  O102  1  0.956420  0.081500  0.253900  1.0  -0.7065
  O  O103  1  0.234240  0.975300  0.671710  1.0  -0.7029
  O  O104  1  0.238230  0.584100  0.690800  1.0  -0.7438
  O  O105  1  0.081460  0.281600  0.387850  1.0  -0.5372
  O  O106  1  0.004080  0.695800  0.369080  1.0  -0.6138
  O  O107  1  0.514310  0.976200  0.255060  1.0  -0.7121
  O  O108  1  0.543580  0.581500  0.246100  1.0  -0.7069
  O  O109  1  0.734240  0.524700  0.171710  1.0  -0.7012
  O  O110  1  0.738230  0.915900  0.190800  1.0  -0.7442
  O  O111  1  0.581460  0.218400  0.887850  1.0  -0.5362
  O  O112  1  0.504080  0.804200  0.869080  1.0  -0.6147
  O  O113  1  0.014310  0.523800  0.755060  1.0  -0.7118
  O  O114  1  0.043580  0.918500  0.746100  1.0  -0.7073
  O  O115  1  0.765760  0.024700  0.328290  1.0  -0.702
  O  O116  1  0.761770  0.415900  0.309200  1.0  -0.7431
  O  O117  1  0.918540  0.718400  0.612150  1.0  -0.5366
  O  O118  1  0.995920  0.304200  0.630920  1.0  -0.6163
  O  O119  1  0.485690  0.023800  0.744940  1.0  -0.7135
  O  O120  1  0.456420  0.418500  0.753900  1.0  -0.7067
