# generated using pymatgen
data_CaH8C14SO6
_symmetry_space_group_name_H-M   'P 1'
_cell_length_a   11.70730000
_cell_length_b   5.56470000
_cell_length_c   22.83000000
_cell_angle_alpha   90.00000000
_cell_angle_beta   100.58600000
_cell_angle_gamma   90.00000000
_symmetry_Int_Tables_number   1
_chemical_formula_structural   CaH8C14SO6
_chemical_formula_sum   'Ca4 H32 C56 S4 O24'
_cell_volume   1462.00620083
_cell_formula_units_Z   4
loop_
 _symmetry_equiv_pos_site_id
 _symmetry_equiv_pos_as_xyz
  1  'x, y, z'
loop_
 _atom_site_type_symbol
 _atom_site_label
 _atom_site_symmetry_multiplicity
 _atom_site_fract_x
 _atom_site_fract_y
 _atom_site_fract_z
 _atom_site_occupancy
 _atom_site_charge
  Ca  Ca1  1  0.637290  0.256660  0.221920  1.0  1.5931
  Ca  Ca2  1  0.862710  0.756660  0.278080  1.0  1.5946
  Ca  Ca3  1  0.362710  0.743340  0.778080  1.0  1.5945
  Ca  Ca4  1  0.137290  0.243340  0.721920  1.0  1.5921
  H  H5  1  0.193200  0.705500  0.119000  1.0  0.1169
  H  H6  1  0.228300  0.628100  0.904700  1.0  0.1215
  H  H7  1  0.042600  0.624800  0.171400  1.0  0.1247
  H  H8  1  0.272200  0.710900  0.007400  1.0  0.1165
  H  H9  1  0.420100  0.050200  0.037400  1.0  0.1188
  H  H10  1  0.185600  0.974500  0.220100  1.0  0.0937
  H  H11  1  0.341100  0.058600  0.171400  1.0  0.126
  H  H12  1  0.372600  0.967100  0.935200  1.0  0.1097
  H  H13  1  0.306800  0.205500  0.381000  1.0  0.1163
  H  H14  1  0.271700  0.128100  0.595300  1.0  0.1218
  H  H15  1  0.457400  0.124800  0.328600  1.0  0.1247
  H  H16  1  0.227800  0.210900  0.492600  1.0  0.1172
  H  H17  1  0.079900  0.550200  0.462600  1.0  0.1188
  H  H18  1  0.314400  0.474500  0.279900  1.0  0.0934
  H  H19  1  0.158900  0.558600  0.328600  1.0  0.1268
  H  H20  1  0.127400  0.467100  0.564800  1.0  0.1101
  H  H21  1  0.806800  0.294500  0.881000  1.0  0.1163
  H  H22  1  0.771700  0.371900  0.095300  1.0  0.1222
  H  H23  1  0.957400  0.375200  0.828600  1.0  0.1251
  H  H24  1  0.727800  0.289100  0.992600  1.0  0.117
  H  H25  1  0.579900  0.949800  0.962600  1.0  0.1192
  H  H26  1  0.814400  0.025500  0.779900  1.0  0.0934
  H  H27  1  0.658900  0.941400  0.828600  1.0  0.1264
  H  H28  1  0.627400  0.032900  0.064800  1.0  0.1103
  H  H29  1  0.693200  0.794500  0.619000  1.0  0.1165
  H  H30  1  0.728300  0.871900  0.404700  1.0  0.1211
  H  H31  1  0.542600  0.875200  0.671400  1.0  0.124
  H  H32  1  0.772200  0.789100  0.507400  1.0  0.1164
  H  H33  1  0.920100  0.449800  0.537400  1.0  0.1185
  H  H34  1  0.685600  0.525500  0.720100  1.0  0.0936
  H  H35  1  0.841100  0.441400  0.671400  1.0  0.126
  H  H36  1  0.872600  0.532900  0.435200  1.0  0.1102
  C  C37  1  0.100830  0.292500  0.201100  1.0  -0.1222
  C  C38  1  0.298680  0.291500  0.910410  1.0  -0.0997
  C  C39  1  0.192340  0.559600  0.140510  1.0  -0.0655
  C  C40  1  0.267600  0.512000  0.931650  1.0  -0.0646
  C  C41  1  0.102620  0.510300  0.171000  1.0  -0.0279
  C  C42  1  0.294240  0.562100  0.992370  1.0  -0.0592
  C  C43  1  0.382100  0.167400  0.010420  1.0  -0.0977
  C  C44  1  0.188570  0.124200  0.200440  1.0  -0.0382
  C  C45  1  0.280460  0.172200  0.171320  1.0  -0.1044
  C  C46  1  0.274200  0.238200  0.844620  1.0  0.74
  C  C47  1  0.353960  0.119100  0.949830  1.0  -0.0596
  C  C48  1  0.006590  0.241000  0.236990  1.0  0.7527
  C  C49  1  0.353530  0.390800  0.030670  1.0  -0.201
  C  C50  1  0.281170  0.391300  0.142030  1.0  -0.2229
  C  C51  1  0.399170  0.792500  0.298900  1.0  -0.1218
  C  C52  1  0.201320  0.791500  0.589590  1.0  -0.1006
  C  C53  1  0.307660  0.059600  0.359490  1.0  -0.0662
  C  C54  1  0.232400  0.012000  0.568350  1.0  -0.0647
  C  C55  1  0.397380  0.010300  0.329000  1.0  -0.0289
  C  C56  1  0.205760  0.062100  0.507630  1.0  -0.0566
  C  C57  1  0.117900  0.667400  0.489580  1.0  -0.0958
  C  C58  1  0.311430  0.624200  0.299560  1.0  -0.0376
  C  C59  1  0.219540  0.672200  0.328680  1.0  -0.1033
  C  C60  1  0.225800  0.738200  0.655380  1.0  0.7394
  C  C61  1  0.146040  0.619100  0.550170  1.0  -0.0573
  C  C62  1  0.493410  0.741000  0.263010  1.0  0.7515
  C  C63  1  0.146470  0.890800  0.469330  1.0  -0.2013
  C  C64  1  0.218830  0.891300  0.357970  1.0  -0.2252
  C  C65  1  0.899170  0.707500  0.798900  1.0  -0.1225
  C  C66  1  0.701320  0.708500  0.089590  1.0  -0.1007
  C  C67  1  0.807660  0.440400  0.859490  1.0  -0.067
  C  C68  1  0.732400  0.488000  0.068350  1.0  -0.0644
  C  C69  1  0.897380  0.489700  0.829000  1.0  -0.0282
  C  C70  1  0.705760  0.437900  0.007630  1.0  -0.0566
  C  C71  1  0.617900  0.832600  0.989580  1.0  -0.0958
  C  C72  1  0.811430  0.875800  0.799560  1.0  -0.0362
  C  C73  1  0.719540  0.827800  0.828680  1.0  -0.1037
  C  C74  1  0.725800  0.761800  0.155380  1.0  0.7393
  C  C75  1  0.646040  0.880900  0.050170  1.0  -0.0573
  C  C76  1  0.993410  0.759000  0.763010  1.0  0.7515
  C  C77  1  0.646470  0.609200  0.969330  1.0  -0.2013
  C  C78  1  0.718830  0.608700  0.857970  1.0  -0.225
  C  C79  1  0.600830  0.207500  0.701100  1.0  -0.1218
  C  C80  1  0.798680  0.208500  0.410410  1.0  -0.0996
  C  C81  1  0.692340  0.940400  0.640510  1.0  -0.0664
  C  C82  1  0.767600  0.988000  0.431650  1.0  -0.0638
  C  C83  1  0.602620  0.989700  0.671000  1.0  -0.0274
  C  C84  1  0.794240  0.937900  0.492370  1.0  -0.0598
  C  C85  1  0.882100  0.332600  0.510420  1.0  -0.0975
  C  C86  1  0.688570  0.375800  0.700440  1.0  -0.037
  C  C87  1  0.780460  0.327800  0.671320  1.0  -0.1051
  C  C88  1  0.774200  0.261800  0.344620  1.0  0.7402
  C  C89  1  0.853960  0.380900  0.449830  1.0  -0.0586
  C  C90  1  0.506590  0.259000  0.736990  1.0  0.7527
  C  C91  1  0.853530  0.109200  0.530670  1.0  -0.2007
  C  C92  1  0.781170  0.108700  0.642030  1.0  -0.2231
  S  S93  1  0.398460  0.464930  0.106740  1.0  1.1565
  S  S94  1  0.101540  0.964930  0.393260  1.0  1.158
  S  S95  1  0.601540  0.535070  0.893260  1.0  1.1577
  S  S96  1  0.898460  0.035070  0.606740  1.0  1.1564
  O  O97  1  0.264260  0.023100  0.827920  1.0  -0.7051
  O  O98  1  0.260530  0.414900  0.809110  1.0  -0.7377
  O  O99  1  0.415390  0.720900  0.110510  1.0  -0.5408
  O  O100  1  0.494800  0.306100  0.129650  1.0  -0.6178
  O  O101  1  0.987110  0.024100  0.246390  1.0  -0.6982
  O  O102  1  0.958040  0.419600  0.255350  1.0  -0.7103
  O  O103  1  0.235740  0.523100  0.672080  1.0  -0.7046
  O  O104  1  0.239470  0.914900  0.690890  1.0  -0.7385
  O  O105  1  0.084610  0.220900  0.389490  1.0  -0.5401
  O  O106  1  0.005200  0.806100  0.370350  1.0  -0.6167
  O  O107  1  0.512890  0.524100  0.253610  1.0  -0.6987
  O  O108  1  0.541960  0.919600  0.244650  1.0  -0.7111
  O  O109  1  0.735740  0.976900  0.172080  1.0  -0.7056
  O  O110  1  0.739470  0.585100  0.190890  1.0  -0.7378
  O  O111  1  0.584610  0.279100  0.889490  1.0  -0.5412
  O  O112  1  0.505200  0.693900  0.870350  1.0  -0.6161
  O  O113  1  0.012890  0.975900  0.753610  1.0  -0.6968
  O  O114  1  0.041960  0.580400  0.744650  1.0  -0.7107
  O  O115  1  0.764260  0.476900  0.327920  1.0  -0.7059
  O  O116  1  0.760530  0.085100  0.309110  1.0  -0.7385
  O  O117  1  0.915390  0.779100  0.610510  1.0  -0.5417
  O  O118  1  0.994800  0.193900  0.629650  1.0  -0.6172
  O  O119  1  0.487110  0.475900  0.746390  1.0  -0.701
  O  O120  1  0.458040  0.080400  0.755350  1.0  -0.7094
