# generated using pymatgen
data_CaH8C14SO6
_symmetry_space_group_name_H-M   'P 1'
_cell_length_a   11.87670000
_cell_length_b   5.57690000
_cell_length_c   22.48600000
_cell_angle_alpha   90.00000000
_cell_angle_beta   99.89300000
_cell_angle_gamma   90.00000000
_symmetry_Int_Tables_number   1
_chemical_formula_structural   CaH8C14SO6
_chemical_formula_sum   'Ca4 H32 C56 S4 O24'
_cell_volume   1467.21763266
_cell_formula_units_Z   4
loop_
 _symmetry_equiv_pos_site_id
 _symmetry_equiv_pos_as_xyz
  1  'x, y, z'
loop_
 _atom_site_type_symbol
 _atom_site_label
 _atom_site_symmetry_multiplicity
 _atom_site_fract_x
 _atom_site_fract_y
 _atom_site_fract_z
 _atom_site_occupancy
 _atom_site_charge
  Ca  Ca1  1  0.596300  0.744170  0.041610  1.0  1.5906
  Ca  Ca2  1  0.903700  0.244170  0.458390  1.0  1.5901
  Ca  Ca3  1  0.403700  0.255830  0.958390  1.0  1.5903
  Ca  Ca4  1  0.096300  0.755830  0.541610  1.0  1.5904
  H  H5  1  0.159300  0.030200  0.032100  1.0  0.1119
  H  H6  1  0.980900  0.948400  0.058600  1.0  0.1223
  H  H7  1  0.092800  0.283000  0.113700  1.0  0.1177
  H  H8  1  0.270600  0.366300  0.086400  1.0  0.1253
  H  H9  1  0.819400  0.940400  0.165200  1.0  0.1269
  H  H10  1  0.827800  0.024400  0.268500  1.0  0.1039
  H  H11  1  0.965700  0.370100  0.312500  1.0  0.1257
  H  H12  1  0.962900  0.287400  0.209900  1.0  0.1224
  H  H13  1  0.340700  0.530200  0.467900  1.0  0.112
  H  H14  1  0.519100  0.448400  0.441400  1.0  0.1225
  H  H15  1  0.407200  0.783000  0.386300  1.0  0.117
  H  H16  1  0.229400  0.866300  0.413600  1.0  0.124
  H  H17  1  0.680600  0.440400  0.334800  1.0  0.127
  H  H18  1  0.672200  0.524400  0.231500  1.0  0.1037
  H  H19  1  0.534300  0.870100  0.187500  1.0  0.1244
  H  H20  1  0.537100  0.787400  0.290100  1.0  0.1219
  H  H21  1  0.840700  0.969800  0.967900  1.0  0.112
  H  H22  1  0.019100  0.051600  0.941400  1.0  0.1223
  H  H23  1  0.907200  0.717000  0.886300  1.0  0.1173
  H  H24  1  0.729400  0.633700  0.913600  1.0  0.1242
  H  H25  1  0.180600  0.059600  0.834800  1.0  0.1276
  H  H26  1  0.172200  0.975600  0.731500  1.0  0.1036
  H  H27  1  0.034300  0.629900  0.687500  1.0  0.1246
  H  H28  1  0.037100  0.712600  0.790100  1.0  0.1221
  H  H29  1  0.659300  0.469800  0.532100  1.0  0.1116
  H  H30  1  0.480900  0.551600  0.558600  1.0  0.1223
  H  H31  1  0.592800  0.217000  0.613700  1.0  0.1176
  H  H32  1  0.770600  0.133700  0.586400  1.0  0.1247
  H  H33  1  0.319400  0.559600  0.665200  1.0  0.1269
  H  H34  1  0.327800  0.475600  0.768500  1.0  0.1041
  H  H35  1  0.465700  0.129900  0.812500  1.0  0.1249
  H  H36  1  0.462900  0.212600  0.709900  1.0  0.122
  C  C37  1  0.342360  0.757700  0.035490  1.0  0.7231
  C  C38  1  0.230400  0.704800  0.055280  1.0  -0.1078
  C  C39  1  0.145070  0.877500  0.047950  1.0  -0.0931
  C  C40  1  0.039230  0.829900  0.063530  1.0  -0.1029
  C  C41  1  0.020660  0.605600  0.086470  1.0  -0.1913
  C  C42  1  0.106230  0.433200  0.096290  1.0  -0.0457
  C  C43  1  0.211500  0.483200  0.080290  1.0  -0.0285
  C  C44  1  0.889680  0.605800  0.179100  1.0  -0.203
  C  C45  1  0.849300  0.826000  0.195110  1.0  -0.1001
  C  C46  1  0.853950  0.874200  0.256320  1.0  -0.0542
  C  C47  1  0.896450  0.705000  0.299800  1.0  -0.1262
  C  C48  1  0.894530  0.756400  0.365810  1.0  0.7581
  C  C49  1  0.936690  0.485500  0.282670  1.0  -0.0554
  C  C50  1  0.934380  0.435500  0.221950  1.0  -0.0987
  C  C51  1  0.157640  0.257700  0.464510  1.0  0.7244
  C  C52  1  0.269600  0.204800  0.444720  1.0  -0.1089
  C  C53  1  0.354930  0.377500  0.452050  1.0  -0.0936
  C  C54  1  0.460770  0.329900  0.436470  1.0  -0.1039
  C  C55  1  0.479340  0.105600  0.413530  1.0  -0.1917
  C  C56  1  0.393770  0.933200  0.403710  1.0  -0.0466
  C  C57  1  0.288500  0.983200  0.419710  1.0  -0.0283
  C  C58  1  0.610320  0.105800  0.320900  1.0  -0.2033
  C  C59  1  0.650700  0.326000  0.304890  1.0  -0.1016
  C  C60  1  0.646050  0.374200  0.243680  1.0  -0.0552
  C  C61  1  0.603550  0.205000  0.200200  1.0  -0.1256
  C  C62  1  0.605470  0.256400  0.134190  1.0  0.7613
  C  C63  1  0.563310  0.985500  0.217330  1.0  -0.0549
  C  C64  1  0.565620  0.935500  0.278050  1.0  -0.0976
  C  C65  1  0.657640  0.242300  0.964510  1.0  0.7245
  C  C66  1  0.769600  0.295200  0.944720  1.0  -0.1088
  C  C67  1  0.854930  0.122500  0.952050  1.0  -0.0944
  C  C68  1  0.960770  0.170100  0.936470  1.0  -0.1033
  C  C69  1  0.979340  0.394400  0.913530  1.0  -0.1914
  C  C70  1  0.893770  0.566800  0.903710  1.0  -0.0457
  C  C71  1  0.788500  0.516800  0.919710  1.0  -0.0291
  C  C72  1  0.110320  0.394200  0.820900  1.0  -0.2034
  C  C73  1  0.150700  0.174000  0.804890  1.0  -0.102
  C  C74  1  0.146050  0.125800  0.743680  1.0  -0.0565
  C  C75  1  0.103550  0.295000  0.700200  1.0  -0.1262
  C  C76  1  0.105470  0.243600  0.634190  1.0  0.7612
  C  C77  1  0.063310  0.514500  0.717330  1.0  -0.0549
  C  C78  1  0.065620  0.564500  0.778050  1.0  -0.0974
  C  C79  1  0.842360  0.742300  0.535490  1.0  0.7231
  C  C80  1  0.730400  0.795200  0.555280  1.0  -0.1077
  C  C81  1  0.645070  0.622500  0.547950  1.0  -0.0928
  C  C82  1  0.539230  0.670100  0.563530  1.0  -0.1027
  C  C83  1  0.520660  0.894400  0.586470  1.0  -0.1916
  C  C84  1  0.606230  0.066800  0.596290  1.0  -0.0461
  C  C85  1  0.711500  0.016800  0.580290  1.0  -0.0292
  C  C86  1  0.389680  0.894200  0.679100  1.0  -0.2029
  C  C87  1  0.349300  0.674000  0.695110  1.0  -0.1003
  C  C88  1  0.353950  0.625800  0.756320  1.0  -0.0552
  C  C89  1  0.396450  0.795000  0.799800  1.0  -0.1257
  C  C90  1  0.394530  0.743600  0.865810  1.0  0.7582
  C  C91  1  0.436690  0.014500  0.782670  1.0  -0.0555
  C  C92  1  0.434380  0.064500  0.721950  1.0  -0.0981
  S  S93  1  0.883970  0.533880  0.102420  1.0  1.1623
  S  S94  1  0.616030  0.033880  0.397580  1.0  1.162
  S  S95  1  0.116030  0.466120  0.897580  1.0  1.162
  S  S96  1  0.383970  0.966120  0.602420  1.0  1.1625
  O  O97  1  0.404650  0.581400  0.026710  1.0  -0.7393
  O  O98  1  0.370650  0.971800  0.030240  1.0  -0.6846
  O  O99  1  0.803860  0.695400  0.066510  1.0  -0.6205
  O  O100  1  0.868860  0.279300  0.095380  1.0  -0.5359
  O  O101  1  0.887130  0.972300  0.380110  1.0  -0.6944
  O  O102  1  0.898720  0.579400  0.400220  1.0  -0.7026
  O  O103  1  0.095350  0.081400  0.473290  1.0  -0.7395
  O  O104  1  0.129350  0.471800  0.469760  1.0  -0.686
  O  O105  1  0.696140  0.195400  0.433490  1.0  -0.6223
  O  O106  1  0.631140  0.779300  0.404620  1.0  -0.5363
  O  O107  1  0.612870  0.472300  0.119890  1.0  -0.6958
  O  O108  1  0.601280  0.079400  0.099780  1.0  -0.7051
  O  O109  1  0.595350  0.418600  0.973290  1.0  -0.7394
  O  O110  1  0.629350  0.028200  0.969760  1.0  -0.6838
  O  O111  1  0.196140  0.304600  0.933490  1.0  -0.6226
  O  O112  1  0.131140  0.720700  0.904620  1.0  -0.5357
  O  O113  1  0.112870  0.027700  0.619890  1.0  -0.6953
  O  O114  1  0.101280  0.420600  0.599780  1.0  -0.7051
  O  O115  1  0.904650  0.918600  0.526710  1.0  -0.7391
  O  O116  1  0.870650  0.528200  0.530240  1.0  -0.6829
  O  O117  1  0.303860  0.804600  0.566510  1.0  -0.6212
  O  O118  1  0.368860  0.220700  0.595380  1.0  -0.5354
  O  O119  1  0.387130  0.527700  0.880110  1.0  -0.6951
  O  O120  1  0.398720  0.920600  0.900220  1.0  -0.703
