# generated using pymatgen
data_CaH8C14SO6
_symmetry_space_group_name_H-M   'P 1'
_cell_length_a   11.64260000
_cell_length_b   5.55740000
_cell_length_c   22.84460000
_cell_angle_alpha   90.00000000
_cell_angle_beta   100.68100000
_cell_angle_gamma   90.00000000
_symmetry_Int_Tables_number   1
_chemical_formula_structural   CaH8C14SO6
_chemical_formula_sum   'Ca4 H32 C56 S4 O24'
_cell_volume   1452.49549812
_cell_formula_units_Z   4
loop_
 _symmetry_equiv_pos_site_id
 _symmetry_equiv_pos_as_xyz
  1  'x, y, z'
loop_
 _atom_site_type_symbol
 _atom_site_label
 _atom_site_symmetry_multiplicity
 _atom_site_fract_x
 _atom_site_fract_y
 _atom_site_fract_z
 _atom_site_occupancy
 _atom_site_charge
  Ca  Ca1  1  0.637250  0.741450  0.221250  1.0  1.5883
  Ca  Ca2  1  0.862750  0.241450  0.278740  1.0  1.5907
  Ca  Ca3  1  0.362750  0.258550  0.778740  1.0  1.5909
  Ca  Ca4  1  0.137250  0.758550  0.721250  1.0  1.5893
  H  H5  1  0.225300  0.373700  0.904100  1.0  0.1194
  H  H6  1  0.269000  0.289000  0.006500  1.0  0.119
  H  H7  1  0.419600  0.948800  0.037400  1.0  0.1179
  H  H8  1  0.371700  0.034200  0.935300  1.0  0.1111
  H  H9  1  0.191200  0.292700  0.118500  1.0  0.1192
  H  H10  1  0.041000  0.373300  0.171500  1.0  0.1227
  H  H11  1  0.185700  0.024300  0.220000  1.0  0.0947
  H  H12  1  0.341100  0.938800  0.170900  1.0  0.1238
  H  H13  1  0.274700  0.873700  0.595900  1.0  0.1204
  H  H14  1  0.231000  0.789000  0.493500  1.0  0.1198
  H  H15  1  0.080400  0.448800  0.462600  1.0  0.1187
  H  H16  1  0.128300  0.534200  0.564700  1.0  0.1113
  H  H17  1  0.308800  0.792700  0.381500  1.0  0.1185
  H  H18  1  0.459000  0.873300  0.328500  1.0  0.1237
  H  H19  1  0.314300  0.524300  0.280000  1.0  0.0942
  H  H20  1  0.158900  0.438800  0.329100  1.0  0.1241
  H  H21  1  0.774700  0.626300  0.095900  1.0  0.1199
  H  H22  1  0.731000  0.711000  0.993500  1.0  0.1203
  H  H23  1  0.580400  0.051200  0.962600  1.0  0.1183
  H  H24  1  0.628300  0.965800  0.064700  1.0  0.111
  H  H25  1  0.808800  0.707300  0.881500  1.0  0.1183
  H  H26  1  0.959000  0.626700  0.828500  1.0  0.1233
  H  H27  1  0.814300  0.975700  0.780000  1.0  0.0942
  H  H28  1  0.658900  0.061200  0.829100  1.0  0.1245
  H  H29  1  0.725300  0.126300  0.404100  1.0  0.1197
  H  H30  1  0.769000  0.211000  0.506500  1.0  0.1193
  H  H31  1  0.919600  0.551200  0.537400  1.0  0.1182
  H  H32  1  0.871700  0.465800  0.435300  1.0  0.1106
  H  H33  1  0.691200  0.207300  0.618500  1.0  0.1194
  H  H34  1  0.541000  0.126700  0.671500  1.0  0.1235
  H  H35  1  0.685700  0.475700  0.720000  1.0  0.0947
  H  H36  1  0.841100  0.561200  0.670900  1.0  0.1239
  C  C37  1  0.273130  0.764300  0.844640  1.0  0.73
  C  C38  1  0.297300  0.709700  0.910110  1.0  -0.1051
  C  C39  1  0.265260  0.489100  0.931150  1.0  -0.0635
  C  C40  1  0.291700  0.438000  0.991680  1.0  -0.0662
  C  C41  1  0.351950  0.608300  0.030310  1.0  -0.2036
  C  C42  1  0.381140  0.832100  0.010290  1.0  -0.0956
  C  C43  1  0.352910  0.881700  0.949730  1.0  -0.1024
  C  C44  1  0.280030  0.606800  0.141470  1.0  -0.2088
  C  C45  1  0.190840  0.438600  0.140170  1.0  -0.0813
  C  C46  1  0.101350  0.487900  0.171070  1.0  0.0016
  C  C47  1  0.100160  0.705200  0.201370  1.0  -0.1255
  C  C48  1  0.006770  0.756700  0.237660  1.0  0.7602
  C  C49  1  0.188320  0.874300  0.200360  1.0  -0.0526
  C  C50  1  0.280060  0.825500  0.170880  1.0  -0.0912
  C  C51  1  0.226870  0.264300  0.655360  1.0  0.7294
  C  C52  1  0.202700  0.209700  0.589890  1.0  -0.1059
  C  C53  1  0.234740  0.989100  0.568850  1.0  -0.0639
  C  C54  1  0.208300  0.938000  0.508320  1.0  -0.0634
  C  C55  1  0.148050  0.108300  0.469690  1.0  -0.2048
  C  C56  1  0.118860  0.332100  0.489710  1.0  -0.0942
  C  C57  1  0.147090  0.381700  0.550270  1.0  -0.1021
  C  C58  1  0.219970  0.106800  0.358530  1.0  -0.2097
  C  C59  1  0.309160  0.938600  0.359830  1.0  -0.0823
  C  C60  1  0.398650  0.987900  0.328930  1.0  0.001
  C  C61  1  0.399840  0.205200  0.298630  1.0  -0.1265
  C  C62  1  0.493230  0.256700  0.262340  1.0  0.7586
  C  C63  1  0.311680  0.374300  0.299640  1.0  -0.052
  C  C64  1  0.219940  0.325500  0.329120  1.0  -0.0906
  C  C65  1  0.726870  0.235700  0.155360  1.0  0.7294
  C  C66  1  0.702700  0.290300  0.089890  1.0  -0.1058
  C  C67  1  0.734740  0.510900  0.068850  1.0  -0.0647
  C  C68  1  0.708300  0.562000  0.008320  1.0  -0.0634
  C  C69  1  0.648050  0.391700  0.969690  1.0  -0.2048
  C  C70  1  0.618860  0.167900  0.989710  1.0  -0.0941
  C  C71  1  0.647090  0.118300  0.050270  1.0  -0.1016
  C  C72  1  0.719970  0.393200  0.858530  1.0  -0.2099
  C  C73  1  0.809160  0.561400  0.859830  1.0  -0.0815
  C  C74  1  0.898650  0.512100  0.828930  1.0  0.0002
  C  C75  1  0.899840  0.294800  0.798630  1.0  -0.1261
  C  C76  1  0.993230  0.243300  0.762340  1.0  0.7588
  C  C77  1  0.811680  0.125700  0.799640  1.0  -0.0529
  C  C78  1  0.719940  0.174500  0.829120  1.0  -0.0906
  C  C79  1  0.773130  0.735700  0.344640  1.0  0.7296
  C  C80  1  0.797300  0.790300  0.410110  1.0  -0.1051
  C  C81  1  0.765260  0.010900  0.431150  1.0  -0.0645
  C  C82  1  0.791700  0.062000  0.491680  1.0  -0.0664
  C  C83  1  0.851950  0.891700  0.530310  1.0  -0.2039
  C  C84  1  0.881140  0.667900  0.510290  1.0  -0.0958
  C  C85  1  0.852910  0.618300  0.449730  1.0  -0.1028
  C  C86  1  0.780030  0.893200  0.641470  1.0  -0.2087
  C  C87  1  0.690840  0.061400  0.640170  1.0  -0.0812
  C  C88  1  0.601350  0.012100  0.671070  1.0  0.0011
  C  C89  1  0.600160  0.794800  0.701370  1.0  -0.1259
  C  C90  1  0.506770  0.743300  0.737660  1.0  0.7603
  C  C91  1  0.688320  0.625700  0.700360  1.0  -0.0538
  C  C92  1  0.780060  0.674500  0.670880  1.0  -0.0908
  S  S93  1  0.397390  0.532990  0.106090  1.0  1.1578
  S  S94  1  0.102610  0.032990  0.393910  1.0  1.1588
  S  S95  1  0.602610  0.467010  0.893910  1.0  1.1591
  S  S96  1  0.897390  0.967010  0.606090  1.0  1.1581
  O  O97  1  0.259560  0.587730  0.808920  1.0  -0.7074
  O  O98  1  0.263330  0.979210  0.828170  1.0  -0.6942
  O  O99  1  0.987260  0.974350  0.246900  1.0  -0.7008
  O  O100  1  0.958390  0.578910  0.256340  1.0  -0.7076
  O  O101  1  0.414230  0.276720  0.109670  1.0  -0.5462
  O  O102  1  0.494530  0.691090  0.129070  1.0  -0.6175
  O  O103  1  0.240440  0.087730  0.691080  1.0  -0.7073
  O  O104  1  0.236670  0.479210  0.671830  1.0  -0.6939
  O  O105  1  0.512740  0.474350  0.253100  1.0  -0.6994
  O  O106  1  0.541610  0.078910  0.243660  1.0  -0.7087
  O  O107  1  0.085770  0.776720  0.390330  1.0  -0.5455
  O  O108  1  0.005470  0.191090  0.370930  1.0  -0.6158
  O  O109  1  0.740440  0.412270  0.191080  1.0  -0.7076
  O  O110  1  0.736670  0.020790  0.171830  1.0  -0.6929
  O  O111  1  0.012740  0.025650  0.753100  1.0  -0.6991
  O  O112  1  0.041610  0.421090  0.743660  1.0  -0.709
  O  O113  1  0.585770  0.723280  0.890330  1.0  -0.5443
  O  O114  1  0.505470  0.308910  0.870930  1.0  -0.6162
  O  O115  1  0.759560  0.912270  0.308920  1.0  -0.7066
  O  O116  1  0.763330  0.520790  0.328170  1.0  -0.694
  O  O117  1  0.487260  0.525650  0.746900  1.0  -0.7007
  O  O118  1  0.458390  0.921090  0.756340  1.0  -0.7081
  O  O119  1  0.914230  0.223280  0.609670  1.0  -0.5452
  O  O120  1  0.994530  0.808910  0.629070  1.0  -0.6178
