# generated using pymatgen
data_CaH8C14SO6
_symmetry_space_group_name_H-M   'P 1'
_cell_length_a   11.72920000
_cell_length_b   5.56850000
_cell_length_c   22.79200000
_cell_angle_alpha   90.00000000
_cell_angle_beta   100.49300000
_cell_angle_gamma   90.00000000
_symmetry_Int_Tables_number   1
_chemical_formula_structural   CaH8C14SO6
_chemical_formula_sum   'Ca4 H32 C56 S4 O24'
_cell_volume   1463.74358657
_cell_formula_units_Z   4
loop_
 _symmetry_equiv_pos_site_id
 _symmetry_equiv_pos_as_xyz
  1  'x, y, z'
loop_
 _atom_site_type_symbol
 _atom_site_label
 _atom_site_symmetry_multiplicity
 _atom_site_fract_x
 _atom_site_fract_y
 _atom_site_fract_z
 _atom_site_occupancy
 _atom_site_charge
  Ca  Ca1  1  0.637490  0.756200  0.222220  1.0  1.5932
  Ca  Ca2  1  0.862510  0.256200  0.277780  1.0  1.5947
  Ca  Ca3  1  0.362510  0.243800  0.777780  1.0  1.5947
  Ca  Ca4  1  0.137490  0.743800  0.722220  1.0  1.5924
  H  H5  1  0.420000  0.549800  0.037600  1.0  0.1181
  H  H6  1  0.372000  0.467600  0.935200  1.0  0.1089
  H  H7  1  0.230100  0.128600  0.905100  1.0  0.1221
  H  H8  1  0.273300  0.210900  0.007600  1.0  0.1198
  H  H9  1  0.194200  0.205800  0.119500  1.0  0.1155
  H  H10  1  0.043000  0.124200  0.171300  1.0  0.1247
  H  H11  1  0.185100  0.474000  0.220100  1.0  0.0934
  H  H12  1  0.341200  0.558200  0.171500  1.0  0.125
  H  H13  1  0.080000  0.049800  0.462400  1.0  0.1182
  H  H14  1  0.128000  0.967600  0.564800  1.0  0.1092
  H  H15  1  0.269900  0.628600  0.594900  1.0  0.122
  H  H16  1  0.226700  0.710900  0.492400  1.0  0.1207
  H  H17  1  0.305800  0.705800  0.380500  1.0  0.115
  H  H18  1  0.457000  0.624200  0.328700  1.0  0.1245
  H  H19  1  0.314900  0.974000  0.279900  1.0  0.0931
  H  H20  1  0.158800  0.058200  0.328500  1.0  0.1259
  H  H21  1  0.580000  0.450200  0.962400  1.0  0.1185
  H  H22  1  0.628000  0.532400  0.064800  1.0  0.1095
  H  H23  1  0.769900  0.871400  0.094900  1.0  0.1225
  H  H24  1  0.726700  0.789100  0.992400  1.0  0.1204
  H  H25  1  0.805800  0.794200  0.880500  1.0  0.115
  H  H26  1  0.957000  0.875800  0.828700  1.0  0.1251
  H  H27  1  0.814900  0.526000  0.779900  1.0  0.0931
  H  H28  1  0.658800  0.441800  0.828500  1.0  0.1255
  H  H29  1  0.920000  0.950200  0.537600  1.0  0.1178
  H  H30  1  0.872000  0.032400  0.435200  1.0  0.1094
  H  H31  1  0.730100  0.371400  0.405100  1.0  0.1216
  H  H32  1  0.773300  0.289100  0.507600  1.0  0.1198
  H  H33  1  0.694200  0.294200  0.619500  1.0  0.1151
  H  H34  1  0.543000  0.375800  0.671300  1.0  0.124
  H  H35  1  0.685100  0.026000  0.720100  1.0  0.0933
  H  H36  1  0.841200  0.941800  0.671500  1.0  0.125
  C  C37  1  0.354550  0.891500  0.031110  1.0  -0.208
  C  C38  1  0.382410  0.667400  0.010670  1.0  -0.1092
  C  C39  1  0.353880  0.619800  0.949930  1.0  -0.0565
  C  C40  1  0.299380  0.791800  0.910590  1.0  -0.1038
  C  C41  1  0.268980  0.012200  0.932020  1.0  -0.0632
  C  C42  1  0.295390  0.062100  0.992580  1.0  -0.0353
  C  C43  1  0.274570  0.738600  0.844700  1.0  0.742
  C  C44  1  0.281740  0.891200  0.142230  1.0  -0.2248
  C  C45  1  0.193040  0.059500  0.140800  1.0  -0.0663
  C  C46  1  0.102970  0.009800  0.171020  1.0  -0.0272
  C  C47  1  0.100790  0.792000  0.200920  1.0  -0.125
  C  C48  1  0.188330  0.623600  0.200400  1.0  -0.0381
  C  C49  1  0.280730  0.671800  0.171390  1.0  -0.0665
  C  C50  1  0.006060  0.740600  0.236710  1.0  0.7539
  C  C51  1  0.145450  0.391500  0.468890  1.0  -0.2091
  C  C52  1  0.117590  0.167400  0.489330  1.0  -0.1076
  C  C53  1  0.146120  0.119800  0.550070  1.0  -0.0541
  C  C54  1  0.200620  0.291800  0.589410  1.0  -0.1054
  C  C55  1  0.231020  0.512200  0.567980  1.0  -0.0626
  C  C56  1  0.204610  0.562100  0.507420  1.0  -0.0342
  C  C57  1  0.225430  0.238600  0.655300  1.0  0.7423
  C  C58  1  0.218260  0.391200  0.357770  1.0  -0.2267
  C  C59  1  0.306960  0.559500  0.359200  1.0  -0.0671
  C  C60  1  0.397030  0.509800  0.328980  1.0  -0.028
  C  C61  1  0.399210  0.292000  0.299080  1.0  -0.1256
  C  C62  1  0.311670  0.123600  0.299600  1.0  -0.038
  C  C63  1  0.219270  0.171800  0.328610  1.0  -0.0665
  C  C64  1  0.493940  0.240600  0.263290  1.0  0.7526
  C  C65  1  0.645450  0.108500  0.968890  1.0  -0.2093
  C  C66  1  0.617590  0.332600  0.989330  1.0  -0.1077
  C  C67  1  0.646120  0.380200  0.050070  1.0  -0.0538
  C  C68  1  0.700620  0.208200  0.089410  1.0  -0.1055
  C  C69  1  0.731020  0.987800  0.067980  1.0  -0.0623
  C  C70  1  0.704610  0.937900  0.007420  1.0  -0.0342
  C  C71  1  0.725430  0.261400  0.155300  1.0  0.7423
  C  C72  1  0.718260  0.108800  0.857770  1.0  -0.2265
  C  C73  1  0.806960  0.940500  0.859200  1.0  -0.0676
  C  C74  1  0.897030  0.990200  0.828980  1.0  -0.0271
  C  C75  1  0.899210  0.208000  0.799080  1.0  -0.1259
  C  C76  1  0.811670  0.376400  0.799600  1.0  -0.0364
  C  C77  1  0.719270  0.328200  0.828610  1.0  -0.0665
  C  C78  1  0.993940  0.259400  0.763290  1.0  0.7524
  C  C79  1  0.854550  0.608500  0.531110  1.0  -0.2077
  C  C80  1  0.882410  0.832600  0.510670  1.0  -0.109
  C  C81  1  0.853880  0.880200  0.449930  1.0  -0.0554
  C  C82  1  0.799380  0.708200  0.410590  1.0  -0.1037
  C  C83  1  0.768980  0.487800  0.432020  1.0  -0.0625
  C  C84  1  0.795390  0.437900  0.492580  1.0  -0.0359
  C  C85  1  0.774570  0.761400  0.344700  1.0  0.7424
  C  C86  1  0.781740  0.608800  0.642230  1.0  -0.225
  C  C87  1  0.693040  0.440500  0.640800  1.0  -0.0668
  C  C88  1  0.602970  0.490200  0.671020  1.0  -0.0267
  C  C89  1  0.600790  0.708000  0.700920  1.0  -0.1245
  C  C90  1  0.688330  0.876400  0.700400  1.0  -0.0365
  C  C91  1  0.780730  0.828200  0.671390  1.0  -0.067
  C  C92  1  0.506060  0.759400  0.736710  1.0  0.7539
  S  S93  1  0.399170  0.964510  0.107140  1.0  1.1547
  S  S94  1  0.100830  0.464510  0.392860  1.0  1.1562
  S  S95  1  0.600830  0.035490  0.892860  1.0  1.156
  S  S96  1  0.899170  0.535490  0.607140  1.0  1.1546
  O  O97  1  0.260840  0.915570  0.809240  1.0  -0.7615
  O  O98  1  0.264610  0.524200  0.827970  1.0  -0.6946
  O  O99  1  0.957670  0.919150  0.254820  1.0  -0.7096
  O  O100  1  0.986430  0.523630  0.245850  1.0  -0.7157
  O  O101  1  0.416210  0.220420  0.111080  1.0  -0.5515
  O  O102  1  0.495140  0.805480  0.130200  1.0  -0.6168
  O  O103  1  0.239160  0.415570  0.690760  1.0  -0.7623
  O  O104  1  0.235390  0.024200  0.672030  1.0  -0.6955
  O  O105  1  0.542330  0.419150  0.245180  1.0  -0.7104
  O  O106  1  0.513570  0.023630  0.254150  1.0  -0.7139
  O  O107  1  0.083790  0.720420  0.388920  1.0  -0.551
  O  O108  1  0.004860  0.305480  0.369800  1.0  -0.6159
  O  O109  1  0.739160  0.084430  0.190760  1.0  -0.7615
  O  O110  1  0.735390  0.475800  0.172030  1.0  -0.6954
  O  O111  1  0.042330  0.080850  0.745180  1.0  -0.71
  O  O112  1  0.013570  0.476370  0.754150  1.0  -0.7137
  O  O113  1  0.583790  0.779580  0.888920  1.0  -0.5518
  O  O114  1  0.504860  0.194520  0.869800  1.0  -0.6151
  O  O115  1  0.760840  0.584430  0.309240  1.0  -0.762
  O  O116  1  0.764610  0.975800  0.327970  1.0  -0.6967
  O  O117  1  0.457670  0.580850  0.754820  1.0  -0.7088
  O  O118  1  0.486430  0.976370  0.745850  1.0  -0.7157
  O  O119  1  0.916210  0.279580  0.611080  1.0  -0.5522
  O  O120  1  0.995140  0.694520  0.630200  1.0  -0.616
