# generated using pymatgen
data_CaH8C14SO6
_symmetry_space_group_name_H-M   'P 1'
_cell_length_a   11.71500000
_cell_length_b   5.56790000
_cell_length_c   22.82080000
_cell_angle_alpha   90.00000000
_cell_angle_beta   100.53200000
_cell_angle_gamma   90.00000000
_symmetry_Int_Tables_number   1
_chemical_formula_structural   CaH8C14SO6
_chemical_formula_sum   'Ca4 H32 C56 S4 O24'
_cell_volume   1463.47626078
_cell_formula_units_Z   4
loop_
 _symmetry_equiv_pos_site_id
 _symmetry_equiv_pos_as_xyz
  1  'x, y, z'
loop_
 _atom_site_type_symbol
 _atom_site_label
 _atom_site_symmetry_multiplicity
 _atom_site_fract_x
 _atom_site_fract_y
 _atom_site_fract_z
 _atom_site_occupancy
 _atom_site_charge
  Ca  Ca1  1  0.862550  0.243580  0.277930  1.0  1.5953
  Ca  Ca2  1  0.637450  0.743580  0.222070  1.0  1.5944
  Ca  Ca3  1  0.137450  0.756420  0.722070  1.0  1.5947
  Ca  Ca4  1  0.362550  0.256420  0.777930  1.0  1.5961
  H  H5  1  0.128600  0.533100  0.564800  1.0  0.1108
  H  H6  1  0.080100  0.450000  0.462400  1.0  0.1212
  H  H7  1  0.227400  0.789100  0.492500  1.0  0.1228
  H  H8  1  0.271600  0.872400  0.595000  1.0  0.1256
  H  H9  1  0.314600  0.526600  0.280200  1.0  0.0958
  H  H10  1  0.159000  0.441200  0.328800  1.0  0.1269
  H  H11  1  0.305700  0.793500  0.380500  1.0  0.118
  H  H12  1  0.457600  0.875500  0.328900  1.0  0.1276
  H  H13  1  0.371400  0.033100  0.935200  1.0  0.1108
  H  H14  1  0.419900  0.950000  0.037600  1.0  0.1205
  H  H15  1  0.272600  0.289100  0.007500  1.0  0.1221
  H  H16  1  0.228400  0.372400  0.905000  1.0  0.1244
  H  H17  1  0.185400  0.026600  0.219800  1.0  0.0963
  H  H18  1  0.341000  0.941200  0.171200  1.0  0.1266
  H  H19  1  0.194300  0.293500  0.119500  1.0  0.1183
  H  H20  1  0.042400  0.375500  0.171100  1.0  0.1264
  H  H21  1  0.871400  0.466900  0.435200  1.0  0.1102
  H  H22  1  0.919900  0.550000  0.537600  1.0  0.1208
  H  H23  1  0.772600  0.210900  0.507500  1.0  0.1222
  H  H24  1  0.728400  0.127600  0.405000  1.0  0.1248
  H  H25  1  0.685400  0.473400  0.719800  1.0  0.0964
  H  H26  1  0.841000  0.558800  0.671200  1.0  0.1267
  H  H27  1  0.694300  0.206500  0.619500  1.0  0.1188
  H  H28  1  0.542400  0.124500  0.671100  1.0  0.1269
  H  H29  1  0.628600  0.966900  0.064800  1.0  0.1105
  H  H30  1  0.580100  0.050000  0.962400  1.0  0.1208
  H  H31  1  0.727400  0.710900  0.992500  1.0  0.1231
  H  H32  1  0.771600  0.627600  0.095000  1.0  0.1251
  H  H33  1  0.814600  0.973400  0.780200  1.0  0.0959
  H  H34  1  0.659000  0.058800  0.828800  1.0  0.1274
  H  H35  1  0.805700  0.706500  0.880500  1.0  0.1181
  H  H36  1  0.957600  0.624500  0.828900  1.0  0.1271
  C  C37  1  0.201100  0.208500  0.589470  1.0  -0.1025
  C  C38  1  0.146500  0.380700  0.550110  1.0  -0.0805
  C  C39  1  0.117900  0.332500  0.489360  1.0  -0.1032
  C  C40  1  0.145790  0.108700  0.469050  1.0  -0.2044
  C  C41  1  0.205300  0.937900  0.507460  1.0  -0.0558
  C  C42  1  0.232100  0.988300  0.568160  1.0  -0.0636
  C  C43  1  0.225600  0.261900  0.655200  1.0  0.7404
  C  C44  1  0.399360  0.208000  0.298980  1.0  -0.1226
  C  C45  1  0.311600  0.376700  0.299730  1.0  -0.0491
  C  C46  1  0.219600  0.327800  0.328840  1.0  -0.0905
  C  C47  1  0.218750  0.108700  0.357910  1.0  -0.2157
  C  C48  1  0.307100  0.940000  0.359280  1.0  -0.0675
  C  C49  1  0.397380  0.989700  0.329080  1.0  -0.0278
  C  C50  1  0.493740  0.258700  0.263260  1.0  0.7491
  C  C51  1  0.298900  0.708500  0.910530  1.0  -0.1009
  C  C52  1  0.353500  0.880700  0.949890  1.0  -0.0806
  C  C53  1  0.382100  0.832500  0.010640  1.0  -0.1047
  C  C54  1  0.354210  0.608700  0.030950  1.0  -0.2032
  C  C55  1  0.294700  0.437900  0.992540  1.0  -0.0591
  C  C56  1  0.267900  0.488300  0.931840  1.0  -0.063
  C  C57  1  0.274400  0.761900  0.844800  1.0  0.741
  C  C58  1  0.100640  0.708000  0.201020  1.0  -0.1224
  C  C59  1  0.188400  0.876700  0.200270  1.0  -0.0499
  C  C60  1  0.280400  0.827800  0.171160  1.0  -0.091
  C  C61  1  0.281250  0.608700  0.142090  1.0  -0.2142
  C  C62  1  0.192900  0.440000  0.140720  1.0  -0.0674
  C  C63  1  0.102620  0.489700  0.170920  1.0  -0.0285
  C  C64  1  0.006260  0.758700  0.236740  1.0  0.7512
  C  C65  1  0.798900  0.791500  0.410530  1.0  -0.101
  C  C66  1  0.853500  0.619300  0.449890  1.0  -0.0806
  C  C67  1  0.882100  0.667500  0.510640  1.0  -0.1053
  C  C68  1  0.854210  0.891300  0.530950  1.0  -0.2034
  C  C69  1  0.794700  0.062100  0.492540  1.0  -0.0593
  C  C70  1  0.767900  0.011700  0.431840  1.0  -0.0638
  C  C71  1  0.774400  0.738100  0.344800  1.0  0.7408
  C  C72  1  0.600640  0.792000  0.701020  1.0  -0.1229
  C  C73  1  0.688400  0.623300  0.700270  1.0  -0.0513
  C  C74  1  0.780400  0.672200  0.671160  1.0  -0.0906
  C  C75  1  0.781250  0.891300  0.642090  1.0  -0.214
  C  C76  1  0.692900  0.060000  0.640720  1.0  -0.0674
  C  C77  1  0.602620  0.010300  0.670920  1.0  -0.0285
  C  C78  1  0.506260  0.741300  0.736740  1.0  0.7512
  C  C79  1  0.701100  0.291500  0.089470  1.0  -0.1025
  C  C80  1  0.646500  0.119300  0.050110  1.0  -0.0794
  C  C81  1  0.617900  0.167500  0.989360  1.0  -0.1033
  C  C82  1  0.645790  0.391300  0.969050  1.0  -0.2045
  C  C83  1  0.705300  0.562100  0.007460  1.0  -0.0567
  C  C84  1  0.732100  0.511700  0.068160  1.0  -0.064
  C  C85  1  0.725600  0.238100  0.155200  1.0  0.7404
  C  C86  1  0.899360  0.292000  0.798980  1.0  -0.1224
  C  C87  1  0.811600  0.123300  0.799730  1.0  -0.0503
  C  C88  1  0.719600  0.172200  0.828840  1.0  -0.0903
  C  C89  1  0.718750  0.391300  0.857910  1.0  -0.2158
  C  C90  1  0.807100  0.560000  0.859280  1.0  -0.067
  C  C91  1  0.897380  0.510300  0.829080  1.0  -0.0281
  C  C92  1  0.993740  0.241300  0.763260  1.0  0.7493
  S  S93  1  0.100950  0.035360  0.393030  1.0  1.1588
  S  S94  1  0.399050  0.535360  0.106970  1.0  1.1577
  S  S95  1  0.899050  0.964640  0.606970  1.0  1.158
  S  S96  1  0.600950  0.464640  0.893030  1.0  1.1592
  O  O97  1  0.083550  0.779500  0.389070  1.0  -0.5482
  O  O98  1  0.004900  0.194500  0.370090  1.0  -0.6107
  O  O99  1  0.235710  0.476700  0.672000  1.0  -0.7001
  O  O100  1  0.239270  0.085100  0.690860  1.0  -0.7231
  O  O101  1  0.513270  0.476600  0.253910  1.0  -0.7144
  O  O102  1  0.542380  0.080800  0.244820  1.0  -0.7072
  O  O103  1  0.416450  0.279500  0.110930  1.0  -0.5485
  O  O104  1  0.495100  0.694500  0.129910  1.0  -0.6119
  O  O105  1  0.264290  0.976700  0.828000  1.0  -0.7016
  O  O106  1  0.260730  0.585100  0.809140  1.0  -0.7235
  O  O107  1  0.986730  0.976600  0.246090  1.0  -0.7185
  O  O108  1  0.957620  0.580800  0.255180  1.0  -0.7056
  O  O109  1  0.916450  0.220500  0.610930  1.0  -0.5478
  O  O110  1  0.995100  0.805500  0.629910  1.0  -0.6127
  O  O111  1  0.764290  0.523300  0.328000  1.0  -0.6995
  O  O112  1  0.760730  0.914900  0.309140  1.0  -0.7228
  O  O113  1  0.486730  0.523400  0.746090  1.0  -0.7164
  O  O114  1  0.457620  0.919200  0.755180  1.0  -0.7063
  O  O115  1  0.583550  0.720500  0.889070  1.0  -0.5473
  O  O116  1  0.504900  0.305500  0.870090  1.0  -0.6114
  O  O117  1  0.735710  0.023300  0.172000  1.0  -0.7003
  O  O118  1  0.739270  0.414900  0.190860  1.0  -0.7236
  O  O119  1  0.013270  0.023400  0.753910  1.0  -0.7172
  O  O120  1  0.042380  0.419200  0.744820  1.0  -0.7075
