# generated using pymatgen
data_Dy2H6(C6O5)3
_symmetry_space_group_name_H-M   'P 1'
_cell_length_a   8.63260000
_cell_length_b   28.12060000
_cell_length_c   15.34620000
_cell_angle_alpha   90.00000000
_cell_angle_beta   90.00000000
_cell_angle_gamma   90.00000000
_symmetry_Int_Tables_number   1
_chemical_formula_structural   Dy2H6(C6O5)3
_chemical_formula_sum   'Dy8 H24 C72 O60'
_cell_volume   3725.34977066
_cell_formula_units_Z   4
loop_
 _symmetry_equiv_pos_site_id
 _symmetry_equiv_pos_as_xyz
  1  'x, y, z'
loop_
 _atom_site_type_symbol
 _atom_site_label
 _atom_site_symmetry_multiplicity
 _atom_site_fract_x
 _atom_site_fract_y
 _atom_site_fract_z
 _atom_site_occupancy
 _atom_site_charge
  Dy  Dy1  1  0.947610  0.586720  0.202050  1.0  2.3031
  Dy  Dy2  1  0.552390  0.413280  0.702050  1.0  2.3036
  Dy  Dy3  1  0.052390  0.086720  0.797950  1.0  2.304
  Dy  Dy4  1  0.447610  0.913280  0.297950  1.0  2.3036
  Dy  Dy5  1  0.052390  0.413280  0.797950  1.0  2.3035
  Dy  Dy6  1  0.447610  0.586720  0.297950  1.0  2.303
  Dy  Dy7  1  0.947610  0.913280  0.202050  1.0  2.3021
  Dy  Dy8  1  0.552390  0.086720  0.702050  1.0  2.3028
  H  H9  1  0.886100  0.450100  0.375800  1.0  0.1101
  H  H10  1  0.344200  0.704800  0.406000  1.0  0.1069
  H  H11  1  0.914800  0.404200  0.513400  1.0  0.1066
  H  H12  1  0.613900  0.549900  0.875800  1.0  0.1094
  H  H13  1  0.155800  0.295200  0.906000  1.0  0.1084
  H  H14  1  0.585200  0.595800  0.013400  1.0  0.1079
  H  H15  1  0.113900  0.950100  0.624200  1.0  0.1098
  H  H16  1  0.655800  0.204800  0.594000  1.0  0.1063
  H  H17  1  0.085200  0.904200  0.486600  1.0  0.106
  H  H18  1  0.386100  0.049900  0.124200  1.0  0.1099
  H  H19  1  0.844200  0.795200  0.094000  1.0  0.1079
  H  H20  1  0.414800  0.095800  0.986600  1.0  0.1076
  H  H21  1  0.113900  0.549900  0.624200  1.0  0.1092
  H  H22  1  0.655800  0.295200  0.594000  1.0  0.1071
  H  H23  1  0.085200  0.595800  0.486600  1.0  0.1062
  H  H24  1  0.386100  0.450100  0.124200  1.0  0.1103
  H  H25  1  0.844200  0.704800  0.094000  1.0  0.1071
  H  H26  1  0.414800  0.404200  0.986600  1.0  0.1072
  H  H27  1  0.886100  0.049900  0.375800  1.0  0.1099
  H  H28  1  0.344200  0.795200  0.406000  1.0  0.1069
  H  H29  1  0.914800  0.095800  0.513400  1.0  0.1068
  H  H30  1  0.613900  0.950100  0.875800  1.0  0.1099
  H  H31  1  0.155800  0.204800  0.906000  1.0  0.108
  H  H32  1  0.585200  0.904200  0.013400  1.0  0.1083
  C  C33  1  0.147200  0.510500  0.335300  1.0  0.6906
  C  C34  1  0.194600  0.711200  0.303800  1.0  0.0431
  C  C35  1  0.148800  0.664600  0.270100  1.0  0.7183
  C  C36  1  0.130800  0.433800  0.522200  1.0  0.0294
  C  C37  1  0.971900  0.450100  0.412400  1.0  -0.1506
  C  C38  1  0.101300  0.474500  0.401100  1.0  0.0624
  C  C39  1  0.289400  0.724600  0.368500  1.0  -0.1651
  C  C40  1  0.203600  0.421800  0.605300  1.0  0.7348
  C  C41  1  0.988400  0.424300  0.489100  1.0  -0.1534
  C  C42  1  0.352800  0.489500  0.835300  1.0  0.6921
  C  C43  1  0.305400  0.288800  0.803800  1.0  0.0429
  C  C44  1  0.351200  0.335400  0.770100  1.0  0.717
  C  C45  1  0.369200  0.566200  0.022200  1.0  0.0301
  C  C46  1  0.528100  0.549900  0.912400  1.0  -0.153
  C  C47  1  0.398700  0.525500  0.901100  1.0  0.0643
  C  C48  1  0.210600  0.275400  0.868500  1.0  -0.1673
  C  C49  1  0.296400  0.578200  0.105300  1.0  0.7348
  C  C50  1  0.511600  0.575700  0.989100  1.0  -0.1541
  C  C51  1  0.852800  0.010500  0.664700  1.0  0.6916
  C  C52  1  0.805400  0.211200  0.696200  1.0  0.0449
  C  C53  1  0.851200  0.164600  0.729900  1.0  0.7173
  C  C54  1  0.869200  0.933800  0.477800  1.0  0.0276
  C  C55  1  0.028100  0.950100  0.587600  1.0  -0.1533
  C  C56  1  0.898700  0.974500  0.598900  1.0  0.0617
  C  C57  1  0.710600  0.224600  0.631500  1.0  -0.1702
  C  C58  1  0.796400  0.921800  0.394700  1.0  0.7342
  C  C59  1  0.011600  0.924300  0.510900  1.0  -0.1554
  C  C60  1  0.647200  0.989500  0.164700  1.0  0.6915
  C  C61  1  0.694600  0.788800  0.196200  1.0  0.0427
  C  C62  1  0.648800  0.835400  0.229900  1.0  0.7178
  C  C63  1  0.630800  0.066200  0.977800  1.0  0.0299
  C  C64  1  0.471900  0.049900  0.087600  1.0  -0.1523
  C  C65  1  0.601300  0.025500  0.098900  1.0  0.0639
  C  C66  1  0.789400  0.775400  0.131500  1.0  -0.1691
  C  C67  1  0.703600  0.078200  0.894700  1.0  0.7346
  C  C68  1  0.488400  0.075700  0.010900  1.0  -0.1539
  C  C69  1  0.852800  0.489500  0.664700  1.0  0.6913
  C  C70  1  0.805400  0.288800  0.696200  1.0  0.0435
  C  C71  1  0.851200  0.335400  0.729900  1.0  0.7169
  C  C72  1  0.869200  0.566200  0.477800  1.0  0.0289
  C  C73  1  0.028100  0.549900  0.587600  1.0  -0.1514
  C  C74  1  0.898700  0.525500  0.598900  1.0  0.0639
  C  C75  1  0.710600  0.275400  0.631500  1.0  -0.1673
  C  C76  1  0.796400  0.578200  0.394700  1.0  0.737
  C  C77  1  0.011600  0.575700  0.510900  1.0  -0.154
  C  C78  1  0.647200  0.510500  0.164700  1.0  0.692
  C  C79  1  0.694600  0.711200  0.196200  1.0  0.0433
  C  C80  1  0.648800  0.664600  0.229900  1.0  0.7182
  C  C81  1  0.630800  0.433800  0.977800  1.0  0.0286
  C  C82  1  0.471900  0.450100  0.087600  1.0  -0.152
  C  C83  1  0.601300  0.474500  0.098900  1.0  0.0625
  C  C84  1  0.789400  0.724600  0.131500  1.0  -0.1673
  C  C85  1  0.703600  0.421800  0.894700  1.0  0.7366
  C  C86  1  0.488400  0.424300  0.010900  1.0  -0.1542
  C  C87  1  0.147200  0.989500  0.335300  1.0  0.6915
  C  C88  1  0.194600  0.788800  0.303800  1.0  0.0419
  C  C89  1  0.148800  0.835400  0.270100  1.0  0.7179
  C  C90  1  0.130800  0.066200  0.522200  1.0  0.0307
  C  C91  1  0.971900  0.049900  0.412400  1.0  -0.1523
  C  C92  1  0.101300  0.025500  0.401100  1.0  0.0639
  C  C93  1  0.289400  0.775400  0.368500  1.0  -0.1633
  C  C94  1  0.203600  0.078200  0.605300  1.0  0.7374
  C  C95  1  0.988400  0.075700  0.489100  1.0  -0.1541
  C  C96  1  0.352800  0.010500  0.835300  1.0  0.6913
  C  C97  1  0.305400  0.211200  0.803800  1.0  0.0445
  C  C98  1  0.351200  0.164600  0.770100  1.0  0.7174
  C  C99  1  0.369200  0.933800  0.022200  1.0  0.0287
  C  C100  1  0.528100  0.950100  0.912400  1.0  -0.1534
  C  C101  1  0.398700  0.974500  0.901100  1.0  0.0625
  C  C102  1  0.210600  0.224600  0.868500  1.0  -0.1645
  C  C103  1  0.296400  0.921800  0.105300  1.0  0.7365
  C  C104  1  0.511600  0.924300  0.989100  1.0  -0.1548
  O  O105  1  0.206700  0.628360  0.304500  1.0  -0.7205
  O  O106  1  0.049000  0.663200  0.210500  1.0  -0.6209
  O  O107  1  0.044100  0.522700  0.282800  1.0  -0.7045
  O  O108  1  0.205100  0.465920  0.467400  1.0  -0.1756
  O  O109  1  0.126400  0.397000  0.655100  1.0  -0.6552
  O  O110  1  0.338400  0.437400  0.619500  1.0  -0.7522
  O  O111  1  0.284600  0.526690  0.338100  1.0  -0.7409
  O  O112  1  0.293300  0.371640  0.804500  1.0  -0.7215
  O  O113  1  0.451000  0.336800  0.710500  1.0  -0.6218
  O  O114  1  0.455900  0.477300  0.782800  1.0  -0.7041
  O  O115  1  0.294900  0.534080  0.967400  1.0  -0.1734
  O  O116  1  0.373600  0.603000  0.155100  1.0  -0.6563
  O  O117  1  0.161600  0.562600  0.119500  1.0  -0.7529
  O  O118  1  0.215400  0.473310  0.838100  1.0  -0.7402
  O  O119  1  0.793300  0.128360  0.695500  1.0  -0.7216
  O  O120  1  0.951000  0.163200  0.789500  1.0  -0.6238
  O  O121  1  0.955900  0.022700  0.717200  1.0  -0.7038
  O  O122  1  0.794900  0.965920  0.532600  1.0  -0.1731
  O  O123  1  0.873600  0.897000  0.344900  1.0  -0.656
  O  O124  1  0.661600  0.937400  0.380500  1.0  -0.7535
  O  O125  1  0.715400  0.026690  0.661900  1.0  -0.7398
  O  O126  1  0.706700  0.871640  0.195500  1.0  -0.7217
  O  O127  1  0.549000  0.836800  0.289500  1.0  -0.6228
  O  O128  1  0.544100  0.977300  0.217200  1.0  -0.7049
  O  O129  1  0.705100  0.034080  0.032600  1.0  -0.1748
  O  O130  1  0.626400  0.103000  0.844900  1.0  -0.6539
  O  O131  1  0.838400  0.062600  0.880500  1.0  -0.7523
  O  O132  1  0.784600  0.973310  0.161900  1.0  -0.7412
  O  O133  1  0.793300  0.371640  0.695500  1.0  -0.7224
  O  O134  1  0.951000  0.336800  0.789500  1.0  -0.6232
  O  O135  1  0.955900  0.477300  0.717200  1.0  -0.7048
  O  O136  1  0.794900  0.534080  0.532600  1.0  -0.1737
  O  O137  1  0.873600  0.603000  0.344900  1.0  -0.656
  O  O138  1  0.661600  0.562600  0.380500  1.0  -0.7531
  O  O139  1  0.715400  0.473310  0.661900  1.0  -0.7403
  O  O140  1  0.706700  0.628360  0.195500  1.0  -0.7209
  O  O141  1  0.549000  0.663200  0.289500  1.0  -0.6229
  O  O142  1  0.544100  0.522700  0.217200  1.0  -0.7042
  O  O143  1  0.705100  0.465920  0.032600  1.0  -0.175
  O  O144  1  0.626400  0.397000  0.844900  1.0  -0.6545
  O  O145  1  0.838400  0.437400  0.880500  1.0  -0.7525
  O  O146  1  0.784600  0.526690  0.161900  1.0  -0.741
  O  O147  1  0.206700  0.871640  0.304500  1.0  -0.7208
  O  O148  1  0.049000  0.836800  0.210500  1.0  -0.6212
  O  O149  1  0.044100  0.977300  0.282800  1.0  -0.7041
  O  O150  1  0.205100  0.034080  0.467400  1.0  -0.1755
  O  O151  1  0.126400  0.103000  0.655100  1.0  -0.6549
  O  O152  1  0.338400  0.062600  0.619500  1.0  -0.752
  O  O153  1  0.284600  0.973310  0.338100  1.0  -0.7414
  O  O154  1  0.293300  0.128360  0.804500  1.0  -0.7212
  O  O155  1  0.451000  0.163200  0.710500  1.0  -0.6214
  O  O156  1  0.455900  0.022700  0.782800  1.0  -0.7044
  O  O157  1  0.294900  0.965920  0.967400  1.0  -0.1728
  O  O158  1  0.373600  0.897000  0.155100  1.0  -0.6567
  O  O159  1  0.161600  0.937400  0.119500  1.0  -0.7534
  O  O160  1  0.215400  0.026690  0.838100  1.0  -0.7393
  O  O161  1  0.134800  0.750000  0.262500  1.0  -0.1266
  O  O162  1  0.365200  0.250000  0.762500  1.0  -0.126
  O  O163  1  0.865200  0.250000  0.737500  1.0  -0.1283
  O  O164  1  0.634800  0.750000  0.237500  1.0  -0.1297
