# generated using pymatgen
data_MgH8C12O5
_symmetry_space_group_name_H-M   'P 1'
_cell_length_a   16.46900000
_cell_length_b   15.53860000
_cell_length_c   14.54000000
_cell_angle_alpha   90.00000000
_cell_angle_beta   117.50000000
_cell_angle_gamma   90.00000000
_symmetry_Int_Tables_number   1
_chemical_formula_structural   MgH8C12O5
_chemical_formula_sum   'Mg8 H64 C96 O40'
_cell_volume   3300.44459890
_cell_formula_units_Z   8
loop_
 _symmetry_equiv_pos_site_id
 _symmetry_equiv_pos_as_xyz
  1  'x, y, z'
loop_
 _atom_site_type_symbol
 _atom_site_label
 _atom_site_symmetry_multiplicity
 _atom_site_fract_x
 _atom_site_fract_y
 _atom_site_fract_z
 _atom_site_occupancy
 _atom_site_charge
  Mg  Mg1  1  0.500000  0.491690  0.750000  1.0  1.5021
  Mg  Mg2  1  0.000000  0.991690  0.750000  1.0  1.5038
  Mg  Mg3  1  0.500000  0.508310  0.250000  1.0  1.502
  Mg  Mg4  1  0.000000  0.008310  0.250000  1.0  1.5038
  Mg  Mg5  1  0.500000  0.500000  0.500000  1.0  1.5042
  Mg  Mg6  1  0.000000  0.000000  0.500000  1.0  1.5042
  Mg  Mg7  1  0.500000  0.500000  0.000000  1.0  1.5048
  Mg  Mg8  1  0.000000  0.000000  0.000000  1.0  1.5048
  H  H9  1  0.364300  0.507600  0.543000  1.0  0.3824
  H  H10  1  0.407000  0.431200  0.574000  1.0  0.4182
  H  H11  1  0.766400  0.625800  0.847300  1.0  0.0964
  H  H12  1  0.880600  0.728700  0.899900  1.0  0.0821
  H  H13  1  0.753300  0.954300  0.671400  1.0  0.087
  H  H14  1  0.612600  0.982700  0.537100  1.0  0.0964
  H  H15  1  0.498000  0.879100  0.481800  1.0  0.098
  H  H16  1  0.523900  0.748200  0.561400  1.0  0.0873
  H  H17  1  0.864300  0.007600  0.543000  1.0  0.3824
  H  H18  1  0.907000  0.931200  0.574000  1.0  0.4183
  H  H19  1  0.266400  0.125800  0.847300  1.0  0.0964
  H  H20  1  0.380600  0.228700  0.899900  1.0  0.0821
  H  H21  1  0.253300  0.454300  0.671400  1.0  0.087
  H  H22  1  0.112600  0.482700  0.537100  1.0  0.0964
  H  H23  1  0.998000  0.379100  0.481800  1.0  0.098
  H  H24  1  0.023900  0.248200  0.561400  1.0  0.0873
  H  H25  1  0.635700  0.507600  0.957000  1.0  0.3841
  H  H26  1  0.593000  0.431200  0.926000  1.0  0.4203
  H  H27  1  0.233600  0.625800  0.652700  1.0  0.0965
  H  H28  1  0.119400  0.728700  0.600100  1.0  0.0816
  H  H29  1  0.246700  0.954300  0.828600  1.0  0.0875
  H  H30  1  0.387400  0.982700  0.962900  1.0  0.0962
  H  H31  1  0.502000  0.879100  0.018200  1.0  0.0984
  H  H32  1  0.476100  0.748200  0.938600  1.0  0.0874
  H  H33  1  0.135700  0.007600  0.957000  1.0  0.3841
  H  H34  1  0.093000  0.931200  0.926000  1.0  0.4205
  H  H35  1  0.733600  0.125800  0.652700  1.0  0.0965
  H  H36  1  0.619400  0.228700  0.600100  1.0  0.0816
  H  H37  1  0.746700  0.454300  0.828600  1.0  0.0875
  H  H38  1  0.887400  0.482700  0.962900  1.0  0.0962
  H  H39  1  0.002000  0.379100  0.018200  1.0  0.0984
  H  H40  1  0.976100  0.248200  0.938600  1.0  0.0874
  H  H41  1  0.635700  0.492400  0.457000  1.0  0.3848
  H  H42  1  0.593000  0.568800  0.426000  1.0  0.4208
  H  H43  1  0.233600  0.374200  0.152700  1.0  0.0969
  H  H44  1  0.119400  0.271300  0.100100  1.0  0.0817
  H  H45  1  0.246700  0.045700  0.328600  1.0  0.0876
  H  H46  1  0.387400  0.017300  0.462900  1.0  0.0962
  H  H47  1  0.502000  0.120900  0.518200  1.0  0.0983
  H  H48  1  0.476100  0.251800  0.438600  1.0  0.0868
  H  H49  1  0.135700  0.992400  0.457000  1.0  0.3848
  H  H50  1  0.093000  0.068800  0.426000  1.0  0.4209
  H  H51  1  0.733600  0.874200  0.152700  1.0  0.0969
  H  H52  1  0.619400  0.771300  0.100100  1.0  0.0817
  H  H53  1  0.746700  0.545700  0.328600  1.0  0.0876
  H  H54  1  0.887400  0.517300  0.462900  1.0  0.0962
  H  H55  1  0.002000  0.620900  0.518200  1.0  0.0983
  H  H56  1  0.976100  0.751800  0.438600  1.0  0.0868
  H  H57  1  0.364300  0.492400  0.043000  1.0  0.3829
  H  H58  1  0.407000  0.568800  0.074000  1.0  0.4202
  H  H59  1  0.766400  0.374200  0.347300  1.0  0.0962
  H  H60  1  0.880600  0.271300  0.399900  1.0  0.0817
  H  H61  1  0.753300  0.045700  0.171400  1.0  0.087
  H  H62  1  0.612600  0.017300  0.037100  1.0  0.0961
  H  H63  1  0.498000  0.120900  0.981800  1.0  0.0978
  H  H64  1  0.523900  0.251800  0.061400  1.0  0.087
  H  H65  1  0.864300  0.992400  0.043000  1.0  0.3829
  H  H66  1  0.907000  0.068800  0.074000  1.0  0.4201
  H  H67  1  0.266400  0.874200  0.347300  1.0  0.0962
  H  H68  1  0.380600  0.771300  0.399900  1.0  0.0817
  H  H69  1  0.253300  0.545700  0.171400  1.0  0.087
  H  H70  1  0.112600  0.517300  0.037100  1.0  0.0961
  H  H71  1  0.998000  0.620900  0.981800  1.0  0.0978
  H  H72  1  0.023900  0.751800  0.061400  1.0  0.087
  C  C73  1  0.606180  0.617230  0.688900  1.0  0.7065
  C  C74  1  0.673750  0.689760  0.723400  1.0  -0.1391
  C  C75  1  0.756300  0.676620  0.809800  1.0  -0.1081
  C  C76  1  0.825050  0.738840  0.841500  1.0  -0.1098
  C  C77  1  0.812370  0.813950  0.788720  1.0  -0.1058
  C  C78  1  0.726470  0.832080  0.701900  1.0  0.036
  C  C79  1  0.707700  0.912550  0.650200  1.0  -0.1209
  C  C80  1  0.624100  0.929500  0.570100  1.0  -0.13
  C  C81  1  0.555100  0.867100  0.537000  1.0  -0.1246
  C  C82  1  0.570600  0.788900  0.584600  1.0  -0.1077
  C  C83  1  0.656710  0.768710  0.668800  1.0  0.0483
  C  C84  1  0.888570  0.878170  0.824700  1.0  0.6949
  C  C85  1  0.106180  0.117230  0.688900  1.0  0.7065
  C  C86  1  0.173750  0.189760  0.723400  1.0  -0.1391
  C  C87  1  0.256300  0.176620  0.809800  1.0  -0.1081
  C  C88  1  0.325050  0.238840  0.841500  1.0  -0.1098
  C  C89  1  0.312370  0.313950  0.788720  1.0  -0.1058
  C  C90  1  0.226470  0.332080  0.701900  1.0  0.036
  C  C91  1  0.207700  0.412550  0.650200  1.0  -0.1209
  C  C92  1  0.124100  0.429500  0.570100  1.0  -0.13
  C  C93  1  0.055100  0.367100  0.537000  1.0  -0.1246
  C  C94  1  0.070600  0.288900  0.584600  1.0  -0.1077
  C  C95  1  0.156710  0.268710  0.668800  1.0  0.0483
  C  C96  1  0.388570  0.378170  0.824700  1.0  0.6949
  C  C97  1  0.393820  0.617230  0.811100  1.0  0.706
  C  C98  1  0.326250  0.689760  0.776600  1.0  -0.1392
  C  C99  1  0.243700  0.676620  0.690200  1.0  -0.1065
  C  C100  1  0.174950  0.738840  0.658500  1.0  -0.1099
  C  C101  1  0.187630  0.813950  0.711280  1.0  -0.106
  C  C102  1  0.273530  0.832080  0.798100  1.0  0.0359
  C  C103  1  0.292300  0.912550  0.849800  1.0  -0.1215
  C  C104  1  0.375900  0.929500  0.929900  1.0  -0.1296
  C  C105  1  0.444900  0.867100  0.963000  1.0  -0.1246
  C  C106  1  0.429400  0.788900  0.915400  1.0  -0.1074
  C  C107  1  0.343290  0.768710  0.831200  1.0  0.0475
  C  C108  1  0.111430  0.878170  0.675300  1.0  0.6934
  C  C109  1  0.893820  0.117230  0.811100  1.0  0.706
  C  C110  1  0.826250  0.189760  0.776600  1.0  -0.1392
  C  C111  1  0.743700  0.176620  0.690200  1.0  -0.1065
  C  C112  1  0.674950  0.238840  0.658500  1.0  -0.1099
  C  C113  1  0.687630  0.313950  0.711280  1.0  -0.106
  C  C114  1  0.773530  0.332080  0.798100  1.0  0.0359
  C  C115  1  0.792300  0.412550  0.849800  1.0  -0.1215
  C  C116  1  0.875900  0.429500  0.929900  1.0  -0.1296
  C  C117  1  0.944900  0.367100  0.963000  1.0  -0.1246
  C  C118  1  0.929400  0.288900  0.915400  1.0  -0.1074
  C  C119  1  0.843290  0.268710  0.831200  1.0  0.0475
  C  C120  1  0.611430  0.378170  0.675300  1.0  0.6934
  C  C121  1  0.393820  0.382770  0.311100  1.0  0.7061
  C  C122  1  0.326250  0.310240  0.276600  1.0  -0.1387
  C  C123  1  0.243700  0.323380  0.190200  1.0  -0.1078
  C  C124  1  0.174950  0.261160  0.158500  1.0  -0.1096
  C  C125  1  0.187630  0.186050  0.211280  1.0  -0.1061
  C  C126  1  0.273530  0.167920  0.298100  1.0  0.0357
  C  C127  1  0.292300  0.087450  0.349800  1.0  -0.1218
  C  C128  1  0.375900  0.070500  0.429900  1.0  -0.1297
  C  C129  1  0.444900  0.132900  0.463000  1.0  -0.1238
  C  C130  1  0.429400  0.211100  0.415400  1.0  -0.107
  C  C131  1  0.343290  0.231290  0.331200  1.0  0.0473
  C  C132  1  0.111430  0.121830  0.175300  1.0  0.6937
  C  C133  1  0.893820  0.882770  0.311100  1.0  0.7061
  C  C134  1  0.826250  0.810240  0.276600  1.0  -0.1387
  C  C135  1  0.743700  0.823380  0.190200  1.0  -0.1078
  C  C136  1  0.674950  0.761160  0.158500  1.0  -0.1096
  C  C137  1  0.687630  0.686050  0.211280  1.0  -0.1061
  C  C138  1  0.773530  0.667920  0.298100  1.0  0.0357
  C  C139  1  0.792300  0.587450  0.349800  1.0  -0.1218
  C  C140  1  0.875900  0.570500  0.429900  1.0  -0.1297
  C  C141  1  0.944900  0.632900  0.463000  1.0  -0.1238
  C  C142  1  0.929400  0.711100  0.415400  1.0  -0.107
  C  C143  1  0.843290  0.731290  0.331200  1.0  0.0473
  C  C144  1  0.611430  0.621830  0.175300  1.0  0.6937
  C  C145  1  0.606180  0.382770  0.188900  1.0  0.7065
  C  C146  1  0.673750  0.310240  0.223400  1.0  -0.1388
  C  C147  1  0.756300  0.323380  0.309800  1.0  -0.1077
  C  C148  1  0.825050  0.261160  0.341500  1.0  -0.1095
  C  C149  1  0.812370  0.186050  0.288720  1.0  -0.106
  C  C150  1  0.726470  0.167920  0.201900  1.0  0.0358
  C  C151  1  0.707700  0.087450  0.150200  1.0  -0.1205
  C  C152  1  0.624100  0.070500  0.070100  1.0  -0.1287
  C  C153  1  0.555100  0.132900  0.037000  1.0  -0.1239
  C  C154  1  0.570600  0.211100  0.084600  1.0  -0.1071
  C  C155  1  0.656710  0.231290  0.168800  1.0  0.0478
  C  C156  1  0.888570  0.121830  0.324700  1.0  0.6949
  C  C157  1  0.106180  0.882770  0.188900  1.0  0.7065
  C  C158  1  0.173750  0.810240  0.223400  1.0  -0.1388
  C  C159  1  0.256300  0.823380  0.309800  1.0  -0.1077
  C  C160  1  0.325050  0.761160  0.341500  1.0  -0.1095
  C  C161  1  0.312370  0.686050  0.288720  1.0  -0.106
  C  C162  1  0.226470  0.667920  0.201900  1.0  0.0358
  C  C163  1  0.207700  0.587450  0.150200  1.0  -0.1205
  C  C164  1  0.124100  0.570500  0.070100  1.0  -0.1287
  C  C165  1  0.055100  0.632900  0.037000  1.0  -0.1239
  C  C166  1  0.070600  0.711100  0.084600  1.0  -0.1071
  C  C167  1  0.156710  0.731290  0.168800  1.0  0.0478
  C  C168  1  0.388570  0.621830  0.324700  1.0  0.6949
  O  O169  1  0.587990  0.584150  0.755180  1.0  -0.6274
  O  O170  1  0.575630  0.593570  0.597740  1.0  -0.6229
  O  O171  1  0.917060  0.905330  0.914900  1.0  -0.6228
  O  O172  1  0.919030  0.898500  0.763380  1.0  -0.6248
  O  O173  1  0.415530  0.481610  0.577550  1.0  -0.8949
  O  O174  1  0.087990  0.084150  0.755180  1.0  -0.6274
  O  O175  1  0.075630  0.093570  0.597740  1.0  -0.6229
  O  O176  1  0.417060  0.405330  0.914900  1.0  -0.6228
  O  O177  1  0.419030  0.398500  0.763380  1.0  -0.6248
  O  O178  1  0.915530  0.981610  0.577550  1.0  -0.8949
  O  O179  1  0.412010  0.584150  0.744820  1.0  -0.6282
  O  O180  1  0.424370  0.593570  0.902260  1.0  -0.6244
  O  O181  1  0.082940  0.905330  0.585100  1.0  -0.6216
  O  O182  1  0.080970  0.898500  0.736620  1.0  -0.6251
  O  O183  1  0.584470  0.481610  0.922450  1.0  -0.8962
  O  O184  1  0.912010  0.084150  0.744820  1.0  -0.6282
  O  O185  1  0.924370  0.093570  0.902260  1.0  -0.6244
  O  O186  1  0.582940  0.405330  0.585100  1.0  -0.6216
  O  O187  1  0.580970  0.398500  0.736620  1.0  -0.6251
  O  O188  1  0.084470  0.981610  0.922450  1.0  -0.8962
  O  O189  1  0.412010  0.415850  0.244820  1.0  -0.6285
  O  O190  1  0.424370  0.406430  0.402260  1.0  -0.6244
  O  O191  1  0.082940  0.094670  0.085100  1.0  -0.621
  O  O192  1  0.080970  0.101500  0.236620  1.0  -0.6241
  O  O193  1  0.584470  0.518390  0.422450  1.0  -0.8968
  O  O194  1  0.912010  0.915850  0.244820  1.0  -0.6285
  O  O195  1  0.924370  0.906430  0.402260  1.0  -0.6244
  O  O196  1  0.582940  0.594670  0.085100  1.0  -0.621
  O  O197  1  0.580970  0.601500  0.236620  1.0  -0.6241
  O  O198  1  0.084470  0.018390  0.422450  1.0  -0.8968
  O  O199  1  0.587990  0.415850  0.255180  1.0  -0.6282
  O  O200  1  0.575630  0.406430  0.097740  1.0  -0.6226
  O  O201  1  0.917060  0.094670  0.414900  1.0  -0.6225
  O  O202  1  0.919030  0.101500  0.263380  1.0  -0.6241
  O  O203  1  0.415530  0.518390  0.077550  1.0  -0.895
  O  O204  1  0.087990  0.915850  0.255180  1.0  -0.6282
  O  O205  1  0.075630  0.906430  0.097740  1.0  -0.6226
  O  O206  1  0.417060  0.594670  0.414900  1.0  -0.6225
  O  O207  1  0.419030  0.601500  0.263380  1.0  -0.6241
  O  O208  1  0.915530  0.018390  0.077550  1.0  -0.895
