# generated using pymatgen
data_CdNiH14(C3N2)3
_symmetry_space_group_name_H-M   'P 1'
_cell_length_a   7.76200000
_cell_length_b   13.73600000
_cell_length_c   22.01400000
_cell_angle_alpha   90.00000000
_cell_angle_beta   90.00000000
_cell_angle_gamma   91.04000000
_symmetry_Int_Tables_number   1
_chemical_formula_structural   CdNiH14(C3N2)3
_chemical_formula_sum   'Cd4 Ni4 H56 C36 N24'
_cell_volume   2346.72032267
_cell_formula_units_Z   4
loop_
 _symmetry_equiv_pos_site_id
 _symmetry_equiv_pos_as_xyz
  1  'x, y, z'
loop_
 _atom_site_type_symbol
 _atom_site_label
 _atom_site_symmetry_multiplicity
 _atom_site_fract_x
 _atom_site_fract_y
 _atom_site_fract_z
 _atom_site_occupancy
 _atom_site_charge
  Cd  Cd1  1  0.936840  0.828560  0.798040  1.0  0.9633
  Cd  Cd2  1  0.063160  0.671440  0.298040  1.0  0.9631
  Cd  Cd3  1  0.063160  0.171440  0.201960  1.0  0.9635
  Cd  Cd4  1  0.936840  0.328560  0.701960  1.0  0.9637
  Ni  Ni5  1  0.436350  0.576930  0.767790  1.0  0.0027
  Ni  Ni6  1  0.563650  0.923070  0.267790  1.0  0.0014
  Ni  Ni7  1  0.563650  0.423070  0.232210  1.0  0.0023
  Ni  Ni8  1  0.436350  0.076930  0.732210  1.0  0.0037
  H  H9  1  0.944480  0.839380  0.672050  1.0  0.295
  H  H10  1  0.122700  0.788130  0.693470  1.0  0.2938
  H  H11  1  0.789790  0.702290  0.668230  1.0  0.0706
  H  H12  1  0.943510  0.641910  0.715420  1.0  0.086
  H  H13  1  0.153060  0.647570  0.631950  1.0  0.0845
  H  H14  1  0.958960  0.580990  0.613210  1.0  0.0939
  H  H15  1  0.079270  0.778690  0.566560  1.0  0.0706
  H  H16  1  0.864520  0.730850  0.555810  1.0  0.0718
  H  H17  1  0.989600  0.580940  0.509810  1.0  0.0664
  H  H18  1  0.200410  0.635940  0.516730  1.0  0.0766
  H  H19  1  0.906370  0.717710  0.440530  1.0  0.0877
  H  H20  1  0.124080  0.763870  0.444530  1.0  0.0828
  H  H21  1  0.977510  0.930630  0.903130  1.0  0.2721
  H  H22  1  0.783060  0.883210  0.903410  1.0  0.2892
  H  H23  1  0.055520  0.660620  0.172050  1.0  0.2876
  H  H24  1  0.877300  0.711870  0.193470  1.0  0.2954
  H  H25  1  0.210210  0.797710  0.168230  1.0  0.0752
  H  H26  1  0.056490  0.858090  0.215420  1.0  0.0856
  H  H27  1  0.846940  0.852430  0.131950  1.0  0.0849
  H  H28  1  0.041040  0.919010  0.113210  1.0  0.0943
  H  H29  1  0.920730  0.721310  0.066560  1.0  0.07
  H  H30  1  0.135480  0.769150  0.055810  1.0  0.0705
  H  H31  1  0.010400  0.919060  0.009810  1.0  0.0663
  H  H32  1  0.799590  0.864060  0.016730  1.0  0.0777
  H  H33  1  0.093630  0.782290  0.940530  1.0  0.0845
  H  H34  1  0.875920  0.736130  0.944530  1.0  0.0845
  H  H35  1  0.022490  0.569370  0.403130  1.0  0.2716
  H  H36  1  0.216940  0.616790  0.403410  1.0  0.2989
  H  H37  1  0.055520  0.160620  0.327950  1.0  0.2853
  H  H38  1  0.877300  0.211870  0.306530  1.0  0.2953
  H  H39  1  0.210210  0.297710  0.331770  1.0  0.0747
  H  H40  1  0.056490  0.358090  0.284580  1.0  0.0872
  H  H41  1  0.846940  0.352430  0.368050  1.0  0.0852
  H  H42  1  0.041040  0.419010  0.386790  1.0  0.0937
  H  H43  1  0.920730  0.221310  0.433440  1.0  0.0705
  H  H44  1  0.135480  0.269150  0.444190  1.0  0.0703
  H  H45  1  0.010400  0.419060  0.490190  1.0  0.0666
  H  H46  1  0.799590  0.364060  0.483270  1.0  0.0776
  H  H47  1  0.093630  0.282290  0.559470  1.0  0.0842
  H  H48  1  0.875920  0.236130  0.555470  1.0  0.0848
  H  H49  1  0.022490  0.069370  0.096870  1.0  0.272
  H  H50  1  0.216940  0.116790  0.096590  1.0  0.2988
  H  H51  1  0.944480  0.339380  0.827950  1.0  0.2933
  H  H52  1  0.122700  0.288130  0.806530  1.0  0.2939
  H  H53  1  0.789790  0.202290  0.831770  1.0  0.0707
  H  H54  1  0.943510  0.141910  0.784580  1.0  0.0873
  H  H55  1  0.153060  0.147570  0.868050  1.0  0.0846
  H  H56  1  0.958960  0.080990  0.886790  1.0  0.0932
  H  H57  1  0.079270  0.278690  0.933440  1.0  0.0711
  H  H58  1  0.864520  0.230850  0.944190  1.0  0.0719
  H  H59  1  0.989600  0.080940  0.990190  1.0  0.0669
  H  H60  1  0.200410  0.135940  0.983270  1.0  0.0767
  H  H61  1  0.906370  0.217710  0.059470  1.0  0.0878
  H  H62  1  0.124080  0.263870  0.055470  1.0  0.0826
  H  H63  1  0.977510  0.430630  0.596870  1.0  0.2721
  H  H64  1  0.783060  0.383210  0.596590  1.0  0.2882
  C  C65  1  0.604800  0.662300  0.793300  1.0  0.1376
  C  C66  1  0.610600  0.995500  0.762300  1.0  0.1114
  C  C67  1  0.267200  0.993200  0.761200  1.0  0.1181
  C  C68  1  0.265500  0.159400  0.700800  1.0  0.1132
  C  C69  1  0.927700  0.694500  0.678300  1.0  0.0541
  C  C70  1  0.015000  0.653800  0.621700  1.0  -0.1771
  C  C71  1  0.999900  0.711700  0.563200  1.0  -0.1134
  C  C72  1  0.062800  0.650200  0.509800  1.0  -0.1787
  C  C73  1  0.041900  0.697900  0.446700  1.0  0.055
  C  C74  1  0.395200  0.837700  0.293300  1.0  0.1379
  C  C75  1  0.389400  0.504500  0.262300  1.0  0.1105
  C  C76  1  0.732800  0.506800  0.261200  1.0  0.1186
  C  C77  1  0.734500  0.340600  0.200800  1.0  0.1145
  C  C78  1  0.072300  0.805500  0.178300  1.0  0.0538
  C  C79  1  0.985000  0.846200  0.121700  1.0  -0.1767
  C  C80  1  0.000100  0.788300  0.063200  1.0  -0.114
  C  C81  1  0.937200  0.849800  0.009800  1.0  -0.1773
  C  C82  1  0.958100  0.802100  0.946700  1.0  0.0534
  C  C83  1  0.395200  0.337700  0.206700  1.0  0.138
  C  C84  1  0.389400  0.004500  0.237700  1.0  0.1111
  C  C85  1  0.732800  0.006800  0.238800  1.0  0.1185
  C  C86  1  0.734500  0.840600  0.299200  1.0  0.1143
  C  C87  1  0.072300  0.305500  0.321700  1.0  0.0538
  C  C88  1  0.985000  0.346200  0.378300  1.0  -0.1767
  C  C89  1  0.000100  0.288300  0.436800  1.0  -0.1139
  C  C90  1  0.937200  0.349800  0.490200  1.0  -0.1771
  C  C91  1  0.958100  0.302100  0.553300  1.0  0.0561
  C  C92  1  0.604800  0.162300  0.706700  1.0  0.1373
  C  C93  1  0.610600  0.495500  0.737700  1.0  0.112
  C  C94  1  0.267200  0.493200  0.738800  1.0  0.1178
  C  C95  1  0.265500  0.659400  0.799200  1.0  0.1135
  C  C96  1  0.927700  0.194500  0.821700  1.0  0.0548
  C  C97  1  0.015000  0.153800  0.878300  1.0  -0.177
  C  C98  1  0.999900  0.211700  0.936800  1.0  -0.1133
  C  C99  1  0.062800  0.150200  0.990200  1.0  -0.1785
  C  C100  1  0.041900  0.197900  0.053300  1.0  0.051
  N  N101  1  0.709300  0.715800  0.807700  1.0  -0.441
  N  N102  1  0.722700  0.946600  0.778600  1.0  -0.4446
  N  N103  1  0.162200  0.944700  0.781000  1.0  -0.4351
  N  N104  1  0.160200  0.709700  0.817900  1.0  -0.4491
  N  N105  1  0.994700  0.788100  0.698600  1.0  -0.6358
  N  N106  1  0.907900  0.869400  0.897100  1.0  -0.6229
  N  N107  1  0.290700  0.784200  0.307700  1.0  -0.4419
  N  N108  1  0.277300  0.553400  0.278600  1.0  -0.4456
  N  N109  1  0.837800  0.555300  0.281000  1.0  -0.4362
  N  N110  1  0.839800  0.790300  0.317900  1.0  -0.4494
  N  N111  1  0.005300  0.711900  0.198600  1.0  -0.6362
  N  N112  1  0.092100  0.630600  0.397100  1.0  -0.6232
  N  N113  1  0.290700  0.284200  0.192300  1.0  -0.4424
  N  N114  1  0.277300  0.053400  0.221400  1.0  -0.4449
  N  N115  1  0.837800  0.055300  0.219000  1.0  -0.4354
  N  N116  1  0.839800  0.290300  0.182100  1.0  -0.449
  N  N117  1  0.005300  0.211900  0.301400  1.0  -0.6371
  N  N118  1  0.092100  0.130600  0.102900  1.0  -0.6218
  N  N119  1  0.709300  0.215800  0.692300  1.0  -0.4419
  N  N120  1  0.722700  0.446600  0.721400  1.0  -0.4437
  N  N121  1  0.162200  0.444700  0.719000  1.0  -0.4339
  N  N122  1  0.160200  0.209700  0.682100  1.0  -0.449
  N  N123  1  0.994700  0.288100  0.801400  1.0  -0.6367
  N  N124  1  0.907900  0.369400  0.602900  1.0  -0.6237
