# generated using pymatgen
data_CdNiH18C11N6
_symmetry_space_group_name_H-M   'P 1'
_cell_length_a   7.61000000
_cell_length_b   13.59900000
_cell_length_c   27.93800000
_cell_angle_alpha   90.00000000
_cell_angle_beta   90.00000000
_cell_angle_gamma   90.00000000
_symmetry_Int_Tables_number   1
_chemical_formula_structural   CdNiH18C11N6
_chemical_formula_sum   'Cd4 Ni4 H72 C44 N24'
_cell_volume   2891.25863982
_cell_formula_units_Z   4
loop_
 _symmetry_equiv_pos_site_id
 _symmetry_equiv_pos_as_xyz
  1  'x, y, z'
loop_
 _atom_site_type_symbol
 _atom_site_label
 _atom_site_symmetry_multiplicity
 _atom_site_fract_x
 _atom_site_fract_y
 _atom_site_fract_z
 _atom_site_occupancy
 _atom_site_charge
  Cd  Cd1  1  0.000000  0.772580  0.763310  1.0  0.9479
  Cd  Cd2  1  0.000000  0.227420  0.236690  1.0  0.9479
  Cd  Cd3  1  0.000000  0.727420  0.263310  1.0  0.9477
  Cd  Cd4  1  0.000000  0.272580  0.736690  1.0  0.948
  Ni  Ni5  1  0.500000  0.517140  0.791550  1.0  -0.0028
  Ni  Ni6  1  0.500000  0.482860  0.208450  1.0  -0.0024
  Ni  Ni7  1  0.500000  0.982860  0.291550  1.0  -0.0029
  Ni  Ni8  1  0.500000  0.017140  0.708450  1.0  -0.0023
  H  H9  1  0.892830  0.625190  0.698160  1.0  0.3023
  H  H10  1  0.882110  0.768590  0.646810  1.0  0.084
  H  H11  1  0.882110  0.603530  0.607230  1.0  0.0737
  H  H12  1  0.882110  0.759020  0.557870  1.0  0.0791
  H  H13  1  0.882110  0.592430  0.515810  1.0  0.0679
  H  H14  1  0.882110  0.749250  0.467440  1.0  0.0781
  H  H15  1  0.882110  0.586460  0.424740  1.0  0.0714
  H  H16  1  0.117890  0.757510  0.877900  1.0  0.0808
  H  H17  1  0.107170  0.908830  0.834490  1.0  0.3005
  H  H18  1  0.892830  0.374810  0.301840  1.0  0.3025
  H  H19  1  0.882110  0.231410  0.353190  1.0  0.0839
  H  H20  1  0.882110  0.396470  0.392770  1.0  0.0736
  H  H21  1  0.882110  0.240980  0.442130  1.0  0.0783
  H  H22  1  0.882110  0.407570  0.484190  1.0  0.0679
  H  H23  1  0.882110  0.250750  0.532560  1.0  0.0768
  H  H24  1  0.882110  0.413540  0.575260  1.0  0.0713
  H  H25  1  0.117890  0.242490  0.122100  1.0  0.0807
  H  H26  1  0.107170  0.091170  0.165510  1.0  0.2992
  H  H27  1  0.107170  0.874810  0.198160  1.0  0.3009
  H  H28  1  0.117890  0.731410  0.146810  1.0  0.0834
  H  H29  1  0.117890  0.896470  0.107230  1.0  0.0735
  H  H30  1  0.117890  0.740980  0.057870  1.0  0.0785
  H  H31  1  0.117890  0.907570  0.015810  1.0  0.0674
  H  H32  1  0.117890  0.750750  0.967440  1.0  0.0768
  H  H33  1  0.117890  0.913540  0.924740  1.0  0.0715
  H  H34  1  0.882110  0.742490  0.377900  1.0  0.081
  H  H35  1  0.892830  0.591170  0.334490  1.0  0.3011
  H  H36  1  0.107170  0.125190  0.801840  1.0  0.2999
  H  H37  1  0.117890  0.268590  0.853190  1.0  0.0832
  H  H38  1  0.117890  0.103530  0.892770  1.0  0.0742
  H  H39  1  0.117890  0.259020  0.942130  1.0  0.0788
  H  H40  1  0.117890  0.092430  0.984190  1.0  0.0683
  H  H41  1  0.117890  0.249250  0.032560  1.0  0.0773
  H  H42  1  0.117890  0.086460  0.075260  1.0  0.0719
  H  H43  1  0.882110  0.257510  0.622100  1.0  0.0814
  H  H44  1  0.892830  0.408830  0.665510  1.0  0.301
  H  H45  1  0.107170  0.374810  0.301840  1.0  0.3017
  H  H46  1  0.117890  0.231410  0.353190  1.0  0.0832
  H  H47  1  0.117890  0.396470  0.392770  1.0  0.0739
  H  H48  1  0.117890  0.240980  0.442130  1.0  0.0782
  H  H49  1  0.117890  0.407570  0.484190  1.0  0.0677
  H  H50  1  0.117890  0.250750  0.532560  1.0  0.0766
  H  H51  1  0.117890  0.413540  0.575260  1.0  0.0713
  H  H52  1  0.882110  0.242490  0.122100  1.0  0.0813
  H  H53  1  0.892830  0.091170  0.165510  1.0  0.301
  H  H54  1  0.107170  0.625190  0.698160  1.0  0.3005
  H  H55  1  0.117890  0.768590  0.646810  1.0  0.0835
  H  H56  1  0.117890  0.603530  0.607230  1.0  0.0738
  H  H57  1  0.117890  0.759020  0.557870  1.0  0.0789
  H  H58  1  0.117890  0.592430  0.515810  1.0  0.0681
  H  H59  1  0.117890  0.749250  0.467440  1.0  0.0775
  H  H60  1  0.117890  0.586460  0.424740  1.0  0.072
  H  H61  1  0.882110  0.757510  0.877900  1.0  0.0813
  H  H62  1  0.892830  0.908830  0.834490  1.0  0.3014
  H  H63  1  0.892830  0.125190  0.801840  1.0  0.302
  H  H64  1  0.882110  0.268590  0.853190  1.0  0.084
  H  H65  1  0.882110  0.103530  0.892770  1.0  0.0737
  H  H66  1  0.882110  0.259020  0.942130  1.0  0.0793
  H  H67  1  0.882110  0.092430  0.984190  1.0  0.068
  H  H68  1  0.882110  0.249250  0.032560  1.0  0.0779
  H  H69  1  0.882110  0.086460  0.075260  1.0  0.0715
  H  H70  1  0.117890  0.257510  0.622100  1.0  0.0807
  H  H71  1  0.107170  0.408830  0.665510  1.0  0.2992
  H  H72  1  0.892830  0.874810  0.198160  1.0  0.3027
  H  H73  1  0.882110  0.731410  0.146810  1.0  0.0838
  H  H74  1  0.882110  0.896470  0.107230  1.0  0.0735
  H  H75  1  0.882110  0.740980  0.057870  1.0  0.0782
  H  H76  1  0.882110  0.907570  0.015810  1.0  0.0677
  H  H77  1  0.882110  0.750750  0.967440  1.0  0.0769
  H  H78  1  0.882110  0.913540  0.924740  1.0  0.0713
  H  H79  1  0.117890  0.742490  0.377900  1.0  0.0807
  H  H80  1  0.107170  0.591170  0.334490  1.0  0.3001
  C  C81  1  0.671900  0.613400  0.795800  1.0  0.1138
  C  C82  1  0.324900  0.923400  0.718300  1.0  0.11
  C  C83  1  0.671900  0.386600  0.204200  1.0  0.113
  C  C84  1  0.324900  0.076600  0.281700  1.0  0.1101
  C  C85  1  0.328100  0.886600  0.295800  1.0  0.1137
  C  C86  1  0.675100  0.576600  0.218300  1.0  0.11
  C  C87  1  0.328100  0.113400  0.704200  1.0  0.1131
  C  C88  1  0.675100  0.423400  0.781700  1.0  0.1106
  C  C89  1  0.328100  0.386600  0.204200  1.0  0.1127
  C  C90  1  0.675100  0.076600  0.281700  1.0  0.1101
  C  C91  1  0.328100  0.613400  0.795800  1.0  0.1137
  C  C92  1  0.675100  0.923400  0.718300  1.0  0.1103
  C  C93  1  0.671900  0.113400  0.704200  1.0  0.1131
  C  C94  1  0.324900  0.423400  0.781700  1.0  0.1108
  C  C95  1  0.671900  0.886600  0.295800  1.0  0.1139
  C  C96  1  0.324900  0.576600  0.218300  1.0  0.1101
  C  C97  1  0.000000  0.722100  0.648800  1.0  0.0457
  C  C98  1  0.000000  0.650200  0.606000  1.0  -0.1893
  C  C99  1  0.000000  0.712400  0.559100  1.0  -0.1386
  C  C100  1  0.000000  0.639100  0.514800  1.0  -0.1387
  C  C101  1  0.000000  0.702600  0.468200  1.0  -0.133
  C  C102  1  0.000000  0.633100  0.424000  1.0  -0.1885
  C  C103  1  0.000000  0.804200  0.878100  1.0  0.0598
  C  C104  1  0.000000  0.277900  0.351200  1.0  0.0466
  C  C105  1  0.000000  0.349800  0.394000  1.0  -0.1876
  C  C106  1  0.000000  0.287600  0.440900  1.0  -0.1377
  C  C107  1  0.000000  0.360900  0.485200  1.0  -0.1372
  C  C108  1  0.000000  0.297400  0.531800  1.0  -0.1323
  C  C109  1  0.000000  0.366900  0.576000  1.0  -0.1872
  C  C110  1  0.000000  0.195800  0.121900  1.0  0.0576
  C  C111  1  0.000000  0.777900  0.148800  1.0  0.0478
  C  C112  1  0.000000  0.849800  0.106000  1.0  -0.1877
  C  C113  1  0.000000  0.787600  0.059100  1.0  -0.1375
  C  C114  1  0.000000  0.860900  0.014800  1.0  -0.1375
  C  C115  1  0.000000  0.797400  0.968200  1.0  -0.1321
  C  C116  1  0.000000  0.866900  0.924000  1.0  -0.1872
  C  C117  1  0.000000  0.695800  0.378100  1.0  0.0586
  C  C118  1  0.000000  0.222100  0.851200  1.0  0.0456
  C  C119  1  0.000000  0.150200  0.894000  1.0  -0.1892
  C  C120  1  0.000000  0.212400  0.940900  1.0  -0.1386
  C  C121  1  0.000000  0.139100  0.985200  1.0  -0.1383
  C  C122  1  0.000000  0.202600  0.031800  1.0  -0.1331
  C  C123  1  0.000000  0.133100  0.076000  1.0  -0.188
  C  C124  1  0.000000  0.304200  0.621900  1.0  0.0597
  N  N125  1  0.779400  0.672300  0.794700  1.0  -0.4334
  N  N126  1  0.217500  0.869100  0.728600  1.0  -0.4259
  N  N127  1  0.779400  0.327700  0.205300  1.0  -0.4332
  N  N128  1  0.217500  0.130900  0.271400  1.0  -0.4254
  N  N129  1  0.220600  0.827700  0.294700  1.0  -0.4332
  N  N130  1  0.782500  0.630900  0.228600  1.0  -0.4248
  N  N131  1  0.220600  0.172300  0.705300  1.0  -0.4324
  N  N132  1  0.782500  0.369100  0.771400  1.0  -0.4254
  N  N133  1  0.220600  0.327700  0.205300  1.0  -0.4328
  N  N134  1  0.782500  0.130900  0.271400  1.0  -0.4251
  N  N135  1  0.220600  0.672300  0.794700  1.0  -0.4326
  N  N136  1  0.782500  0.869100  0.728600  1.0  -0.4252
  N  N137  1  0.779400  0.172300  0.705300  1.0  -0.4333
  N  N138  1  0.217500  0.369100  0.771400  1.0  -0.4258
  N  N139  1  0.779400  0.827700  0.294700  1.0  -0.4336
  N  N140  1  0.217500  0.630900  0.228600  1.0  -0.4252
  N  N141  1  0.000000  0.667500  0.696600  1.0  -0.631
  N  N142  1  0.000000  0.866400  0.834200  1.0  -0.6374
  N  N143  1  0.000000  0.332500  0.303400  1.0  -0.6322
  N  N144  1  0.000000  0.133600  0.165800  1.0  -0.6367
  N  N145  1  0.000000  0.832500  0.196600  1.0  -0.6301
  N  N146  1  0.000000  0.633600  0.334200  1.0  -0.6357
  N  N147  1  0.000000  0.167500  0.803400  1.0  -0.6318
  N  N148  1  0.000000  0.366400  0.665800  1.0  -0.636
