# generated using pymatgen
data_Zr2P3C14N2(O5F)2
_symmetry_space_group_name_H-M   'P 1'
_cell_length_a   13.58950000
_cell_length_b   8.83510000
_cell_length_c   9.22940000
_cell_angle_alpha   90.00000000
_cell_angle_beta   100.79000000
_cell_angle_gamma   90.00000000
_symmetry_Int_Tables_number   1
_chemical_formula_structural   Zr2P3C14N2(O5F)2
_chemical_formula_sum   'Zr4 P6 C28 N4 O20 F4'
_cell_volume   1088.53243901
_cell_formula_units_Z   2
loop_
 _symmetry_equiv_pos_site_id
 _symmetry_equiv_pos_as_xyz
  1  'x, y, z'
loop_
 _atom_site_type_symbol
 _atom_site_label
 _atom_site_symmetry_multiplicity
 _atom_site_fract_x
 _atom_site_fract_y
 _atom_site_fract_z
 _atom_site_occupancy
 _atom_site_charge
  Zr  Zr1  1  0.109900  0.253300  0.070500  1.0  2.0973
  Zr  Zr2  1  0.890100  0.253300  0.429500  1.0  2.0954
  Zr  Zr3  1  0.890100  0.746700  0.929500  1.0  2.0969
  Zr  Zr4  1  0.109900  0.746700  0.570500  1.0  2.0982
  P  P5  1  0.129400  0.117400  0.429500  1.0  1.4727
  P  P6  1  0.870600  0.117400  0.070500  1.0  1.4727
  P  P7  1  0.870600  0.882600  0.570500  1.0  1.4729
  P  P8  1  0.129400  0.882600  0.929500  1.0  1.4728
  P  P9  1  0.000000  0.542300  0.250000  1.0  1.7858
  P  P10  1  0.000000  0.457700  0.750000  1.0  1.787
  C  C11  1  0.194300  0.254000  0.556400  1.0  -0.1305
  C  C12  1  0.223800  0.211000  0.717000  1.0  0.03
  C  C13  1  0.349100  0.006400  0.717700  1.0  0.017
  C  C14  1  0.400300  0.948100  0.616900  1.0  0.1539
  C  C15  1  0.455200  0.027100  0.534000  1.0  0.0486
  C  C16  1  0.426600  0.183000  0.529100  1.0  0.0138
  C  C17  1  0.396600  0.246300  0.654900  1.0  0.0999
  C  C18  1  0.805700  0.254000  0.943600  1.0  -0.1322
  C  C19  1  0.776200  0.211000  0.783000  1.0  0.0322
  C  C20  1  0.650900  0.006400  0.782300  1.0  0.0202
  C  C21  1  0.599700  0.948100  0.883100  1.0  0.1547
  C  C22  1  0.544800  0.027100  0.966000  1.0  0.0489
  C  C23  1  0.573400  0.183000  0.970900  1.0  0.0123
  C  C24  1  0.603400  0.246300  0.845100  1.0  0.0974
  C  C25  1  0.805700  0.746000  0.443600  1.0  -0.1308
  C  C26  1  0.776200  0.789000  0.283000  1.0  0.0339
  C  C27  1  0.650900  0.993600  0.282300  1.0  0.0188
  C  C28  1  0.599700  0.051900  0.383100  1.0  0.1557
  C  C29  1  0.544800  0.972900  0.466000  1.0  0.048
  C  C30  1  0.573400  0.817000  0.470900  1.0  0.0137
  C  C31  1  0.603400  0.753700  0.345100  1.0  0.0984
  C  C32  1  0.194300  0.746000  0.056400  1.0  -0.1294
  C  C33  1  0.223800  0.789000  0.217000  1.0  0.0317
  C  C34  1  0.349100  0.993600  0.217700  1.0  0.0169
  C  C35  1  0.400300  0.051900  0.116900  1.0  0.1553
  C  C36  1  0.455200  0.972900  0.034000  1.0  0.0477
  C  C37  1  0.426600  0.817000  0.029100  1.0  0.0174
  C  C38  1  0.396600  0.753700  0.154900  1.0  0.0981
  N  N39  1  0.334700  0.165800  0.723200  1.0  -0.1355
  N  N40  1  0.665300  0.165800  0.776800  1.0  -0.1366
  N  N41  1  0.665300  0.834200  0.276800  1.0  -0.136
  N  N42  1  0.334700  0.834200  0.223200  1.0  -0.1353
  O  O43  1  0.153700  0.152700  0.276900  1.0  -0.8087
  O  O44  1  0.066000  0.440000  0.169800  1.0  -0.8255
  O  O45  1  0.065200  0.348500  0.866900  1.0  -0.8295
  O  O46  1  0.151700  0.948300  0.478900  1.0  -0.8046
  O  O47  1  0.020900  0.148800  0.438400  1.0  -0.8549
  O  O48  1  0.846300  0.152700  0.223100  1.0  -0.8095
  O  O49  1  0.934000  0.440000  0.330200  1.0  -0.8266
  O  O50  1  0.934800  0.348500  0.633100  1.0  -0.8313
  O  O51  1  0.848300  0.948300  0.021100  1.0  -0.8047
  O  O52  1  0.979100  0.148800  0.061600  1.0  -0.8552
  O  O53  1  0.846300  0.847300  0.723100  1.0  -0.8091
  O  O54  1  0.934000  0.560000  0.830200  1.0  -0.8272
  O  O55  1  0.934800  0.651500  0.133100  1.0  -0.8318
  O  O56  1  0.848300  0.051700  0.521100  1.0  -0.8048
  O  O57  1  0.979100  0.851200  0.561600  1.0  -0.8554
  O  O58  1  0.153700  0.847300  0.776900  1.0  -0.8088
  O  O59  1  0.066000  0.560000  0.669800  1.0  -0.8258
  O  O60  1  0.065200  0.651500  0.366900  1.0  -0.8297
  O  O61  1  0.151700  0.051700  0.978900  1.0  -0.8048
  O  O62  1  0.020900  0.851200  0.938400  1.0  -0.8551
  F  F63  1  0.250900  0.333900  0.081400  1.0  -0.4356
  F  F64  1  0.749100  0.333900  0.418600  1.0  -0.4381
  F  F65  1  0.749100  0.666100  0.918600  1.0  -0.438
  F  F66  1  0.250900  0.666100  0.581400  1.0  -0.4352
