# generated using pymatgen
data_CoH4C12NO3F4
_symmetry_space_group_name_H-M   'P 1'
_cell_length_a   6.40180000
_cell_length_b   8.99090000
_cell_length_c   26.27100000
_cell_angle_alpha   90.00000000
_cell_angle_beta   90.00000000
_cell_angle_gamma   90.00000000
_symmetry_Int_Tables_number   1
_chemical_formula_structural   CoH4C12NO3F4
_chemical_formula_sum   'Co4 H16 C48 N4 O12 F16'
_cell_volume   1512.10473684
_cell_formula_units_Z   4
loop_
 _symmetry_equiv_pos_site_id
 _symmetry_equiv_pos_as_xyz
  1  'x, y, z'
loop_
 _atom_site_type_symbol
 _atom_site_label
 _atom_site_symmetry_multiplicity
 _atom_site_fract_x
 _atom_site_fract_y
 _atom_site_fract_z
 _atom_site_occupancy
 _atom_site_charge
  Co  Co1  1  0.000000  0.000000  0.714770  1.0  1.0409
  Co  Co2  1  0.500000  0.000000  0.785230  1.0  1.0439
  Co  Co3  1  0.000000  0.000000  0.285230  1.0  1.0439
  Co  Co4  1  0.500000  0.000000  0.214770  1.0  1.0409
  H  H5  1  0.754400  0.876700  0.626500  1.0  0.0798
  H  H6  1  0.747900  0.872000  0.539400  1.0  0.1281
  H  H7  1  0.254400  0.123300  0.873500  1.0  0.0807
  H  H8  1  0.247900  0.128000  0.960600  1.0  0.1285
  H  H9  1  0.745600  0.876700  0.873500  1.0  0.0805
  H  H10  1  0.752100  0.872000  0.960600  1.0  0.1282
  H  H11  1  0.245600  0.123300  0.626500  1.0  0.0804
  H  H12  1  0.252100  0.128000  0.539400  1.0  0.1284
  H  H13  1  0.245600  0.123300  0.373500  1.0  0.0809
  H  H14  1  0.252100  0.128000  0.460600  1.0  0.1287
  H  H15  1  0.745600  0.876700  0.126500  1.0  0.0803
  H  H16  1  0.752100  0.872000  0.039400  1.0  0.1278
  H  H17  1  0.254400  0.123300  0.126500  1.0  0.08
  H  H18  1  0.247900  0.128000  0.039400  1.0  0.1283
  H  H19  1  0.754400  0.876700  0.373500  1.0  0.0802
  H  H20  1  0.747900  0.872000  0.460600  1.0  0.1282
  C  C21  1  0.756300  0.491600  0.794010  1.0  0.2242
  C  C22  1  0.760500  0.337200  0.794100  1.0  0.0734
  C  C23  1  0.857200  0.928100  0.608700  1.0  0.1987
  C  C24  1  0.851900  0.925000  0.556100  1.0  -0.1989
  C  C25  1  0.256300  0.508400  0.705990  1.0  0.2251
  C  C26  1  0.260500  0.662800  0.705900  1.0  0.0742
  C  C27  1  0.357200  0.071900  0.891300  1.0  0.198
  C  C28  1  0.351900  0.075000  0.943900  1.0  -0.1995
  C  C29  1  0.743700  0.491600  0.705990  1.0  0.2251
  C  C30  1  0.739500  0.337200  0.705900  1.0  0.0744
  C  C31  1  0.642800  0.928100  0.891300  1.0  0.1979
  C  C32  1  0.648100  0.925000  0.943900  1.0  -0.1986
  C  C33  1  0.243700  0.508400  0.794010  1.0  0.2244
  C  C34  1  0.239500  0.662800  0.794100  1.0  0.0734
  C  C35  1  0.142800  0.071900  0.608700  1.0  0.1978
  C  C36  1  0.148100  0.075000  0.556100  1.0  -0.1979
  C  C37  1  0.243700  0.508400  0.205990  1.0  0.2254
  C  C38  1  0.239500  0.662800  0.205900  1.0  0.0748
  C  C39  1  0.142800  0.071900  0.391300  1.0  0.1976
  C  C40  1  0.148100  0.075000  0.443900  1.0  -0.1985
  C  C41  1  0.743700  0.491600  0.294010  1.0  0.2243
  C  C42  1  0.739500  0.337200  0.294100  1.0  0.0733
  C  C43  1  0.642800  0.928100  0.108700  1.0  0.1982
  C  C44  1  0.648100  0.925000  0.056100  1.0  -0.1982
  C  C45  1  0.256300  0.508400  0.294010  1.0  0.2242
  C  C46  1  0.260500  0.662800  0.294100  1.0  0.0735
  C  C47  1  0.357200  0.071900  0.108700  1.0  0.1981
  C  C48  1  0.351900  0.075000  0.056100  1.0  -0.1985
  C  C49  1  0.756300  0.491600  0.205990  1.0  0.2248
  C  C50  1  0.760500  0.337200  0.205900  1.0  0.0738
  C  C51  1  0.857200  0.928100  0.391300  1.0  0.1982
  C  C52  1  0.851900  0.925000  0.443900  1.0  -0.1994
  C  C53  1  0.000000  0.000000  0.528700  1.0  0.094
  C  C54  1  0.500000  0.000000  0.971300  1.0  0.0938
  C  C55  1  0.000000  0.000000  0.471300  1.0  0.0938
  C  C56  1  0.500000  0.000000  0.028700  1.0  0.094
  C  C57  1  0.750000  0.741700  0.750000  1.0  0.7285
  C  C58  1  0.750000  0.573100  0.750000  1.0  -0.3315
  C  C59  1  0.750000  0.256000  0.750000  1.0  0.1986
  C  C60  1  0.250000  0.258300  0.750000  1.0  0.7284
  C  C61  1  0.250000  0.426900  0.750000  1.0  -0.3333
  C  C62  1  0.250000  0.744000  0.750000  1.0  0.1975
  C  C63  1  0.250000  0.258300  0.250000  1.0  0.7284
  C  C64  1  0.250000  0.426900  0.250000  1.0  -0.3333
  C  C65  1  0.250000  0.744000  0.250000  1.0  0.1975
  C  C66  1  0.750000  0.741700  0.250000  1.0  0.7285
  C  C67  1  0.750000  0.573100  0.250000  1.0  -0.3315
  C  C68  1  0.750000  0.256000  0.250000  1.0  0.1986
  N  N69  1  0.000000  0.000000  0.635000  1.0  -0.377
  N  N70  1  0.500000  0.000000  0.865000  1.0  -0.3814
  N  N71  1  0.000000  0.000000  0.365000  1.0  -0.3814
  N  N72  1  0.500000  0.000000  0.135000  1.0  -0.377
  O  O73  1  0.836200  0.804200  0.713080  1.0  -0.609
  O  O74  1  0.336200  0.195800  0.786920  1.0  -0.6093
  O  O75  1  0.663800  0.804200  0.786920  1.0  -0.6086
  O  O76  1  0.163800  0.195800  0.713080  1.0  -0.6079
  O  O77  1  0.163800  0.195800  0.286920  1.0  -0.6082
  O  O78  1  0.663800  0.804200  0.213080  1.0  -0.6083
  O  O79  1  0.336200  0.195800  0.213080  1.0  -0.6085
  O  O80  1  0.836200  0.804200  0.286920  1.0  -0.6096
  O  O81  1  0.750000  0.105100  0.750000  1.0  -0.6354
  O  O82  1  0.250000  0.894900  0.750000  1.0  -0.6355
  O  O83  1  0.250000  0.894900  0.250000  1.0  -0.6355
  O  O84  1  0.750000  0.105100  0.250000  1.0  -0.6354
  F  F85  1  0.766000  0.558800  0.840130  1.0  -0.1355
  F  F86  1  0.772800  0.265400  0.839230  1.0  -0.1213
  F  F87  1  0.266000  0.441200  0.659870  1.0  -0.1346
  F  F88  1  0.272800  0.734600  0.660770  1.0  -0.1203
  F  F89  1  0.734000  0.558800  0.659870  1.0  -0.1346
  F  F90  1  0.727200  0.265400  0.660770  1.0  -0.1206
  F  F91  1  0.234000  0.441200  0.840130  1.0  -0.1347
  F  F92  1  0.227200  0.734600  0.839230  1.0  -0.1213
  F  F93  1  0.234000  0.441200  0.159870  1.0  -0.1345
  F  F94  1  0.227200  0.734600  0.160770  1.0  -0.1206
  F  F95  1  0.734000  0.558800  0.340130  1.0  -0.1354
  F  F96  1  0.727200  0.265400  0.339230  1.0  -0.1209
  F  F97  1  0.266000  0.441200  0.340130  1.0  -0.1351
  F  F98  1  0.272800  0.734600  0.339230  1.0  -0.1213
  F  F99  1  0.766000  0.558800  0.159870  1.0  -0.1347
  F  F100  1  0.772800  0.265400  0.160770  1.0  -0.1206
