# generated using pymatgen
data_ZnB(PO4)2
_symmetry_space_group_name_H-M   'P 1'
_cell_length_a   9.66730000
_cell_length_b   9.66730000
_cell_length_c   14.86000000
_cell_angle_alpha   90.00000000
_cell_angle_beta   90.00000000
_cell_angle_gamma   120.00000000
_symmetry_Int_Tables_number   1
_chemical_formula_structural   ZnB(PO4)2
_chemical_formula_sum   'Zn6 B6 P12 O48'
_cell_volume   1202.70698479
_cell_formula_units_Z   6
loop_
 _symmetry_equiv_pos_site_id
 _symmetry_equiv_pos_as_xyz
  1  'x, y, z'
loop_
 _atom_site_type_symbol
 _atom_site_label
 _atom_site_symmetry_multiplicity
 _atom_site_fract_x
 _atom_site_fract_y
 _atom_site_fract_z
 _atom_site_occupancy
 _atom_site_charge
  Zn  Zn1  1  0.489810  0.510190  0.083330  1.0  1.1433
  Zn  Zn2  1  0.489810  0.979620  0.750000  1.0  1.1431
  Zn  Zn3  1  0.020380  0.510190  0.416670  1.0  1.1421
  Zn  Zn4  1  0.510190  0.489810  0.583330  1.0  1.1417
  Zn  Zn5  1  0.510190  0.020380  0.250000  1.0  1.1441
  Zn  Zn6  1  0.979620  0.489810  0.916670  1.0  1.1431
  B  B7  1  0.836100  0.672200  0.250000  1.0  0.8966
  B  B8  1  0.327800  0.163900  0.916670  1.0  0.8959
  B  B9  1  0.836100  0.163900  0.583330  1.0  0.8962
  B  B10  1  0.163900  0.327800  0.750000  1.0  0.8965
  B  B11  1  0.672200  0.836100  0.416670  1.0  0.8966
  B  B12  1  0.163900  0.836100  0.083330  1.0  0.8963
  P  P13  1  0.608430  0.763310  0.239800  1.0  1.784
  P  P14  1  0.236690  0.845120  0.906470  1.0  1.7863
  P  P15  1  0.154880  0.391570  0.573130  1.0  1.7865
  P  P16  1  0.391570  0.236690  0.739800  1.0  1.7855
  P  P17  1  0.763310  0.154880  0.406470  1.0  1.7859
  P  P18  1  0.845120  0.608430  0.073130  1.0  1.7843
  P  P19  1  0.763310  0.608430  0.426870  1.0  1.7876
  P  P20  1  0.845120  0.236690  0.760200  1.0  1.785
  P  P21  1  0.391570  0.154880  0.093530  1.0  1.787
  P  P22  1  0.236690  0.391570  0.926870  1.0  1.7856
  P  P23  1  0.154880  0.763310  0.260200  1.0  1.7862
  P  P24  1  0.608430  0.845120  0.593530  1.0  1.7872
  O  O25  1  0.776100  0.780900  0.226780  1.0  -0.6508
  O  O26  1  0.479400  0.615200  0.192880  1.0  -0.8041
  O  O27  1  0.705600  0.621900  0.037670  1.0  -0.7901
  O  O28  1  0.565800  0.745100  0.342080  1.0  -0.5597
  O  O29  1  0.219100  0.995200  0.893450  1.0  -0.6489
  O  O30  1  0.384800  0.864200  0.859550  1.0  -0.8042
  O  O31  1  0.378100  0.083700  0.704340  1.0  -0.7928
  O  O32  1  0.254900  0.820700  0.008750  1.0  -0.5593
  O  O33  1  0.004800  0.223900  0.560110  1.0  -0.6482
  O  O34  1  0.135800  0.520600  0.526210  1.0  -0.8058
  O  O35  1  0.916300  0.294400  0.371000  1.0  -0.7906
  O  O36  1  0.179300  0.434200  0.675410  1.0  -0.5624
  O  O37  1  0.223900  0.219100  0.726780  1.0  -0.6517
  O  O38  1  0.520600  0.384800  0.692880  1.0  -0.8037
  O  O39  1  0.294400  0.378100  0.537670  1.0  -0.7902
  O  O40  1  0.434200  0.254900  0.842080  1.0  -0.5597
  O  O41  1  0.780900  0.004800  0.393450  1.0  -0.6479
  O  O42  1  0.615200  0.135800  0.359550  1.0  -0.8036
  O  O43  1  0.621900  0.916300  0.204340  1.0  -0.7919
  O  O44  1  0.745100  0.179300  0.508750  1.0  -0.558
  O  O45  1  0.995200  0.776100  0.060110  1.0  -0.6463
  O  O46  1  0.864200  0.479400  0.026210  1.0  -0.8076
  O  O47  1  0.083700  0.705600  0.871000  1.0  -0.7896
  O  O48  1  0.820700  0.565800  0.175410  1.0  -0.5625
  O  O49  1  0.780900  0.776100  0.439890  1.0  -0.6479
  O  O50  1  0.615200  0.479400  0.473790  1.0  -0.8073
  O  O51  1  0.621900  0.705600  0.629000  1.0  -0.7896
  O  O52  1  0.745100  0.565800  0.324590  1.0  -0.5618
  O  O53  1  0.995200  0.219100  0.773220  1.0  -0.6521
  O  O54  1  0.864200  0.384800  0.807120  1.0  -0.804
  O  O55  1  0.083700  0.378100  0.962330  1.0  -0.7903
  O  O56  1  0.820700  0.254900  0.657920  1.0  -0.5587
  O  O57  1  0.223900  0.004800  0.106550  1.0  -0.6495
  O  O58  1  0.520600  0.135800  0.140450  1.0  -0.8045
  O  O59  1  0.294400  0.916300  0.295660  1.0  -0.7926
  O  O60  1  0.434200  0.179300  0.991250  1.0  -0.5593
  O  O61  1  0.219100  0.223900  0.939890  1.0  -0.6489
  O  O62  1  0.384800  0.520600  0.973790  1.0  -0.8071
  O  O63  1  0.378100  0.294400  0.129000  1.0  -0.7899
  O  O64  1  0.254900  0.434200  0.824590  1.0  -0.5628
  O  O65  1  0.004800  0.780900  0.273220  1.0  -0.6528
  O  O66  1  0.135800  0.615200  0.307120  1.0  -0.8045
  O  O67  1  0.916300  0.621900  0.462330  1.0  -0.789
  O  O68  1  0.179300  0.745100  0.157920  1.0  -0.5604
  O  O69  1  0.776100  0.995200  0.606550  1.0  -0.6504
  O  O70  1  0.479400  0.864200  0.640450  1.0  -0.8043
  O  O71  1  0.705600  0.083700  0.795660  1.0  -0.7915
  O  O72  1  0.565800  0.820700  0.491250  1.0  -0.5577
