# generated using pymatgen
data_AgH16(C7N)4
_symmetry_space_group_name_H-M   'P 1'
_cell_length_a   5.77160000
_cell_length_b   29.45170000
_cell_length_c   30.51190000
_cell_angle_alpha   90.00000000
_cell_angle_beta   90.00000000
_cell_angle_gamma   90.00000000
_symmetry_Int_Tables_number   1
_chemical_formula_structural   AgH16(C7N)4
_chemical_formula_sum   'Ag8 H128 C224 N32'
_cell_volume   5186.51747030
_cell_formula_units_Z   8
loop_
 _symmetry_equiv_pos_site_id
 _symmetry_equiv_pos_as_xyz
  1  'x, y, z'
loop_
 _atom_site_type_symbol
 _atom_site_label
 _atom_site_symmetry_multiplicity
 _atom_site_fract_x
 _atom_site_fract_y
 _atom_site_fract_z
 _atom_site_occupancy
 _atom_site_charge
  Ag  Ag1  1  0.125000  0.125000  0.125000  1.0  0.4305
  Ag  Ag2  1  0.125000  0.625000  0.625000  1.0  0.4305
  Ag  Ag3  1  0.625000  0.125000  0.625000  1.0  0.4305
  Ag  Ag4  1  0.625000  0.625000  0.125000  1.0  0.4305
  Ag  Ag5  1  0.875000  0.875000  0.875000  1.0  0.4305
  Ag  Ag6  1  0.875000  0.375000  0.375000  1.0  0.4305
  Ag  Ag7  1  0.375000  0.875000  0.375000  1.0  0.4305
  Ag  Ag8  1  0.375000  0.375000  0.875000  1.0  0.4305
  H  H9  1  0.803600  0.251300  0.095400  1.0  0.143
  H  H10  1  0.123800  0.284200  0.060800  1.0  0.1361
  H  H11  1  0.114200  0.186200  0.969300  1.0  0.14
  H  H12  1  0.794200  0.154200  0.002600  1.0  0.1255
  H  H13  1  0.803600  0.751300  0.595400  1.0  0.143
  H  H14  1  0.123800  0.784200  0.560800  1.0  0.1361
  H  H15  1  0.114200  0.686200  0.469300  1.0  0.14
  H  H16  1  0.794200  0.654200  0.502600  1.0  0.1255
  H  H17  1  0.303600  0.251300  0.595400  1.0  0.143
  H  H18  1  0.623800  0.284200  0.560800  1.0  0.1361
  H  H19  1  0.614200  0.186200  0.469300  1.0  0.14
  H  H20  1  0.294200  0.154200  0.502600  1.0  0.1255
  H  H21  1  0.303600  0.751300  0.095400  1.0  0.143
  H  H22  1  0.623800  0.784200  0.060800  1.0  0.1361
  H  H23  1  0.614200  0.686200  0.969300  1.0  0.14
  H  H24  1  0.294200  0.654200  0.002600  1.0  0.1255
  H  H25  1  0.946400  0.498700  0.095400  1.0  0.1435
  H  H26  1  0.626200  0.465800  0.060800  1.0  0.1353
  H  H27  1  0.635800  0.563800  0.969300  1.0  0.1395
  H  H28  1  0.955800  0.595800  0.002600  1.0  0.1257
  H  H29  1  0.946400  0.998700  0.595400  1.0  0.1435
  H  H30  1  0.626200  0.965800  0.560800  1.0  0.1353
  H  H31  1  0.635800  0.063800  0.469300  1.0  0.1395
  H  H32  1  0.955800  0.095800  0.502600  1.0  0.1257
  H  H33  1  0.446400  0.498700  0.595400  1.0  0.1435
  H  H34  1  0.126200  0.465800  0.560800  1.0  0.1353
  H  H35  1  0.135800  0.563800  0.469300  1.0  0.1395
  H  H36  1  0.455800  0.595800  0.502600  1.0  0.1257
  H  H37  1  0.446400  0.998700  0.095400  1.0  0.1435
  H  H38  1  0.126200  0.965800  0.060800  1.0  0.1353
  H  H39  1  0.135800  0.063800  0.969300  1.0  0.1395
  H  H40  1  0.455800  0.095800  0.002600  1.0  0.1257
  H  H41  1  0.946400  0.251300  0.654600  1.0  0.1434
  H  H42  1  0.626200  0.284200  0.689200  1.0  0.1353
  H  H43  1  0.635800  0.186200  0.780700  1.0  0.1393
  H  H44  1  0.955800  0.154200  0.747400  1.0  0.126
  H  H45  1  0.946400  0.751300  0.154600  1.0  0.1434
  H  H46  1  0.626200  0.784200  0.189200  1.0  0.1353
  H  H47  1  0.635800  0.686200  0.280700  1.0  0.1393
  H  H48  1  0.955800  0.654200  0.247400  1.0  0.126
  H  H49  1  0.446400  0.251300  0.154600  1.0  0.1434
  H  H50  1  0.126200  0.284200  0.189200  1.0  0.1353
  H  H51  1  0.135800  0.186200  0.280700  1.0  0.1393
  H  H52  1  0.455800  0.154200  0.247400  1.0  0.126
  H  H53  1  0.446400  0.751300  0.654600  1.0  0.1434
  H  H54  1  0.126200  0.784200  0.689200  1.0  0.1353
  H  H55  1  0.135800  0.686200  0.780700  1.0  0.1393
  H  H56  1  0.455800  0.654200  0.747400  1.0  0.126
  H  H57  1  0.803600  0.498700  0.654600  1.0  0.1431
  H  H58  1  0.123800  0.465800  0.689200  1.0  0.1361
  H  H59  1  0.114200  0.563800  0.780700  1.0  0.1398
  H  H60  1  0.794200  0.595800  0.747400  1.0  0.1255
  H  H61  1  0.803600  0.998700  0.154600  1.0  0.1431
  H  H62  1  0.123800  0.965800  0.189200  1.0  0.1361
  H  H63  1  0.114200  0.063800  0.280700  1.0  0.1398
  H  H64  1  0.794200  0.095800  0.247400  1.0  0.1255
  H  H65  1  0.303600  0.498700  0.154600  1.0  0.1431
  H  H66  1  0.623800  0.465800  0.189200  1.0  0.1361
  H  H67  1  0.614200  0.563800  0.280700  1.0  0.1398
  H  H68  1  0.294200  0.595800  0.247400  1.0  0.1255
  H  H69  1  0.303600  0.998700  0.654600  1.0  0.1431
  H  H70  1  0.623800  0.965800  0.689200  1.0  0.1361
  H  H71  1  0.614200  0.063800  0.780700  1.0  0.1398
  H  H72  1  0.294200  0.095800  0.747400  1.0  0.1255
  H  H73  1  0.196400  0.748700  0.904600  1.0  0.1435
  H  H74  1  0.876200  0.715800  0.939200  1.0  0.1352
  H  H75  1  0.885800  0.813800  0.030700  1.0  0.1392
  H  H76  1  0.205800  0.845800  0.997400  1.0  0.1255
  H  H77  1  0.196400  0.248700  0.404600  1.0  0.1435
  H  H78  1  0.876200  0.215800  0.439200  1.0  0.1352
  H  H79  1  0.885800  0.313800  0.530700  1.0  0.1392
  H  H80  1  0.205800  0.345800  0.497400  1.0  0.1255
  H  H81  1  0.696400  0.748700  0.404600  1.0  0.1435
  H  H82  1  0.376200  0.715800  0.439200  1.0  0.1352
  H  H83  1  0.385800  0.813800  0.530700  1.0  0.1392
  H  H84  1  0.705800  0.845800  0.497400  1.0  0.1255
  H  H85  1  0.696400  0.248700  0.904600  1.0  0.1435
  H  H86  1  0.376200  0.215800  0.939200  1.0  0.1352
  H  H87  1  0.385800  0.313800  0.030700  1.0  0.1392
  H  H88  1  0.705800  0.345800  0.997400  1.0  0.1255
  H  H89  1  0.053600  0.501300  0.904600  1.0  0.1431
  H  H90  1  0.373800  0.534200  0.939200  1.0  0.1357
  H  H91  1  0.364200  0.436200  0.030700  1.0  0.14
  H  H92  1  0.044200  0.404200  0.997400  1.0  0.1255
  H  H93  1  0.053600  0.001300  0.404600  1.0  0.1431
  H  H94  1  0.373800  0.034200  0.439200  1.0  0.1357
  H  H95  1  0.364200  0.936200  0.530700  1.0  0.14
  H  H96  1  0.044200  0.904200  0.497400  1.0  0.1255
  H  H97  1  0.553600  0.501300  0.404600  1.0  0.1431
  H  H98  1  0.873800  0.534200  0.439200  1.0  0.1357
  H  H99  1  0.864200  0.436200  0.530700  1.0  0.14
  H  H100  1  0.544200  0.404200  0.497400  1.0  0.1255
  H  H101  1  0.553600  0.001300  0.904600  1.0  0.1431
  H  H102  1  0.873800  0.034200  0.939200  1.0  0.1357
  H  H103  1  0.864200  0.936200  0.030700  1.0  0.14
  H  H104  1  0.544200  0.904200  0.997400  1.0  0.1255
  H  H105  1  0.053600  0.748700  0.345400  1.0  0.1433
  H  H106  1  0.373800  0.715800  0.310800  1.0  0.1365
  H  H107  1  0.364200  0.813800  0.219300  1.0  0.1395
  H  H108  1  0.044200  0.845800  0.252600  1.0  0.1258
  H  H109  1  0.053600  0.248700  0.845400  1.0  0.1433
  H  H110  1  0.373800  0.215800  0.810800  1.0  0.1365
  H  H111  1  0.364200  0.313800  0.719300  1.0  0.1395
  H  H112  1  0.044200  0.345800  0.752600  1.0  0.1258
  H  H113  1  0.553600  0.748700  0.845400  1.0  0.1433
  H  H114  1  0.873800  0.715800  0.810800  1.0  0.1365
  H  H115  1  0.864200  0.813800  0.719300  1.0  0.1395
  H  H116  1  0.544200  0.845800  0.752600  1.0  0.1258
  H  H117  1  0.553600  0.248700  0.345400  1.0  0.1433
  H  H118  1  0.873800  0.215800  0.310800  1.0  0.1365
  H  H119  1  0.864200  0.313800  0.219300  1.0  0.1395
  H  H120  1  0.544200  0.345800  0.252600  1.0  0.1258
  H  H121  1  0.196400  0.501300  0.345400  1.0  0.1433
  H  H122  1  0.876200  0.534200  0.310800  1.0  0.1353
  H  H123  1  0.885800  0.436200  0.219300  1.0  0.1398
  H  H124  1  0.205800  0.404200  0.252600  1.0  0.1258
  H  H125  1  0.196400  0.001300  0.845400  1.0  0.1433
  H  H126  1  0.876200  0.034200  0.810800  1.0  0.1353
  H  H127  1  0.885800  0.936200  0.719300  1.0  0.1398
  H  H128  1  0.205800  0.904200  0.752600  1.0  0.1258
  H  H129  1  0.696400  0.501300  0.845400  1.0  0.1433
  H  H130  1  0.376200  0.534200  0.810800  1.0  0.1353
  H  H131  1  0.385800  0.436200  0.719300  1.0  0.1398
  H  H132  1  0.705800  0.404200  0.752600  1.0  0.1258
  H  H133  1  0.696400  0.001300  0.345400  1.0  0.1433
  H  H134  1  0.376200  0.034200  0.310800  1.0  0.1353
  H  H135  1  0.385800  0.936200  0.219300  1.0  0.1398
  H  H136  1  0.705800  0.904200  0.252600  1.0  0.1258
  C  C137  1  0.763800  0.200000  0.051300  1.0  -0.0418
  C  C138  1  0.864100  0.238300  0.069300  1.0  -0.1152
  C  C139  1  0.055900  0.257700  0.048600  1.0  -0.0851
  C  C140  1  0.148700  0.239600  0.011200  1.0  0.0126
  C  C141  1  0.049700  0.200100  0.994600  1.0  -0.1167
  C  C142  1  0.860100  0.181000  0.014500  1.0  -0.0721
  C  C143  1  0.560800  0.180700  0.071000  1.0  0.3669
  C  C144  1  0.763800  0.700000  0.551300  1.0  -0.0418
  C  C145  1  0.864100  0.738300  0.569300  1.0  -0.1152
  C  C146  1  0.055900  0.757700  0.548600  1.0  -0.0851
  C  C147  1  0.148700  0.739600  0.511200  1.0  0.0126
  C  C148  1  0.049700  0.700100  0.494600  1.0  -0.1167
  C  C149  1  0.860100  0.681000  0.514500  1.0  -0.0721
  C  C150  1  0.560800  0.680700  0.571000  1.0  0.3669
  C  C151  1  0.263800  0.200000  0.551300  1.0  -0.0418
  C  C152  1  0.364100  0.238300  0.569300  1.0  -0.1152
  C  C153  1  0.555900  0.257700  0.548600  1.0  -0.0851
  C  C154  1  0.648700  0.239600  0.511200  1.0  0.0126
  C  C155  1  0.549700  0.200100  0.494600  1.0  -0.1167
  C  C156  1  0.360100  0.181000  0.514500  1.0  -0.0721
  C  C157  1  0.060800  0.180700  0.571000  1.0  0.3669
  C  C158  1  0.263800  0.700000  0.051300  1.0  -0.0418
  C  C159  1  0.364100  0.738300  0.069300  1.0  -0.1152
  C  C160  1  0.555900  0.757700  0.048600  1.0  -0.0851
  C  C161  1  0.648700  0.739600  0.011200  1.0  0.0126
  C  C162  1  0.549700  0.700100  0.994600  1.0  -0.1167
  C  C163  1  0.360100  0.681000  0.014500  1.0  -0.0721
  C  C164  1  0.060800  0.680700  0.071000  1.0  0.3669
  C  C165  1  0.986200  0.550000  0.051300  1.0  -0.0424
  C  C166  1  0.885900  0.511700  0.069300  1.0  -0.1141
  C  C167  1  0.694100  0.492300  0.048600  1.0  -0.087
  C  C168  1  0.601300  0.510400  0.011200  1.0  0.0129
  C  C169  1  0.700300  0.549900  0.994600  1.0  -0.1176
  C  C170  1  0.889900  0.569000  0.014500  1.0  -0.0715
  C  C171  1  0.189200  0.569300  0.071000  1.0  0.3662
  C  C172  1  0.986200  0.050000  0.551300  1.0  -0.0424
  C  C173  1  0.885900  0.011700  0.569300  1.0  -0.1141
  C  C174  1  0.694100  0.992300  0.548600  1.0  -0.087
  C  C175  1  0.601300  0.010400  0.511200  1.0  0.0129
  C  C176  1  0.700300  0.049900  0.494600  1.0  -0.1176
  C  C177  1  0.889900  0.069000  0.514500  1.0  -0.0715
  C  C178  1  0.189200  0.069300  0.571000  1.0  0.3662
  C  C179  1  0.486200  0.550000  0.551300  1.0  -0.0424
  C  C180  1  0.385900  0.511700  0.569300  1.0  -0.1141
  C  C181  1  0.194100  0.492300  0.548600  1.0  -0.087
  C  C182  1  0.101300  0.510400  0.511200  1.0  0.0129
  C  C183  1  0.200300  0.549900  0.494600  1.0  -0.1176
  C  C184  1  0.389900  0.569000  0.514500  1.0  -0.0715
  C  C185  1  0.689200  0.569300  0.571000  1.0  0.3662
  C  C186  1  0.486200  0.050000  0.051300  1.0  -0.0424
  C  C187  1  0.385900  0.011700  0.069300  1.0  -0.1141
  C  C188  1  0.194100  0.992300  0.048600  1.0  -0.087
  C  C189  1  0.101300  0.010400  0.011200  1.0  0.0129
  C  C190  1  0.200300  0.049900  0.994600  1.0  -0.1176
  C  C191  1  0.389900  0.069000  0.014500  1.0  -0.0715
  C  C192  1  0.689200  0.069300  0.071000  1.0  0.3662
  C  C193  1  0.986200  0.200000  0.698700  1.0  -0.0419
  C  C194  1  0.885900  0.238300  0.680700  1.0  -0.1139
  C  C195  1  0.694100  0.257700  0.701400  1.0  -0.0864
  C  C196  1  0.601300  0.239600  0.738800  1.0  0.013
  C  C197  1  0.700300  0.200100  0.755400  1.0  -0.1173
  C  C198  1  0.889900  0.181000  0.735500  1.0  -0.0715
  C  C199  1  0.189200  0.180700  0.679000  1.0  0.3664
  C  C200  1  0.986200  0.700000  0.198700  1.0  -0.0419
  C  C201  1  0.885900  0.738300  0.180700  1.0  -0.1139
  C  C202  1  0.694100  0.757700  0.201400  1.0  -0.0864
  C  C203  1  0.601300  0.739600  0.238800  1.0  0.013
  C  C204  1  0.700300  0.700100  0.255400  1.0  -0.1173
  C  C205  1  0.889900  0.681000  0.235500  1.0  -0.0715
  C  C206  1  0.189200  0.680700  0.179000  1.0  0.3664
  C  C207  1  0.486200  0.200000  0.198700  1.0  -0.0419
  C  C208  1  0.385900  0.238300  0.180700  1.0  -0.1139
  C  C209  1  0.194100  0.257700  0.201400  1.0  -0.0864
  C  C210  1  0.101300  0.239600  0.238800  1.0  0.013
  C  C211  1  0.200300  0.200100  0.255400  1.0  -0.1173
  C  C212  1  0.389900  0.181000  0.235500  1.0  -0.0715
  C  C213  1  0.689200  0.180700  0.179000  1.0  0.3664
  C  C214  1  0.486200  0.700000  0.698700  1.0  -0.0419
  C  C215  1  0.385900  0.738300  0.680700  1.0  -0.1139
  C  C216  1  0.194100  0.757700  0.701400  1.0  -0.0864
  C  C217  1  0.101300  0.739600  0.738800  1.0  0.013
  C  C218  1  0.200300  0.700100  0.755400  1.0  -0.1173
  C  C219  1  0.389900  0.681000  0.735500  1.0  -0.0715
  C  C220  1  0.689200  0.680700  0.679000  1.0  0.3664
  C  C221  1  0.763800  0.550000  0.698700  1.0  -0.0423
  C  C222  1  0.864100  0.511700  0.680700  1.0  -0.1144
  C  C223  1  0.055900  0.492300  0.701400  1.0  -0.0864
  C  C224  1  0.148700  0.510400  0.738800  1.0  0.0127
  C  C225  1  0.049700  0.549900  0.755400  1.0  -0.1174
  C  C226  1  0.860100  0.569000  0.735500  1.0  -0.0729
  C  C227  1  0.560800  0.569300  0.679000  1.0  0.3667
  C  C228  1  0.763800  0.050000  0.198700  1.0  -0.0423
  C  C229  1  0.864100  0.011700  0.180700  1.0  -0.1144
  C  C230  1  0.055900  0.992300  0.201400  1.0  -0.0864
  C  C231  1  0.148700  0.010400  0.238800  1.0  0.0127
  C  C232  1  0.049700  0.049900  0.255400  1.0  -0.1174
  C  C233  1  0.860100  0.069000  0.235500  1.0  -0.0729
  C  C234  1  0.560800  0.069300  0.179000  1.0  0.3667
  C  C235  1  0.263800  0.550000  0.198700  1.0  -0.0423
  C  C236  1  0.364100  0.511700  0.180700  1.0  -0.1144
  C  C237  1  0.555900  0.492300  0.201400  1.0  -0.0864
  C  C238  1  0.648700  0.510400  0.238800  1.0  0.0127
  C  C239  1  0.549700  0.549900  0.255400  1.0  -0.1174
  C  C240  1  0.360100  0.569000  0.235500  1.0  -0.0729
  C  C241  1  0.060800  0.569300  0.179000  1.0  0.3667
  C  C242  1  0.263800  0.050000  0.698700  1.0  -0.0423
  C  C243  1  0.364100  0.011700  0.680700  1.0  -0.1144
  C  C244  1  0.555900  0.992300  0.701400  1.0  -0.0864
  C  C245  1  0.648700  0.010400  0.738800  1.0  0.0127
  C  C246  1  0.549700  0.049900  0.755400  1.0  -0.1174
  C  C247  1  0.360100  0.069000  0.735500  1.0  -0.0729
  C  C248  1  0.060800  0.069300  0.679000  1.0  0.3667
  C  C249  1  0.236200  0.800000  0.948700  1.0  -0.0417
  C  C250  1  0.135900  0.761700  0.930700  1.0  -0.1143
  C  C251  1  0.944100  0.742300  0.951400  1.0  -0.0876
  C  C252  1  0.851300  0.760400  0.988800  1.0  0.013
  C  C253  1  0.950300  0.799900  0.005400  1.0  -0.1124
  C  C254  1  0.139900  0.819000  0.985500  1.0  -0.0714
  C  C255  1  0.439200  0.819300  0.929000  1.0  0.3666
  C  C256  1  0.236200  0.300000  0.448700  1.0  -0.0417
  C  C257  1  0.135900  0.261700  0.430700  1.0  -0.1143
  C  C258  1  0.944100  0.242300  0.451400  1.0  -0.0876
  C  C259  1  0.851300  0.260400  0.488800  1.0  0.013
  C  C260  1  0.950300  0.299900  0.505400  1.0  -0.1124
  C  C261  1  0.139900  0.319000  0.485500  1.0  -0.0714
  C  C262  1  0.439200  0.319300  0.429000  1.0  0.3666
  C  C263  1  0.736200  0.800000  0.448700  1.0  -0.0417
  C  C264  1  0.635900  0.761700  0.430700  1.0  -0.1143
  C  C265  1  0.444100  0.742300  0.451400  1.0  -0.0876
  C  C266  1  0.351300  0.760400  0.488800  1.0  0.013
  C  C267  1  0.450300  0.799900  0.505400  1.0  -0.1124
  C  C268  1  0.639900  0.819000  0.485500  1.0  -0.0714
  C  C269  1  0.939200  0.819300  0.429000  1.0  0.3666
  C  C270  1  0.736200  0.300000  0.948700  1.0  -0.0417
  C  C271  1  0.635900  0.261700  0.930700  1.0  -0.1143
  C  C272  1  0.444100  0.242300  0.951400  1.0  -0.0876
  C  C273  1  0.351300  0.260400  0.988800  1.0  0.013
  C  C274  1  0.450300  0.299900  0.005400  1.0  -0.1124
  C  C275  1  0.639900  0.319000  0.985500  1.0  -0.0714
  C  C276  1  0.939200  0.319300  0.929000  1.0  0.3666
  C  C277  1  0.013800  0.450000  0.948700  1.0  -0.043
  C  C278  1  0.114100  0.488300  0.930700  1.0  -0.114
  C  C279  1  0.305900  0.507700  0.951400  1.0  -0.0879
  C  C280  1  0.398700  0.489600  0.988800  1.0  0.0127
  C  C281  1  0.299700  0.450100  0.005400  1.0  -0.1117
  C  C282  1  0.110100  0.431000  0.985500  1.0  -0.0721
  C  C283  1  0.810800  0.430700  0.929000  1.0  0.3666
  C  C284  1  0.013800  0.950000  0.448700  1.0  -0.043
  C  C285  1  0.114100  0.988300  0.430700  1.0  -0.114
  C  C286  1  0.305900  0.007700  0.451400  1.0  -0.0879
  C  C287  1  0.398700  0.989600  0.488800  1.0  0.0127
  C  C288  1  0.299700  0.950100  0.505400  1.0  -0.1117
  C  C289  1  0.110100  0.931000  0.485500  1.0  -0.0721
  C  C290  1  0.810800  0.930700  0.429000  1.0  0.3666
  C  C291  1  0.513800  0.450000  0.448700  1.0  -0.043
  C  C292  1  0.614100  0.488300  0.430700  1.0  -0.114
  C  C293  1  0.805900  0.507700  0.451400  1.0  -0.0879
  C  C294  1  0.898700  0.489600  0.488800  1.0  0.0127
  C  C295  1  0.799700  0.450100  0.505400  1.0  -0.1117
  C  C296  1  0.610100  0.431000  0.485500  1.0  -0.0721
  C  C297  1  0.310800  0.430700  0.429000  1.0  0.3666
  C  C298  1  0.513800  0.950000  0.948700  1.0  -0.043
  C  C299  1  0.614100  0.988300  0.930700  1.0  -0.114
  C  C300  1  0.805900  0.007700  0.951400  1.0  -0.0879
  C  C301  1  0.898700  0.989600  0.988800  1.0  0.0127
  C  C302  1  0.799700  0.950100  0.005400  1.0  -0.1117
  C  C303  1  0.610100  0.931000  0.985500  1.0  -0.0721
  C  C304  1  0.310800  0.930700  0.929000  1.0  0.3666
  C  C305  1  0.013800  0.800000  0.301300  1.0  -0.0425
  C  C306  1  0.114100  0.761700  0.319300  1.0  -0.1151
  C  C307  1  0.305900  0.742300  0.298600  1.0  -0.0879
  C  C308  1  0.398700  0.760400  0.261200  1.0  0.0126
  C  C309  1  0.299700  0.799900  0.244600  1.0  -0.1114
  C  C310  1  0.110100  0.819000  0.264500  1.0  -0.0729
  C  C311  1  0.810800  0.819300  0.321000  1.0  0.3667
  C  C312  1  0.013800  0.300000  0.801300  1.0  -0.0425
  C  C313  1  0.114100  0.261700  0.819300  1.0  -0.1151
  C  C314  1  0.305900  0.242300  0.798600  1.0  -0.0879
  C  C315  1  0.398700  0.260400  0.761200  1.0  0.0126
  C  C316  1  0.299700  0.299900  0.744600  1.0  -0.1114
  C  C317  1  0.110100  0.319000  0.764500  1.0  -0.0729
  C  C318  1  0.810800  0.319300  0.821000  1.0  0.3667
  C  C319  1  0.513800  0.800000  0.801300  1.0  -0.0425
  C  C320  1  0.614100  0.761700  0.819300  1.0  -0.1151
  C  C321  1  0.805900  0.742300  0.798600  1.0  -0.0879
  C  C322  1  0.898700  0.760400  0.761200  1.0  0.0126
  C  C323  1  0.799700  0.799900  0.744600  1.0  -0.1114
  C  C324  1  0.610100  0.819000  0.764500  1.0  -0.0729
  C  C325  1  0.310800  0.819300  0.821000  1.0  0.3667
  C  C326  1  0.513800  0.300000  0.301300  1.0  -0.0425
  C  C327  1  0.614100  0.261700  0.319300  1.0  -0.1151
  C  C328  1  0.805900  0.242300  0.298600  1.0  -0.0879
  C  C329  1  0.898700  0.260400  0.261200  1.0  0.0126
  C  C330  1  0.799700  0.299900  0.244600  1.0  -0.1114
  C  C331  1  0.610100  0.319000  0.264500  1.0  -0.0729
  C  C332  1  0.310800  0.319300  0.321000  1.0  0.3667
  C  C333  1  0.236200  0.450000  0.301300  1.0  -0.0412
  C  C334  1  0.135900  0.488300  0.319300  1.0  -0.114
  C  C335  1  0.944100  0.507700  0.298600  1.0  -0.0867
  C  C336  1  0.851300  0.489600  0.261200  1.0  0.0129
  C  C337  1  0.950300  0.450100  0.244600  1.0  -0.1113
  C  C338  1  0.139900  0.431000  0.264500  1.0  -0.0716
  C  C339  1  0.439200  0.430700  0.321000  1.0  0.3664
  C  C340  1  0.236200  0.950000  0.801300  1.0  -0.0412
  C  C341  1  0.135900  0.988300  0.819300  1.0  -0.114
  C  C342  1  0.944100  0.007700  0.798600  1.0  -0.0867
  C  C343  1  0.851300  0.989600  0.761200  1.0  0.0129
  C  C344  1  0.950300  0.950100  0.744600  1.0  -0.1113
  C  C345  1  0.139900  0.931000  0.764500  1.0  -0.0716
  C  C346  1  0.439200  0.930700  0.821000  1.0  0.3664
  C  C347  1  0.736200  0.450000  0.801300  1.0  -0.0412
  C  C348  1  0.635900  0.488300  0.819300  1.0  -0.114
  C  C349  1  0.444100  0.507700  0.798600  1.0  -0.0867
  C  C350  1  0.351300  0.489600  0.761200  1.0  0.0129
  C  C351  1  0.450300  0.450100  0.744600  1.0  -0.1113
  C  C352  1  0.639900  0.431000  0.764500  1.0  -0.0716
  C  C353  1  0.939200  0.430700  0.821000  1.0  0.3664
  C  C354  1  0.736200  0.950000  0.301300  1.0  -0.0412
  C  C355  1  0.635900  0.988300  0.319300  1.0  -0.114
  C  C356  1  0.444100  0.007700  0.298600  1.0  -0.0867
  C  C357  1  0.351300  0.989600  0.261200  1.0  0.0129
  C  C358  1  0.450300  0.950100  0.244600  1.0  -0.1113
  C  C359  1  0.639900  0.931000  0.264500  1.0  -0.0716
  C  C360  1  0.939200  0.930700  0.321000  1.0  0.3664
  N  N361  1  0.397100  0.165700  0.086200  1.0  -0.5994
  N  N362  1  0.397100  0.665700  0.586200  1.0  -0.5994
  N  N363  1  0.897100  0.165700  0.586200  1.0  -0.5994
  N  N364  1  0.897100  0.665700  0.086200  1.0  -0.5994
  N  N365  1  0.352900  0.584300  0.086200  1.0  -0.6013
  N  N366  1  0.352900  0.084300  0.586200  1.0  -0.6013
  N  N367  1  0.852900  0.584300  0.586200  1.0  -0.6013
  N  N368  1  0.852900  0.084300  0.086200  1.0  -0.6013
  N  N369  1  0.352900  0.165700  0.663800  1.0  -0.6033
  N  N370  1  0.352900  0.665700  0.163800  1.0  -0.6033
  N  N371  1  0.852900  0.165700  0.163800  1.0  -0.6033
  N  N372  1  0.852900  0.665700  0.663800  1.0  -0.6033
  N  N373  1  0.397100  0.584300  0.663800  1.0  -0.6016
  N  N374  1  0.397100  0.084300  0.163800  1.0  -0.6016
  N  N375  1  0.897100  0.584300  0.163800  1.0  -0.6016
  N  N376  1  0.897100  0.084300  0.663800  1.0  -0.6016
  N  N377  1  0.602900  0.834300  0.913800  1.0  -0.6035
  N  N378  1  0.602900  0.334300  0.413800  1.0  -0.6035
  N  N379  1  0.102900  0.834300  0.413800  1.0  -0.6035
  N  N380  1  0.102900  0.334300  0.913800  1.0  -0.6035
  N  N381  1  0.647100  0.415700  0.913800  1.0  -0.602
  N  N382  1  0.647100  0.915700  0.413800  1.0  -0.602
  N  N383  1  0.147100  0.415700  0.413800  1.0  -0.602
  N  N384  1  0.147100  0.915700  0.913800  1.0  -0.602
  N  N385  1  0.647100  0.834300  0.336200  1.0  -0.5997
  N  N386  1  0.647100  0.334300  0.836200  1.0  -0.5997
  N  N387  1  0.147100  0.834300  0.836200  1.0  -0.5997
  N  N388  1  0.147100  0.334300  0.336200  1.0  -0.5997
  N  N389  1  0.602900  0.415700  0.336200  1.0  -0.6007
  N  N390  1  0.602900  0.915700  0.836200  1.0  -0.6007
  N  N391  1  0.102900  0.415700  0.836200  1.0  -0.6007
  N  N392  1  0.102900  0.915700  0.336200  1.0  -0.6007
