# generated using pymatgen
data_AgH16(C7N)4
_symmetry_space_group_name_H-M   'P 1'
_cell_length_a   5.70180000
_cell_length_b   21.66120000
_cell_length_c   21.56870000
_cell_angle_alpha   89.97600000
_cell_angle_beta   89.99200000
_cell_angle_gamma   89.98900000
_symmetry_Int_Tables_number   1
_chemical_formula_structural   AgH16(C7N)4
_chemical_formula_sum   'Ag4 H64 C112 N16'
_cell_volume   2663.90302764
_cell_formula_units_Z   4
loop_
 _symmetry_equiv_pos_site_id
 _symmetry_equiv_pos_as_xyz
  1  'x, y, z'
loop_
 _atom_site_type_symbol
 _atom_site_label
 _atom_site_symmetry_multiplicity
 _atom_site_fract_x
 _atom_site_fract_y
 _atom_site_fract_z
 _atom_site_occupancy
 _atom_site_charge
  Ag  Ag1  1  0.869440  0.000600  0.249840  1.0  0.4171
  Ag  Ag2  1  0.369440  0.500600  0.749840  1.0  0.4171
  Ag  Ag3  1  0.130560  0.999400  0.750160  1.0  0.4177
  Ag  Ag4  1  0.630560  0.499400  0.250160  1.0  0.4177
  H  H5  1  0.194100  0.846500  0.155400  1.0  0.1335
  H  H6  1  0.874700  0.778700  0.156100  1.0  0.1378
  H  H7  1  0.887600  0.776100  0.343900  1.0  0.1428
  H  H8  1  0.207000  0.843900  0.343300  1.0  0.1365
  H  H9  1  0.207200  0.154200  0.156100  1.0  0.1303
  H  H10  1  0.884700  0.221100  0.156200  1.0  0.1434
  H  H11  1  0.883300  0.220300  0.344100  1.0  0.1404
  H  H12  1  0.205700  0.153500  0.344000  1.0  0.1313
  H  H13  1  0.543400  0.095300  0.094000  1.0  0.1304
  H  H14  1  0.865600  0.093900  0.026800  1.0  0.1396
  H  H15  1  0.868400  0.906900  0.031700  1.0  0.1484
  H  H16  1  0.546200  0.908300  0.098900  1.0  0.1427
  H  H17  1  0.546700  0.908500  0.401800  1.0  0.1368
  H  H18  1  0.867500  0.907300  0.469400  1.0  0.1448
  H  H19  1  0.867900  0.094300  0.472600  1.0  0.1443
  H  H20  1  0.547100  0.095600  0.404900  1.0  0.1247
  H  H21  1  0.694100  0.346500  0.655400  1.0  0.1335
  H  H22  1  0.374700  0.278700  0.656100  1.0  0.1378
  H  H23  1  0.387600  0.276100  0.843900  1.0  0.1428
  H  H24  1  0.707000  0.343900  0.843300  1.0  0.1365
  H  H25  1  0.707200  0.654200  0.656100  1.0  0.1303
  H  H26  1  0.384700  0.721100  0.656200  1.0  0.1434
  H  H27  1  0.383300  0.720300  0.844100  1.0  0.1404
  H  H28  1  0.705700  0.653500  0.844000  1.0  0.1313
  H  H29  1  0.043400  0.595300  0.594000  1.0  0.1304
  H  H30  1  0.365600  0.593900  0.526800  1.0  0.1396
  H  H31  1  0.368400  0.406900  0.531700  1.0  0.1484
  H  H32  1  0.046200  0.408300  0.598900  1.0  0.1427
  H  H33  1  0.046700  0.408500  0.901800  1.0  0.1368
  H  H34  1  0.367500  0.407300  0.969400  1.0  0.1448
  H  H35  1  0.367900  0.594300  0.972600  1.0  0.1443
  H  H36  1  0.047100  0.595600  0.904900  1.0  0.1247
  H  H37  1  0.805900  0.153500  0.844600  1.0  0.1333
  H  H38  1  0.125300  0.221300  0.843900  1.0  0.1399
  H  H39  1  0.112400  0.223900  0.656100  1.0  0.1423
  H  H40  1  0.793000  0.156100  0.656700  1.0  0.1358
  H  H41  1  0.792800  0.845800  0.843900  1.0  0.1297
  H  H42  1  0.115300  0.778900  0.843800  1.0  0.1436
  H  H43  1  0.116700  0.779700  0.655900  1.0  0.141
  H  H44  1  0.794300  0.846500  0.656000  1.0  0.1321
  H  H45  1  0.456600  0.904700  0.906000  1.0  0.1303
  H  H46  1  0.134400  0.906100  0.973200  1.0  0.1386
  H  H47  1  0.131600  0.093100  0.968300  1.0  0.1475
  H  H48  1  0.453800  0.091700  0.901100  1.0  0.1429
  H  H49  1  0.453300  0.091500  0.598200  1.0  0.137
  H  H50  1  0.132500  0.092700  0.530600  1.0  0.1454
  H  H51  1  0.132100  0.905700  0.527400  1.0  0.1439
  H  H52  1  0.452900  0.904400  0.595100  1.0  0.1248
  H  H53  1  0.305900  0.653500  0.344600  1.0  0.1333
  H  H54  1  0.625300  0.721300  0.343900  1.0  0.1399
  H  H55  1  0.612400  0.723900  0.156100  1.0  0.1423
  H  H56  1  0.293000  0.656100  0.156700  1.0  0.1358
  H  H57  1  0.292800  0.345800  0.343900  1.0  0.1297
  H  H58  1  0.615300  0.278900  0.343800  1.0  0.1436
  H  H59  1  0.616700  0.279700  0.155900  1.0  0.141
  H  H60  1  0.294300  0.346500  0.156000  1.0  0.1321
  H  H61  1  0.956600  0.404700  0.406000  1.0  0.1303
  H  H62  1  0.634400  0.406100  0.473200  1.0  0.1386
  H  H63  1  0.631600  0.593100  0.468300  1.0  0.1475
  H  H64  1  0.953800  0.591700  0.401100  1.0  0.1429
  H  H65  1  0.953300  0.591500  0.098200  1.0  0.137
  H  H66  1  0.632500  0.592700  0.030600  1.0  0.1454
  H  H67  1  0.632100  0.405700  0.027400  1.0  0.1439
  H  H68  1  0.952900  0.404400  0.095100  1.0  0.1248
  C  C69  1  0.230600  0.851600  0.249300  1.0  -0.0466
  C  C70  1  0.131900  0.832200  0.193700  1.0  -0.0772
  C  C71  1  0.942200  0.791900  0.194100  1.0  -0.1122
  C  C72  1  0.851200  0.771000  0.250000  1.0  0.039
  C  C73  1  0.949800  0.790400  0.305700  1.0  -0.1013
  C  C74  1  0.139600  0.830700  0.305300  1.0  -0.1241
  C  C75  1  0.431700  0.890400  0.249800  1.0  0.3688
  C  C76  1  0.236800  0.147600  0.250100  1.0  -0.0306
  C  C77  1  0.141400  0.167700  0.194300  1.0  -0.0724
  C  C78  1  0.949900  0.207400  0.194300  1.0  -0.0438
  C  C79  1  0.853700  0.227000  0.250200  1.0  0.0441
  C  C80  1  0.949000  0.206900  0.305900  1.0  -0.0803
  C  C81  1  0.140600  0.167200  0.305900  1.0  -0.0748
  C  C82  1  0.449000  0.107000  0.250500  1.0  0.3234
  C  C83  1  0.514500  0.001900  0.102700  1.0  -0.0387
  C  C84  1  0.609400  0.057100  0.081300  1.0  -0.0791
  C  C85  1  0.800800  0.056200  0.041400  1.0  -0.0816
  C  C86  1  0.897300  0.000300  0.022900  1.0  0.0507
  C  C87  1  0.802500  0.945100  0.044300  1.0  -0.0814
  C  C88  1  0.611000  0.945900  0.084200  1.0  -0.1399
  C  C89  1  0.313100  0.001600  0.140900  1.0  0.2692
  C  C90  1  0.516700  0.002100  0.397000  1.0  -0.0073
  C  C91  1  0.611900  0.946200  0.416200  1.0  -0.1048
  C  C92  1  0.802500  0.945500  0.456300  1.0  -0.0923
  C  C93  1  0.897900  0.000700  0.477400  1.0  0.0649
  C  C94  1  0.802700  0.056600  0.458200  1.0  -0.089
  C  C95  1  0.612100  0.057300  0.418000  1.0  -0.0856
  C  C96  1  0.308700  0.000900  0.359900  1.0  0.3328
  C  C97  1  0.730600  0.351600  0.749300  1.0  -0.0466
  C  C98  1  0.631900  0.332200  0.693700  1.0  -0.0772
  C  C99  1  0.442200  0.291900  0.694100  1.0  -0.1122
  C  C100  1  0.351200  0.271000  0.750000  1.0  0.039
  C  C101  1  0.449800  0.290400  0.805700  1.0  -0.1013
  C  C102  1  0.639600  0.330700  0.805300  1.0  -0.1241
  C  C103  1  0.931700  0.390400  0.749800  1.0  0.3688
  C  C104  1  0.736800  0.647600  0.750100  1.0  -0.0306
  C  C105  1  0.641400  0.667700  0.694300  1.0  -0.0724
  C  C106  1  0.449900  0.707400  0.694300  1.0  -0.0438
  C  C107  1  0.353700  0.727000  0.750200  1.0  0.0441
  C  C108  1  0.449000  0.706900  0.805900  1.0  -0.0803
  C  C109  1  0.640600  0.667200  0.805900  1.0  -0.0748
  C  C110  1  0.949000  0.607000  0.750500  1.0  0.3234
  C  C111  1  0.014500  0.501900  0.602700  1.0  -0.0387
  C  C112  1  0.109400  0.557100  0.581300  1.0  -0.0791
  C  C113  1  0.300800  0.556200  0.541400  1.0  -0.0816
  C  C114  1  0.397300  0.500300  0.522900  1.0  0.0507
  C  C115  1  0.302500  0.445100  0.544300  1.0  -0.0814
  C  C116  1  0.111000  0.445900  0.584200  1.0  -0.1399
  C  C117  1  0.813100  0.501600  0.640900  1.0  0.2692
  C  C118  1  0.016700  0.502100  0.897000  1.0  -0.0073
  C  C119  1  0.111900  0.446200  0.916200  1.0  -0.1048
  C  C120  1  0.302500  0.445500  0.956300  1.0  -0.0923
  C  C121  1  0.397900  0.500700  0.977400  1.0  0.0649
  C  C122  1  0.302700  0.556600  0.958200  1.0  -0.089
  C  C123  1  0.112100  0.557300  0.918000  1.0  -0.0856
  C  C124  1  0.808700  0.500900  0.859900  1.0  0.3328
  C  C125  1  0.769400  0.148400  0.750700  1.0  -0.0474
  C  C126  1  0.868100  0.167800  0.806300  1.0  -0.0754
  C  C127  1  0.057800  0.208100  0.805900  1.0  -0.1145
  C  C128  1  0.148800  0.229000  0.750000  1.0  0.0383
  C  C129  1  0.050200  0.209600  0.694300  1.0  -0.0998
  C  C130  1  0.860400  0.169300  0.694700  1.0  -0.121
  C  C131  1  0.568300  0.109600  0.750200  1.0  0.3704
  C  C132  1  0.763200  0.852400  0.749900  1.0  -0.031
  C  C133  1  0.858600  0.832300  0.805700  1.0  -0.0718
  C  C134  1  0.050100  0.792600  0.805700  1.0  -0.0491
  C  C135  1  0.146300  0.773000  0.749800  1.0  0.0438
  C  C136  1  0.051000  0.793100  0.694100  1.0  -0.0731
  C  C137  1  0.859400  0.832800  0.694100  1.0  -0.0735
  C  C138  1  0.551000  0.893000  0.749500  1.0  0.3213
  C  C139  1  0.485500  0.998100  0.897300  1.0  -0.0386
  C  C140  1  0.390600  0.942900  0.918700  1.0  -0.0802
  C  C141  1  0.199200  0.943800  0.958600  1.0  -0.0837
  C  C142  1  0.102700  0.999700  0.977100  1.0  0.051
  C  C143  1  0.197500  0.054900  0.955700  1.0  -0.0787
  C  C144  1  0.389000  0.054100  0.915800  1.0  -0.1391
  C  C145  1  0.686900  0.998400  0.859100  1.0  0.2667
  C  C146  1  0.483300  0.997900  0.603000  1.0  -0.008
  C  C147  1  0.388100  0.053800  0.583800  1.0  -0.1043
  C  C148  1  0.197500  0.054500  0.543700  1.0  -0.0931
  C  C149  1  0.102100  0.999300  0.522600  1.0  0.0651
  C  C150  1  0.197300  0.943400  0.541800  1.0  -0.0831
  C  C151  1  0.387900  0.942700  0.582000  1.0  -0.086
  C  C152  1  0.691300  0.999100  0.640100  1.0  0.3333
  C  C153  1  0.269400  0.648400  0.250700  1.0  -0.0474
  C  C154  1  0.368100  0.667800  0.306300  1.0  -0.0754
  C  C155  1  0.557800  0.708100  0.305900  1.0  -0.1145
  C  C156  1  0.648800  0.729000  0.250000  1.0  0.0383
  C  C157  1  0.550200  0.709600  0.194300  1.0  -0.0998
  C  C158  1  0.360400  0.669300  0.194700  1.0  -0.121
  C  C159  1  0.068300  0.609600  0.250200  1.0  0.3704
  C  C160  1  0.263200  0.352400  0.249900  1.0  -0.031
  C  C161  1  0.358600  0.332300  0.305700  1.0  -0.0718
  C  C162  1  0.550100  0.292600  0.305700  1.0  -0.0491
  C  C163  1  0.646300  0.273000  0.249800  1.0  0.0438
  C  C164  1  0.551000  0.293100  0.194100  1.0  -0.0731
  C  C165  1  0.359400  0.332800  0.194100  1.0  -0.0735
  C  C166  1  0.051000  0.393000  0.249500  1.0  0.3213
  C  C167  1  0.985500  0.498100  0.397300  1.0  -0.0386
  C  C168  1  0.890600  0.442900  0.418700  1.0  -0.0802
  C  C169  1  0.699200  0.443800  0.458600  1.0  -0.0837
  C  C170  1  0.602700  0.499700  0.477100  1.0  0.051
  C  C171  1  0.697500  0.554900  0.455700  1.0  -0.0787
  C  C172  1  0.889000  0.554100  0.415800  1.0  -0.1391
  C  C173  1  0.186900  0.498400  0.359100  1.0  0.2667
  C  C174  1  0.983300  0.497900  0.103000  1.0  -0.008
  C  C175  1  0.888100  0.553800  0.083800  1.0  -0.1043
  C  C176  1  0.697500  0.554500  0.043700  1.0  -0.0931
  C  C177  1  0.602100  0.499300  0.022600  1.0  0.0651
  C  C178  1  0.697300  0.443400  0.041800  1.0  -0.0831
  C  C179  1  0.887900  0.442700  0.082000  1.0  -0.086
  C  C180  1  0.191300  0.499100  0.140100  1.0  0.3333
  N  N181  1  0.595200  0.921600  0.249600  1.0  -0.6276
  N  N182  1  0.608400  0.076600  0.250000  1.0  -0.5568
  N  N183  1  0.141100  0.002700  0.171900  1.0  -0.6972
  N  N184  1  0.140000  0.002900  0.329800  1.0  -0.6778
  N  N185  1  0.095200  0.421600  0.749600  1.0  -0.6276
  N  N186  1  0.108400  0.576600  0.750000  1.0  -0.5568
  N  N187  1  0.641100  0.502700  0.671900  1.0  -0.6972
  N  N188  1  0.640000  0.502900  0.829800  1.0  -0.6778
  N  N189  1  0.404800  0.078400  0.750400  1.0  -0.6241
  N  N190  1  0.391600  0.923400  0.750000  1.0  -0.5567
  N  N191  1  0.858900  0.997300  0.828100  1.0  -0.7011
  N  N192  1  0.860000  0.997100  0.670200  1.0  -0.6778
  N  N193  1  0.904800  0.578400  0.250400  1.0  -0.6241
  N  N194  1  0.891600  0.423400  0.250000  1.0  -0.5567
  N  N195  1  0.358900  0.497300  0.328100  1.0  -0.7011
  N  N196  1  0.360000  0.497100  0.170200  1.0  -0.6778
