# generated using pymatgen
data_AgH16(C7N)4
_symmetry_space_group_name_H-M   'P 1'
_cell_length_a   24.86060000
_cell_length_b   24.86060000
_cell_length_c   4.80160000
_cell_angle_alpha   90.00000000
_cell_angle_beta   90.00000000
_cell_angle_gamma   90.00000000
_symmetry_Int_Tables_number   1
_chemical_formula_structural   AgH16(C7N)4
_chemical_formula_sum   'Ag4 H64 C112 N16'
_cell_volume   2967.62615442
_cell_formula_units_Z   4
loop_
 _symmetry_equiv_pos_site_id
 _symmetry_equiv_pos_as_xyz
  1  'x, y, z'
loop_
 _atom_site_type_symbol
 _atom_site_label
 _atom_site_symmetry_multiplicity
 _atom_site_fract_x
 _atom_site_fract_y
 _atom_site_fract_z
 _atom_site_occupancy
 _atom_site_charge
  Ag  Ag1  1  0.000000  0.000000  0.500000  1.0  0.3283
  Ag  Ag2  1  0.500000  0.500000  0.000000  1.0  0.3283
  Ag  Ag3  1  0.500000  0.000000  0.250000  1.0  0.3283
  Ag  Ag4  1  0.000000  0.500000  0.750000  1.0  0.3283
  H  H5  1  0.118400  0.850200  0.169800  1.0  0.1307
  H  H6  1  0.118500  0.779400  0.478000  1.0  0.1166
  H  H7  1  0.958100  0.780800  0.492800  1.0  0.125
  H  H8  1  0.956300  0.847300  0.164200  1.0  0.1307
  H  H9  1  0.618400  0.350200  0.669800  1.0  0.1307
  H  H10  1  0.618500  0.279400  0.978000  1.0  0.1166
  H  H11  1  0.458100  0.280800  0.992800  1.0  0.125
  H  H12  1  0.456300  0.347300  0.664200  1.0  0.1307
  H  H13  1  0.881600  0.149800  0.169800  1.0  0.1302
  H  H14  1  0.881500  0.220600  0.478000  1.0  0.1174
  H  H15  1  0.041900  0.219200  0.492800  1.0  0.126
  H  H16  1  0.043700  0.152700  0.164200  1.0  0.1309
  H  H17  1  0.381600  0.649800  0.669800  1.0  0.1302
  H  H18  1  0.381500  0.720600  0.978000  1.0  0.1174
  H  H19  1  0.541900  0.719200  0.992800  1.0  0.126
  H  H20  1  0.543700  0.652700  0.664200  1.0  0.1309
  H  H21  1  0.850200  0.881600  0.830200  1.0  0.1299
  H  H22  1  0.779400  0.881500  0.522000  1.0  0.1201
  H  H23  1  0.780800  0.041900  0.507200  1.0  0.1285
  H  H24  1  0.847300  0.043700  0.835800  1.0  0.1305
  H  H25  1  0.350200  0.381600  0.330200  1.0  0.1299
  H  H26  1  0.279400  0.381500  0.022000  1.0  0.1201
  H  H27  1  0.280800  0.541900  0.007200  1.0  0.1285
  H  H28  1  0.347300  0.543700  0.335800  1.0  0.1305
  H  H29  1  0.149800  0.118400  0.830200  1.0  0.1304
  H  H30  1  0.220600  0.118500  0.522000  1.0  0.1219
  H  H31  1  0.219200  0.958100  0.507200  1.0  0.1283
  H  H32  1  0.152700  0.956300  0.835800  1.0  0.13
  H  H33  1  0.649800  0.618400  0.330200  1.0  0.1304
  H  H34  1  0.720600  0.618500  0.022000  1.0  0.1219
  H  H35  1  0.719200  0.458100  0.007200  1.0  0.1283
  H  H36  1  0.652700  0.456300  0.335800  1.0  0.13
  H  H37  1  0.381600  0.850200  0.580200  1.0  0.1298
  H  H38  1  0.381500  0.779400  0.272000  1.0  0.1175
  H  H39  1  0.541900  0.780800  0.257200  1.0  0.1262
  H  H40  1  0.543700  0.847300  0.585800  1.0  0.1309
  H  H41  1  0.881600  0.350200  0.080200  1.0  0.1298
  H  H42  1  0.881500  0.279400  0.772000  1.0  0.1175
  H  H43  1  0.041900  0.280800  0.757200  1.0  0.1262
  H  H44  1  0.043700  0.347300  0.085800  1.0  0.1309
  H  H45  1  0.618400  0.149800  0.580200  1.0  0.1305
  H  H46  1  0.618500  0.220600  0.272000  1.0  0.1172
  H  H47  1  0.458100  0.219200  0.257200  1.0  0.1254
  H  H48  1  0.456300  0.152700  0.585800  1.0  0.1304
  H  H49  1  0.118400  0.649800  0.080200  1.0  0.1305
  H  H50  1  0.118500  0.720600  0.772000  1.0  0.1172
  H  H51  1  0.958100  0.719200  0.757200  1.0  0.1254
  H  H52  1  0.956300  0.652700  0.085800  1.0  0.1304
  H  H53  1  0.649800  0.881600  0.919800  1.0  0.1301
  H  H54  1  0.720600  0.881500  0.228000  1.0  0.1206
  H  H55  1  0.719200  0.041900  0.242800  1.0  0.1284
  H  H56  1  0.652700  0.043700  0.914200  1.0  0.1307
  H  H57  1  0.149800  0.381600  0.419800  1.0  0.1301
  H  H58  1  0.220600  0.381500  0.728000  1.0  0.1206
  H  H59  1  0.219200  0.541900  0.742800  1.0  0.1284
  H  H60  1  0.152700  0.543700  0.414200  1.0  0.1307
  H  H61  1  0.350200  0.118400  0.919800  1.0  0.1303
  H  H62  1  0.279400  0.118500  0.228000  1.0  0.1217
  H  H63  1  0.280800  0.958100  0.242800  1.0  0.1279
  H  H64  1  0.347300  0.956300  0.914200  1.0  0.1301
  H  H65  1  0.850200  0.618400  0.419800  1.0  0.1303
  H  H66  1  0.779400  0.618500  0.728000  1.0  0.1217
  H  H67  1  0.780800  0.458100  0.742800  1.0  0.1279
  H  H68  1  0.847300  0.456300  0.414200  1.0  0.1301
  C  C69  1  0.036800  0.856000  0.133500  1.0  0.0498
  C  C70  1  0.085300  0.835400  0.232000  1.0  -0.1565
  C  C71  1  0.085100  0.793900  0.418800  1.0  -0.117
  C  C72  1  0.038700  0.772400  0.523700  1.0  0.0398
  C  C73  1  0.991300  0.794400  0.423500  1.0  -0.114
  C  C74  1  0.989800  0.834400  0.231000  1.0  -0.1642
  C  C75  1  0.035000  0.898100  0.932300  1.0  0.3779
  C  C76  1  0.536800  0.356000  0.633500  1.0  0.0498
  C  C77  1  0.585300  0.335400  0.732000  1.0  -0.1565
  C  C78  1  0.585100  0.293900  0.918800  1.0  -0.117
  C  C79  1  0.538700  0.272400  0.023700  1.0  0.0398
  C  C80  1  0.491300  0.294400  0.923500  1.0  -0.114
  C  C81  1  0.489800  0.334400  0.731000  1.0  -0.1642
  C  C82  1  0.535000  0.398100  0.432300  1.0  0.3779
  C  C83  1  0.963200  0.144000  0.133500  1.0  0.0486
  C  C84  1  0.914700  0.164600  0.232000  1.0  -0.1567
  C  C85  1  0.914900  0.206100  0.418800  1.0  -0.118
  C  C86  1  0.961300  0.227600  0.523700  1.0  0.0398
  C  C87  1  0.008700  0.205600  0.423500  1.0  -0.1142
  C  C88  1  0.010200  0.165600  0.231000  1.0  -0.164
  C  C89  1  0.965000  0.101900  0.932300  1.0  0.3782
  C  C90  1  0.463200  0.644000  0.633500  1.0  0.0486
  C  C91  1  0.414700  0.664600  0.732000  1.0  -0.1567
  C  C92  1  0.414900  0.706100  0.918800  1.0  -0.118
  C  C93  1  0.461300  0.727600  0.023700  1.0  0.0398
  C  C94  1  0.508700  0.705600  0.923500  1.0  -0.1142
  C  C95  1  0.510200  0.665600  0.731000  1.0  -0.164
  C  C96  1  0.465000  0.601900  0.432300  1.0  0.3782
  C  C97  1  0.856000  0.963200  0.866500  1.0  0.0428
  C  C98  1  0.835400  0.914700  0.768000  1.0  -0.1611
  C  C99  1  0.793900  0.914900  0.581200  1.0  -0.1209
  C  C100  1  0.772400  0.961300  0.476300  1.0  0.0388
  C  C101  1  0.794400  0.008700  0.576500  1.0  -0.1207
  C  C102  1  0.834400  0.010200  0.769000  1.0  -0.1669
  C  C103  1  0.898100  0.965000  0.067700  1.0  0.3788
  C  C104  1  0.356000  0.463200  0.366500  1.0  0.0428
  C  C105  1  0.335400  0.414700  0.268000  1.0  -0.1611
  C  C106  1  0.293900  0.414900  0.081200  1.0  -0.1209
  C  C107  1  0.272400  0.461300  0.976300  1.0  0.0388
  C  C108  1  0.294400  0.508700  0.076500  1.0  -0.1207
  C  C109  1  0.334400  0.510200  0.269000  1.0  -0.1669
  C  C110  1  0.398100  0.465000  0.567700  1.0  0.3788
  C  C111  1  0.144000  0.036800  0.866500  1.0  0.0411
  C  C112  1  0.164600  0.085300  0.768000  1.0  -0.16
  C  C113  1  0.206100  0.085100  0.581200  1.0  -0.1208
  C  C114  1  0.227600  0.038700  0.476300  1.0  0.0388
  C  C115  1  0.205600  0.991300  0.576500  1.0  -0.1187
  C  C116  1  0.165600  0.989800  0.769000  1.0  -0.1667
  C  C117  1  0.101900  0.035000  0.067700  1.0  0.3792
  C  C118  1  0.644000  0.536800  0.366500  1.0  0.0411
  C  C119  1  0.664600  0.585300  0.268000  1.0  -0.16
  C  C120  1  0.706100  0.585100  0.081200  1.0  -0.1208
  C  C121  1  0.727600  0.538700  0.976300  1.0  0.0388
  C  C122  1  0.705600  0.491300  0.076500  1.0  -0.1187
  C  C123  1  0.665600  0.489800  0.269000  1.0  -0.1667
  C  C124  1  0.601900  0.535000  0.567700  1.0  0.3792
  C  C125  1  0.463200  0.856000  0.616500  1.0  0.0494
  C  C126  1  0.414700  0.835400  0.518000  1.0  -0.1575
  C  C127  1  0.414900  0.793900  0.331200  1.0  -0.1166
  C  C128  1  0.461300  0.772400  0.226300  1.0  0.0403
  C  C129  1  0.508700  0.794400  0.326500  1.0  -0.1095
  C  C130  1  0.510200  0.834400  0.519000  1.0  -0.1643
  C  C131  1  0.465000  0.898100  0.817700  1.0  0.3775
  C  C132  1  0.963200  0.356000  0.116500  1.0  0.0494
  C  C133  1  0.914700  0.335400  0.018000  1.0  -0.1575
  C  C134  1  0.914900  0.293900  0.831200  1.0  -0.1166
  C  C135  1  0.961300  0.272400  0.726300  1.0  0.0403
  C  C136  1  0.008700  0.294400  0.826500  1.0  -0.1095
  C  C137  1  0.010200  0.334400  0.019000  1.0  -0.1643
  C  C138  1  0.965000  0.398100  0.317700  1.0  0.3775
  C  C139  1  0.536800  0.144000  0.616500  1.0  0.0479
  C  C140  1  0.585300  0.164600  0.518000  1.0  -0.1564
  C  C141  1  0.585100  0.206100  0.331200  1.0  -0.1157
  C  C142  1  0.538700  0.227600  0.226300  1.0  0.0393
  C  C143  1  0.491300  0.205600  0.326500  1.0  -0.109
  C  C144  1  0.489800  0.165600  0.519000  1.0  -0.1639
  C  C145  1  0.535000  0.101900  0.817700  1.0  0.3787
  C  C146  1  0.036800  0.644000  0.116500  1.0  0.0479
  C  C147  1  0.085300  0.664600  0.018000  1.0  -0.1564
  C  C148  1  0.085100  0.706100  0.831200  1.0  -0.1157
  C  C149  1  0.038700  0.727600  0.726300  1.0  0.0393
  C  C150  1  0.991300  0.705600  0.826500  1.0  -0.109
  C  C151  1  0.989800  0.665600  0.019000  1.0  -0.1639
  C  C152  1  0.035000  0.601900  0.317700  1.0  0.3787
  C  C153  1  0.644000  0.963200  0.883500  1.0  0.0411
  C  C154  1  0.664600  0.914700  0.982000  1.0  -0.1599
  C  C155  1  0.706100  0.914900  0.168800  1.0  -0.1193
  C  C156  1  0.727600  0.961300  0.273700  1.0  0.0391
  C  C157  1  0.705600  0.008700  0.173500  1.0  -0.1148
  C  C158  1  0.665600  0.010200  0.981000  1.0  -0.1674
  C  C159  1  0.601900  0.965000  0.682300  1.0  0.3795
  C  C160  1  0.144000  0.463200  0.383500  1.0  0.0411
  C  C161  1  0.164600  0.414700  0.482000  1.0  -0.1599
  C  C162  1  0.206100  0.414900  0.668800  1.0  -0.1193
  C  C163  1  0.227600  0.461300  0.773700  1.0  0.0391
  C  C164  1  0.205600  0.508700  0.673500  1.0  -0.1148
  C  C165  1  0.165600  0.510200  0.481000  1.0  -0.1674
  C  C166  1  0.101900  0.465000  0.182300  1.0  0.3795
  C  C167  1  0.356000  0.036800  0.883500  1.0  0.0434
  C  C168  1  0.335400  0.085300  0.982000  1.0  -0.1597
  C  C169  1  0.293900  0.085100  0.168800  1.0  -0.1226
  C  C170  1  0.272400  0.038700  0.273700  1.0  0.0388
  C  C171  1  0.294400  0.991300  0.173500  1.0  -0.1143
  C  C172  1  0.334400  0.989800  0.981000  1.0  -0.1668
  C  C173  1  0.398100  0.035000  0.682300  1.0  0.3785
  C  C174  1  0.856000  0.536800  0.383500  1.0  0.0434
  C  C175  1  0.835400  0.585300  0.482000  1.0  -0.1597
  C  C176  1  0.793900  0.585100  0.668800  1.0  -0.1226
  C  C177  1  0.772400  0.538700  0.773700  1.0  0.0388
  C  C178  1  0.794400  0.491300  0.673500  1.0  -0.1143
  C  C179  1  0.834400  0.489800  0.481000  1.0  -0.1668
  C  C180  1  0.898100  0.535000  0.182300  1.0  0.3785
  N  N181  1  0.031800  0.931800  0.768800  1.0  -0.4979
  N  N182  1  0.531800  0.431800  0.268800  1.0  -0.4979
  N  N183  1  0.968200  0.068200  0.768800  1.0  -0.4959
  N  N184  1  0.468200  0.568200  0.268800  1.0  -0.4959
  N  N185  1  0.931800  0.968200  0.231200  1.0  -0.4943
  N  N186  1  0.431800  0.468200  0.731200  1.0  -0.4943
  N  N187  1  0.068200  0.031800  0.231200  1.0  -0.4927
  N  N188  1  0.568200  0.531800  0.731200  1.0  -0.4927
  N  N189  1  0.468200  0.931800  0.981200  1.0  -0.4991
  N  N190  1  0.968200  0.431800  0.481200  1.0  -0.4991
  N  N191  1  0.531800  0.068200  0.981200  1.0  -0.4955
  N  N192  1  0.031800  0.568200  0.481200  1.0  -0.4955
  N  N193  1  0.568200  0.968200  0.518800  1.0  -0.4923
  N  N194  1  0.068200  0.468200  0.018800  1.0  -0.4923
  N  N195  1  0.431800  0.031800  0.518800  1.0  -0.4928
  N  N196  1  0.931800  0.531800  0.018800  1.0  -0.4928
