# generated using pymatgen
data_LaH26C42(NO6)2
_symmetry_space_group_name_H-M   'P 1'
_cell_length_a   16.18110000
_cell_length_b   16.18110000
_cell_length_c   30.47740000
_cell_angle_alpha   90.00000000
_cell_angle_beta   90.00000000
_cell_angle_gamma   120.00000000
_symmetry_Int_Tables_number   1
_chemical_formula_structural   LaH26C42(NO6)2
_chemical_formula_sum   'La6 H156 C252 N12 O72'
_cell_volume   6910.74121553
_cell_formula_units_Z   6
loop_
 _symmetry_equiv_pos_site_id
 _symmetry_equiv_pos_as_xyz
  1  'x, y, z'
loop_
 _atom_site_type_symbol
 _atom_site_label
 _atom_site_symmetry_multiplicity
 _atom_site_fract_x
 _atom_site_fract_y
 _atom_site_fract_z
 _atom_site_occupancy
 _atom_site_charge
  La  La1  1  0.356660  0.000000  0.500000  1.0  2.2002
  La  La2  1  0.000000  0.356660  0.166670  1.0  2.201
  La  La3  1  0.643340  0.643340  0.833330  1.0  2.2008
  La  La4  1  0.643340  0.000000  0.500000  1.0  2.1986
  La  La5  1  0.000000  0.643340  0.166670  1.0  2.2014
  La  La6  1  0.356660  0.356660  0.833330  1.0  2.2019
  H  H7  1  0.831400  0.569100  0.278600  1.0  0.1103
  H  H8  1  0.501200  0.257700  0.457300  1.0  0.1078
  H  H9  1  0.685300  0.532300  0.498300  1.0  0.1184
  H  H10  1  0.553100  0.415100  0.442100  1.0  0.1442
  H  H11  1  0.754800  0.292700  0.421200  1.0  0.1182
  H  H12  1  0.990400  0.786900  0.360000  1.0  0.1238
  H  H13  1  0.721800  0.493300  0.333100  1.0  0.1364
  H  H14  1  0.695200  0.690200  0.394700  1.0  0.1437
  H  H15  1  0.667400  0.635400  0.544300  1.0  0.1211
  H  H16  1  0.879300  0.711500  0.414800  1.0  0.1223
  H  H17  1  0.141600  0.813700  0.289300  1.0  0.221
  H  H18  1  0.808700  0.451200  0.407800  1.0  0.1416
  H  H19  1  0.681900  0.794900  0.440800  1.0  0.1098
  H  H20  1  0.430900  0.262300  0.945270  1.0  0.1098
  H  H21  1  0.742300  0.243500  0.123970  1.0  0.1078
  H  H22  1  0.467700  0.153000  0.164970  1.0  0.1178
  H  H23  1  0.584900  0.138000  0.108770  1.0  0.1436
  H  H24  1  0.707300  0.462100  0.087870  1.0  0.1163
  H  H25  1  0.213100  0.203500  0.026670  1.0  0.1247
  H  H26  1  0.506700  0.228500  0.999770  1.0  0.1392
  H  H27  1  0.309800  0.005000  0.061370  1.0  0.1443
  H  H28  1  0.364600  0.032000  0.210970  1.0  0.1207
  H  H29  1  0.288500  0.167800  0.081470  1.0  0.1223
  H  H30  1  0.186300  0.327900  0.955970  1.0  0.2201
  H  H31  1  0.548800  0.357500  0.074470  1.0  0.1414
  H  H32  1  0.205100  0.887000  0.107470  1.0  0.1098
  H  H33  1  0.737700  0.168600  0.611930  1.0  0.1104
  H  H34  1  0.756500  0.498800  0.790630  1.0  0.1077
  H  H35  1  0.847000  0.314700  0.831630  1.0  0.1191
  H  H36  1  0.862000  0.446900  0.775430  1.0  0.1428
  H  H37  1  0.537900  0.245200  0.754530  1.0  0.1164
  H  H38  1  0.796500  0.009600  0.693330  1.0  0.1238
  H  H39  1  0.771500  0.278200  0.666430  1.0  0.1364
  H  H40  1  0.995000  0.304800  0.728030  1.0  0.1436
  H  H41  1  0.968000  0.332600  0.877630  1.0  0.1201
  H  H42  1  0.832200  0.120700  0.748130  1.0  0.1221
  H  H43  1  0.672100  0.858400  0.622630  1.0  0.2195
  H  H44  1  0.642500  0.191300  0.741130  1.0  0.1405
  H  H45  1  0.113000  0.318100  0.774130  1.0  0.1098
  H  H46  1  0.168600  0.430900  0.278600  1.0  0.1108
  H  H47  1  0.498800  0.742300  0.457300  1.0  0.1073
  H  H48  1  0.314700  0.467700  0.498300  1.0  0.1186
  H  H49  1  0.446900  0.584900  0.442100  1.0  0.144
  H  H50  1  0.245200  0.707300  0.421200  1.0  0.1179
  H  H51  1  0.009600  0.213100  0.360000  1.0  0.1238
  H  H52  1  0.278200  0.506700  0.333100  1.0  0.1357
  H  H53  1  0.304800  0.309800  0.394700  1.0  0.1437
  H  H54  1  0.332600  0.364600  0.544300  1.0  0.121
  H  H55  1  0.120700  0.288500  0.414800  1.0  0.122
  H  H56  1  0.858400  0.186300  0.289300  1.0  0.2193
  H  H57  1  0.191300  0.548800  0.407800  1.0  0.1414
  H  H58  1  0.318100  0.205100  0.440800  1.0  0.1091
  H  H59  1  0.569100  0.737700  0.945270  1.0  0.1097
  H  H60  1  0.257700  0.756500  0.123970  1.0  0.1078
  H  H61  1  0.532300  0.847000  0.164970  1.0  0.1184
  H  H62  1  0.415100  0.862000  0.108770  1.0  0.1435
  H  H63  1  0.292700  0.537900  0.087870  1.0  0.1172
  H  H64  1  0.786900  0.796500  0.026670  1.0  0.125
  H  H65  1  0.493300  0.771500  0.999770  1.0  0.1394
  H  H66  1  0.690200  0.995000  0.061370  1.0  0.1443
  H  H67  1  0.635400  0.968000  0.210970  1.0  0.1204
  H  H68  1  0.711500  0.832200  0.081470  1.0  0.1227
  H  H69  1  0.813700  0.672100  0.955970  1.0  0.2219
  H  H70  1  0.451200  0.642500  0.074470  1.0  0.141
  H  H71  1  0.794900  0.113000  0.107470  1.0  0.11
  H  H72  1  0.262300  0.831400  0.611930  1.0  0.1101
  H  H73  1  0.243500  0.501200  0.790630  1.0  0.1075
  H  H74  1  0.153000  0.685300  0.831630  1.0  0.119
  H  H75  1  0.138000  0.553100  0.775430  1.0  0.1425
  H  H76  1  0.462100  0.754800  0.754530  1.0  0.1165
  H  H77  1  0.203500  0.990400  0.693330  1.0  0.1237
  H  H78  1  0.228500  0.721800  0.666430  1.0  0.1362
  H  H79  1  0.005000  0.695200  0.728030  1.0  0.1443
  H  H80  1  0.032000  0.667400  0.877630  1.0  0.1206
  H  H81  1  0.167800  0.879300  0.748130  1.0  0.1226
  H  H82  1  0.327900  0.141600  0.622630  1.0  0.2206
  H  H83  1  0.357500  0.808700  0.741130  1.0  0.1407
  H  H84  1  0.887000  0.681900  0.774130  1.0  0.1097
  H  H85  1  0.569100  0.831400  0.388070  1.0  0.1098
  H  H86  1  0.257700  0.501200  0.209370  1.0  0.1078
  H  H87  1  0.532300  0.685300  0.168370  1.0  0.1182
  H  H88  1  0.415100  0.553100  0.224570  1.0  0.1427
  H  H89  1  0.292700  0.754800  0.245470  1.0  0.1167
  H  H90  1  0.786900  0.990400  0.306670  1.0  0.124
  H  H91  1  0.493300  0.721800  0.333570  1.0  0.1363
  H  H92  1  0.690200  0.695200  0.271970  1.0  0.1433
  H  H93  1  0.635400  0.667400  0.122370  1.0  0.1202
  H  H94  1  0.711500  0.879300  0.251870  1.0  0.1231
  H  H95  1  0.813700  0.141600  0.377370  1.0  0.2202
  H  H96  1  0.451200  0.808700  0.258870  1.0  0.1401
  H  H97  1  0.794900  0.681900  0.225870  1.0  0.1098
  H  H98  1  0.262300  0.430900  0.721400  1.0  0.1101
  H  H99  1  0.243500  0.742300  0.542700  1.0  0.1078
  H  H100  1  0.153000  0.467700  0.501700  1.0  0.1184
  H  H101  1  0.138000  0.584900  0.557900  1.0  0.1443
  H  H102  1  0.462100  0.707300  0.578800  1.0  0.1179
  H  H103  1  0.203500  0.213100  0.640000  1.0  0.1238
  H  H104  1  0.228500  0.506700  0.666900  1.0  0.1359
  H  H105  1  0.005000  0.309800  0.605300  1.0  0.1434
  H  H106  1  0.032000  0.364600  0.455700  1.0  0.1211
  H  H107  1  0.167800  0.288500  0.585200  1.0  0.1232
  H  H108  1  0.327900  0.186300  0.710700  1.0  0.2204
  H  H109  1  0.357500  0.548800  0.592200  1.0  0.1416
  H  H110  1  0.887000  0.205100  0.559200  1.0  0.1092
  H  H111  1  0.168600  0.737700  0.054730  1.0  0.1092
  H  H112  1  0.498800  0.756500  0.876030  1.0  0.1077
  H  H113  1  0.314700  0.847000  0.835030  1.0  0.118
  H  H114  1  0.446900  0.862000  0.891230  1.0  0.1432
  H  H115  1  0.245200  0.537900  0.912130  1.0  0.1169
  H  H116  1  0.009600  0.796500  0.973330  1.0  0.1254
  H  H117  1  0.278200  0.771500  0.000230  1.0  0.1392
  H  H118  1  0.304800  0.995000  0.938630  1.0  0.1438
  H  H119  1  0.332600  0.968000  0.789030  1.0  0.1203
  H  H120  1  0.120700  0.832200  0.918530  1.0  0.1225
  H  H121  1  0.858400  0.672100  0.044030  1.0  0.2205
  H  H122  1  0.191300  0.642500  0.925530  1.0  0.1411
  H  H123  1  0.318100  0.113000  0.892530  1.0  0.1098
  H  H124  1  0.430900  0.168600  0.388070  1.0  0.1101
  H  H125  1  0.742300  0.498800  0.209370  1.0  0.1076
  H  H126  1  0.467700  0.314700  0.168370  1.0  0.1184
  H  H127  1  0.584900  0.446900  0.224570  1.0  0.143
  H  H128  1  0.707300  0.245200  0.245470  1.0  0.1167
  H  H129  1  0.213100  0.009600  0.306670  1.0  0.1234
  H  H130  1  0.506700  0.278200  0.333570  1.0  0.136
  H  H131  1  0.309800  0.304800  0.271970  1.0  0.1437
  H  H132  1  0.364600  0.332600  0.122370  1.0  0.1202
  H  H133  1  0.288500  0.120700  0.251870  1.0  0.1232
  H  H134  1  0.186300  0.858400  0.377370  1.0  0.22
  H  H135  1  0.548800  0.191300  0.258870  1.0  0.1404
  H  H136  1  0.205100  0.318100  0.225870  1.0  0.1096
  H  H137  1  0.737700  0.569100  0.721400  1.0  0.1103
  H  H138  1  0.756500  0.257700  0.542700  1.0  0.1077
  H  H139  1  0.847000  0.532300  0.501700  1.0  0.118
  H  H140  1  0.862000  0.415100  0.557900  1.0  0.144
  H  H141  1  0.537900  0.292700  0.578800  1.0  0.1182
  H  H142  1  0.796500  0.786900  0.640000  1.0  0.1242
  H  H143  1  0.771500  0.493300  0.666900  1.0  0.136
  H  H144  1  0.995000  0.690200  0.605300  1.0  0.1431
  H  H145  1  0.968000  0.635400  0.455700  1.0  0.1209
  H  H146  1  0.832200  0.711500  0.585200  1.0  0.1222
  H  H147  1  0.672100  0.813700  0.710700  1.0  0.2201
  H  H148  1  0.642500  0.451200  0.592200  1.0  0.1411
  H  H149  1  0.113000  0.794900  0.559200  1.0  0.1095
  H  H150  1  0.831400  0.262300  0.054730  1.0  0.1095
  H  H151  1  0.501200  0.243500  0.876030  1.0  0.1076
  H  H152  1  0.685300  0.153000  0.835030  1.0  0.1178
  H  H153  1  0.553100  0.138000  0.891230  1.0  0.144
  H  H154  1  0.754800  0.462100  0.912130  1.0  0.1171
  H  H155  1  0.990400  0.203500  0.973330  1.0  0.1251
  H  H156  1  0.721800  0.228500  0.000230  1.0  0.1391
  H  H157  1  0.695200  0.005000  0.938630  1.0  0.1438
  H  H158  1  0.667400  0.032000  0.789030  1.0  0.1201
  H  H159  1  0.879300  0.167800  0.918530  1.0  0.1233
  H  H160  1  0.141600  0.327900  0.044030  1.0  0.2218
  H  H161  1  0.808700  0.357500  0.925530  1.0  0.141
  H  H162  1  0.681900  0.887000  0.892530  1.0  0.11
  C  C163  1  0.621400  0.257100  0.440270  1.0  -0.1593
  C  C164  1  0.686000  0.449900  0.422620  1.0  0.1848
  C  C165  1  0.841000  0.597900  0.305930  1.0  0.0017
  C  C166  1  0.562800  0.296300  0.446750  1.0  -0.0333
  C  C167  1  0.686200  0.586000  0.486790  1.0  -0.1783
  C  C168  1  0.593900  0.390900  0.437870  1.0  -0.1626
  C  C169  1  0.788400  0.594700  0.379990  1.0  0.1611
  C  C170  1  0.714100  0.317100  0.425480  1.0  -0.0162
  C  C171  1  0.698300  0.603400  0.441910  1.0  0.2096
  C  C172  1  0.936200  0.728400  0.354490  1.0  -0.051
  C  C173  1  0.775300  0.552500  0.338520  1.0  -0.1971
  C  C174  1  0.692700  0.680700  0.424870  1.0  -0.1816
  C  C175  1  0.675400  0.647700  0.514340  1.0  -0.0267
  C  C176  1  0.585800  0.154400  0.449130  1.0  0.7446
  C  C177  1  0.869600  0.682800  0.387390  1.0  -0.1689
  C  C178  1  0.992300  0.731100  0.276460  1.0  0.7265
  C  C179  1  0.677200  0.803100  0.526610  1.0  0.7388
  C  C180  1  0.746200  0.411900  0.417140  1.0  -0.1781
  C  C181  1  0.922100  0.686900  0.313130  1.0  -0.1331
  C  C182  1  0.683500  0.742600  0.452490  1.0  0.0021
  C  C183  1  0.676500  0.728600  0.497560  1.0  -0.1455
  C  C184  1  0.742900  0.364300  0.106940  1.0  -0.1571
  C  C185  1  0.550100  0.236100  0.089290  1.0  0.1846
  C  C186  1  0.402100  0.243100  0.972600  1.0  0.0026
  C  C187  1  0.703700  0.266500  0.113420  1.0  -0.035
  C  C188  1  0.414000  0.100200  0.153460  1.0  -0.1774
  C  C189  1  0.609100  0.203000  0.104540  1.0  -0.1589
  C  C190  1  0.405300  0.193700  0.046660  1.0  0.1603
  C  C191  1  0.682900  0.397000  0.092150  1.0  -0.0173
  C  C192  1  0.396600  0.094900  0.108580  1.0  0.2091
  C  C193  1  0.271600  0.207800  0.021160  1.0  -0.0474
  C  C194  1  0.447500  0.222800  0.005190  1.0  -0.1988
  C  C195  1  0.319300  0.012000  0.091540  1.0  -0.1798
  C  C196  1  0.352300  0.027700  0.181010  1.0  -0.0284
  C  C197  1  0.845600  0.431400  0.115800  1.0  0.7432
  C  C198  1  0.317200  0.186800  0.054060  1.0  -0.1694
  C  C199  1  0.268900  0.261200  0.943130  1.0  0.7256
  C  C200  1  0.196900  0.874100  0.193280  1.0  0.7389
  C  C201  1  0.588100  0.334300  0.083810  1.0  -0.1803
  C  C202  1  0.313100  0.235200  0.979800  1.0  -0.1316
  C  C203  1  0.257400  0.940900  0.119160  1.0  0.0014
  C  C204  1  0.271400  0.947900  0.164230  1.0  -0.1456
  C  C205  1  0.635700  0.378600  0.773600  1.0  -0.1602
  C  C206  1  0.763900  0.314000  0.755950  1.0  0.1842
  C  C207  1  0.756900  0.159000  0.639260  1.0  -0.0003
  C  C208  1  0.733500  0.437200  0.780080  1.0  -0.0361
  C  C209  1  0.899800  0.313800  0.820120  1.0  -0.1788
  C  C210  1  0.797000  0.406100  0.771200  1.0  -0.1598
  C  C211  1  0.806300  0.211600  0.713320  1.0  0.1615
  C  C212  1  0.603000  0.285900  0.758810  1.0  -0.0151
  C  C213  1  0.905100  0.301700  0.775240  1.0  0.2097
  C  C214  1  0.792200  0.063800  0.687820  1.0  -0.0472
  C  C215  1  0.777200  0.224700  0.671850  1.0  -0.1966
  C  C216  1  0.988000  0.307300  0.758200  1.0  -0.1836
  C  C217  1  0.972300  0.324600  0.847670  1.0  -0.0283
  C  C218  1  0.568600  0.414200  0.782460  1.0  0.7408
  C  C219  1  0.813200  0.130400  0.720720  1.0  -0.1695
  C  C220  1  0.738800  0.007700  0.609790  1.0  0.7252
  C  C221  1  0.125900  0.322800  0.859940  1.0  0.737
  C  C222  1  0.665700  0.253800  0.750470  1.0  -0.18
  C  C223  1  0.764800  0.077900  0.646460  1.0  -0.133
  C  C224  1  0.059100  0.316500  0.785820  1.0  -0.001
  C  C225  1  0.052100  0.323500  0.830890  1.0  -0.1462
  C  C226  1  0.378600  0.742900  0.440270  1.0  -0.1601
  C  C227  1  0.314000  0.550100  0.422620  1.0  0.1851
  C  C228  1  0.159000  0.402100  0.305930  1.0  0.0021
  C  C229  1  0.437200  0.703700  0.446750  1.0  -0.0343
  C  C230  1  0.313800  0.414000  0.486790  1.0  -0.1783
  C  C231  1  0.406100  0.609100  0.437870  1.0  -0.1618
  C  C232  1  0.211600  0.405300  0.379990  1.0  0.161
  C  C233  1  0.285900  0.682900  0.425480  1.0  -0.0133
  C  C234  1  0.301700  0.396600  0.441910  1.0  0.2095
  C  C235  1  0.063800  0.271600  0.354490  1.0  -0.048
  C  C236  1  0.224700  0.447500  0.338520  1.0  -0.1965
  C  C237  1  0.307300  0.319300  0.424870  1.0  -0.1818
  C  C238  1  0.324600  0.352300  0.514340  1.0  -0.0273
  C  C239  1  0.414200  0.845600  0.449130  1.0  0.7463
  C  C240  1  0.130400  0.317200  0.387390  1.0  -0.1697
  C  C241  1  0.007700  0.268900  0.276460  1.0  0.7261
  C  C242  1  0.322800  0.196900  0.526610  1.0  0.7381
  C  C243  1  0.253800  0.588100  0.417140  1.0  -0.1799
  C  C244  1  0.077900  0.313100  0.313130  1.0  -0.1338
  C  C245  1  0.316500  0.257400  0.452490  1.0  0.0008
  C  C246  1  0.323500  0.271400  0.497560  1.0  -0.1466
  C  C247  1  0.257100  0.635700  0.106940  1.0  -0.1588
  C  C248  1  0.449900  0.763900  0.089290  1.0  0.1845
  C  C249  1  0.597900  0.756900  0.972600  1.0  0.0027
  C  C250  1  0.296300  0.733500  0.113420  1.0  -0.0337
  C  C251  1  0.586000  0.899800  0.153460  1.0  -0.178
  C  C252  1  0.390900  0.797000  0.104540  1.0  -0.1616
  C  C253  1  0.594700  0.806300  0.046660  1.0  0.1609
  C  C254  1  0.317100  0.603000  0.092150  1.0  -0.0194
  C  C255  1  0.603400  0.905100  0.108580  1.0  0.2092
  C  C256  1  0.728400  0.792200  0.021160  1.0  -0.0477
  C  C257  1  0.552500  0.777200  0.005190  1.0  -0.2027
  C  C258  1  0.680700  0.988000  0.091540  1.0  -0.181
  C  C259  1  0.647700  0.972300  0.181010  1.0  -0.0305
  C  C260  1  0.154400  0.568600  0.115800  1.0  0.7412
  C  C261  1  0.682800  0.813200  0.054060  1.0  -0.1681
  C  C262  1  0.731100  0.738800  0.943130  1.0  0.7254
  C  C263  1  0.803100  0.125900  0.193280  1.0  0.7393
  C  C264  1  0.411900  0.665700  0.083810  1.0  -0.1816
  C  C265  1  0.686900  0.764800  0.979800  1.0  -0.1311
  C  C266  1  0.742600  0.059100  0.119160  1.0  -0.0004
  C  C267  1  0.728600  0.052100  0.164230  1.0  -0.1461
  C  C268  1  0.364300  0.621400  0.773600  1.0  -0.1592
  C  C269  1  0.236100  0.686000  0.755950  1.0  0.1836
  C  C270  1  0.243100  0.841000  0.639260  1.0  -0.0003
  C  C271  1  0.266500  0.562800  0.780080  1.0  -0.0369
  C  C272  1  0.100200  0.686200  0.820120  1.0  -0.1799
  C  C273  1  0.203000  0.593900  0.771200  1.0  -0.1585
  C  C274  1  0.193700  0.788400  0.713320  1.0  0.1616
  C  C275  1  0.397000  0.714100  0.758810  1.0  -0.0162
  C  C276  1  0.094900  0.698300  0.775240  1.0  0.2098
  C  C277  1  0.207800  0.936200  0.687820  1.0  -0.0451
  C  C278  1  0.222800  0.775300  0.671850  1.0  -0.1951
  C  C279  1  0.012000  0.692700  0.758200  1.0  -0.1831
  C  C280  1  0.027700  0.675400  0.847670  1.0  -0.0271
  C  C281  1  0.431400  0.585800  0.782460  1.0  0.7416
  C  C282  1  0.186800  0.869600  0.720720  1.0  -0.1699
  C  C283  1  0.261200  0.992300  0.609790  1.0  0.7256
  C  C284  1  0.874100  0.677200  0.859940  1.0  0.7355
  C  C285  1  0.334300  0.746200  0.750470  1.0  -0.1787
  C  C286  1  0.235200  0.922100  0.646460  1.0  -0.1326
  C  C287  1  0.940900  0.683500  0.785820  1.0  0.0012
  C  C288  1  0.947900  0.676500  0.830890  1.0  -0.1475
  C  C289  1  0.257100  0.621400  0.226400  1.0  -0.1598
  C  C290  1  0.449900  0.686000  0.244050  1.0  0.1844
  C  C291  1  0.597900  0.841000  0.360740  1.0  -0.0004
  C  C292  1  0.296300  0.562800  0.219920  1.0  -0.0368
  C  C293  1  0.586000  0.686200  0.179880  1.0  -0.1783
  C  C294  1  0.390900  0.593900  0.228800  1.0  -0.1587
  C  C295  1  0.594700  0.788400  0.286680  1.0  0.1617
  C  C296  1  0.317100  0.714100  0.241190  1.0  -0.0144
  C  C297  1  0.603400  0.698300  0.224760  1.0  0.2099
  C  C298  1  0.728400  0.936200  0.312180  1.0  -0.0464
  C  C299  1  0.552500  0.775300  0.328150  1.0  -0.1969
  C  C300  1  0.680700  0.692700  0.241800  1.0  -0.1831
  C  C301  1  0.647700  0.675400  0.152330  1.0  -0.0273
  C  C302  1  0.154400  0.585800  0.217540  1.0  0.7404
  C  C303  1  0.682800  0.869600  0.279280  1.0  -0.1701
  C  C304  1  0.731100  0.992300  0.390210  1.0  0.7261
  C  C305  1  0.803100  0.677200  0.140060  1.0  0.7376
  C  C306  1  0.411900  0.746200  0.249530  1.0  -0.1797
  C  C307  1  0.686900  0.922100  0.353540  1.0  -0.1326
  C  C308  1  0.742600  0.683500  0.214180  1.0  -0.0004
  C  C309  1  0.728600  0.676500  0.169110  1.0  -0.1453
  C  C310  1  0.364300  0.742900  0.559730  1.0  -0.1595
  C  C311  1  0.236100  0.550100  0.577380  1.0  0.1855
  C  C312  1  0.243100  0.402100  0.694070  1.0  0.0012
  C  C313  1  0.266500  0.703700  0.553250  1.0  -0.0335
  C  C314  1  0.100200  0.414000  0.513210  1.0  -0.1781
  C  C315  1  0.203000  0.609100  0.562130  1.0  -0.1625
  C  C316  1  0.193700  0.405300  0.620010  1.0  0.161
  C  C317  1  0.397000  0.682900  0.574520  1.0  -0.0164
  C  C318  1  0.094900  0.396600  0.558090  1.0  0.2096
  C  C319  1  0.207800  0.271600  0.645510  1.0  -0.0491
  C  C320  1  0.222800  0.447500  0.661480  1.0  -0.1986
  C  C321  1  0.012000  0.319300  0.575130  1.0  -0.182
  C  C322  1  0.027700  0.352300  0.485660  1.0  -0.0268
  C  C323  1  0.431400  0.845600  0.550870  1.0  0.7459
  C  C324  1  0.186800  0.317200  0.612610  1.0  -0.1696
  C  C325  1  0.261200  0.268900  0.723540  1.0  0.7269
  C  C326  1  0.874100  0.196900  0.473390  1.0  0.7395
  C  C327  1  0.334300  0.588100  0.582860  1.0  -0.1788
  C  C328  1  0.235200  0.313100  0.686870  1.0  -0.1333
  C  C329  1  0.940900  0.257400  0.547510  1.0  0.0014
  C  C330  1  0.947900  0.271400  0.502440  1.0  -0.1461
  C  C331  1  0.378600  0.635700  0.893060  1.0  -0.1584
  C  C332  1  0.314000  0.763900  0.910710  1.0  0.1848
  C  C333  1  0.159000  0.756900  0.027400  1.0  0.0027
  C  C334  1  0.437200  0.733500  0.886580  1.0  -0.0356
  C  C335  1  0.313800  0.899800  0.846540  1.0  -0.1765
  C  C336  1  0.406100  0.797000  0.895460  1.0  -0.1612
  C  C337  1  0.211600  0.806300  0.953340  1.0  0.1603
  C  C338  1  0.285900  0.603000  0.907850  1.0  -0.0182
  C  C339  1  0.301700  0.905100  0.891420  1.0  0.2097
  C  C340  1  0.063800  0.792200  0.978840  1.0  -0.047
  C  C341  1  0.224700  0.777200  0.994810  1.0  -0.199
  C  C342  1  0.307300  0.988000  0.908460  1.0  -0.1815
  C  C343  1  0.324600  0.972300  0.818990  1.0  -0.0293
  C  C344  1  0.414200  0.568600  0.884200  1.0  0.742
  C  C345  1  0.130400  0.813200  0.945940  1.0  -0.1698
  C  C346  1  0.007700  0.738800  0.056870  1.0  0.726
  C  C347  1  0.322800  0.125900  0.806720  1.0  0.7398
  C  C348  1  0.253800  0.665700  0.916190  1.0  -0.179
  C  C349  1  0.077900  0.764800  0.020200  1.0  -0.1313
  C  C350  1  0.316500  0.059100  0.880840  1.0  0.0021
  C  C351  1  0.323500  0.052100  0.835770  1.0  -0.1455
  C  C352  1  0.742900  0.378600  0.226400  1.0  -0.1595
  C  C353  1  0.550100  0.314000  0.244050  1.0  0.1839
  C  C354  1  0.402100  0.159000  0.360740  1.0  -0.0004
  C  C355  1  0.703700  0.437200  0.219920  1.0  -0.0365
  C  C356  1  0.414000  0.313800  0.179880  1.0  -0.1795
  C  C357  1  0.609100  0.406100  0.228800  1.0  -0.1603
  C  C358  1  0.405300  0.211600  0.286680  1.0  0.1615
  C  C359  1  0.682900  0.285900  0.241190  1.0  -0.0158
  C  C360  1  0.396600  0.301700  0.224760  1.0  0.21
  C  C361  1  0.271600  0.063800  0.312180  1.0  -0.0445
  C  C362  1  0.447500  0.224700  0.328150  1.0  -0.1963
  C  C363  1  0.319300  0.307300  0.241800  1.0  -0.1844
  C  C364  1  0.352300  0.324600  0.152330  1.0  -0.0275
  C  C365  1  0.845600  0.414200  0.217540  1.0  0.7414
  C  C366  1  0.317200  0.130400  0.279280  1.0  -0.1712
  C  C367  1  0.268900  0.007700  0.390210  1.0  0.7259
  C  C368  1  0.196900  0.322800  0.140060  1.0  0.7367
  C  C369  1  0.588100  0.253800  0.249530  1.0  -0.1783
  C  C370  1  0.313100  0.077900  0.353540  1.0  -0.133
  C  C371  1  0.257400  0.316500  0.214180  1.0  0.0018
  C  C372  1  0.271400  0.323500  0.169110  1.0  -0.1475
  C  C373  1  0.635700  0.257100  0.559730  1.0  -0.1608
  C  C374  1  0.763900  0.449900  0.577380  1.0  0.1849
  C  C375  1  0.756900  0.597900  0.694070  1.0  0.0019
  C  C376  1  0.733500  0.296300  0.553250  1.0  -0.0345
  C  C377  1  0.899800  0.586000  0.513210  1.0  -0.1779
  C  C378  1  0.797000  0.390900  0.562130  1.0  -0.1623
  C  C379  1  0.806300  0.594700  0.620010  1.0  0.1612
  C  C380  1  0.603000  0.317100  0.574520  1.0  -0.0131
  C  C381  1  0.905100  0.603400  0.558090  1.0  0.2097
  C  C382  1  0.792200  0.728400  0.645510  1.0  -0.0503
  C  C383  1  0.777200  0.552500  0.661480  1.0  -0.1962
  C  C384  1  0.988000  0.680700  0.575130  1.0  -0.182
  C  C385  1  0.972300  0.647700  0.485660  1.0  -0.0274
  C  C386  1  0.568600  0.154400  0.550870  1.0  0.7444
  C  C387  1  0.813200  0.682800  0.612610  1.0  -0.1706
  C  C388  1  0.738800  0.731100  0.723540  1.0  0.7261
  C  C389  1  0.125900  0.803100  0.473390  1.0  0.7385
  C  C390  1  0.665700  0.411900  0.582860  1.0  -0.1799
  C  C391  1  0.764800  0.686900  0.686870  1.0  -0.1326
  C  C392  1  0.059100  0.742600  0.547510  1.0  0.0016
  C  C393  1  0.052100  0.728600  0.502440  1.0  -0.146
  C  C394  1  0.621400  0.364300  0.893060  1.0  -0.1572
  C  C395  1  0.686000  0.236100  0.910710  1.0  0.1852
  C  C396  1  0.841000  0.243100  0.027400  1.0  0.0025
  C  C397  1  0.562800  0.266500  0.886580  1.0  -0.0338
  C  C398  1  0.686200  0.100200  0.846540  1.0  -0.1781
  C  C399  1  0.593900  0.203000  0.895460  1.0  -0.1602
  C  C400  1  0.788400  0.193700  0.953340  1.0  0.1612
  C  C401  1  0.714100  0.397000  0.907850  1.0  -0.0173
  C  C402  1  0.698300  0.094900  0.891420  1.0  0.2087
  C  C403  1  0.936200  0.207800  0.978840  1.0  -0.0473
  C  C404  1  0.775300  0.222800  0.994810  1.0  -0.2035
  C  C405  1  0.692700  0.012000  0.908460  1.0  -0.181
  C  C406  1  0.675400  0.027700  0.818990  1.0  -0.0304
  C  C407  1  0.585800  0.431400  0.884200  1.0  0.7405
  C  C408  1  0.869600  0.186800  0.945940  1.0  -0.1684
  C  C409  1  0.992300  0.261200  0.056870  1.0  0.7263
  C  C410  1  0.677200  0.874100  0.806720  1.0  0.7401
  C  C411  1  0.746200  0.334300  0.916190  1.0  -0.1823
  C  C412  1  0.922100  0.235200  0.020200  1.0  -0.1312
  C  C413  1  0.683500  0.940900  0.880840  1.0  -0.0005
  C  C414  1  0.676500  0.947900  0.835770  1.0  -0.1457
  N  N415  1  0.719800  0.547800  0.413580  1.0  -0.1429
  N  N416  1  0.452200  0.172000  0.080250  1.0  -0.1428
  N  N417  1  0.828000  0.280200  0.746910  1.0  -0.1422
  N  N418  1  0.280200  0.452200  0.413580  1.0  -0.1426
  N  N419  1  0.547800  0.828000  0.080250  1.0  -0.1429
  N  N420  1  0.172000  0.719800  0.746910  1.0  -0.1431
  N  N421  1  0.547800  0.719800  0.253090  1.0  -0.1423
  N  N422  1  0.172000  0.452200  0.586420  1.0  -0.1428
  N  N423  1  0.280200  0.828000  0.919750  1.0  -0.1428
  N  N424  1  0.452200  0.280200  0.253090  1.0  -0.1426
  N  N425  1  0.828000  0.547800  0.586420  1.0  -0.1428
  N  N426  1  0.719800  0.172000  0.919750  1.0  -0.1427
  O  O427  1  0.643100  0.123500  0.446780  1.0  -0.6192
  O  O428  1  0.972300  0.699300  0.239850  1.0  -0.6397
  O  O429  1  0.498400  0.102000  0.457730  1.0  -0.7147
  O  O430  1  0.674700  0.789800  0.567720  1.0  -0.5632
  O  O431  1  0.682800  0.874600  0.509100  1.0  -0.6522
  O  O432  1  0.075900  0.799600  0.287130  1.0  -0.617
  O  O433  1  0.876500  0.519600  0.113450  1.0  -0.619
  O  O434  1  0.300700  0.273000  0.906520  1.0  -0.644
  O  O435  1  0.898000  0.396400  0.124400  1.0  -0.7121
  O  O436  1  0.210200  0.884900  0.234390  1.0  -0.5646
  O  O437  1  0.125400  0.808200  0.175770  1.0  -0.6539
  O  O438  1  0.200400  0.276300  0.953800  1.0  -0.6186
  O  O439  1  0.480400  0.356900  0.780110  1.0  -0.6184
  O  O440  1  0.727000  0.027700  0.573180  1.0  -0.643
  O  O441  1  0.603600  0.501600  0.791060  1.0  -0.7141
  O  O442  1  0.115100  0.325300  0.901050  1.0  -0.5612
  O  O443  1  0.191800  0.317200  0.842430  1.0  -0.6486
  O  O444  1  0.723700  0.924100  0.620460  1.0  -0.616
  O  O445  1  0.356900  0.876500  0.446780  1.0  -0.6185
  O  O446  1  0.027700  0.300700  0.239850  1.0  -0.6409
  O  O447  1  0.501600  0.898000  0.457730  1.0  -0.7139
  O  O448  1  0.325300  0.210200  0.567720  1.0  -0.5633
  O  O449  1  0.317200  0.125400  0.509100  1.0  -0.6528
  O  O450  1  0.924100  0.200400  0.287130  1.0  -0.618
  O  O451  1  0.123500  0.480400  0.113450  1.0  -0.619
  O  O452  1  0.699300  0.727000  0.906520  1.0  -0.6422
  O  O453  1  0.102000  0.603600  0.124400  1.0  -0.7136
  O  O454  1  0.789800  0.115100  0.234390  1.0  -0.5636
  O  O455  1  0.874600  0.191800  0.175770  1.0  -0.6517
  O  O456  1  0.799600  0.723700  0.953800  1.0  -0.6157
  O  O457  1  0.519600  0.643100  0.780110  1.0  -0.6189
  O  O458  1  0.273000  0.972300  0.573180  1.0  -0.6434
  O  O459  1  0.396400  0.498400  0.791060  1.0  -0.7142
  O  O460  1  0.884900  0.674700  0.901050  1.0  -0.5621
  O  O461  1  0.808200  0.682800  0.842430  1.0  -0.6487
  O  O462  1  0.276300  0.075900  0.620460  1.0  -0.6157
  O  O463  1  0.123500  0.643100  0.219890  1.0  -0.6182
  O  O464  1  0.699300  0.972300  0.426820  1.0  -0.6428
  O  O465  1  0.102000  0.498400  0.208940  1.0  -0.7144
  O  O466  1  0.789800  0.674700  0.098950  1.0  -0.5607
  O  O467  1  0.874600  0.682800  0.157570  1.0  -0.6485
  O  O468  1  0.799600  0.075900  0.379540  1.0  -0.6157
  O  O469  1  0.519600  0.876500  0.553220  1.0  -0.6193
  O  O470  1  0.273000  0.300700  0.760150  1.0  -0.6396
  O  O471  1  0.396400  0.898000  0.542270  1.0  -0.7137
  O  O472  1  0.884900  0.210200  0.432280  1.0  -0.5621
  O  O473  1  0.808200  0.125400  0.490900  1.0  -0.6523
  O  O474  1  0.276300  0.200400  0.712870  1.0  -0.6165
  O  O475  1  0.356900  0.480400  0.886550  1.0  -0.6187
  O  O476  1  0.027700  0.727000  0.093480  1.0  -0.6439
  O  O477  1  0.501600  0.603600  0.875600  1.0  -0.7125
  O  O478  1  0.325300  0.115100  0.765610  1.0  -0.5636
  O  O479  1  0.317200  0.191800  0.824230  1.0  -0.6526
  O  O480  1  0.924100  0.723700  0.046200  1.0  -0.6165
  O  O481  1  0.876500  0.356900  0.219890  1.0  -0.6181
  O  O482  1  0.300700  0.027700  0.426820  1.0  -0.644
  O  O483  1  0.898000  0.501600  0.208940  1.0  -0.7131
  O  O484  1  0.210200  0.325300  0.098950  1.0  -0.5609
  O  O485  1  0.125400  0.317200  0.157570  1.0  -0.6494
  O  O486  1  0.200400  0.924100  0.379540  1.0  -0.6149
  O  O487  1  0.480400  0.123500  0.553220  1.0  -0.6177
  O  O488  1  0.727000  0.699300  0.760150  1.0  -0.6408
  O  O489  1  0.603600  0.102000  0.542270  1.0  -0.7146
  O  O490  1  0.115100  0.789800  0.432280  1.0  -0.5628
  O  O491  1  0.191800  0.874600  0.490900  1.0  -0.6539
  O  O492  1  0.723700  0.799600  0.712870  1.0  -0.6168
  O  O493  1  0.643100  0.519600  0.886550  1.0  -0.6198
  O  O494  1  0.972300  0.273000  0.093480  1.0  -0.6427
  O  O495  1  0.498400  0.396400  0.875600  1.0  -0.7135
  O  O496  1  0.674700  0.884900  0.765610  1.0  -0.5629
  O  O497  1  0.682800  0.808200  0.824230  1.0  -0.6524
  O  O498  1  0.075900  0.276300  0.046200  1.0  -0.6164
