# generated using pymatgen
data_CuH16(C5N)4
_symmetry_space_group_name_H-M   'P 1'
_cell_length_a   7.32010000
_cell_length_b   21.10100000
_cell_length_c   22.20700000
_cell_angle_alpha   90.00000000
_cell_angle_beta   90.00000000
_cell_angle_gamma   90.00000000
_symmetry_Int_Tables_number   1
_chemical_formula_structural   CuH16(C5N)4
_chemical_formula_sum   'Cu4 H64 C80 N16'
_cell_volume   3430.12497823
_cell_formula_units_Z   4
loop_
 _symmetry_equiv_pos_site_id
 _symmetry_equiv_pos_as_xyz
  1  'x, y, z'
loop_
 _atom_site_type_symbol
 _atom_site_label
 _atom_site_symmetry_multiplicity
 _atom_site_fract_x
 _atom_site_fract_y
 _atom_site_fract_z
 _atom_site_occupancy
 _atom_site_charge
  Cu  Cu1  1  0.750000  0.750000  0.003080  1.0  0.3612
  Cu  Cu2  1  0.250000  0.250000  0.496920  1.0  0.3611
  Cu  Cu3  1  0.250000  0.250000  0.996920  1.0  0.3611
  Cu  Cu4  1  0.750000  0.750000  0.503080  1.0  0.3612
  H  H5  1  0.501400  0.717700  0.103200  1.0  0.0694
  H  H6  1  0.487300  0.719800  0.207400  1.0  0.1175
  H  H7  1  0.608000  0.667600  0.298500  1.0  0.1199
  H  H8  1  0.622200  0.668500  0.401800  1.0  0.0634
  H  H9  1  0.045800  0.827300  0.939700  1.0  0.0726
  H  H10  1  0.157300  0.930200  0.938300  1.0  0.1066
  H  H11  1  0.807000  0.972300  0.072100  1.0  0.0929
  H  H12  1  0.699000  0.869500  0.071200  1.0  0.0953
  H  H13  1  0.998600  0.782300  0.103200  1.0  0.0697
  H  H14  1  0.012700  0.780200  0.207400  1.0  0.1169
  H  H15  1  0.892000  0.832400  0.298500  1.0  0.1203
  H  H16  1  0.877800  0.831500  0.401800  1.0  0.0631
  H  H17  1  0.454200  0.672700  0.939700  1.0  0.0722
  H  H18  1  0.342700  0.569800  0.938300  1.0  0.1063
  H  H19  1  0.693000  0.527700  0.072100  1.0  0.0926
  H  H20  1  0.801000  0.630500  0.071200  1.0  0.0956
  H  H21  1  0.498600  0.217700  0.396800  1.0  0.07
  H  H22  1  0.512700  0.219800  0.292600  1.0  0.1167
  H  H23  1  0.392000  0.167600  0.201500  1.0  0.1199
  H  H24  1  0.377800  0.168500  0.098200  1.0  0.0644
  H  H25  1  0.954200  0.327300  0.560300  1.0  0.0718
  H  H26  1  0.842700  0.430200  0.561700  1.0  0.107
  H  H27  1  0.193000  0.472300  0.427900  1.0  0.0928
  H  H28  1  0.301000  0.369500  0.428800  1.0  0.0951
  H  H29  1  0.001400  0.282300  0.396800  1.0  0.0691
  H  H30  1  0.987300  0.280200  0.292600  1.0  0.1172
  H  H31  1  0.108000  0.332400  0.201500  1.0  0.1204
  H  H32  1  0.122200  0.331500  0.098200  1.0  0.0646
  H  H33  1  0.545800  0.172700  0.560300  1.0  0.0716
  H  H34  1  0.657300  0.069800  0.561700  1.0  0.1068
  H  H35  1  0.307000  0.027700  0.427900  1.0  0.093
  H  H36  1  0.199000  0.130500  0.428800  1.0  0.0952
  H  H37  1  0.498600  0.282300  0.896800  1.0  0.0699
  H  H38  1  0.512700  0.280200  0.792600  1.0  0.1169
  H  H39  1  0.392000  0.332400  0.701500  1.0  0.1198
  H  H40  1  0.377800  0.331500  0.598200  1.0  0.0642
  H  H41  1  0.954200  0.172700  0.060300  1.0  0.0717
  H  H42  1  0.842700  0.069800  0.061700  1.0  0.1068
  H  H43  1  0.193000  0.027700  0.927900  1.0  0.0927
  H  H44  1  0.301000  0.130500  0.928800  1.0  0.0954
  H  H45  1  0.001400  0.217700  0.896800  1.0  0.0694
  H  H46  1  0.987300  0.219800  0.792600  1.0  0.1171
  H  H47  1  0.108000  0.167600  0.701500  1.0  0.1199
  H  H48  1  0.122200  0.168500  0.598200  1.0  0.0641
  H  H49  1  0.545800  0.327300  0.060300  1.0  0.0724
  H  H50  1  0.657300  0.430200  0.061700  1.0  0.1069
  H  H51  1  0.307000  0.472300  0.927900  1.0  0.0932
  H  H52  1  0.199000  0.369500  0.928800  1.0  0.0949
  H  H53  1  0.501400  0.782300  0.603200  1.0  0.0695
  H  H54  1  0.487300  0.780200  0.707400  1.0  0.1171
  H  H55  1  0.608000  0.832400  0.798500  1.0  0.1209
  H  H56  1  0.622200  0.831500  0.901800  1.0  0.0636
  H  H57  1  0.045800  0.672700  0.439700  1.0  0.0723
  H  H58  1  0.157300  0.569800  0.438300  1.0  0.1063
  H  H59  1  0.807000  0.527700  0.572100  1.0  0.0932
  H  H60  1  0.699000  0.630500  0.571200  1.0  0.0952
  H  H61  1  0.998600  0.717700  0.603200  1.0  0.0695
  H  H62  1  0.012700  0.719800  0.707400  1.0  0.1173
  H  H63  1  0.892000  0.667600  0.798500  1.0  0.12
  H  H64  1  0.877800  0.668500  0.901800  1.0  0.0631
  H  H65  1  0.454200  0.827300  0.439700  1.0  0.072
  H  H66  1  0.342700  0.930200  0.438300  1.0  0.1067
  H  H67  1  0.693000  0.972300  0.572100  1.0  0.0924
  H  H68  1  0.801000  0.869500  0.571200  1.0  0.0955
  C  C69  1  0.605200  0.731720  0.125210  1.0  0.1292
  C  C70  1  0.596300  0.731850  0.187240  1.0  -0.2526
  C  C71  1  0.667800  0.701410  0.318720  1.0  -0.2392
  C  C72  1  0.674500  0.702950  0.380360  1.0  0.1431
  C  C73  1  0.996300  0.857400  0.967000  1.0  0.1442
  C  C74  1  0.063500  0.918800  0.965800  1.0  -0.2171
  C  C75  1  0.992000  0.963500  0.005300  1.0  -0.0123
  C  C76  1  0.857300  0.943000  0.044200  1.0  -0.1581
  C  C77  1  0.793000  0.881500  0.044100  1.0  0.083
  C  C78  1  0.894800  0.768280  0.125210  1.0  0.1296
  C  C79  1  0.903700  0.768150  0.187240  1.0  -0.2499
  C  C80  1  0.832200  0.798590  0.318720  1.0  -0.2394
  C  C81  1  0.825500  0.797050  0.380360  1.0  0.1448
  C  C82  1  0.503700  0.642600  0.967000  1.0  0.1433
  C  C83  1  0.436500  0.581200  0.965800  1.0  -0.2192
  C  C84  1  0.508000  0.536500  0.005300  1.0  -0.0119
  C  C85  1  0.642700  0.557000  0.044200  1.0  -0.1565
  C  C86  1  0.707000  0.618500  0.044100  1.0  0.0837
  C  C87  1  0.394800  0.231720  0.374790  1.0  0.1295
  C  C88  1  0.403700  0.231850  0.312760  1.0  -0.2505
  C  C89  1  0.332200  0.201410  0.181280  1.0  -0.24
  C  C90  1  0.325500  0.202950  0.119640  1.0  0.1415
  C  C91  1  0.003700  0.357400  0.533000  1.0  0.1435
  C  C92  1  0.936500  0.418800  0.534200  1.0  -0.2196
  C  C93  1  0.008000  0.463500  0.494700  1.0  -0.0131
  C  C94  1  0.142700  0.443000  0.455800  1.0  -0.1577
  C  C95  1  0.207000  0.381500  0.455900  1.0  0.084
  C  C96  1  0.105200  0.268280  0.374790  1.0  0.1289
  C  C97  1  0.096300  0.268150  0.312760  1.0  -0.2524
  C  C98  1  0.167800  0.298590  0.181280  1.0  -0.2407
  C  C99  1  0.174500  0.297050  0.119640  1.0  0.1445
  C  C100  1  0.496300  0.142600  0.533000  1.0  0.1449
  C  C101  1  0.563500  0.081200  0.534200  1.0  -0.2175
  C  C102  1  0.492000  0.036500  0.494700  1.0  -0.0128
  C  C103  1  0.357300  0.057000  0.455800  1.0  -0.1573
  C  C104  1  0.293000  0.118500  0.455900  1.0  0.0825
  C  C105  1  0.394800  0.268280  0.874790  1.0  0.1294
  C  C106  1  0.403700  0.268150  0.812760  1.0  -0.2506
  C  C107  1  0.332200  0.298590  0.681280  1.0  -0.2401
  C  C108  1  0.325500  0.297050  0.619640  1.0  0.1423
  C  C109  1  0.003700  0.142600  0.033000  1.0  0.1437
  C  C110  1  0.936500  0.081200  0.034200  1.0  -0.2207
  C  C111  1  0.008000  0.036500  0.994700  1.0  -0.0131
  C  C112  1  0.142700  0.057000  0.955800  1.0  -0.1575
  C  C113  1  0.207000  0.118500  0.955900  1.0  0.0836
  C  C114  1  0.105200  0.231720  0.874790  1.0  0.129
  C  C115  1  0.096300  0.231850  0.812760  1.0  -0.2527
  C  C116  1  0.167800  0.201410  0.681280  1.0  -0.2393
  C  C117  1  0.174500  0.202950  0.619640  1.0  0.1434
  C  C118  1  0.496300  0.357400  0.033000  1.0  0.145
  C  C119  1  0.563500  0.418800  0.034200  1.0  -0.2195
  C  C120  1  0.492000  0.463500  0.994700  1.0  -0.0129
  C  C121  1  0.357300  0.443000  0.955800  1.0  -0.1577
  C  C122  1  0.293000  0.381500  0.955900  1.0  0.083
  C  C123  1  0.605200  0.768280  0.625210  1.0  0.1292
  C  C124  1  0.596300  0.768150  0.687240  1.0  -0.2526
  C  C125  1  0.667800  0.798590  0.818720  1.0  -0.2401
  C  C126  1  0.674500  0.797050  0.880360  1.0  0.143
  C  C127  1  0.996300  0.642600  0.467000  1.0  0.1443
  C  C128  1  0.063500  0.581200  0.465800  1.0  -0.2188
  C  C129  1  0.992000  0.536500  0.505300  1.0  -0.0119
  C  C130  1  0.857300  0.557000  0.544200  1.0  -0.1583
  C  C131  1  0.793000  0.618500  0.544100  1.0  0.0828
  C  C132  1  0.894800  0.731720  0.625210  1.0  0.1296
  C  C133  1  0.903700  0.731850  0.687240  1.0  -0.2496
  C  C134  1  0.832200  0.701410  0.818720  1.0  -0.2394
  C  C135  1  0.825500  0.702950  0.880360  1.0  0.1448
  C  C136  1  0.503700  0.857400  0.467000  1.0  0.1428
  C  C137  1  0.436500  0.918800  0.465800  1.0  -0.2207
  C  C138  1  0.508000  0.963500  0.505300  1.0  -0.0121
  C  C139  1  0.642700  0.943000  0.544200  1.0  -0.156
  C  C140  1  0.707000  0.881500  0.544100  1.0  0.0841
  C  C141  1  0.750000  0.750000  0.219700  1.0  0.1102
  C  C142  1  0.750000  0.750000  0.286300  1.0  0.1007
  C  C143  1  0.250000  0.250000  0.280300  1.0  0.1097
  C  C144  1  0.250000  0.250000  0.213700  1.0  0.1007
  C  C145  1  0.250000  0.250000  0.780300  1.0  0.1097
  C  C146  1  0.250000  0.250000  0.713700  1.0  0.1007
  C  C147  1  0.750000  0.750000  0.719700  1.0  0.1102
  C  C148  1  0.750000  0.750000  0.786300  1.0  0.1007
  N  N149  1  0.863100  0.838300  0.005400  1.0  -0.3216
  N  N150  1  0.636900  0.661700  0.005400  1.0  -0.3219
  N  N151  1  0.136900  0.338300  0.494600  1.0  -0.3215
  N  N152  1  0.363100  0.161700  0.494600  1.0  -0.3224
  N  N153  1  0.136900  0.161700  0.994600  1.0  -0.3221
  N  N154  1  0.363100  0.338300  0.994600  1.0  -0.3216
  N  N155  1  0.863100  0.661700  0.505400  1.0  -0.3221
  N  N156  1  0.636900  0.838300  0.505400  1.0  -0.3214
  N  N157  1  0.750000  0.750000  0.095090  1.0  -0.3104
  N  N158  1  0.750000  0.750000  0.412150  1.0  -0.3325
  N  N159  1  0.250000  0.250000  0.404910  1.0  -0.3095
  N  N160  1  0.250000  0.250000  0.087850  1.0  -0.3331
  N  N161  1  0.250000  0.250000  0.904910  1.0  -0.3095
  N  N162  1  0.250000  0.250000  0.587850  1.0  -0.3331
  N  N163  1  0.750000  0.750000  0.595090  1.0  -0.3104
  N  N164  1  0.750000  0.750000  0.912150  1.0  -0.3325
