# generated using pymatgen
data_BaGe2H7C8O15
_symmetry_space_group_name_H-M   'P 1'
_cell_length_a   8.50330000
_cell_length_b   8.50330000
_cell_length_c   30.93930000
_cell_angle_alpha   90.00000000
_cell_angle_beta   90.00000000
_cell_angle_gamma   90.00000000
_symmetry_Int_Tables_number   1
_chemical_formula_structural   BaGe2H7C8O15
_chemical_formula_sum   'Ba4 Ge8 H28 C32 O60'
_cell_volume   2237.10045666
_cell_formula_units_Z   4
loop_
 _symmetry_equiv_pos_site_id
 _symmetry_equiv_pos_as_xyz
  1  'x, y, z'
loop_
 _atom_site_type_symbol
 _atom_site_label
 _atom_site_symmetry_multiplicity
 _atom_site_fract_x
 _atom_site_fract_y
 _atom_site_fract_z
 _atom_site_occupancy
 _atom_site_charge
  Ba  Ba1  1  0.497610  0.496140  0.577780  1.0  1.7127
  Ba  Ba2  1  0.502390  0.503860  0.077780  1.0  1.7128
  Ba  Ba3  1  0.503860  0.497610  0.327780  1.0  1.713
  Ba  Ba4  1  0.496140  0.502390  0.827780  1.0  1.7127
  Ge  Ge5  1  0.001360  0.996810  0.498400  1.0  1.7749
  Ge  Ge6  1  0.999730  0.000390  0.650070  1.0  1.7788
  Ge  Ge7  1  0.998640  0.003190  0.998400  1.0  1.7744
  Ge  Ge8  1  0.000270  0.999610  0.150070  1.0  1.7786
  Ge  Ge9  1  0.003190  0.001360  0.248400  1.0  1.7817
  Ge  Ge10  1  0.999610  0.999730  0.400070  1.0  1.7789
  Ge  Ge11  1  0.996810  0.998640  0.748400  1.0  1.7818
  Ge  Ge12  1  0.000390  0.000270  0.900070  1.0  1.7791
  H  H13  1  0.068500  0.357100  0.607100  1.0  0.0938
  H  H14  1  0.936000  0.355600  0.541300  1.0  0.0988
  H  H15  1  0.925900  0.644800  0.607700  1.0  0.0999
  H  H16  1  0.060300  0.636900  0.542400  1.0  0.0972
  H  H17  1  0.191200  0.099300  0.701300  1.0  0.464
  H  H18  1  0.816200  0.904000  0.699600  1.0  0.476
  H  H19  1  0.636200  0.524600  0.678000  1.0  0.3938
  H  H20  1  0.931500  0.642900  0.107100  1.0  0.0949
  H  H21  1  0.064000  0.644400  0.041300  1.0  0.0982
  H  H22  1  0.074100  0.355200  0.107700  1.0  0.0991
  H  H23  1  0.939700  0.363100  0.042400  1.0  0.0983
  H  H24  1  0.808800  0.900700  0.201300  1.0  0.4588
  H  H25  1  0.183800  0.096000  0.199600  1.0  0.4765
  H  H26  1  0.363800  0.475400  0.178000  1.0  0.3944
  H  H27  1  0.642900  0.068500  0.357100  1.0  0.0949
  H  H28  1  0.644400  0.936000  0.291300  1.0  0.0983
  H  H29  1  0.355200  0.925900  0.357700  1.0  0.0996
  H  H30  1  0.363100  0.060300  0.292400  1.0  0.0973
  H  H31  1  0.900700  0.191200  0.451300  1.0  0.4683
  H  H32  1  0.096000  0.816200  0.449600  1.0  0.481
  H  H33  1  0.475400  0.636200  0.428000  1.0  0.3938
  H  H34  1  0.357100  0.931500  0.857100  1.0  0.0955
  H  H35  1  0.355600  0.064000  0.791300  1.0  0.0985
  H  H36  1  0.644800  0.074100  0.857700  1.0  0.0988
  H  H37  1  0.636900  0.939700  0.792400  1.0  0.0976
  H  H38  1  0.099300  0.808800  0.951300  1.0  0.4691
  H  H39  1  0.904000  0.183800  0.949600  1.0  0.4802
  H  H40  1  0.524600  0.363800  0.928000  1.0  0.3948
  C  C41  1  0.852600  0.257100  0.620150  1.0  0.7003
  C  C42  1  0.014700  0.259700  0.598820  1.0  0.0408
  C  C43  1  0.992100  0.259300  0.549410  1.0  0.0371
  C  C44  1  0.151600  0.259500  0.526820  1.0  0.6873
  C  C45  1  0.143600  0.738300  0.621090  1.0  0.6927
  C  C46  1  0.983400  0.739600  0.598990  1.0  0.043
  C  C47  1  0.007100  0.735200  0.550010  1.0  0.045
  C  C48  1  0.847500  0.738300  0.528090  1.0  0.6898
  C  C49  1  0.147400  0.742900  0.120150  1.0  0.7014
  C  C50  1  0.985300  0.740300  0.098820  1.0  0.0408
  C  C51  1  0.007900  0.740700  0.049410  1.0  0.0382
  C  C52  1  0.848400  0.740500  0.026820  1.0  0.6875
  C  C53  1  0.856400  0.261700  0.121090  1.0  0.6915
  C  C54  1  0.016600  0.260400  0.098990  1.0  0.0434
  C  C55  1  0.992900  0.264800  0.050010  1.0  0.0438
  C  C56  1  0.152500  0.261700  0.028090  1.0  0.6898
  C  C57  1  0.742900  0.852600  0.370150  1.0  0.7004
  C  C58  1  0.740300  0.014700  0.348820  1.0  0.041
  C  C59  1  0.740700  0.992100  0.299410  1.0  0.0366
  C  C60  1  0.740500  0.151600  0.276820  1.0  0.6897
  C  C61  1  0.261700  0.143600  0.371090  1.0  0.6899
  C  C62  1  0.260400  0.983400  0.348990  1.0  0.042
  C  C63  1  0.264800  0.007100  0.300010  1.0  0.0433
  C  C64  1  0.261700  0.847500  0.278090  1.0  0.6893
  C  C65  1  0.257100  0.147400  0.870150  1.0  0.6999
  C  C66  1  0.259700  0.985300  0.848820  1.0  0.0415
  C  C67  1  0.259300  0.007900  0.799410  1.0  0.0361
  C  C68  1  0.259500  0.848400  0.776820  1.0  0.6887
  C  C69  1  0.738300  0.856400  0.871090  1.0  0.6909
  C  C70  1  0.739600  0.016600  0.848990  1.0  0.0419
  C  C71  1  0.735200  0.992900  0.800010  1.0  0.0435
  C  C72  1  0.738300  0.152500  0.778090  1.0  0.6919
  O  O73  1  0.831400  0.146100  0.647650  1.0  -0.5745
  O  O74  1  0.756100  0.357300  0.611190  1.0  -0.6531
  O  O75  1  0.105800  0.131400  0.612610  1.0  -0.616
  O  O76  1  0.902400  0.130000  0.535990  1.0  -0.6177
  O  O77  1  0.173500  0.141200  0.500850  1.0  -0.5697
  O  O78  1  0.246900  0.363400  0.532260  1.0  -0.6585
  O  O79  1  0.168600  0.853700  0.647640  1.0  -0.5744
  O  O80  1  0.238100  0.633700  0.614620  1.0  -0.6459
  O  O81  1  0.896000  0.872200  0.611910  1.0  -0.6172
  O  O82  1  0.100500  0.863100  0.535630  1.0  -0.6246
  O  O83  1  0.828900  0.854000  0.500300  1.0  -0.5753
  O  O84  1  0.746700  0.639900  0.535110  1.0  -0.6643
  O  O85  1  0.093700  0.096600  0.699780  1.0  -0.8942
  O  O86  1  0.903200  0.900800  0.699190  1.0  -0.9029
  O  O87  1  0.548800  0.552800  0.665860  1.0  -0.7478
  O  O88  1  0.168600  0.853900  0.147650  1.0  -0.5753
  O  O89  1  0.243900  0.642700  0.111190  1.0  -0.6525
  O  O90  1  0.894200  0.868600  0.112610  1.0  -0.6145
  O  O91  1  0.097600  0.870000  0.035990  1.0  -0.6156
  O  O92  1  0.826500  0.858800  0.000850  1.0  -0.5683
  O  O93  1  0.753100  0.636600  0.032260  1.0  -0.6587
  O  O94  1  0.831400  0.146300  0.147640  1.0  -0.5745
  O  O95  1  0.761900  0.366300  0.114620  1.0  -0.6463
  O  O96  1  0.104000  0.127800  0.111910  1.0  -0.6195
  O  O97  1  0.899500  0.136900  0.035630  1.0  -0.6247
  O  O98  1  0.171100  0.146000  0.000300  1.0  -0.5766
  O  O99  1  0.253300  0.360100  0.035110  1.0  -0.6651
  O  O100  1  0.906300  0.903400  0.199780  1.0  -0.8949
  O  O101  1  0.096800  0.099200  0.199190  1.0  -0.8982
  O  O102  1  0.451200  0.447200  0.165860  1.0  -0.7454
  O  O103  1  0.853900  0.831400  0.397650  1.0  -0.576
  O  O104  1  0.642700  0.756100  0.361190  1.0  -0.6486
  O  O105  1  0.868600  0.105800  0.362610  1.0  -0.6169
  O  O106  1  0.870000  0.902400  0.285990  1.0  -0.6184
  O  O107  1  0.858800  0.173500  0.250850  1.0  -0.5728
  O  O108  1  0.636600  0.246900  0.282260  1.0  -0.6567
  O  O109  1  0.146300  0.168600  0.397640  1.0  -0.5782
  O  O110  1  0.366300  0.238100  0.364620  1.0  -0.6424
  O  O111  1  0.127800  0.896000  0.361910  1.0  -0.6186
  O  O112  1  0.136900  0.100500  0.285630  1.0  -0.6252
  O  O113  1  0.146000  0.828900  0.250300  1.0  -0.5762
  O  O114  1  0.360100  0.746700  0.285110  1.0  -0.6603
  O  O115  1  0.903400  0.093700  0.449780  1.0  -0.8965
  O  O116  1  0.099200  0.903200  0.449190  1.0  -0.8982
  O  O117  1  0.447200  0.548800  0.415860  1.0  -0.7419
  O  O118  1  0.146100  0.168600  0.897650  1.0  -0.5775
  O  O119  1  0.357300  0.243900  0.861190  1.0  -0.65
  O  O120  1  0.131400  0.894200  0.862610  1.0  -0.616
  O  O121  1  0.130000  0.097600  0.785990  1.0  -0.6185
  O  O122  1  0.141200  0.826500  0.750850  1.0  -0.5724
  O  O123  1  0.363400  0.753100  0.782260  1.0  -0.6573
  O  O124  1  0.853700  0.831400  0.897640  1.0  -0.5767
  O  O125  1  0.633700  0.761900  0.864620  1.0  -0.6455
  O  O126  1  0.872200  0.104000  0.861910  1.0  -0.6208
  O  O127  1  0.863100  0.899500  0.785630  1.0  -0.6242
  O  O128  1  0.854000  0.171100  0.750300  1.0  -0.5786
  O  O129  1  0.639900  0.253300  0.785110  1.0  -0.6592
  O  O130  1  0.096600  0.906300  0.949780  1.0  -0.8961
  O  O131  1  0.900800  0.096800  0.949190  1.0  -0.9023
  O  O132  1  0.552800  0.451200  0.915860  1.0  -0.7417
