# generated using pymatgen
data_ZnH6C7O4
_symmetry_space_group_name_H-M   'P 1'
_cell_length_a   10.12090000
_cell_length_b   13.97530000
_cell_length_c   18.00910000
_cell_angle_alpha   90.00000000
_cell_angle_beta   90.00000000
_cell_angle_gamma   90.00000000
_symmetry_Int_Tables_number   1
_chemical_formula_structural   ZnH6C7O4
_chemical_formula_sum   'Zn8 H48 C56 O32'
_cell_volume   2547.25417565
_cell_formula_units_Z   8
loop_
 _symmetry_equiv_pos_site_id
 _symmetry_equiv_pos_as_xyz
  1  'x, y, z'
loop_
 _atom_site_type_symbol
 _atom_site_label
 _atom_site_symmetry_multiplicity
 _atom_site_fract_x
 _atom_site_fract_y
 _atom_site_fract_z
 _atom_site_occupancy
 _atom_site_charge
  Zn  Zn1  1  0.555200  0.476480  0.587430  1.0  1.1648
  Zn  Zn2  1  0.760200  0.635900  0.659090  1.0  1.005
  Zn  Zn3  1  0.944800  0.523520  0.087430  1.0  1.1688
  Zn  Zn4  1  0.739800  0.364100  0.159090  1.0  1.0051
  Zn  Zn5  1  0.444800  0.976480  0.912570  1.0  1.166
  Zn  Zn6  1  0.239800  0.135900  0.840910  1.0  1.0048
  Zn  Zn7  1  0.055200  0.023520  0.412570  1.0  1.1689
  Zn  Zn8  1  0.260200  0.864100  0.340910  1.0  1.0045
  H  H9  1  0.390700  0.774200  0.760300  1.0  0.1003
  H  H10  1  0.465700  0.842400  0.702500  1.0  0.1042
  H  H11  1  0.234100  0.646100  0.712600  1.0  0.1014
  H  H12  1  0.211800  0.634900  0.624800  1.0  0.0978
  H  H13  1  0.333000  0.742600  0.534400  1.0  0.0994
  H  H14  1  0.431800  0.823200  0.565000  1.0  0.1024
  H  H15  1  0.063400  0.871600  0.733400  1.0  0.1087
  H  H16  1  0.142900  0.792100  0.779500  1.0  0.0983
  H  H17  1  0.181900  0.978700  0.644800  1.0  0.1043
  H  H18  1  0.338500  0.969700  0.633200  1.0  0.0999
  H  H19  1  0.085200  0.760100  0.553900  1.0  0.1009
  H  H20  1  0.028900  0.852500  0.596200  1.0  0.1008
  H  H21  1  0.109300  0.225800  0.260300  1.0  0.1004
  H  H22  1  0.034300  0.157600  0.202500  1.0  0.1042
  H  H23  1  0.265900  0.353900  0.212600  1.0  0.1008
  H  H24  1  0.288200  0.365100  0.124800  1.0  0.0979
  H  H25  1  0.167000  0.257400  0.034400  1.0  0.0989
  H  H26  1  0.068200  0.176800  0.065000  1.0  0.102
  H  H27  1  0.436600  0.128400  0.233400  1.0  0.1076
  H  H28  1  0.357100  0.207900  0.279500  1.0  0.0974
  H  H29  1  0.318100  0.021300  0.144800  1.0  0.1041
  H  H30  1  0.161500  0.030300  0.133200  1.0  0.0988
  H  H31  1  0.414800  0.239900  0.053900  1.0  0.1013
  H  H32  1  0.471100  0.147500  0.096200  1.0  0.1003
  H  H33  1  0.609300  0.274200  0.739700  1.0  0.1005
  H  H34  1  0.534300  0.342400  0.797500  1.0  0.104
  H  H35  1  0.765900  0.146100  0.787400  1.0  0.101
  H  H36  1  0.788200  0.134900  0.875200  1.0  0.0977
  H  H37  1  0.667000  0.242600  0.965600  1.0  0.0997
  H  H38  1  0.568200  0.323200  0.935000  1.0  0.1022
  H  H39  1  0.936600  0.371600  0.766600  1.0  0.1091
  H  H40  1  0.857100  0.292100  0.720500  1.0  0.0976
  H  H41  1  0.818100  0.478700  0.855200  1.0  0.1042
  H  H42  1  0.661500  0.469700  0.866800  1.0  0.0989
  H  H43  1  0.914800  0.260100  0.946100  1.0  0.1003
  H  H44  1  0.971100  0.352500  0.903800  1.0  0.0998
  H  H45  1  0.890700  0.725800  0.239700  1.0  0.1011
  H  H46  1  0.965700  0.657600  0.297500  1.0  0.1051
  H  H47  1  0.734100  0.853900  0.287400  1.0  0.1023
  H  H48  1  0.711800  0.865100  0.375200  1.0  0.0969
  H  H49  1  0.833000  0.757400  0.465600  1.0  0.0984
  H  H50  1  0.931800  0.676800  0.435000  1.0  0.1025
  H  H51  1  0.563400  0.628400  0.266600  1.0  0.1088
  H  H52  1  0.642900  0.707900  0.220500  1.0  0.0976
  H  H53  1  0.681900  0.521300  0.355200  1.0  0.1046
  H  H54  1  0.838500  0.530300  0.366800  1.0  0.0986
  H  H55  1  0.585200  0.739900  0.446100  1.0  0.1007
  H  H56  1  0.528900  0.647500  0.403800  1.0  0.1012
  C  C57  1  0.472300  0.665600  0.644400  1.0  0.707
  C  C58  1  0.293800  0.950500  0.778400  1.0  0.7104
  C  C59  1  0.981400  0.700500  0.677300  1.0  0.6175
  C  C60  1  0.214500  0.911400  0.503800  1.0  0.7007
  C  C61  1  0.357800  0.735000  0.650600  1.0  0.0097
  C  C62  1  0.268000  0.879600  0.716300  1.0  0.0119
  C  C63  1  0.113300  0.752900  0.668800  1.0  0.04
  C  C64  1  0.233700  0.860300  0.578300  1.0  0.0147
  C  C65  1  0.382100  0.807800  0.712200  1.0  -0.2132
  C  C66  1  0.227900  0.681600  0.665100  1.0  -0.2131
  C  C67  1  0.348000  0.788900  0.575100  1.0  -0.2204
  C  C68  1  0.137700  0.825600  0.731100  1.0  -0.2091
  C  C69  1  0.256600  0.933000  0.642500  1.0  -0.2129
  C  C70  1  0.103100  0.806400  0.594300  1.0  -0.2147
  C  C71  1  0.027700  0.334400  0.144400  1.0  0.7072
  C  C72  1  0.206200  0.049500  0.278400  1.0  0.711
  C  C73  1  0.518600  0.299500  0.177300  1.0  0.6179
  C  C74  1  0.285500  0.088600  0.003800  1.0  0.7011
  C  C75  1  0.142200  0.265000  0.150600  1.0  0.0107
  C  C76  1  0.232000  0.120400  0.216300  1.0  0.0105
  C  C77  1  0.386700  0.247100  0.168800  1.0  0.0394
  C  C78  1  0.266300  0.139700  0.078300  1.0  0.0145
  C  C79  1  0.117900  0.192200  0.212200  1.0  -0.2127
  C  C80  1  0.272100  0.318400  0.165100  1.0  -0.215
  C  C81  1  0.152000  0.211100  0.075100  1.0  -0.2195
  C  C82  1  0.362300  0.174400  0.231100  1.0  -0.212
  C  C83  1  0.243400  0.067000  0.142500  1.0  -0.2114
  C  C84  1  0.396900  0.193600  0.094300  1.0  -0.2139
  C  C85  1  0.527700  0.165600  0.855600  1.0  0.7071
  C  C86  1  0.706200  0.450500  0.721600  1.0  0.7114
  C  C87  1  0.018600  0.200500  0.822700  1.0  0.6178
  C  C88  1  0.785500  0.411400  0.996200  1.0  0.6972
  C  C89  1  0.642200  0.235000  0.849400  1.0  0.0091
  C  C90  1  0.732000  0.379600  0.783700  1.0  0.0104
  C  C91  1  0.886700  0.252900  0.831200  1.0  0.0386
  C  C92  1  0.766300  0.360300  0.921700  1.0  0.0163
  C  C93  1  0.617900  0.307800  0.787800  1.0  -0.2125
  C  C94  1  0.772100  0.181600  0.834900  1.0  -0.2138
  C  C95  1  0.652000  0.288900  0.924900  1.0  -0.2192
  C  C96  1  0.862300  0.325600  0.768900  1.0  -0.2097
  C  C97  1  0.743400  0.433000  0.857500  1.0  -0.2126
  C  C98  1  0.896900  0.306400  0.905700  1.0  -0.2133
  C  C99  1  0.972300  0.834400  0.355600  1.0  0.707
  C  C100  1  0.793800  0.549500  0.221600  1.0  0.7105
  C  C101  1  0.481400  0.799500  0.322700  1.0  0.619
  C  C102  1  0.714500  0.588600  0.496200  1.0  0.6997
  C  C103  1  0.857800  0.765000  0.349400  1.0  0.0092
  C  C104  1  0.768000  0.620400  0.283700  1.0  0.0099
  C  C105  1  0.613300  0.747100  0.331200  1.0  0.0397
  C  C106  1  0.733700  0.639700  0.421700  1.0  0.016
  C  C107  1  0.882100  0.692200  0.287800  1.0  -0.2122
  C  C108  1  0.727900  0.818400  0.334900  1.0  -0.2146
  C  C109  1  0.848000  0.711100  0.424900  1.0  -0.2196
  C  C110  1  0.637700  0.674400  0.268900  1.0  -0.2089
  C  C111  1  0.756600  0.567000  0.357500  1.0  -0.2111
  C  C112  1  0.603100  0.693600  0.405700  1.0  -0.2137
  O  O113  1  0.449100  0.581800  0.625100  1.0  -0.6516
  O  O114  1  0.586000  0.699800  0.658200  1.0  -0.6003
  O  O115  1  0.336900  0.915100  0.838800  1.0  -0.6784
  O  O116  1  0.270800  0.035900  0.767600  1.0  -0.5665
  O  O117  1  0.877200  0.748300  0.686700  1.0  -0.5976
  O  O118  1  0.977000  0.611700  0.669200  1.0  -0.5799
  O  O119  1  0.133800  0.979300  0.503500  1.0  -0.6436
  O  O120  1  0.274600  0.881100  0.449300  1.0  -0.5985
  O  O121  1  0.050900  0.418200  0.125100  1.0  -0.6478
  O  O122  1  0.914000  0.300200  0.158200  1.0  -0.5992
  O  O123  1  0.163100  0.084900  0.338800  1.0  -0.6814
  O  O124  1  0.229200  0.964100  0.267600  1.0  -0.5681
  O  O125  1  0.622800  0.251700  0.186700  1.0  -0.5986
  O  O126  1  0.523000  0.388300  0.169200  1.0  -0.5786
  O  O127  1  0.366200  0.020700  0.003500  1.0  -0.6437
  O  O128  1  0.225400  0.118900  0.949300  1.0  -0.5992
  O  O129  1  0.550900  0.081800  0.874900  1.0  -0.6513
  O  O130  1  0.414000  0.199800  0.841800  1.0  -0.5998
  O  O131  1  0.663100  0.415100  0.661200  1.0  -0.6798
  O  O132  1  0.729200  0.535900  0.732400  1.0  -0.5669
  O  O133  1  0.122800  0.248300  0.813300  1.0  -0.5993
  O  O134  1  0.023000  0.111700  0.830800  1.0  -0.5796
  O  O135  1  0.866200  0.479300  0.996500  1.0  -0.6444
  O  O136  1  0.725400  0.381100  0.050700  1.0  -0.5993
  O  O137  1  0.949100  0.918200  0.374900  1.0  -0.646
  O  O138  1  0.086000  0.800200  0.341800  1.0  -0.5991
  O  O139  1  0.836900  0.584900  0.161200  1.0  -0.6813
  O  O140  1  0.770800  0.464100  0.232400  1.0  -0.5684
  O  O141  1  0.377200  0.751700  0.313300  1.0  -0.5981
  O  O142  1  0.477000  0.888300  0.330800  1.0  -0.5787
  O  O143  1  0.633800  0.520700  0.496500  1.0  -0.643
  O  O144  1  0.774600  0.618900  0.550700  1.0  -0.5989
