# generated using pymatgen
data_CuH4C11NO6
_symmetry_space_group_name_H-M   'P 1'
_cell_length_a   10.17630000
_cell_length_b   11.15980000
_cell_length_c   14.85570000
_cell_angle_alpha   90.00000000
_cell_angle_beta   107.03500000
_cell_angle_gamma   90.00000000
_symmetry_Int_Tables_number   1
_chemical_formula_structural   CuH4C11NO6
_chemical_formula_sum   'Cu4 H16 C44 N4 O24'
_cell_volume   1613.07496780
_cell_formula_units_Z   4
loop_
 _symmetry_equiv_pos_site_id
 _symmetry_equiv_pos_as_xyz
  1  'x, y, z'
loop_
 _atom_site_type_symbol
 _atom_site_label
 _atom_site_symmetry_multiplicity
 _atom_site_fract_x
 _atom_site_fract_y
 _atom_site_fract_z
 _atom_site_occupancy
 _atom_site_charge
  Cu  Cu1  1  0.030660  0.250260  0.000000  1.0  0.8609
  Cu  Cu2  1  0.969340  0.250260  0.500000  1.0  0.8612
  Cu  Cu3  1  0.969340  0.749740  0.000000  1.0  0.8607
  Cu  Cu4  1  0.030660  0.749740  0.500000  1.0  0.8606
  H  H5  1  0.144700  0.487200  0.041200  1.0  0.1025
  H  H6  1  0.325700  0.599500  0.030900  1.0  0.1399
  H  H7  1  0.514700  0.298400  0.992200  1.0  0.1361
  H  H8  1  0.325900  0.192800  0.999600  1.0  0.1161
  H  H9  1  0.855300  0.487200  0.458800  1.0  0.1021
  H  H10  1  0.674300  0.599500  0.469100  1.0  0.1404
  H  H11  1  0.485300  0.298400  0.507800  1.0  0.1361
  H  H12  1  0.674100  0.192800  0.500400  1.0  0.1157
  H  H13  1  0.855300  0.512800  0.958800  1.0  0.1026
  H  H14  1  0.674300  0.400500  0.969100  1.0  0.1417
  H  H15  1  0.485300  0.701600  0.007800  1.0  0.1364
  H  H16  1  0.674100  0.807200  0.000400  1.0  0.1162
  H  H17  1  0.144700  0.512800  0.541200  1.0  0.103
  H  H18  1  0.325700  0.400500  0.530900  1.0  0.1412
  H  H19  1  0.514700  0.701600  0.492200  1.0  0.1365
  H  H20  1  0.325900  0.807200  0.499600  1.0  0.116
  C  C21  1  0.218800  0.448800  0.029100  1.0  0.1993
  C  C22  1  0.327900  0.516800  0.023300  1.0  -0.1554
  C  C23  1  0.441600  0.464200  0.006300  1.0  0.0991
  C  C24  1  0.439100  0.339200  0.000000  1.0  -0.156
  C  C25  1  0.325300  0.275800  0.005200  1.0  0.1856
  C  C26  1  0.933200  0.348100  0.151200  1.0  0.7081
  C  C27  1  0.963100  0.228000  0.201500  1.0  -0.0193
  C  C28  1  0.819300  0.119000  0.056400  1.0  0.7359
  C  C29  1  0.920100  0.119900  0.155400  1.0  -0.0464
  C  C30  1  0.957800  0.011900  0.203300  1.0  -0.0324
  C  C31  1  0.912400  0.894300  0.153000  1.0  0.6965
  C  C32  1  0.781200  0.448800  0.470900  1.0  0.1984
  C  C33  1  0.672100  0.516800  0.476700  1.0  -0.1546
  C  C34  1  0.558400  0.464200  0.493700  1.0  0.0995
  C  C35  1  0.560900  0.339200  0.500000  1.0  -0.156
  C  C36  1  0.674700  0.275800  0.494800  1.0  0.1856
  C  C37  1  0.066800  0.348100  0.348800  1.0  0.7087
  C  C38  1  0.036900  0.228000  0.298500  1.0  -0.0194
  C  C39  1  0.180700  0.119000  0.443600  1.0  0.7346
  C  C40  1  0.079900  0.119900  0.344600  1.0  -0.0459
  C  C41  1  0.042200  0.011900  0.296700  1.0  -0.0323
  C  C42  1  0.087600  0.894300  0.347000  1.0  0.6971
  C  C43  1  0.781200  0.551200  0.970900  1.0  0.1989
  C  C44  1  0.672100  0.483200  0.976700  1.0  -0.1561
  C  C45  1  0.558400  0.535800  0.993700  1.0  0.0995
  C  C46  1  0.560900  0.660800  0.000000  1.0  -0.1566
  C  C47  1  0.674700  0.724200  0.994800  1.0  0.1872
  C  C48  1  0.066800  0.651900  0.848800  1.0  0.7077
  C  C49  1  0.036900  0.772000  0.798500  1.0  -0.0196
  C  C50  1  0.180700  0.881000  0.943600  1.0  0.7343
  C  C51  1  0.079900  0.880100  0.844600  1.0  -0.046
  C  C52  1  0.042200  0.988100  0.796700  1.0  -0.0325
  C  C53  1  0.087600  0.105700  0.847000  1.0  0.6978
  C  C54  1  0.218800  0.551200  0.529100  1.0  0.1993
  C  C55  1  0.327900  0.483200  0.523300  1.0  -0.1554
  C  C56  1  0.441600  0.535800  0.506300  1.0  0.099
  C  C57  1  0.439100  0.660800  0.500000  1.0  -0.156
  C  C58  1  0.325300  0.724200  0.505200  1.0  0.1865
  C  C59  1  0.933200  0.651900  0.651200  1.0  0.7072
  C  C60  1  0.963100  0.772000  0.701500  1.0  -0.0196
  C  C61  1  0.819300  0.881000  0.556400  1.0  0.7354
  C  C62  1  0.920100  0.880100  0.655400  1.0  -0.0463
  C  C63  1  0.957800  0.988100  0.703300  1.0  -0.0323
  C  C64  1  0.912400  0.105700  0.653000  1.0  0.697
  N  N65  1  0.213400  0.329100  0.018100  1.0  -0.3305
  N  N66  1  0.786600  0.329100  0.481900  1.0  -0.3302
  N  N67  1  0.786600  0.670900  0.981900  1.0  -0.3299
  N  N68  1  0.213400  0.670900  0.518100  1.0  -0.3302
  O  O69  1  0.850900  0.172200  0.991400  1.0  -0.5835
  O  O70  1  0.707000  0.067600  0.046300  1.0  -0.5163
  O  O71  1  0.987500  0.365500  0.084400  1.0  -0.5807
  O  O72  1  0.867100  0.423500  0.178700  1.0  -0.4832
  O  O73  1  0.940100  0.884400  0.075600  1.0  -0.5867
  O  O74  1  0.855700  0.818400  0.190500  1.0  -0.4875
  O  O75  1  0.149100  0.172200  0.508600  1.0  -0.5834
  O  O76  1  0.293000  0.067600  0.453700  1.0  -0.5186
  O  O77  1  0.012500  0.365500  0.415600  1.0  -0.5811
  O  O78  1  0.132900  0.423500  0.321300  1.0  -0.4822
  O  O79  1  0.059900  0.884400  0.424400  1.0  -0.5873
  O  O80  1  0.144300  0.818400  0.309500  1.0  -0.4909
  O  O81  1  0.149100  0.827800  0.008600  1.0  -0.584
  O  O82  1  0.293000  0.932400  0.953700  1.0  -0.5188
  O  O83  1  0.012500  0.634500  0.915600  1.0  -0.5808
  O  O84  1  0.132900  0.576500  0.821300  1.0  -0.4829
  O  O85  1  0.059900  0.115600  0.924400  1.0  -0.5872
  O  O86  1  0.144300  0.181600  0.809500  1.0  -0.4903
  O  O87  1  0.850900  0.827800  0.491400  1.0  -0.5842
  O  O88  1  0.707000  0.932400  0.546300  1.0  -0.5167
  O  O89  1  0.987500  0.634500  0.584400  1.0  -0.5806
  O  O90  1  0.867100  0.576500  0.678700  1.0  -0.4824
  O  O91  1  0.940100  0.115600  0.575600  1.0  -0.5867
  O  O92  1  0.855700  0.181600  0.690500  1.0  -0.4895
