# generated using pymatgen
data_CuH5C12NO4
_symmetry_space_group_name_H-M   'P 1'
_cell_length_a   30.20050000
_cell_length_b   30.20050000
_cell_length_c   30.20050000
_cell_angle_alpha   60.00000000
_cell_angle_beta   60.00000000
_cell_angle_gamma   60.00000000
_symmetry_Int_Tables_number   1
_chemical_formula_structural   CuH5C12NO4
_chemical_formula_sum   'Cu24 H120 C288 N24 O96'
_cell_volume   19477.23937566
_cell_formula_units_Z   24
loop_
 _symmetry_equiv_pos_site_id
 _symmetry_equiv_pos_as_xyz
  1  'x, y, z'
loop_
 _atom_site_type_symbol
 _atom_site_label
 _atom_site_symmetry_multiplicity
 _atom_site_fract_x
 _atom_site_fract_y
 _atom_site_fract_z
 _atom_site_occupancy
 _atom_site_charge
  Cu  Cu1  1  0.000000  0.262540  0.000000  1.0  0.8816
  Cu  Cu2  1  0.000000  0.350080  0.000000  1.0  0.8866
  Cu  Cu3  1  0.262540  0.000000  0.737460  1.0  0.8823
  Cu  Cu4  1  0.350080  0.000000  0.649920  1.0  0.8869
  Cu  Cu5  1  0.000000  0.737460  0.000000  1.0  0.882
  Cu  Cu6  1  0.000000  0.649920  0.000000  1.0  0.887
  Cu  Cu7  1  0.737460  0.000000  0.262540  1.0  0.8818
  Cu  Cu8  1  0.649920  0.000000  0.350080  1.0  0.8872
  Cu  Cu9  1  0.000000  0.000000  0.737460  1.0  0.8805
  Cu  Cu10  1  0.000000  0.000000  0.649920  1.0  0.8863
  Cu  Cu11  1  0.262540  0.737460  0.000000  1.0  0.8823
  Cu  Cu12  1  0.350080  0.649920  0.000000  1.0  0.8871
  Cu  Cu13  1  0.000000  0.000000  0.262540  1.0  0.8814
  Cu  Cu14  1  0.000000  0.000000  0.350080  1.0  0.8863
  Cu  Cu15  1  0.737460  0.262540  0.000000  1.0  0.8812
  Cu  Cu16  1  0.649920  0.350080  0.000000  1.0  0.8863
  Cu  Cu17  1  0.000000  0.737460  0.262540  1.0  0.8823
  Cu  Cu18  1  0.000000  0.649920  0.350080  1.0  0.887
  Cu  Cu19  1  0.262540  0.000000  0.000000  1.0  0.8821
  Cu  Cu20  1  0.350080  0.000000  0.000000  1.0  0.8867
  Cu  Cu21  1  0.000000  0.262540  0.737460  1.0  0.8822
  Cu  Cu22  1  0.000000  0.350080  0.649920  1.0  0.8867
  Cu  Cu23  1  0.737460  0.000000  0.000000  1.0  0.8817
  Cu  Cu24  1  0.649920  0.000000  0.000000  1.0  0.8871
  H  H25  1  0.168900  0.303100  0.969700  1.0  0.1093
  H  H26  1  0.387500  0.234300  0.939100  1.0  0.312
  H  H27  1  0.303100  0.168900  0.558300  1.0  0.1089
  H  H28  1  0.234300  0.387500  0.439100  1.0  0.3131
  H  H29  1  0.969700  0.558300  0.168900  1.0  0.1094
  H  H30  1  0.939100  0.439100  0.387500  1.0  0.3144
  H  H31  1  0.558300  0.969700  0.303100  1.0  0.1097
  H  H32  1  0.439100  0.939100  0.234300  1.0  0.3137
  H  H33  1  0.168900  0.969700  0.558300  1.0  0.1099
  H  H34  1  0.387500  0.939100  0.439100  1.0  0.3128
  H  H35  1  0.303100  0.558300  0.969700  1.0  0.1091
  H  H36  1  0.234300  0.439100  0.939100  1.0  0.3135
  H  H37  1  0.969700  0.168900  0.303100  1.0  0.1084
  H  H38  1  0.939100  0.387500  0.234300  1.0  0.3108
  H  H39  1  0.558300  0.303100  0.168900  1.0  0.1099
  H  H40  1  0.439100  0.234300  0.387500  1.0  0.3148
  H  H41  1  0.168900  0.558300  0.303100  1.0  0.1088
  H  H42  1  0.387500  0.439100  0.234300  1.0  0.3133
  H  H43  1  0.303100  0.969700  0.168900  1.0  0.1108
  H  H44  1  0.234300  0.939100  0.387500  1.0  0.3119
  H  H45  1  0.969700  0.303100  0.558300  1.0  0.11
  H  H46  1  0.939100  0.234300  0.439100  1.0  0.3118
  H  H47  1  0.558300  0.168900  0.969700  1.0  0.1086
  H  H48  1  0.439100  0.387500  0.939100  1.0  0.3121
  H  H49  1  0.696900  0.831100  0.030300  1.0  0.1088
  H  H50  1  0.765700  0.612500  0.060900  1.0  0.3131
  H  H51  1  0.831100  0.696900  0.441700  1.0  0.1099
  H  H52  1  0.612500  0.765700  0.560900  1.0  0.3121
  H  H53  1  0.441700  0.030300  0.831100  1.0  0.1089
  H  H54  1  0.560900  0.060900  0.612500  1.0  0.3146
  H  H55  1  0.030300  0.441700  0.696900  1.0  0.1092
  H  H56  1  0.060900  0.560900  0.765700  1.0  0.3171
  H  H57  1  0.030300  0.831100  0.441700  1.0  0.108
  H  H58  1  0.060900  0.612500  0.560900  1.0  0.3117
  H  H59  1  0.441700  0.696900  0.030300  1.0  0.1107
  H  H60  1  0.560900  0.765700  0.060900  1.0  0.3148
  H  H61  1  0.831100  0.030300  0.696900  1.0  0.1095
  H  H62  1  0.612500  0.060900  0.765700  1.0  0.3135
  H  H63  1  0.696900  0.441700  0.831100  1.0  0.1088
  H  H64  1  0.765700  0.560900  0.612500  1.0  0.3166
  H  H65  1  0.441700  0.831100  0.696900  1.0  0.1082
  H  H66  1  0.560900  0.612500  0.765700  1.0  0.3135
  H  H67  1  0.030300  0.696900  0.831100  1.0  0.1114
  H  H68  1  0.060900  0.765700  0.612500  1.0  0.3113
  H  H69  1  0.696900  0.030300  0.441700  1.0  0.1114
  H  H70  1  0.765700  0.060900  0.560900  1.0  0.313
  H  H71  1  0.831100  0.441700  0.030300  1.0  0.1084
  H  H72  1  0.612500  0.560900  0.060900  1.0  0.3152
  H  H73  1  0.831100  0.696900  0.030300  1.0  0.1108
  H  H74  1  0.612500  0.765700  0.060900  1.0  0.313
  H  H75  1  0.696900  0.831100  0.441700  1.0  0.1081
  H  H76  1  0.765700  0.612500  0.560900  1.0  0.3129
  H  H77  1  0.030300  0.441700  0.831100  1.0  0.109
  H  H78  1  0.060900  0.560900  0.612500  1.0  0.3167
  H  H79  1  0.441700  0.030300  0.696900  1.0  0.1098
  H  H80  1  0.560900  0.060900  0.765700  1.0  0.3147
  H  H81  1  0.831100  0.030300  0.441700  1.0  0.1084
  H  H82  1  0.612500  0.060900  0.560900  1.0  0.312
  H  H83  1  0.696900  0.441700  0.030300  1.0  0.1093
  H  H84  1  0.765700  0.560900  0.060900  1.0  0.3172
  H  H85  1  0.030300  0.831100  0.696900  1.0  0.1088
  H  H86  1  0.060900  0.612500  0.765700  1.0  0.3129
  H  H87  1  0.441700  0.696900  0.831100  1.0  0.1103
  H  H88  1  0.560900  0.765700  0.612500  1.0  0.3144
  H  H89  1  0.831100  0.441700  0.696900  1.0  0.1083
  H  H90  1  0.612500  0.560900  0.765700  1.0  0.3165
  H  H91  1  0.696900  0.030300  0.831100  1.0  0.1114
  H  H92  1  0.765700  0.060900  0.612500  1.0  0.3118
  H  H93  1  0.030300  0.696900  0.441700  1.0  0.1115
  H  H94  1  0.060900  0.765700  0.560900  1.0  0.3121
  H  H95  1  0.441700  0.831100  0.030300  1.0  0.108
  H  H96  1  0.560900  0.612500  0.060900  1.0  0.3131
  H  H97  1  0.303100  0.168900  0.969700  1.0  0.1084
  H  H98  1  0.234300  0.387500  0.939100  1.0  0.3122
  H  H99  1  0.168900  0.303100  0.558300  1.0  0.1097
  H  H100  1  0.387500  0.234300  0.439100  1.0  0.3127
  H  H101  1  0.558300  0.969700  0.168900  1.0  0.1102
  H  H102  1  0.439100  0.939100  0.387500  1.0  0.3142
  H  H103  1  0.969700  0.558300  0.303100  1.0  0.1092
  H  H104  1  0.939100  0.439100  0.234300  1.0  0.3141
  H  H105  1  0.969700  0.168900  0.558300  1.0  0.1091
  H  H106  1  0.939100  0.387500  0.439100  1.0  0.3117
  H  H107  1  0.558300  0.303100  0.969700  1.0  0.1096
  H  H108  1  0.439100  0.234300  0.939100  1.0  0.3146
  H  H109  1  0.168900  0.969700  0.303100  1.0  0.109
  H  H110  1  0.387500  0.939100  0.234300  1.0  0.3121
  H  H111  1  0.303100  0.558300  0.168900  1.0  0.1094
  H  H112  1  0.234300  0.439100  0.387500  1.0  0.3138
  H  H113  1  0.558300  0.168900  0.303100  1.0  0.1086
  H  H114  1  0.439100  0.387500  0.234300  1.0  0.3122
  H  H115  1  0.969700  0.303100  0.168900  1.0  0.1101
  H  H116  1  0.939100  0.234300  0.387500  1.0  0.3124
  H  H117  1  0.303100  0.969700  0.558300  1.0  0.111
  H  H118  1  0.234300  0.939100  0.439100  1.0  0.3123
  H  H119  1  0.168900  0.558300  0.969700  1.0  0.1089
  H  H120  1  0.387500  0.439100  0.939100  1.0  0.3126
  H  H121  1  0.165400  0.165400  0.983400  1.0  0.0862
  H  H122  1  0.165400  0.165400  0.685800  1.0  0.086
  H  H123  1  0.983400  0.685800  0.165400  1.0  0.0874
  H  H124  1  0.685800  0.983400  0.165400  1.0  0.0864
  H  H125  1  0.165400  0.983400  0.685800  1.0  0.087
  H  H126  1  0.165400  0.685800  0.983400  1.0  0.087
  H  H127  1  0.983400  0.165400  0.165400  1.0  0.0862
  H  H128  1  0.685800  0.165400  0.165400  1.0  0.0855
  H  H129  1  0.165400  0.685800  0.165400  1.0  0.0872
  H  H130  1  0.165400  0.983400  0.165400  1.0  0.0869
  H  H131  1  0.983400  0.165400  0.685800  1.0  0.0864
  H  H132  1  0.685800  0.165400  0.983400  1.0  0.0853
  H  H133  1  0.834600  0.834600  0.016600  1.0  0.0857
  H  H134  1  0.834600  0.834600  0.314200  1.0  0.0859
  H  H135  1  0.314200  0.016600  0.834600  1.0  0.0861
  H  H136  1  0.016600  0.314200  0.834600  1.0  0.0873
  H  H137  1  0.016600  0.834600  0.314200  1.0  0.0865
  H  H138  1  0.314200  0.834600  0.016600  1.0  0.086
  H  H139  1  0.834600  0.016600  0.834600  1.0  0.0867
  H  H140  1  0.834600  0.314200  0.834600  1.0  0.0866
  H  H141  1  0.314200  0.834600  0.834600  1.0  0.0857
  H  H142  1  0.016600  0.834600  0.834600  1.0  0.0868
  H  H143  1  0.834600  0.016600  0.314200  1.0  0.0864
  H  H144  1  0.834600  0.314200  0.016600  1.0  0.0869
  C  C145  1  0.101090  0.264290  0.982950  1.0  0.6828
  C  C146  1  0.158440  0.237600  0.977420  1.0  -0.1384
  C  C147  1  0.186650  0.266550  0.970450  1.0  -0.0718
  C  C148  1  0.264290  0.101090  0.651670  1.0  0.6828
  C  C149  1  0.237600  0.158440  0.626540  1.0  -0.1377
  C  C150  1  0.266550  0.186650  0.576350  1.0  -0.0713
  C  C151  1  0.982950  0.651670  0.101090  1.0  0.6839
  C  C152  1  0.977420  0.626540  0.158440  1.0  -0.1376
  C  C153  1  0.970450  0.576350  0.186650  1.0  -0.0744
  C  C154  1  0.651670  0.982950  0.264290  1.0  0.6834
  C  C155  1  0.626540  0.977420  0.237600  1.0  -0.138
  C  C156  1  0.576350  0.970450  0.266550  1.0  -0.0736
  C  C157  1  0.101090  0.982950  0.651670  1.0  0.6823
  C  C158  1  0.158440  0.977420  0.626540  1.0  -0.1378
  C  C159  1  0.186650  0.970450  0.576350  1.0  -0.0719
  C  C160  1  0.264290  0.651670  0.982950  1.0  0.6822
  C  C161  1  0.237600  0.626540  0.977420  1.0  -0.1377
  C  C162  1  0.266550  0.576350  0.970450  1.0  -0.0704
  C  C163  1  0.982950  0.101090  0.264290  1.0  0.6825
  C  C164  1  0.977420  0.158440  0.237600  1.0  -0.1378
  C  C165  1  0.970450  0.186650  0.266550  1.0  -0.0733
  C  C166  1  0.651670  0.264290  0.101090  1.0  0.6828
  C  C167  1  0.626540  0.237600  0.158440  1.0  -0.1384
  C  C168  1  0.576350  0.266550  0.186650  1.0  -0.0722
  C  C169  1  0.101090  0.651670  0.264290  1.0  0.6819
  C  C170  1  0.158440  0.626540  0.237600  1.0  -0.1379
  C  C171  1  0.186650  0.576350  0.266550  1.0  -0.0715
  C  C172  1  0.264290  0.982950  0.101090  1.0  0.6836
  C  C173  1  0.237600  0.977420  0.158440  1.0  -0.1379
  C  C174  1  0.266550  0.970450  0.186650  1.0  -0.0703
  C  C175  1  0.982950  0.264290  0.651670  1.0  0.6832
  C  C176  1  0.977420  0.237600  0.626540  1.0  -0.1379
  C  C177  1  0.970450  0.266550  0.576350  1.0  -0.0713
  C  C178  1  0.651670  0.101090  0.982950  1.0  0.6825
  C  C179  1  0.626540  0.158440  0.977420  1.0  -0.1375
  C  C180  1  0.576350  0.186650  0.970450  1.0  -0.0724
  C  C181  1  0.735710  0.898910  0.017050  1.0  0.6831
  C  C182  1  0.762400  0.841560  0.022580  1.0  -0.1372
  C  C183  1  0.733450  0.813350  0.029550  1.0  -0.0722
  C  C184  1  0.898910  0.735710  0.348330  1.0  0.6832
  C  C185  1  0.841560  0.762400  0.373460  1.0  -0.1373
  C  C186  1  0.813350  0.733450  0.423650  1.0  -0.0711
  C  C187  1  0.348330  0.017050  0.898910  1.0  0.6844
  C  C188  1  0.373460  0.022580  0.841560  1.0  -0.1378
  C  C189  1  0.423650  0.029550  0.813350  1.0  -0.0715
  C  C190  1  0.017050  0.348330  0.735710  1.0  0.6841
  C  C191  1  0.022580  0.373460  0.762400  1.0  -0.1377
  C  C192  1  0.029550  0.423650  0.733450  1.0  -0.0738
  C  C193  1  0.017050  0.898910  0.348330  1.0  0.6833
  C  C194  1  0.022580  0.841560  0.373460  1.0  -0.1381
  C  C195  1  0.029550  0.813350  0.423650  1.0  -0.0723
  C  C196  1  0.348330  0.735710  0.017050  1.0  0.683
  C  C197  1  0.373460  0.762400  0.022580  1.0  -0.1382
  C  C198  1  0.423650  0.733450  0.029550  1.0  -0.0709
  C  C199  1  0.898910  0.017050  0.735710  1.0  0.6826
  C  C200  1  0.841560  0.022580  0.762400  1.0  -0.1378
  C  C201  1  0.813350  0.029550  0.733450  1.0  -0.0713
  C  C202  1  0.735710  0.348330  0.898910  1.0  0.6819
  C  C203  1  0.762400  0.373460  0.841560  1.0  -0.137
  C  C204  1  0.733450  0.423650  0.813350  1.0  -0.0724
  C  C205  1  0.348330  0.898910  0.735710  1.0  0.6825
  C  C206  1  0.373460  0.841560  0.762400  1.0  -0.1373
  C  C207  1  0.423650  0.813350  0.733450  1.0  -0.0716
  C  C208  1  0.017050  0.735710  0.898910  1.0  0.6837
  C  C209  1  0.022580  0.762400  0.841560  1.0  -0.1379
  C  C210  1  0.029550  0.733450  0.813350  1.0  -0.0722
  C  C211  1  0.735710  0.017050  0.348330  1.0  0.6837
  C  C212  1  0.762400  0.022580  0.373460  1.0  -0.1379
  C  C213  1  0.733450  0.029550  0.423650  1.0  -0.0711
  C  C214  1  0.898910  0.348330  0.017050  1.0  0.6823
  C  C215  1  0.841560  0.373460  0.022580  1.0  -0.1372
  C  C216  1  0.813350  0.423650  0.029550  1.0  -0.0718
  C  C217  1  0.898910  0.735710  0.017050  1.0  0.6833
  C  C218  1  0.841560  0.762400  0.022580  1.0  -0.1374
  C  C219  1  0.813350  0.733450  0.029550  1.0  -0.0715
  C  C220  1  0.735710  0.898910  0.348330  1.0  0.6827
  C  C221  1  0.762400  0.841560  0.373460  1.0  -0.137
  C  C222  1  0.733450  0.813350  0.423650  1.0  -0.072
  C  C223  1  0.017050  0.348330  0.898910  1.0  0.6838
  C  C224  1  0.022580  0.373460  0.841560  1.0  -0.1375
  C  C225  1  0.029550  0.423650  0.813350  1.0  -0.0725
  C  C226  1  0.348330  0.017050  0.735710  1.0  0.6848
  C  C227  1  0.373460  0.022580  0.762400  1.0  -0.138
  C  C228  1  0.423650  0.029550  0.733450  1.0  -0.0719
  C  C229  1  0.898910  0.017050  0.348330  1.0  0.6826
  C  C230  1  0.841560  0.022580  0.373460  1.0  -0.1379
  C  C231  1  0.813350  0.029550  0.423650  1.0  -0.0714
  C  C232  1  0.735710  0.348330  0.017050  1.0  0.6825
  C  C233  1  0.762400  0.373460  0.022580  1.0  -0.1375
  C  C234  1  0.733450  0.423650  0.029550  1.0  -0.0722
  C  C235  1  0.017050  0.898910  0.735710  1.0  0.6832
  C  C236  1  0.022580  0.841560  0.762400  1.0  -0.1381
  C  C237  1  0.029550  0.813350  0.733450  1.0  -0.0728
  C  C238  1  0.348330  0.735710  0.898910  1.0  0.6825
  C  C239  1  0.373460  0.762400  0.841560  1.0  -0.1377
  C  C240  1  0.423650  0.733450  0.813350  1.0  -0.0709
  C  C241  1  0.898910  0.348330  0.735710  1.0  0.6822
  C  C242  1  0.841560  0.373460  0.762400  1.0  -0.1372
  C  C243  1  0.813350  0.423650  0.733450  1.0  -0.0726
  C  C244  1  0.735710  0.017050  0.898910  1.0  0.6829
  C  C245  1  0.762400  0.022580  0.841560  1.0  -0.138
  C  C246  1  0.733450  0.029550  0.813350  1.0  -0.0714
  C  C247  1  0.017050  0.735710  0.348330  1.0  0.6843
  C  C248  1  0.022580  0.762400  0.373460  1.0  -0.1382
  C  C249  1  0.029550  0.733450  0.423650  1.0  -0.072
  C  C250  1  0.348330  0.898910  0.017050  1.0  0.6828
  C  C251  1  0.373460  0.841560  0.022580  1.0  -0.1373
  C  C252  1  0.423650  0.813350  0.029550  1.0  -0.0708
  C  C253  1  0.264290  0.101090  0.982950  1.0  0.6827
  C  C254  1  0.237600  0.158440  0.977420  1.0  -0.1374
  C  C255  1  0.266550  0.186650  0.970450  1.0  -0.0707
  C  C256  1  0.101090  0.264290  0.651670  1.0  0.6829
  C  C257  1  0.158440  0.237600  0.626540  1.0  -0.1387
  C  C258  1  0.186650  0.266550  0.576350  1.0  -0.0719
  C  C259  1  0.651670  0.982950  0.101090  1.0  0.6838
  C  C260  1  0.626540  0.977420  0.158440  1.0  -0.1381
  C  C261  1  0.576350  0.970450  0.186650  1.0  -0.0732
  C  C262  1  0.982950  0.651670  0.264290  1.0  0.6835
  C  C263  1  0.977420  0.626540  0.237600  1.0  -0.1375
  C  C264  1  0.970450  0.576350  0.266550  1.0  -0.0736
  C  C265  1  0.982950  0.101090  0.651670  1.0  0.6825
  C  C266  1  0.977420  0.158440  0.626540  1.0  -0.1376
  C  C267  1  0.970450  0.186650  0.576350  1.0  -0.0723
  C  C268  1  0.651670  0.264290  0.982950  1.0  0.6822
  C  C269  1  0.626540  0.237600  0.977420  1.0  -0.138
  C  C270  1  0.576350  0.266550  0.970450  1.0  -0.0722
  C  C271  1  0.101090  0.982950  0.264290  1.0  0.6823
  C  C272  1  0.158440  0.977420  0.237600  1.0  -0.1378
  C  C273  1  0.186650  0.970450  0.266550  1.0  -0.0729
  C  C274  1  0.264290  0.651670  0.101090  1.0  0.6828
  C  C275  1  0.237600  0.626540  0.158440  1.0  -0.1379
  C  C276  1  0.266550  0.576350  0.186650  1.0  -0.0706
  C  C277  1  0.651670  0.101090  0.264290  1.0  0.6826
  C  C278  1  0.626540  0.158440  0.237600  1.0  -0.1375
  C  C279  1  0.576350  0.186650  0.266550  1.0  -0.072
  C  C280  1  0.982950  0.264290  0.101090  1.0  0.684
  C  C281  1  0.977420  0.237600  0.158440  1.0  -0.1376
  C  C282  1  0.970450  0.266550  0.186650  1.0  -0.0709
  C  C283  1  0.264290  0.982950  0.651670  1.0  0.6828
  C  C284  1  0.237600  0.977420  0.626540  1.0  -0.138
  C  C285  1  0.266550  0.970450  0.576350  1.0  -0.0704
  C  C286  1  0.101090  0.651670  0.982950  1.0  0.6819
  C  C287  1  0.158440  0.626540  0.977420  1.0  -0.1378
  C  C288  1  0.186650  0.576350  0.970450  1.0  -0.0729
  C  C289  1  0.184700  0.184700  0.979840  1.0  -0.013
  C  C290  1  0.241100  0.241100  0.964900  1.0  0.0955
  C  C291  1  0.271400  0.271400  0.956000  1.0  -0.0691
  C  C292  1  0.295100  0.295100  0.951900  1.0  0.0651
  C  C293  1  0.321900  0.321900  0.953700  1.0  -0.0452
  C  C294  1  0.184700  0.184700  0.650760  1.0  -0.0124
  C  C295  1  0.241100  0.241100  0.552900  1.0  0.0952
  C  C296  1  0.271400  0.271400  0.501200  1.0  -0.0684
  C  C297  1  0.295100  0.295100  0.457900  1.0  0.066
  C  C298  1  0.321900  0.321900  0.402500  1.0  -0.0453
  C  C299  1  0.979840  0.650760  0.184700  1.0  -0.0106
  C  C300  1  0.964900  0.552900  0.241100  1.0  0.0856
  C  C301  1  0.956000  0.501200  0.271400  1.0  -0.0668
  C  C302  1  0.951900  0.457900  0.295100  1.0  0.0658
  C  C303  1  0.953700  0.402500  0.321900  1.0  -0.0446
  C  C304  1  0.650760  0.979840  0.184700  1.0  -0.0094
  C  C305  1  0.552900  0.964900  0.241100  1.0  0.0837
  C  C306  1  0.501200  0.956000  0.271400  1.0  -0.0695
  C  C307  1  0.457900  0.951900  0.295100  1.0  0.0673
  C  C308  1  0.402500  0.953700  0.321900  1.0  -0.045
  C  C309  1  0.184700  0.979840  0.650760  1.0  -0.0131
  C  C310  1  0.241100  0.964900  0.552900  1.0  0.086
  C  C311  1  0.271400  0.956000  0.501200  1.0  -0.0695
  C  C312  1  0.295100  0.951900  0.457900  1.0  0.0658
  C  C313  1  0.321900  0.953700  0.402500  1.0  -0.0471
  C  C314  1  0.184700  0.650760  0.979840  1.0  -0.0117
  C  C315  1  0.241100  0.552900  0.964900  1.0  0.0852
  C  C316  1  0.271400  0.501200  0.956000  1.0  -0.0668
  C  C317  1  0.295100  0.457900  0.951900  1.0  0.0663
  C  C318  1  0.321900  0.402500  0.953700  1.0  -0.0454
  C  C319  1  0.979840  0.184700  0.184700  1.0  -0.0121
  C  C320  1  0.964900  0.241100  0.241100  1.0  0.0945
  C  C321  1  0.956000  0.271400  0.271400  1.0  -0.0674
  C  C322  1  0.951900  0.295100  0.295100  1.0  0.0654
  C  C323  1  0.953700  0.321900  0.321900  1.0  -0.0447
  C  C324  1  0.650760  0.184700  0.184700  1.0  -0.0113
  C  C325  1  0.552900  0.241100  0.241100  1.0  0.0927
  C  C326  1  0.501200  0.271400  0.271400  1.0  -0.0689
  C  C327  1  0.457900  0.295100  0.295100  1.0  0.0669
  C  C328  1  0.402500  0.321900  0.321900  1.0  -0.0459
  C  C329  1  0.184700  0.650760  0.184700  1.0  -0.0116
  C  C330  1  0.241100  0.552900  0.241100  1.0  0.086
  C  C331  1  0.271400  0.501200  0.271400  1.0  -0.0663
  C  C332  1  0.295100  0.457900  0.295100  1.0  0.0666
  C  C333  1  0.321900  0.402500  0.321900  1.0  -0.0444
  C  C334  1  0.184700  0.979840  0.184700  1.0  -0.0126
  C  C335  1  0.241100  0.964900  0.241100  1.0  0.0853
  C  C336  1  0.271400  0.956000  0.271400  1.0  -0.0693
  C  C337  1  0.295100  0.951900  0.295100  1.0  0.0648
  C  C338  1  0.321900  0.953700  0.321900  1.0  -0.0454
  C  C339  1  0.979840  0.184700  0.650760  1.0  -0.0117
  C  C340  1  0.964900  0.241100  0.552900  1.0  0.087
  C  C341  1  0.956000  0.271400  0.501200  1.0  -0.0677
  C  C342  1  0.951900  0.295100  0.457900  1.0  0.0671
  C  C343  1  0.953700  0.321900  0.402500  1.0  -0.0455
  C  C344  1  0.650760  0.184700  0.979840  1.0  -0.0115
  C  C345  1  0.552900  0.241100  0.964900  1.0  0.0846
  C  C346  1  0.501200  0.271400  0.956000  1.0  -0.0694
  C  C347  1  0.457900  0.295100  0.951900  1.0  0.0668
  C  C348  1  0.402500  0.321900  0.953700  1.0  -0.0462
  C  C349  1  0.815300  0.815300  0.020160  1.0  -0.0119
  C  C350  1  0.758900  0.758900  0.035100  1.0  0.084
  C  C351  1  0.728600  0.728600  0.044000  1.0  -0.0693
  C  C352  1  0.704900  0.704900  0.048100  1.0  0.0658
  C  C353  1  0.678100  0.678100  0.046300  1.0  -0.0454
  C  C354  1  0.815300  0.815300  0.349240  1.0  -0.0119
  C  C355  1  0.758900  0.758900  0.447100  1.0  0.0844
  C  C356  1  0.728600  0.728600  0.498800  1.0  -0.0699
  C  C357  1  0.704900  0.704900  0.542100  1.0  0.0648
  C  C358  1  0.678100  0.678100  0.597500  1.0  -0.0454
  C  C359  1  0.349240  0.020160  0.815300  1.0  -0.0132
  C  C360  1  0.447100  0.035100  0.758900  1.0  0.0947
  C  C361  1  0.498800  0.044000  0.728600  1.0  -0.0684
  C  C362  1  0.542100  0.048100  0.704900  1.0  0.069
  C  C363  1  0.597500  0.046300  0.678100  1.0  -0.0447
  C  C364  1  0.020160  0.349240  0.815300  1.0  -0.0114
  C  C365  1  0.035100  0.447100  0.758900  1.0  0.0934
  C  C366  1  0.044000  0.498800  0.728600  1.0  -0.0671
  C  C367  1  0.048100  0.542100  0.704900  1.0  0.0678
  C  C368  1  0.046300  0.597500  0.678100  1.0  -0.0457
  C  C369  1  0.020160  0.815300  0.349240  1.0  -0.0124
  C  C370  1  0.035100  0.758900  0.447100  1.0  0.0869
  C  C371  1  0.044000  0.728600  0.498800  1.0  -0.0675
  C  C372  1  0.048100  0.704900  0.542100  1.0  0.0631
  C  C373  1  0.046300  0.678100  0.597500  1.0  -0.045
  C  C374  1  0.349240  0.815300  0.020160  1.0  -0.0119
  C  C375  1  0.447100  0.758900  0.035100  1.0  0.0941
  C  C376  1  0.498800  0.728600  0.044000  1.0  -0.0688
  C  C377  1  0.542100  0.704900  0.048100  1.0  0.0682
  C  C378  1  0.597500  0.678100  0.046300  1.0  -0.0461
  C  C379  1  0.815300  0.020160  0.815300  1.0  -0.0125
  C  C380  1  0.758900  0.035100  0.758900  1.0  0.0859
  C  C381  1  0.728600  0.044000  0.728600  1.0  -0.0701
  C  C382  1  0.704900  0.048100  0.704900  1.0  0.0659
  C  C383  1  0.678100  0.046300  0.678100  1.0  -0.0454
  C  C384  1  0.815300  0.349240  0.815300  1.0  -0.0111
  C  C385  1  0.758900  0.447100  0.758900  1.0  0.0846
  C  C386  1  0.728600  0.498800  0.728600  1.0  -0.0672
  C  C387  1  0.704900  0.542100  0.704900  1.0  0.0678
  C  C388  1  0.678100  0.597500  0.678100  1.0  -0.045
  C  C389  1  0.349240  0.815300  0.815300  1.0  -0.0118
  C  C390  1  0.447100  0.758900  0.758900  1.0  0.0852
  C  C391  1  0.498800  0.728600  0.728600  1.0  -0.0693
  C  C392  1  0.542100  0.704900  0.704900  1.0  0.068
  C  C393  1  0.597500  0.678100  0.678100  1.0  -0.0472
  C  C394  1  0.020160  0.815300  0.815300  1.0  -0.0126
  C  C395  1  0.035100  0.758900  0.758900  1.0  0.0876
  C  C396  1  0.044000  0.728600  0.728600  1.0  -0.0678
  C  C397  1  0.048100  0.704900  0.704900  1.0  0.0649
  C  C398  1  0.046300  0.678100  0.678100  1.0  -0.0465
  C  C399  1  0.815300  0.020160  0.349240  1.0  -0.0129
  C  C400  1  0.758900  0.035100  0.447100  1.0  0.0851
  C  C401  1  0.728600  0.044000  0.498800  1.0  -0.07
  C  C402  1  0.704900  0.048100  0.542100  1.0  0.0643
  C  C403  1  0.678100  0.046300  0.597500  1.0  -0.0446
  C  C404  1  0.815300  0.349240  0.020160  1.0  -0.011
  C  C405  1  0.758900  0.447100  0.035100  1.0  0.0848
  C  C406  1  0.728600  0.498800  0.044000  1.0  -0.0667
  C  C407  1  0.704900  0.542100  0.048100  1.0  0.068
  C  C408  1  0.678100  0.597500  0.046300  1.0  -0.0448
  C  C409  1  0.376300  0.295700  0.951700  1.0  0.1133
  C  C410  1  0.295700  0.376300  0.376300  1.0  0.1132
  C  C411  1  0.951700  0.376300  0.376300  1.0  0.1127
  C  C412  1  0.376300  0.951700  0.295700  1.0  0.112
  C  C413  1  0.376300  0.951700  0.376300  1.0  0.1109
  C  C414  1  0.295700  0.376300  0.951700  1.0  0.1145
  C  C415  1  0.951700  0.376300  0.295700  1.0  0.1145
  C  C416  1  0.376300  0.295700  0.376300  1.0  0.1122
  C  C417  1  0.376300  0.376300  0.295700  1.0  0.1102
  C  C418  1  0.295700  0.951700  0.376300  1.0  0.1135
  C  C419  1  0.951700  0.295700  0.376300  1.0  0.1145
  C  C420  1  0.376300  0.376300  0.951700  1.0  0.1099
  C  C421  1  0.704300  0.623700  0.048300  1.0  0.1104
  C  C422  1  0.623700  0.704300  0.623700  1.0  0.115
  C  C423  1  0.623700  0.048300  0.623700  1.0  0.1144
  C  C424  1  0.048300  0.623700  0.704300  1.0  0.1132
  C  C425  1  0.048300  0.623700  0.623700  1.0  0.1142
  C  C426  1  0.623700  0.704300  0.048300  1.0  0.114
  C  C427  1  0.623700  0.048300  0.704300  1.0  0.1124
  C  C428  1  0.704300  0.623700  0.623700  1.0  0.1116
  C  C429  1  0.623700  0.623700  0.704300  1.0  0.1157
  C  C430  1  0.048300  0.704300  0.623700  1.0  0.1126
  C  C431  1  0.704300  0.048300  0.623700  1.0  0.1044
  C  C432  1  0.623700  0.623700  0.048300  1.0  0.1156
  N  N433  1  0.403800  0.250400  0.942000  1.0  -0.5501
  N  N434  1  0.250400  0.403800  0.403800  1.0  -0.5459
  N  N435  1  0.942000  0.403800  0.403800  1.0  -0.5445
  N  N436  1  0.403800  0.942000  0.250400  1.0  -0.5458
  N  N437  1  0.403800  0.942000  0.403800  1.0  -0.5387
  N  N438  1  0.250400  0.403800  0.942000  1.0  -0.5461
  N  N439  1  0.942000  0.403800  0.250400  1.0  -0.5489
  N  N440  1  0.403800  0.250400  0.403800  1.0  -0.55
  N  N441  1  0.403800  0.403800  0.250400  1.0  -0.5492
  N  N442  1  0.250400  0.942000  0.403800  1.0  -0.5418
  N  N443  1  0.942000  0.250400  0.403800  1.0  -0.5466
  N  N444  1  0.403800  0.403800  0.942000  1.0  -0.5481
  N  N445  1  0.749600  0.596200  0.058000  1.0  -0.5462
  N  N446  1  0.596200  0.749600  0.596200  1.0  -0.5496
  N  N447  1  0.596200  0.058000  0.596200  1.0  -0.5452
  N  N448  1  0.058000  0.596200  0.749600  1.0  -0.5417
  N  N449  1  0.058000  0.596200  0.596200  1.0  -0.5465
  N  N450  1  0.596200  0.749600  0.058000  1.0  -0.5496
  N  N451  1  0.596200  0.058000  0.749600  1.0  -0.5407
  N  N452  1  0.749600  0.596200  0.596200  1.0  -0.5474
  N  N453  1  0.596200  0.596200  0.749600  1.0  -0.5435
  N  N454  1  0.058000  0.749600  0.596200  1.0  -0.5489
  N  N455  1  0.749600  0.058000  0.596200  1.0  -0.5456
  N  N456  1  0.596200  0.596200  0.058000  1.0  -0.5447
  O  O457  1  0.076490  0.237310  0.987170  1.0  -0.5925
  O  O458  1  0.077360  0.311160  0.986600  1.0  -0.5858
  O  O459  1  0.237310  0.076490  0.699030  1.0  -0.5926
  O  O460  1  0.311160  0.077360  0.624880  1.0  -0.586
  O  O461  1  0.987170  0.699030  0.076490  1.0  -0.5922
  O  O462  1  0.986600  0.624880  0.077360  1.0  -0.5874
  O  O463  1  0.699030  0.987170  0.237310  1.0  -0.5927
  O  O464  1  0.624880  0.986600  0.311160  1.0  -0.5854
  O  O465  1  0.076490  0.987170  0.699030  1.0  -0.5924
  O  O466  1  0.077360  0.986600  0.624880  1.0  -0.5877
  O  O467  1  0.237310  0.699030  0.987170  1.0  -0.5937
  O  O468  1  0.311160  0.624880  0.986600  1.0  -0.5872
  O  O469  1  0.987170  0.076490  0.237310  1.0  -0.5922
  O  O470  1  0.986600  0.077360  0.311160  1.0  -0.5858
  O  O471  1  0.699030  0.237310  0.076490  1.0  -0.593
  O  O472  1  0.624880  0.311160  0.077360  1.0  -0.5875
  O  O473  1  0.076490  0.699030  0.237310  1.0  -0.5923
  O  O474  1  0.077360  0.624880  0.311160  1.0  -0.5861
  O  O475  1  0.237310  0.987170  0.076490  1.0  -0.5913
  O  O476  1  0.311160  0.986600  0.077360  1.0  -0.5868
  O  O477  1  0.987170  0.237310  0.699030  1.0  -0.5929
  O  O478  1  0.986600  0.311160  0.624880  1.0  -0.5872
  O  O479  1  0.699030  0.076490  0.987170  1.0  -0.5922
  O  O480  1  0.624880  0.077360  0.986600  1.0  -0.5864
  O  O481  1  0.762690  0.923510  0.012830  1.0  -0.5925
  O  O482  1  0.688840  0.922640  0.013400  1.0  -0.5866
  O  O483  1  0.923510  0.762690  0.300970  1.0  -0.5927
  O  O484  1  0.922640  0.688840  0.375120  1.0  -0.5864
  O  O485  1  0.300970  0.012830  0.923510  1.0  -0.5925
  O  O486  1  0.375120  0.013400  0.922640  1.0  -0.5853
  O  O487  1  0.012830  0.300970  0.762690  1.0  -0.5922
  O  O488  1  0.013400  0.375120  0.688840  1.0  -0.5867
  O  O489  1  0.012830  0.923510  0.300970  1.0  -0.5922
  O  O490  1  0.013400  0.922640  0.375120  1.0  -0.5859
  O  O491  1  0.300970  0.762690  0.012830  1.0  -0.5935
  O  O492  1  0.375120  0.688840  0.013400  1.0  -0.5871
  O  O493  1  0.923510  0.012830  0.762690  1.0  -0.5921
  O  O494  1  0.922640  0.013400  0.688840  1.0  -0.5876
  O  O495  1  0.762690  0.300970  0.923510  1.0  -0.593
  O  O496  1  0.688840  0.375120  0.922640  1.0  -0.5875
  O  O497  1  0.300970  0.923510  0.762690  1.0  -0.592
  O  O498  1  0.375120  0.922640  0.688840  1.0  -0.5859
  O  O499  1  0.012830  0.762690  0.923510  1.0  -0.5934
  O  O500  1  0.013400  0.688840  0.922640  1.0  -0.5871
  O  O501  1  0.762690  0.012830  0.300970  1.0  -0.5912
  O  O502  1  0.688840  0.013400  0.375120  1.0  -0.5866
  O  O503  1  0.923510  0.300970  0.012830  1.0  -0.5931
  O  O504  1  0.922640  0.375120  0.013400  1.0  -0.5867
  O  O505  1  0.923510  0.762690  0.012830  1.0  -0.5924
  O  O506  1  0.922640  0.688840  0.013400  1.0  -0.587
  O  O507  1  0.762690  0.923510  0.300970  1.0  -0.5923
  O  O508  1  0.688840  0.922640  0.375120  1.0  -0.586
  O  O509  1  0.012830  0.300970  0.923510  1.0  -0.5923
  O  O510  1  0.013400  0.375120  0.922640  1.0  -0.5864
  O  O511  1  0.300970  0.012830  0.762690  1.0  -0.5926
  O  O512  1  0.375120  0.013400  0.688840  1.0  -0.5859
  O  O513  1  0.923510  0.012830  0.300970  1.0  -0.5922
  O  O514  1  0.922640  0.013400  0.375120  1.0  -0.5874
  O  O515  1  0.762690  0.300970  0.012830  1.0  -0.5926
  O  O516  1  0.688840  0.375120  0.013400  1.0  -0.5876
  O  O517  1  0.012830  0.923510  0.762690  1.0  -0.5916
  O  O518  1  0.013400  0.922640  0.688840  1.0  -0.5863
  O  O519  1  0.300970  0.762690  0.923510  1.0  -0.5937
  O  O520  1  0.375120  0.688840  0.922640  1.0  -0.5869
  O  O521  1  0.923510  0.300970  0.762690  1.0  -0.5928
  O  O522  1  0.922640  0.375120  0.688840  1.0  -0.5869
  O  O523  1  0.762690  0.012830  0.923510  1.0  -0.5918
  O  O524  1  0.688840  0.013400  0.922640  1.0  -0.5867
  O  O525  1  0.012830  0.762690  0.300970  1.0  -0.593
  O  O526  1  0.013400  0.688840  0.375120  1.0  -0.5871
  O  O527  1  0.300970  0.923510  0.012830  1.0  -0.5923
  O  O528  1  0.375120  0.922640  0.013400  1.0  -0.5858
  O  O529  1  0.237310  0.076490  0.987170  1.0  -0.5926
  O  O530  1  0.311160  0.077360  0.986600  1.0  -0.586
  O  O531  1  0.076490  0.237310  0.699030  1.0  -0.5923
  O  O532  1  0.077360  0.311160  0.624880  1.0  -0.5864
  O  O533  1  0.699030  0.987170  0.076490  1.0  -0.5921
  O  O534  1  0.624880  0.986600  0.077360  1.0  -0.5859
  O  O535  1  0.987170  0.699030  0.237310  1.0  -0.5927
  O  O536  1  0.986600  0.624880  0.311160  1.0  -0.5865
  O  O537  1  0.987170  0.076490  0.699030  1.0  -0.592
  O  O538  1  0.986600  0.077360  0.624880  1.0  -0.5865
  O  O539  1  0.699030  0.237310  0.987170  1.0  -0.5932
  O  O540  1  0.624880  0.311160  0.986600  1.0  -0.5874
  O  O541  1  0.076490  0.987170  0.237310  1.0  -0.593
  O  O542  1  0.077360  0.986600  0.311160  1.0  -0.5868
  O  O543  1  0.237310  0.699030  0.076490  1.0  -0.5936
  O  O544  1  0.311160  0.624880  0.077360  1.0  -0.5874
  O  O545  1  0.699030  0.076490  0.237310  1.0  -0.592
  O  O546  1  0.624880  0.077360  0.311160  1.0  -0.5862
  O  O547  1  0.987170  0.237310  0.076490  1.0  -0.593
  O  O548  1  0.986600  0.311160  0.077360  1.0  -0.5873
  O  O549  1  0.237310  0.987170  0.699030  1.0  -0.5914
  O  O550  1  0.311160  0.986600  0.624880  1.0  -0.5867
  O  O551  1  0.076490  0.699030  0.987170  1.0  -0.5921
  O  O552  1  0.077360  0.624880  0.986600  1.0  -0.5867
