# generated using pymatgen
data_Co3H8C14(NO)6
_symmetry_space_group_name_H-M   'P 1'
_cell_length_a   18.37300000
_cell_length_b   11.52300000
_cell_length_c   11.03400000
_cell_angle_alpha   90.00000000
_cell_angle_beta   94.25100000
_cell_angle_gamma   90.00000000
_symmetry_Int_Tables_number   1
_chemical_formula_structural   Co3H8C14(NO)6
_chemical_formula_sum   'Co12 H32 C56 N24 O24'
_cell_volume   2329.60440475
_cell_formula_units_Z   4
loop_
 _symmetry_equiv_pos_site_id
 _symmetry_equiv_pos_as_xyz
  1  'x, y, z'
loop_
 _atom_site_type_symbol
 _atom_site_label
 _atom_site_symmetry_multiplicity
 _atom_site_fract_x
 _atom_site_fract_y
 _atom_site_fract_z
 _atom_site_occupancy
 _atom_site_charge
  Co  Co1  1  0.075300  0.930220  0.992850  1.0  0.923
  Co  Co2  1  0.575300  0.430220  0.992850  1.0  0.923
  Co  Co3  1  0.924700  0.930220  0.507150  1.0  0.9227
  Co  Co4  1  0.424700  0.430220  0.507150  1.0  0.9227
  Co  Co5  1  0.924700  0.069780  0.007150  1.0  0.9241
  Co  Co6  1  0.424700  0.569780  0.007150  1.0  0.9241
  Co  Co7  1  0.075300  0.069780  0.492850  1.0  0.9245
  Co  Co8  1  0.575300  0.569780  0.492850  1.0  0.9245
  Co  Co9  1  0.000000  0.895670  0.250000  1.0  0.8492
  Co  Co10  1  0.500000  0.395670  0.250000  1.0  0.8492
  Co  Co11  1  0.000000  0.104330  0.750000  1.0  0.8467
  Co  Co12  1  0.500000  0.604330  0.750000  1.0  0.8467
  H  H13  1  0.161400  0.688100  0.393600  1.0  0.0948
  H  H14  1  0.263300  0.597300  0.488600  1.0  0.1092
  H  H15  1  0.247200  0.676500  0.065100  1.0  0.1026
  H  H16  1  0.957500  0.857200  0.038000  1.0  0.4445
  H  H17  1  0.661400  0.188100  0.393600  1.0  0.0948
  H  H18  1  0.763300  0.097300  0.488600  1.0  0.1092
  H  H19  1  0.747200  0.176500  0.065100  1.0  0.1026
  H  H20  1  0.457500  0.357200  0.038000  1.0  0.4445
  H  H21  1  0.838600  0.688100  0.106400  1.0  0.0948
  H  H22  1  0.736700  0.597300  0.011400  1.0  0.1098
  H  H23  1  0.752800  0.676500  0.434900  1.0  0.1032
  H  H24  1  0.042500  0.857200  0.462000  1.0  0.4465
  H  H25  1  0.338600  0.188100  0.106400  1.0  0.0948
  H  H26  1  0.236700  0.097300  0.011400  1.0  0.1098
  H  H27  1  0.252800  0.176500  0.434900  1.0  0.1032
  H  H28  1  0.542500  0.357200  0.462000  1.0  0.4465
  H  H29  1  0.838600  0.311900  0.606400  1.0  0.0944
  H  H30  1  0.736700  0.402700  0.511400  1.0  0.1098
  H  H31  1  0.752800  0.323500  0.934900  1.0  0.103
  H  H32  1  0.042500  0.142800  0.962000  1.0  0.4434
  H  H33  1  0.338600  0.811900  0.606400  1.0  0.0944
  H  H34  1  0.236700  0.902700  0.511400  1.0  0.1098
  H  H35  1  0.252800  0.823500  0.934900  1.0  0.103
  H  H36  1  0.542500  0.642800  0.962000  1.0  0.4434
  H  H37  1  0.161400  0.311900  0.893600  1.0  0.0946
  H  H38  1  0.263300  0.402700  0.988600  1.0  0.1092
  H  H39  1  0.247200  0.323500  0.565100  1.0  0.1026
  H  H40  1  0.957500  0.142800  0.538000  1.0  0.4428
  H  H41  1  0.661400  0.811900  0.893600  1.0  0.0946
  H  H42  1  0.763300  0.902700  0.988600  1.0  0.1092
  H  H43  1  0.747200  0.823500  0.565100  1.0  0.1026
  H  H44  1  0.457500  0.642800  0.538000  1.0  0.4428
  C  C45  1  0.128000  0.752200  0.165800  1.0  0.7025
  C  C46  1  0.195400  0.687600  0.221000  1.0  -0.1382
  C  C47  1  0.200400  0.665100  0.346900  1.0  -0.0419
  C  C48  1  0.259500  0.611400  0.403500  1.0  -0.0999
  C  C49  1  0.313100  0.579100  0.331100  1.0  0.2216
  C  C50  1  0.310500  0.601900  0.208500  1.0  0.1484
  C  C51  1  0.249800  0.659100  0.149500  1.0  -0.0729
  C  C52  1  0.628000  0.252200  0.165800  1.0  0.7025
  C  C53  1  0.695400  0.187600  0.221000  1.0  -0.1382
  C  C54  1  0.700400  0.165100  0.346900  1.0  -0.0419
  C  C55  1  0.759500  0.111400  0.403500  1.0  -0.0999
  C  C56  1  0.813100  0.079100  0.331100  1.0  0.2216
  C  C57  1  0.810500  0.101900  0.208500  1.0  0.1484
  C  C58  1  0.749800  0.159100  0.149500  1.0  -0.0729
  C  C59  1  0.872000  0.752200  0.334200  1.0  0.7038
  C  C60  1  0.804600  0.687600  0.279000  1.0  -0.1376
  C  C61  1  0.799600  0.665100  0.153100  1.0  -0.0426
  C  C62  1  0.740500  0.611400  0.096500  1.0  -0.0996
  C  C63  1  0.686900  0.579100  0.168900  1.0  0.2231
  C  C64  1  0.689500  0.601900  0.291500  1.0  0.1467
  C  C65  1  0.750200  0.659100  0.350500  1.0  -0.0742
  C  C66  1  0.372000  0.252200  0.334200  1.0  0.7038
  C  C67  1  0.304600  0.187600  0.279000  1.0  -0.1376
  C  C68  1  0.299600  0.165100  0.153100  1.0  -0.0426
  C  C69  1  0.240500  0.111400  0.096500  1.0  -0.0996
  C  C70  1  0.186900  0.079100  0.168900  1.0  0.2231
  C  C71  1  0.189500  0.101900  0.291500  1.0  0.1467
  C  C72  1  0.250200  0.159100  0.350500  1.0  -0.0742
  C  C73  1  0.872000  0.247800  0.834200  1.0  0.7028
  C  C74  1  0.804600  0.312400  0.779000  1.0  -0.1374
  C  C75  1  0.799600  0.334900  0.653100  1.0  -0.0417
  C  C76  1  0.740500  0.388600  0.596500  1.0  -0.0993
  C  C77  1  0.686900  0.420900  0.668900  1.0  0.2232
  C  C78  1  0.689500  0.398100  0.791500  1.0  0.1473
  C  C79  1  0.750200  0.340900  0.850500  1.0  -0.0743
  C  C80  1  0.372000  0.747800  0.834200  1.0  0.7028
  C  C81  1  0.304600  0.812400  0.779000  1.0  -0.1374
  C  C82  1  0.299600  0.834900  0.653100  1.0  -0.0417
  C  C83  1  0.240500  0.888600  0.596500  1.0  -0.0993
  C  C84  1  0.186900  0.920900  0.668900  1.0  0.2232
  C  C85  1  0.189500  0.898100  0.791500  1.0  0.1473
  C  C86  1  0.250200  0.840900  0.850500  1.0  -0.0743
  C  C87  1  0.128000  0.247800  0.665800  1.0  0.7026
  C  C88  1  0.195400  0.312400  0.721000  1.0  -0.1374
  C  C89  1  0.200400  0.334900  0.846900  1.0  -0.0419
  C  C90  1  0.259500  0.388600  0.903500  1.0  -0.0997
  C  C91  1  0.313100  0.420900  0.831100  1.0  0.2217
  C  C92  1  0.310500  0.398100  0.708500  1.0  0.1481
  C  C93  1  0.249800  0.340900  0.649500  1.0  -0.0731
  C  C94  1  0.628000  0.747800  0.665800  1.0  0.7026
  C  C95  1  0.695400  0.812400  0.721000  1.0  -0.1374
  C  C96  1  0.700400  0.834900  0.846900  1.0  -0.0419
  C  C97  1  0.759500  0.888600  0.903500  1.0  -0.0997
  C  C98  1  0.813100  0.920900  0.831100  1.0  0.2217
  C  C99  1  0.810500  0.898100  0.708500  1.0  0.1481
  C  C100  1  0.749800  0.840900  0.649500  1.0  -0.0731
  N  N101  1  0.377100  0.523800  0.361500  1.0  -0.2971
  N  N102  1  0.411500  0.513100  0.260000  1.0  -0.0709
  N  N103  1  0.372800  0.559500  0.166100  1.0  -0.3115
  N  N104  1  0.877100  0.023800  0.361500  1.0  -0.2971
  N  N105  1  0.911500  0.013100  0.260000  1.0  -0.0709
  N  N106  1  0.872800  0.059500  0.166100  1.0  -0.3115
  N  N107  1  0.622900  0.523800  0.138500  1.0  -0.2977
  N  N108  1  0.588500  0.513100  0.240000  1.0  -0.0693
  N  N109  1  0.627200  0.559500  0.333900  1.0  -0.3134
  N  N110  1  0.122900  0.023800  0.138500  1.0  -0.2977
  N  N111  1  0.088500  0.013100  0.240000  1.0  -0.0693
  N  N112  1  0.127200  0.059500  0.333900  1.0  -0.3134
  N  N113  1  0.622900  0.476200  0.638500  1.0  -0.2976
  N  N114  1  0.588500  0.486900  0.740000  1.0  -0.0686
  N  N115  1  0.627200  0.440500  0.833900  1.0  -0.3133
  N  N116  1  0.122900  0.976200  0.638500  1.0  -0.2976
  N  N117  1  0.088500  0.986900  0.740000  1.0  -0.0686
  N  N118  1  0.127200  0.940500  0.833900  1.0  -0.3133
  N  N119  1  0.377100  0.476200  0.861500  1.0  -0.2966
  N  N120  1  0.411500  0.486900  0.760000  1.0  -0.0701
  N  N121  1  0.372800  0.440500  0.666100  1.0  -0.3119
  N  N122  1  0.877100  0.976200  0.861500  1.0  -0.2966
  N  N123  1  0.911500  0.986900  0.760000  1.0  -0.0701
  N  N124  1  0.872800  0.940500  0.666100  1.0  -0.3119
  O  O125  1  0.979600  0.913600  0.067600  1.0  -0.9389
  O  O126  1  0.077700  0.767200  0.233500  1.0  -0.6104
  O  O127  1  0.130300  0.786200  0.057000  1.0  -0.5929
  O  O128  1  0.479600  0.413600  0.067600  1.0  -0.9389
  O  O129  1  0.577700  0.267200  0.233500  1.0  -0.6104
  O  O130  1  0.630300  0.286200  0.057000  1.0  -0.5929
  O  O131  1  0.020400  0.913600  0.432400  1.0  -0.9373
  O  O132  1  0.922300  0.767200  0.266500  1.0  -0.6081
  O  O133  1  0.869700  0.786200  0.443000  1.0  -0.5923
  O  O134  1  0.520400  0.413600  0.432400  1.0  -0.9373
  O  O135  1  0.422300  0.267200  0.266500  1.0  -0.6081
  O  O136  1  0.369700  0.286200  0.443000  1.0  -0.5923
  O  O137  1  0.020400  0.086400  0.932400  1.0  -0.9392
  O  O138  1  0.922300  0.232800  0.766500  1.0  -0.6093
  O  O139  1  0.869700  0.213800  0.943000  1.0  -0.59
  O  O140  1  0.520400  0.586400  0.932400  1.0  -0.9392
  O  O141  1  0.422300  0.732800  0.766500  1.0  -0.6093
  O  O142  1  0.369700  0.713800  0.943000  1.0  -0.59
  O  O143  1  0.979600  0.086400  0.567600  1.0  -0.9388
  O  O144  1  0.077700  0.232800  0.733500  1.0  -0.6084
  O  O145  1  0.130300  0.213800  0.557000  1.0  -0.5917
  O  O146  1  0.479600  0.586400  0.567600  1.0  -0.9388
  O  O147  1  0.577700  0.732800  0.733500  1.0  -0.6084
  O  O148  1  0.630300  0.713800  0.557000  1.0  -0.5917
