# generated using pymatgen
data_Co3H8C14(NO)6
_symmetry_space_group_name_H-M   'P 1'
_cell_length_a   18.28000000
_cell_length_b   11.91630000
_cell_length_c   11.09230000
_cell_angle_alpha   90.00000000
_cell_angle_beta   94.04000000
_cell_angle_gamma   90.00000000
_symmetry_Int_Tables_number   1
_chemical_formula_structural   Co3H8C14(NO)6
_chemical_formula_sum   'Co12 H32 C56 N24 O24'
_cell_volume   2410.23122578
_cell_formula_units_Z   4
loop_
 _symmetry_equiv_pos_site_id
 _symmetry_equiv_pos_as_xyz
  1  'x, y, z'
loop_
 _atom_site_type_symbol
 _atom_site_label
 _atom_site_symmetry_multiplicity
 _atom_site_fract_x
 _atom_site_fract_y
 _atom_site_fract_z
 _atom_site_occupancy
 _atom_site_charge
  Co  Co1  1  0.577040  0.432900  0.995660  1.0  0.9173
  Co  Co2  1  0.077040  0.932900  0.995660  1.0  0.9173
  Co  Co3  1  0.422960  0.432900  0.504340  1.0  0.9165
  Co  Co4  1  0.922960  0.932900  0.504340  1.0  0.9165
  Co  Co5  1  0.422960  0.567100  0.004340  1.0  0.9174
  Co  Co6  1  0.922960  0.067100  0.004340  1.0  0.9174
  Co  Co7  1  0.577040  0.567100  0.495660  1.0  0.918
  Co  Co8  1  0.077040  0.067100  0.495660  1.0  0.918
  Co  Co9  1  0.500000  0.399370  0.250000  1.0  0.9357
  Co  Co10  1  0.000000  0.899370  0.250000  1.0  0.9357
  Co  Co11  1  0.500000  0.600630  0.750000  1.0  0.9323
  Co  Co12  1  0.000000  0.100630  0.750000  1.0  0.9323
  H  H13  1  0.748500  0.176500  0.067500  1.0  0.1209
  H  H14  1  0.759400  0.098800  0.486000  1.0  0.1249
  H  H15  1  0.660600  0.192000  0.390900  1.0  0.1042
  H  H16  1  0.456700  0.355000  0.047000  1.0  0.4473
  H  H17  1  0.248500  0.676500  0.067500  1.0  0.1209
  H  H18  1  0.259400  0.598800  0.486000  1.0  0.1249
  H  H19  1  0.160600  0.692000  0.390900  1.0  0.1042
  H  H20  1  0.956700  0.855000  0.047000  1.0  0.4473
  H  H21  1  0.251500  0.176500  0.432500  1.0  0.1203
  H  H22  1  0.240600  0.098800  0.014000  1.0  0.1245
  H  H23  1  0.339400  0.192000  0.109100  1.0  0.1042
  H  H24  1  0.543300  0.355000  0.453000  1.0  0.4484
  H  H25  1  0.751500  0.676500  0.432500  1.0  0.1203
  H  H26  1  0.740600  0.598800  0.014000  1.0  0.1245
  H  H27  1  0.839400  0.692000  0.109100  1.0  0.1042
  H  H28  1  0.043300  0.855000  0.453000  1.0  0.4484
  H  H29  1  0.251500  0.823500  0.932500  1.0  0.1199
  H  H30  1  0.240600  0.901200  0.514000  1.0  0.1243
  H  H31  1  0.339400  0.808000  0.609100  1.0  0.1034
  H  H32  1  0.543300  0.645000  0.953000  1.0  0.4468
  H  H33  1  0.751500  0.323500  0.932500  1.0  0.1199
  H  H34  1  0.740600  0.401200  0.514000  1.0  0.1243
  H  H35  1  0.839400  0.308000  0.609100  1.0  0.1034
  H  H36  1  0.043300  0.145000  0.953000  1.0  0.4468
  H  H37  1  0.748500  0.823500  0.567500  1.0  0.1208
  H  H38  1  0.759400  0.901200  0.986000  1.0  0.1247
  H  H39  1  0.660600  0.808000  0.890900  1.0  0.1039
  H  H40  1  0.456700  0.645000  0.547000  1.0  0.4471
  H  H41  1  0.248500  0.323500  0.567500  1.0  0.1208
  H  H42  1  0.259400  0.401200  0.986000  1.0  0.1247
  H  H43  1  0.160600  0.308000  0.890900  1.0  0.1039
  H  H44  1  0.956700  0.145000  0.547000  1.0  0.4471
  C  C45  1  0.630000  0.260000  0.167600  1.0  0.7104
  C  C46  1  0.695600  0.194200  0.221400  1.0  -0.1366
  C  C47  1  0.750800  0.161800  0.150000  1.0  -0.0627
  C  C48  1  0.810600  0.105300  0.208600  1.0  0.1316
  C  C49  1  0.813000  0.081300  0.330800  1.0  0.1917
  C  C50  1  0.757200  0.114000  0.403500  1.0  -0.1552
  C  C51  1  0.699200  0.169600  0.346000  1.0  -0.0138
  C  C52  1  0.130000  0.760000  0.167600  1.0  0.7104
  C  C53  1  0.195600  0.694200  0.221400  1.0  -0.1366
  C  C54  1  0.250800  0.661800  0.150000  1.0  -0.0627
  C  C55  1  0.310600  0.605300  0.208600  1.0  0.1316
  C  C56  1  0.313000  0.581300  0.330800  1.0  0.1917
  C  C57  1  0.257200  0.614000  0.403500  1.0  -0.1552
  C  C58  1  0.199200  0.669600  0.346000  1.0  -0.0138
  C  C59  1  0.370000  0.260000  0.332400  1.0  0.7112
  C  C60  1  0.304400  0.194200  0.278600  1.0  -0.1367
  C  C61  1  0.249200  0.161800  0.350000  1.0  -0.0624
  C  C62  1  0.189400  0.105300  0.291400  1.0  0.1305
  C  C63  1  0.187000  0.081300  0.169200  1.0  0.1925
  C  C64  1  0.242800  0.114000  0.096500  1.0  -0.1531
  C  C65  1  0.300800  0.169600  0.154000  1.0  -0.0142
  C  C66  1  0.870000  0.760000  0.332400  1.0  0.7112
  C  C67  1  0.804400  0.694200  0.278600  1.0  -0.1367
  C  C68  1  0.749200  0.661800  0.350000  1.0  -0.0624
  C  C69  1  0.689400  0.605300  0.291400  1.0  0.1305
  C  C70  1  0.687000  0.581300  0.169200  1.0  0.1925
  C  C71  1  0.742800  0.614000  0.096500  1.0  -0.1531
  C  C72  1  0.800800  0.669600  0.154000  1.0  -0.0142
  C  C73  1  0.370000  0.740000  0.832400  1.0  0.7109
  C  C74  1  0.304400  0.805800  0.778600  1.0  -0.1368
  C  C75  1  0.249200  0.838200  0.850000  1.0  -0.0626
  C  C76  1  0.189400  0.894700  0.791400  1.0  0.1306
  C  C77  1  0.187000  0.918700  0.669200  1.0  0.192
  C  C78  1  0.242800  0.886000  0.596500  1.0  -0.1527
  C  C79  1  0.300800  0.830400  0.654000  1.0  -0.0137
  C  C80  1  0.870000  0.240000  0.832400  1.0  0.7109
  C  C81  1  0.804400  0.305800  0.778600  1.0  -0.1368
  C  C82  1  0.749200  0.338200  0.850000  1.0  -0.0626
  C  C83  1  0.689400  0.394700  0.791400  1.0  0.1306
  C  C84  1  0.687000  0.418700  0.669200  1.0  0.192
  C  C85  1  0.742800  0.386000  0.596500  1.0  -0.1527
  C  C86  1  0.800800  0.330400  0.654000  1.0  -0.0137
  C  C87  1  0.630000  0.740000  0.667600  1.0  0.7105
  C  C88  1  0.695600  0.805800  0.721400  1.0  -0.1366
  C  C89  1  0.750800  0.838200  0.650000  1.0  -0.0627
  C  C90  1  0.810600  0.894700  0.708600  1.0  0.131
  C  C91  1  0.813000  0.918700  0.830800  1.0  0.1914
  C  C92  1  0.757200  0.886000  0.903500  1.0  -0.1556
  C  C93  1  0.699200  0.830400  0.846000  1.0  -0.014
  C  C94  1  0.130000  0.240000  0.667600  1.0  0.7105
  C  C95  1  0.195600  0.305800  0.721400  1.0  -0.1366
  C  C96  1  0.250800  0.338200  0.650000  1.0  -0.0627
  C  C97  1  0.310600  0.394700  0.708600  1.0  0.131
  C  C98  1  0.313000  0.418700  0.830800  1.0  0.1914
  C  C99  1  0.257200  0.386000  0.903500  1.0  -0.1556
  C  C100  1  0.199200  0.330400  0.846000  1.0  -0.014
  N  N101  1  0.872990  0.062200  0.165200  1.0  -0.3205
  N  N102  1  0.911080  0.016000  0.258900  1.0  -0.0379
  N  N103  1  0.877120  0.025800  0.360200  1.0  -0.2911
  N  N104  1  0.372990  0.562200  0.165200  1.0  -0.3205
  N  N105  1  0.411080  0.516000  0.258900  1.0  -0.0379
  N  N106  1  0.377120  0.525800  0.360200  1.0  -0.2911
  N  N107  1  0.127010  0.062200  0.334800  1.0  -0.3227
  N  N108  1  0.088920  0.016000  0.241100  1.0  -0.0377
  N  N109  1  0.122880  0.025800  0.139800  1.0  -0.2922
  N  N110  1  0.627010  0.562200  0.334800  1.0  -0.3227
  N  N111  1  0.588920  0.516000  0.241100  1.0  -0.0377
  N  N112  1  0.622880  0.525800  0.139800  1.0  -0.2922
  N  N113  1  0.127010  0.937800  0.834800  1.0  -0.3228
  N  N114  1  0.088920  0.984000  0.741100  1.0  -0.037
  N  N115  1  0.122880  0.974200  0.639800  1.0  -0.2923
  N  N116  1  0.627010  0.437800  0.834800  1.0  -0.3228
  N  N117  1  0.588920  0.484000  0.741100  1.0  -0.037
  N  N118  1  0.622880  0.474200  0.639800  1.0  -0.2923
  N  N119  1  0.872990  0.937800  0.665200  1.0  -0.3212
  N  N120  1  0.911080  0.984000  0.758900  1.0  -0.0368
  N  N121  1  0.877120  0.974200  0.860200  1.0  -0.2907
  N  N122  1  0.372990  0.437800  0.665200  1.0  -0.3212
  N  N123  1  0.411080  0.484000  0.758900  1.0  -0.0368
  N  N124  1  0.377120  0.474200  0.860200  1.0  -0.2907
  O  O125  1  0.479790  0.414400  0.066700  1.0  -1.0027
  O  O126  1  0.631500  0.294100  0.058800  1.0  -0.5979
  O  O127  1  0.578910  0.276000  0.235300  1.0  -0.599
  O  O128  1  0.979790  0.914400  0.066700  1.0  -1.0027
  O  O129  1  0.131500  0.794100  0.058800  1.0  -0.5979
  O  O130  1  0.078910  0.776000  0.235300  1.0  -0.599
  O  O131  1  0.520210  0.414400  0.433300  1.0  -1.0012
  O  O132  1  0.368500  0.294100  0.441200  1.0  -0.5983
  O  O133  1  0.421090  0.276000  0.264700  1.0  -0.596
  O  O134  1  0.020210  0.914400  0.433300  1.0  -1.0012
  O  O135  1  0.868500  0.794100  0.441200  1.0  -0.5983
  O  O136  1  0.921090  0.776000  0.264700  1.0  -0.596
  O  O137  1  0.520210  0.585600  0.933300  1.0  -1.0011
  O  O138  1  0.368500  0.705900  0.941200  1.0  -0.5966
  O  O139  1  0.421090  0.724000  0.764700  1.0  -0.5964
  O  O140  1  0.020210  0.085600  0.933300  1.0  -1.0011
  O  O141  1  0.868500  0.205900  0.941200  1.0  -0.5966
  O  O142  1  0.921090  0.224000  0.764700  1.0  -0.5964
  O  O143  1  0.479790  0.585600  0.566700  1.0  -1.0012
  O  O144  1  0.631500  0.705900  0.558800  1.0  -0.5971
  O  O145  1  0.578910  0.724000  0.735300  1.0  -0.5972
  O  O146  1  0.979790  0.085600  0.566700  1.0  -1.0012
  O  O147  1  0.131500  0.205900  0.558800  1.0  -0.5971
  O  O148  1  0.078910  0.224000  0.735300  1.0  -0.5972
