# generated using pymatgen
data_Ca3H18(C16O7)2
_symmetry_space_group_name_H-M   'P 1'
_cell_length_a   9.82400000
_cell_length_b   9.96300000
_cell_length_c   10.15000000
_cell_angle_alpha   74.04400000
_cell_angle_beta   86.36100000
_cell_angle_gamma   78.32800000
_symmetry_Int_Tables_number   1
_chemical_formula_structural   Ca3H18(C16O7)2
_chemical_formula_sum   'Ca3 H18 C32 O14'
_cell_volume   935.38836637
_cell_formula_units_Z   1
loop_
 _symmetry_equiv_pos_site_id
 _symmetry_equiv_pos_as_xyz
  1  'x, y, z'
loop_
 _atom_site_type_symbol
 _atom_site_label
 _atom_site_symmetry_multiplicity
 _atom_site_fract_x
 _atom_site_fract_y
 _atom_site_fract_z
 _atom_site_occupancy
 _atom_site_charge
  Ca  Ca1  1  0.507840  0.879680  0.883470  1.0  1.5589
  Ca  Ca2  1  0.492160  0.120320  0.116530  1.0  1.5586
  Ca  Ca3  1  0.500000  0.000000  0.500000  1.0  1.6987
  H  H4  1  0.308600  0.721200  0.527000  1.0  0.1226
  H  H5  1  0.327600  0.314000  0.530400  1.0  0.0989
  H  H6  1  0.488500  0.407300  0.842100  1.0  0.1044
  H  H7  1  0.274000  0.416300  0.303600  1.0  0.0681
  H  H8  1  0.135400  0.417300  0.390400  1.0  0.0795
  H  H9  1  0.263800  0.535500  0.062400  1.0  0.0992
  H  H10  1  0.131900  0.656900  0.869900  1.0  0.086
  H  H11  1  0.802600  0.740400  0.107700  1.0  0.0742
  H  H12  1  0.931200  0.615000  0.298800  1.0  0.0946
  H  H13  1  0.691400  0.278800  0.473000  1.0  0.1239
  H  H14  1  0.672400  0.686000  0.469600  1.0  0.0987
  H  H15  1  0.511500  0.592700  0.157900  1.0  0.105
  H  H16  1  0.726000  0.583700  0.696400  1.0  0.0688
  H  H17  1  0.864600  0.582700  0.609600  1.0  0.0799
  H  H18  1  0.736200  0.464500  0.937600  1.0  0.0986
  H  H19  1  0.868100  0.343100  0.130100  1.0  0.0854
  H  H20  1  0.197400  0.259600  0.892300  1.0  0.0746
  H  H21  1  0.068800  0.385000  0.701200  1.0  0.095
  C  C22  1  0.448800  0.687000  0.753080  1.0  0.7115
  C  C23  1  0.406100  0.580400  0.692180  1.0  -0.141
  C  C24  1  0.334700  0.624700  0.569950  1.0  -0.12
  C  C25  1  0.301800  0.524400  0.511150  1.0  0.2494
  C  C26  1  0.345500  0.381000  0.571860  1.0  -0.1835
  C  C27  1  0.416600  0.337200  0.695930  1.0  -0.1444
  C  C28  1  0.444500  0.436700  0.757640  1.0  -0.0
  C  C29  1  0.465300  0.182300  0.759240  1.0  0.7884
  C  C30  1  0.191300  0.476900  0.327500  1.0  0.0815
  C  C31  1  0.110000  0.560600  0.201200  1.0  0.0383
  C  C32  1  0.170600  0.575000  0.071700  1.0  -0.1488
  C  C33  1  0.091400  0.648700  0.956400  1.0  -0.0203
  C  C34  1  0.952900  0.710300  0.967900  1.0  -0.1636
  C  C35  1  0.866000  0.785700  0.843000  1.0  0.7422
  C  C36  1  0.894700  0.697900  0.098000  1.0  -0.0243
  C  C37  1  0.972100  0.623400  0.212500  1.0  -0.1056
  C  C38  1  0.551200  0.313000  0.246920  1.0  0.7117
  C  C39  1  0.593900  0.419600  0.307820  1.0  -0.1401
  C  C40  1  0.665300  0.375300  0.430050  1.0  -0.1215
  C  C41  1  0.698200  0.475600  0.488850  1.0  0.2505
  C  C42  1  0.654500  0.619000  0.428140  1.0  -0.183
  C  C43  1  0.583400  0.662800  0.304070  1.0  -0.1472
  C  C44  1  0.555500  0.563300  0.242360  1.0  -0.0002
  C  C45  1  0.534700  0.817700  0.240760  1.0  0.7893
  C  C46  1  0.808700  0.523100  0.672500  1.0  0.0842
  C  C47  1  0.890000  0.439400  0.798800  1.0  0.0386
  C  C48  1  0.829400  0.425000  0.928300  1.0  -0.1468
  C  C49  1  0.908600  0.351300  0.043600  1.0  -0.0175
  C  C50  1  0.047100  0.289700  0.032100  1.0  -0.1628
  C  C51  1  0.134000  0.214300  0.157000  1.0  0.7424
  C  C52  1  0.105300  0.302100  0.902000  1.0  -0.0255
  C  C53  1  0.027900  0.376600  0.787500  1.0  -0.1103
  O  O54  1  0.923370  0.800000  0.727950  1.0  -0.5931
  O  O55  1  0.739030  0.831900  0.859160  1.0  -0.7923
  O  O56  1  0.229250  0.578040  0.390440  1.0  -0.2929
  O  O57  1  0.454130  0.810780  0.676150  1.0  -0.8656
  O  O58  1  0.479860  0.651210  0.876260  1.0  -0.6308
  O  O59  1  0.479420  0.096060  0.686080  1.0  -0.8439
  O  O60  1  0.492010  0.137590  0.885440  1.0  -0.7912
  O  O61  1  0.076630  0.200000  0.272050  1.0  -0.5677
  O  O62  1  0.260970  0.168100  0.140840  1.0  -0.7927
  O  O63  1  0.770750  0.421960  0.609560  1.0  -0.2927
  O  O64  1  0.545870  0.189220  0.323850  1.0  -0.8671
  O  O65  1  0.520140  0.348790  0.123740  1.0  -0.6308
  O  O66  1  0.520580  0.903940  0.313920  1.0  -0.8426
  O  O67  1  0.507990  0.862410  0.114560  1.0  -0.7918
