# generated using pymatgen
data_ZnH8C12(IN2)2
_symmetry_space_group_name_H-M   'P 1'
_cell_length_a   28.25300000
_cell_length_b   13.85240000
_cell_length_c   44.96600000
_cell_angle_alpha   90.00000000
_cell_angle_beta   90.00000000
_cell_angle_gamma   90.00000000
_symmetry_Int_Tables_number   1
_chemical_formula_structural   ZnH8C12(IN2)2
_chemical_formula_sum   'Zn24 H192 C288 I48 N96'
_cell_volume   17598.42693086
_cell_formula_units_Z   24
loop_
 _symmetry_equiv_pos_site_id
 _symmetry_equiv_pos_as_xyz
  1  'x, y, z'
loop_
 _atom_site_type_symbol
 _atom_site_label
 _atom_site_symmetry_multiplicity
 _atom_site_fract_x
 _atom_site_fract_y
 _atom_site_fract_z
 _atom_site_occupancy
 _atom_site_charge
  Zn  Zn1  1  0.052300  0.856020  0.583000  1.0  0.8309
  Zn  Zn2  1  0.237220  0.828650  0.317530  1.0  0.8741
  Zn  Zn3  1  0.021150  0.623400  0.413550  1.0  0.8209
  Zn  Zn4  1  0.447700  0.143980  0.083000  1.0  0.8297
  Zn  Zn5  1  0.262780  0.171350  0.817530  1.0  0.8713
  Zn  Zn6  1  0.478850  0.376600  0.913550  1.0  0.8208
  Zn  Zn7  1  0.947700  0.356020  0.917000  1.0  0.8302
  Zn  Zn8  1  0.762780  0.328650  0.182470  1.0  0.8742
  Zn  Zn9  1  0.978850  0.123400  0.086450  1.0  0.8202
  Zn  Zn10  1  0.552300  0.643980  0.417000  1.0  0.8315
  Zn  Zn11  1  0.737220  0.671350  0.682470  1.0  0.8711
  Zn  Zn12  1  0.521150  0.876600  0.586450  1.0  0.8204
  Zn  Zn13  1  0.947700  0.143980  0.417000  1.0  0.8304
  Zn  Zn14  1  0.762780  0.171350  0.682470  1.0  0.8713
  Zn  Zn15  1  0.978850  0.376600  0.586450  1.0  0.8201
  Zn  Zn16  1  0.552300  0.856020  0.917000  1.0  0.8313
  Zn  Zn17  1  0.737220  0.828650  0.182470  1.0  0.8738
  Zn  Zn18  1  0.521150  0.623400  0.086450  1.0  0.8208
  Zn  Zn19  1  0.052300  0.643980  0.083000  1.0  0.8307
  Zn  Zn20  1  0.237220  0.671350  0.817530  1.0  0.871
  Zn  Zn21  1  0.021150  0.876600  0.913550  1.0  0.821
  Zn  Zn22  1  0.447700  0.356020  0.583000  1.0  0.83
  Zn  Zn23  1  0.262780  0.328650  0.317530  1.0  0.8744
  Zn  Zn24  1  0.478850  0.123400  0.413550  1.0  0.8205
  H  H25  1  0.032500  0.043600  0.553800  1.0  0.0827
  H  H26  1  0.050200  0.125600  0.509900  1.0  0.1131
  H  H27  1  0.101300  0.878300  0.476000  1.0  0.1199
  H  H28  1  0.079800  0.801200  0.520400  1.0  0.084
  H  H29  1  0.051200  0.318300  0.470500  1.0  0.1254
  H  H30  1  0.025300  0.474200  0.462600  1.0  0.0953
  H  H31  1  0.084200  0.477800  0.383100  1.0  0.0833
  H  H32  1  0.108100  0.319700  0.388100  1.0  0.1171
  H  H33  1  0.184400  0.127000  0.370800  1.0  0.115
  H  H34  1  0.221400  0.037700  0.335100  1.0  0.0836
  H  H35  1  0.174000  0.795800  0.369000  1.0  0.0938
  H  H36  1  0.136100  0.877700  0.406500  1.0  0.1216
  H  H37  1  0.339300  0.098900  0.777400  1.0  0.081
  H  H38  1  0.348400  0.043900  0.729100  1.0  0.1128
  H  H39  1  0.207500  0.013600  0.724000  1.0  0.1109
  H  H40  1  0.200700  0.072200  0.772200  1.0  0.1067
  H  H41  1  0.412400  0.976900  0.668700  1.0  0.1129
  H  H42  1  0.484300  0.946500  0.644300  1.0  0.098
  H  H43  1  0.417400  0.888300  0.570100  1.0  0.0852
  H  H44  1  0.344100  0.912600  0.592600  1.0  0.117
  H  H45  1  0.228400  0.901100  0.590500  1.0  0.123
  H  H46  1  0.156200  0.869700  0.567500  1.0  0.0885
  H  H47  1  0.086600  0.949200  0.639300  1.0  0.1096
  H  H48  1  0.155500  0.979900  0.664000  1.0  0.1147
  H  H49  1  0.467500  0.956400  0.053800  1.0  0.0823
  H  H50  1  0.449800  0.874400  0.009900  1.0  0.1133
  H  H51  1  0.398700  0.121700  0.976000  1.0  0.1205
  H  H52  1  0.420200  0.198800  0.020400  1.0  0.0836
  H  H53  1  0.448800  0.681700  0.970500  1.0  0.1253
  H  H54  1  0.474700  0.525800  0.962600  1.0  0.0948
  H  H55  1  0.415800  0.522200  0.883100  1.0  0.0834
  H  H56  1  0.391900  0.680300  0.888100  1.0  0.1172
  H  H57  1  0.315600  0.873000  0.870800  1.0  0.1154
  H  H58  1  0.278600  0.962300  0.835100  1.0  0.0837
  H  H59  1  0.326000  0.204200  0.869000  1.0  0.0926
  H  H60  1  0.363900  0.122300  0.906500  1.0  0.1215
  H  H61  1  0.160700  0.901100  0.277400  1.0  0.0816
  H  H62  1  0.151600  0.956100  0.229100  1.0  0.113
  H  H63  1  0.292500  0.986400  0.224000  1.0  0.1109
  H  H64  1  0.299300  0.927800  0.272200  1.0  0.1065
  H  H65  1  0.087600  0.023100  0.168700  1.0  0.1134
  H  H66  1  0.015700  0.053500  0.144300  1.0  0.0983
  H  H67  1  0.082600  0.111700  0.070100  1.0  0.0856
  H  H68  1  0.155900  0.087400  0.092600  1.0  0.1168
  H  H69  1  0.271600  0.098900  0.090500  1.0  0.1232
  H  H70  1  0.343800  0.130300  0.067500  1.0  0.0885
  H  H71  1  0.413400  0.050800  0.139300  1.0  0.1088
  H  H72  1  0.344500  0.020100  0.164000  1.0  0.1145
  H  H73  1  0.967500  0.543600  0.946200  1.0  0.0821
  H  H74  1  0.949800  0.625600  0.990100  1.0  0.1129
  H  H75  1  0.898700  0.378300  0.024000  1.0  0.1202
  H  H76  1  0.920200  0.301200  0.979600  1.0  0.0842
  H  H77  1  0.948800  0.818300  0.029500  1.0  0.1255
  H  H78  1  0.974700  0.974200  0.037400  1.0  0.0943
  H  H79  1  0.915800  0.977800  0.116900  1.0  0.0837
  H  H80  1  0.891900  0.819700  0.111900  1.0  0.1171
  H  H81  1  0.815600  0.627000  0.129200  1.0  0.115
  H  H82  1  0.778600  0.537700  0.164900  1.0  0.0831
  H  H83  1  0.826000  0.295800  0.131000  1.0  0.0939
  H  H84  1  0.863900  0.377700  0.093500  1.0  0.1216
  H  H85  1  0.660700  0.598900  0.722600  1.0  0.0818
  H  H86  1  0.651600  0.543900  0.770900  1.0  0.1126
  H  H87  1  0.792500  0.513600  0.776000  1.0  0.1114
  H  H88  1  0.799300  0.572200  0.727800  1.0  0.1062
  H  H89  1  0.587600  0.476900  0.831300  1.0  0.1133
  H  H90  1  0.515700  0.446500  0.855700  1.0  0.098
  H  H91  1  0.582600  0.388300  0.929900  1.0  0.0863
  H  H92  1  0.655900  0.412600  0.907400  1.0  0.117
  H  H93  1  0.771600  0.401100  0.909500  1.0  0.1236
  H  H94  1  0.843800  0.369700  0.932500  1.0  0.0893
  H  H95  1  0.913400  0.449200  0.860700  1.0  0.1091
  H  H96  1  0.844500  0.479900  0.836000  1.0  0.1151
  H  H97  1  0.532500  0.456400  0.446200  1.0  0.0821
  H  H98  1  0.550200  0.374400  0.490100  1.0  0.1135
  H  H99  1  0.601300  0.621700  0.524000  1.0  0.12
  H  H100  1  0.579800  0.698800  0.479600  1.0  0.0832
  H  H101  1  0.551200  0.181700  0.529500  1.0  0.1255
  H  H102  1  0.525300  0.025800  0.537400  1.0  0.0948
  H  H103  1  0.584200  0.022200  0.616900  1.0  0.0839
  H  H104  1  0.608100  0.180300  0.611900  1.0  0.1168
  H  H105  1  0.684400  0.373000  0.629200  1.0  0.1154
  H  H106  1  0.721400  0.462300  0.664900  1.0  0.0836
  H  H107  1  0.674000  0.704200  0.631000  1.0  0.0923
  H  H108  1  0.636100  0.622300  0.593500  1.0  0.1221
  H  H109  1  0.839300  0.401100  0.222600  1.0  0.0815
  H  H110  1  0.848400  0.456100  0.270900  1.0  0.1126
  H  H111  1  0.707500  0.486400  0.276000  1.0  0.1113
  H  H112  1  0.700700  0.427800  0.227800  1.0  0.1063
  H  H113  1  0.912400  0.523100  0.331300  1.0  0.1135
  H  H114  1  0.984300  0.553500  0.355700  1.0  0.0982
  H  H115  1  0.917400  0.611700  0.429900  1.0  0.0862
  H  H116  1  0.844100  0.587400  0.407400  1.0  0.1169
  H  H117  1  0.728400  0.598900  0.409500  1.0  0.1229
  H  H118  1  0.656200  0.630300  0.432500  1.0  0.0885
  H  H119  1  0.586600  0.550800  0.360700  1.0  0.1091
  H  H120  1  0.655500  0.520100  0.336000  1.0  0.1146
  H  H121  1  0.967500  0.956400  0.446200  1.0  0.0819
  H  H122  1  0.949800  0.874400  0.490100  1.0  0.1134
  H  H123  1  0.898700  0.121700  0.524000  1.0  0.1201
  H  H124  1  0.920200  0.198800  0.479600  1.0  0.0837
  H  H125  1  0.948800  0.681700  0.529500  1.0  0.1253
  H  H126  1  0.974700  0.525800  0.537400  1.0  0.0946
  H  H127  1  0.915800  0.522200  0.616900  1.0  0.0843
  H  H128  1  0.891900  0.680300  0.611900  1.0  0.1171
  H  H129  1  0.815600  0.873000  0.629200  1.0  0.1156
  H  H130  1  0.778600  0.962300  0.664900  1.0  0.0837
  H  H131  1  0.826000  0.204200  0.631000  1.0  0.0926
  H  H132  1  0.863900  0.122300  0.593500  1.0  0.1219
  H  H133  1  0.660700  0.901100  0.222600  1.0  0.0815
  H  H134  1  0.651600  0.956100  0.270900  1.0  0.1126
  H  H135  1  0.792500  0.986400  0.276000  1.0  0.1112
  H  H136  1  0.799300  0.927800  0.227800  1.0  0.1063
  H  H137  1  0.587600  0.023100  0.331300  1.0  0.1135
  H  H138  1  0.515700  0.053500  0.355700  1.0  0.0978
  H  H139  1  0.582600  0.111700  0.429900  1.0  0.0861
  H  H140  1  0.655900  0.087400  0.407400  1.0  0.1167
  H  H141  1  0.771600  0.098900  0.409500  1.0  0.1233
  H  H142  1  0.843800  0.130300  0.432500  1.0  0.0887
  H  H143  1  0.913400  0.050800  0.360700  1.0  0.1094
  H  H144  1  0.844500  0.020100  0.336000  1.0  0.1148
  H  H145  1  0.532500  0.043600  0.946200  1.0  0.0824
  H  H146  1  0.550200  0.125600  0.990100  1.0  0.1129
  H  H147  1  0.601300  0.878300  0.024000  1.0  0.1199
  H  H148  1  0.579800  0.801200  0.979600  1.0  0.0839
  H  H149  1  0.551200  0.318300  0.029500  1.0  0.1256
  H  H150  1  0.525300  0.474200  0.037400  1.0  0.0946
  H  H151  1  0.584200  0.477800  0.116900  1.0  0.0838
  H  H152  1  0.608100  0.319700  0.111900  1.0  0.1168
  H  H153  1  0.684400  0.127000  0.129200  1.0  0.1151
  H  H154  1  0.721400  0.037700  0.164900  1.0  0.0831
  H  H155  1  0.674000  0.795800  0.131000  1.0  0.0936
  H  H156  1  0.636100  0.877700  0.093500  1.0  0.1215
  H  H157  1  0.839300  0.098900  0.722600  1.0  0.0816
  H  H158  1  0.848400  0.043900  0.770900  1.0  0.1126
  H  H159  1  0.707500  0.013600  0.776000  1.0  0.1113
  H  H160  1  0.700700  0.072200  0.727800  1.0  0.1065
  H  H161  1  0.912400  0.976900  0.831300  1.0  0.1134
  H  H162  1  0.984300  0.946500  0.855700  1.0  0.0982
  H  H163  1  0.917400  0.888300  0.929900  1.0  0.0866
  H  H164  1  0.844100  0.912600  0.907400  1.0  0.1171
  H  H165  1  0.728400  0.901100  0.909500  1.0  0.123
  H  H166  1  0.656200  0.869700  0.932500  1.0  0.0886
  H  H167  1  0.586600  0.949200  0.860700  1.0  0.1091
  H  H168  1  0.655500  0.979900  0.836000  1.0  0.1147
  H  H169  1  0.032500  0.456400  0.053800  1.0  0.0825
  H  H170  1  0.050200  0.374400  0.009900  1.0  0.1134
  H  H171  1  0.101300  0.621700  0.976000  1.0  0.1206
  H  H172  1  0.079800  0.698800  0.020400  1.0  0.0831
  H  H173  1  0.051200  0.181700  0.970500  1.0  0.1254
  H  H174  1  0.025300  0.025800  0.962600  1.0  0.0954
  H  H175  1  0.084200  0.022200  0.883100  1.0  0.0836
  H  H176  1  0.108100  0.180300  0.888100  1.0  0.117
  H  H177  1  0.184400  0.373000  0.870800  1.0  0.1153
  H  H178  1  0.221400  0.462300  0.835100  1.0  0.0836
  H  H179  1  0.174000  0.704200  0.869000  1.0  0.0924
  H  H180  1  0.136100  0.622300  0.906500  1.0  0.1217
  H  H181  1  0.339300  0.401100  0.277400  1.0  0.0814
  H  H182  1  0.348400  0.456100  0.229100  1.0  0.1129
  H  H183  1  0.207500  0.486400  0.224000  1.0  0.1108
  H  H184  1  0.200700  0.427800  0.272200  1.0  0.1068
  H  H185  1  0.412400  0.523100  0.168700  1.0  0.1131
  H  H186  1  0.484300  0.553500  0.144300  1.0  0.0982
  H  H187  1  0.417400  0.611700  0.070100  1.0  0.0853
  H  H188  1  0.344100  0.587400  0.092600  1.0  0.117
  H  H189  1  0.228400  0.598900  0.090500  1.0  0.123
  H  H190  1  0.156200  0.630300  0.067500  1.0  0.0887
  H  H191  1  0.086600  0.550800  0.139300  1.0  0.1095
  H  H192  1  0.155500  0.520100  0.164000  1.0  0.1149
  H  H193  1  0.467500  0.543600  0.553800  1.0  0.0823
  H  H194  1  0.449800  0.625600  0.509900  1.0  0.1132
  H  H195  1  0.398700  0.378300  0.476000  1.0  0.1199
  H  H196  1  0.420200  0.301200  0.520400  1.0  0.0843
  H  H197  1  0.448800  0.818300  0.470500  1.0  0.1251
  H  H198  1  0.474700  0.974200  0.462600  1.0  0.0948
  H  H199  1  0.415800  0.977800  0.383100  1.0  0.083
  H  H200  1  0.391900  0.819700  0.388100  1.0  0.1172
  H  H201  1  0.315600  0.627000  0.370800  1.0  0.1149
  H  H202  1  0.278600  0.537700  0.335100  1.0  0.0837
  H  H203  1  0.326000  0.295800  0.369000  1.0  0.0939
  H  H204  1  0.363900  0.377700  0.406500  1.0  0.1215
  H  H205  1  0.160700  0.598900  0.777400  1.0  0.0815
  H  H206  1  0.151600  0.543900  0.729100  1.0  0.1129
  H  H207  1  0.292500  0.513600  0.724000  1.0  0.1109
  H  H208  1  0.299300  0.572200  0.772200  1.0  0.1063
  H  H209  1  0.087600  0.476900  0.668700  1.0  0.1131
  H  H210  1  0.015700  0.446500  0.644300  1.0  0.0982
  H  H211  1  0.082600  0.388300  0.570100  1.0  0.0855
  H  H212  1  0.155900  0.412600  0.592600  1.0  0.1167
  H  H213  1  0.271600  0.401100  0.590500  1.0  0.1234
  H  H214  1  0.343800  0.369700  0.567500  1.0  0.0888
  H  H215  1  0.413400  0.449200  0.639300  1.0  0.1089
  H  H216  1  0.344500  0.479900  0.664000  1.0  0.1145
  C  C217  1  0.047100  0.009600  0.537900  1.0  0.1244
  C  C218  1  0.057800  0.059100  0.511800  1.0  -0.1074
  C  C219  1  0.079400  0.011300  0.488900  1.0  -0.0768
  C  C220  1  0.087500  0.914200  0.491800  1.0  -0.1419
  C  C221  1  0.074900  0.868800  0.518600  1.0  0.1354
  C  C222  1  0.094200  0.063800  0.461900  1.0  0.3674
  C  C223  1  0.098300  0.200800  0.435000  1.0  0.3024
  C  C224  1  0.132800  0.066000  0.417500  1.0  0.3619
  C  C225  1  0.083500  0.302900  0.430100  1.0  -0.0909
  C  C226  1  0.057900  0.349900  0.452200  1.0  -0.1273
  C  C227  1  0.042600  0.442300  0.447300  1.0  0.1337
  C  C228  1  0.076400  0.444100  0.400800  1.0  0.1418
  C  C229  1  0.091800  0.350900  0.403900  1.0  -0.138
  C  C230  1  0.157500  0.013900  0.393500  1.0  -0.1071
  C  C231  1  0.182200  0.058600  0.371200  1.0  -0.1347
  C  C232  1  0.203300  0.005400  0.349900  1.0  0.1521
  C  C233  1  0.176000  0.864200  0.369500  1.0  0.1448
  C  C234  1  0.153800  0.912100  0.392000  1.0  -0.1143
  C  C235  1  0.311800  0.083200  0.766200  1.0  0.1467
  C  C236  1  0.317700  0.050000  0.737400  1.0  -0.1507
  C  C237  1  0.278900  0.026100  0.721100  1.0  -0.0997
  C  C238  1  0.235000  0.032800  0.734600  1.0  -0.0982
  C  C239  1  0.231100  0.067300  0.763300  1.0  0.1202
  C  C240  1  0.282300  0.995600  0.689300  1.0  0.4006
  C  C241  1  0.324400  0.959500  0.648400  1.0  0.3863
  C  C242  1  0.245500  0.959100  0.646500  1.0  0.4073
  C  C243  1  0.370300  0.946200  0.633200  1.0  -0.1112
  C  C244  1  0.412500  0.957200  0.648400  1.0  -0.1024
  C  C245  1  0.455400  0.939000  0.633800  1.0  0.1235
  C  C246  1  0.416400  0.904500  0.590600  1.0  0.1215
  C  C247  1  0.372300  0.920100  0.603800  1.0  -0.1217
  C  C248  1  0.199600  0.942700  0.630200  1.0  -0.103
  C  C249  1  0.199600  0.910400  0.601000  1.0  -0.1486
  C  C250  1  0.156300  0.892200  0.587500  1.0  0.1398
  C  C251  1  0.115900  0.938300  0.629500  1.0  0.1264
  C  C252  1  0.156500  0.956900  0.644100  1.0  -0.1052
  C  C253  1  0.452900  0.990400  0.037900  1.0  0.1252
  C  C254  1  0.442200  0.940900  0.011800  1.0  -0.1085
  C  C255  1  0.420600  0.988700  0.988900  1.0  -0.0776
  C  C256  1  0.412500  0.085800  0.991800  1.0  -0.1407
  C  C257  1  0.425100  0.131200  0.018600  1.0  0.1367
  C  C258  1  0.405800  0.936200  0.961900  1.0  0.3685
  C  C259  1  0.401700  0.799200  0.935000  1.0  0.303
  C  C260  1  0.367200  0.934000  0.917500  1.0  0.3628
  C  C261  1  0.416500  0.697100  0.930100  1.0  -0.0913
  C  C262  1  0.442100  0.650100  0.952200  1.0  -0.1264
  C  C263  1  0.457400  0.557700  0.947300  1.0  0.1353
  C  C264  1  0.423600  0.555900  0.900800  1.0  0.1418
  C  C265  1  0.408200  0.649100  0.903900  1.0  -0.1381
  C  C266  1  0.342500  0.986100  0.893500  1.0  -0.107
  C  C267  1  0.317800  0.941400  0.871200  1.0  -0.1345
  C  C268  1  0.296700  0.994600  0.849900  1.0  0.1524
  C  C269  1  0.324000  0.135800  0.869500  1.0  0.1435
  C  C270  1  0.346200  0.087900  0.892000  1.0  -0.1143
  C  C271  1  0.188200  0.916800  0.266200  1.0  0.1485
  C  C272  1  0.182300  0.950000  0.237400  1.0  -0.1511
  C  C273  1  0.221100  0.973900  0.221100  1.0  -0.0999
  C  C274  1  0.265000  0.967200  0.234600  1.0  -0.0977
  C  C275  1  0.268900  0.932700  0.263300  1.0  0.1218
  C  C276  1  0.217700  0.004400  0.189300  1.0  0.4008
  C  C277  1  0.175600  0.040500  0.148400  1.0  0.3859
  C  C278  1  0.254500  0.040900  0.146500  1.0  0.4071
  C  C279  1  0.129700  0.053800  0.133200  1.0  -0.1116
  C  C280  1  0.087500  0.042800  0.148400  1.0  -0.1028
  C  C281  1  0.044600  0.061000  0.133800  1.0  0.1238
  C  C282  1  0.083600  0.095500  0.090600  1.0  0.1216
  C  C283  1  0.127700  0.079900  0.103800  1.0  -0.1219
  C  C284  1  0.300400  0.057300  0.130200  1.0  -0.1028
  C  C285  1  0.300400  0.089600  0.101000  1.0  -0.1488
  C  C286  1  0.343700  0.107800  0.087500  1.0  0.1401
  C  C287  1  0.384100  0.061700  0.129500  1.0  0.1266
  C  C288  1  0.343500  0.043100  0.144100  1.0  -0.1049
  C  C289  1  0.952900  0.509600  0.962100  1.0  0.1264
  C  C290  1  0.942200  0.559100  0.988200  1.0  -0.1078
  C  C291  1  0.920600  0.511300  0.011100  1.0  -0.0762
  C  C292  1  0.912500  0.414200  0.008200  1.0  -0.1403
  C  C293  1  0.925100  0.368800  0.981400  1.0  0.1353
  C  C294  1  0.905800  0.563800  0.038100  1.0  0.369
  C  C295  1  0.901700  0.700800  0.065000  1.0  0.3033
  C  C296  1  0.867200  0.566000  0.082500  1.0  0.3632
  C  C297  1  0.916500  0.802900  0.069900  1.0  -0.0911
  C  C298  1  0.942100  0.849900  0.047800  1.0  -0.1261
  C  C299  1  0.957400  0.942300  0.052700  1.0  0.1342
  C  C300  1  0.923600  0.944100  0.099200  1.0  0.1413
  C  C301  1  0.908200  0.850900  0.096100  1.0  -0.1384
  C  C302  1  0.842500  0.513900  0.106500  1.0  -0.106
  C  C303  1  0.817800  0.558600  0.128800  1.0  -0.1344
  C  C304  1  0.796700  0.505400  0.150100  1.0  0.1521
  C  C305  1  0.824000  0.364200  0.130500  1.0  0.1436
  C  C306  1  0.846200  0.412100  0.108000  1.0  -0.1138
  C  C307  1  0.688200  0.583200  0.733800  1.0  0.1482
  C  C308  1  0.682300  0.550000  0.762600  1.0  -0.1521
  C  C309  1  0.721100  0.526100  0.778900  1.0  -0.1005
  C  C310  1  0.765000  0.532800  0.765400  1.0  -0.0977
  C  C311  1  0.768900  0.567300  0.736700  1.0  0.1208
  C  C312  1  0.717700  0.495600  0.810700  1.0  0.4009
  C  C313  1  0.675600  0.459500  0.851600  1.0  0.3857
  C  C314  1  0.754500  0.459100  0.853500  1.0  0.4072
  C  C315  1  0.629700  0.446200  0.866800  1.0  -0.1115
  C  C316  1  0.587500  0.457200  0.851600  1.0  -0.1009
  C  C317  1  0.544600  0.439000  0.866200  1.0  0.1242
  C  C318  1  0.583600  0.404500  0.909400  1.0  0.121
  C  C319  1  0.627700  0.420100  0.896200  1.0  -0.122
  C  C320  1  0.800400  0.442700  0.869800  1.0  -0.1024
  C  C321  1  0.800400  0.410400  0.899000  1.0  -0.1493
  C  C322  1  0.843700  0.392200  0.912500  1.0  0.141
  C  C323  1  0.884100  0.438300  0.870500  1.0  0.1259
  C  C324  1  0.843500  0.456900  0.855900  1.0  -0.1059
  C  C325  1  0.547100  0.490400  0.462100  1.0  0.1255
  C  C326  1  0.557800  0.440900  0.488200  1.0  -0.1081
  C  C327  1  0.579400  0.488700  0.511100  1.0  -0.078
  C  C328  1  0.587500  0.585800  0.508200  1.0  -0.1416
  C  C329  1  0.574900  0.631200  0.481400  1.0  0.1365
  C  C330  1  0.594200  0.436200  0.538100  1.0  0.3677
  C  C331  1  0.598300  0.299200  0.565000  1.0  0.3026
  C  C332  1  0.632800  0.434000  0.582500  1.0  0.3621
  C  C333  1  0.583500  0.197100  0.569900  1.0  -0.0915
  C  C334  1  0.557900  0.150100  0.547800  1.0  -0.1261
  C  C335  1  0.542600  0.057700  0.552700  1.0  0.1343
  C  C336  1  0.576400  0.055900  0.599200  1.0  0.1431
  C  C337  1  0.591800  0.149100  0.596100  1.0  -0.1367
  C  C338  1  0.657500  0.486100  0.606500  1.0  -0.1066
  C  C339  1  0.682200  0.441400  0.628800  1.0  -0.1355
  C  C340  1  0.703300  0.494600  0.650100  1.0  0.1523
  C  C341  1  0.676000  0.635800  0.630500  1.0  0.1433
  C  C342  1  0.653800  0.587900  0.608000  1.0  -0.1146
  C  C343  1  0.811800  0.416800  0.233800  1.0  0.1471
  C  C344  1  0.817700  0.450000  0.262600  1.0  -0.1504
  C  C345  1  0.778900  0.473900  0.278900  1.0  -0.1008
  C  C346  1  0.735000  0.467200  0.265400  1.0  -0.0989
  C  C347  1  0.731100  0.432700  0.236700  1.0  0.1202
  C  C348  1  0.782300  0.504400  0.310700  1.0  0.4006
  C  C349  1  0.824400  0.540500  0.351600  1.0  0.3863
  C  C350  1  0.745500  0.540900  0.353500  1.0  0.4074
  C  C351  1  0.870300  0.553800  0.366800  1.0  -0.1119
  C  C352  1  0.912500  0.542800  0.351600  1.0  -0.1011
  C  C353  1  0.955400  0.561000  0.366200  1.0  0.1244
  C  C354  1  0.916400  0.595500  0.409400  1.0  0.1205
  C  C355  1  0.872300  0.579900  0.396200  1.0  -0.1234
  C  C356  1  0.699600  0.557300  0.369800  1.0  -0.103
  C  C357  1  0.699600  0.589600  0.399000  1.0  -0.148
  C  C358  1  0.656300  0.607800  0.412500  1.0  0.1406
  C  C359  1  0.615900  0.561700  0.370500  1.0  0.127
  C  C360  1  0.656500  0.543100  0.355900  1.0  -0.1039
  C  C361  1  0.952900  0.990400  0.462100  1.0  0.1258
  C  C362  1  0.942200  0.940900  0.488200  1.0  -0.1089
  C  C363  1  0.920600  0.988700  0.511100  1.0  -0.0761
  C  C364  1  0.912500  0.085800  0.508200  1.0  -0.1407
  C  C365  1  0.925100  0.131200  0.481400  1.0  0.1371
  C  C366  1  0.905800  0.936200  0.538100  1.0  0.3689
  C  C367  1  0.901700  0.799200  0.565000  1.0  0.3031
  C  C368  1  0.867200  0.934000  0.582500  1.0  0.3632
  C  C369  1  0.916500  0.697100  0.569900  1.0  -0.0911
  C  C370  1  0.942100  0.650100  0.547800  1.0  -0.1257
  C  C371  1  0.957400  0.557700  0.552700  1.0  0.1345
  C  C372  1  0.923600  0.555900  0.599200  1.0  0.1423
  C  C373  1  0.908200  0.649100  0.596100  1.0  -0.1384
  C  C374  1  0.842500  0.986100  0.606500  1.0  -0.1064
  C  C375  1  0.817800  0.941400  0.628800  1.0  -0.1347
  C  C376  1  0.796700  0.994600  0.650100  1.0  0.1525
  C  C377  1  0.824000  0.135800  0.630500  1.0  0.1431
  C  C378  1  0.846200  0.087900  0.608000  1.0  -0.1143
  C  C379  1  0.688200  0.916800  0.233800  1.0  0.1481
  C  C380  1  0.682300  0.950000  0.262600  1.0  -0.1518
  C  C381  1  0.721100  0.973900  0.278900  1.0  -0.1011
  C  C382  1  0.765000  0.967200  0.265400  1.0  -0.0977
  C  C383  1  0.768900  0.932700  0.236700  1.0  0.1209
  C  C384  1  0.717700  0.004400  0.310700  1.0  0.4008
  C  C385  1  0.675600  0.040500  0.351600  1.0  0.3858
  C  C386  1  0.754500  0.040900  0.353500  1.0  0.4072
  C  C387  1  0.629700  0.053800  0.366800  1.0  -0.1118
  C  C388  1  0.587500  0.042800  0.351600  1.0  -0.1005
  C  C389  1  0.544600  0.061000  0.366200  1.0  0.1242
  C  C390  1  0.583600  0.095500  0.409400  1.0  0.1208
  C  C391  1  0.627700  0.079900  0.396200  1.0  -0.1219
  C  C392  1  0.800400  0.057300  0.369800  1.0  -0.1027
  C  C393  1  0.800400  0.089600  0.399000  1.0  -0.1495
  C  C394  1  0.843700  0.107800  0.412500  1.0  0.1406
  C  C395  1  0.884100  0.061700  0.370500  1.0  0.1262
  C  C396  1  0.843500  0.043100  0.355900  1.0  -0.1054
  C  C397  1  0.547100  0.009600  0.962100  1.0  0.1262
  C  C398  1  0.557800  0.059100  0.988200  1.0  -0.1075
  C  C399  1  0.579400  0.011300  0.011100  1.0  -0.0782
  C  C400  1  0.587500  0.914200  0.008200  1.0  -0.1414
  C  C401  1  0.574900  0.868800  0.981400  1.0  0.1356
  C  C402  1  0.594200  0.063800  0.038100  1.0  0.3678
  C  C403  1  0.598300  0.200800  0.065000  1.0  0.3025
  C  C404  1  0.632800  0.066000  0.082500  1.0  0.3622
  C  C405  1  0.583500  0.302900  0.069900  1.0  -0.0906
  C  C406  1  0.557900  0.349900  0.047800  1.0  -0.1266
  C  C407  1  0.542600  0.442300  0.052700  1.0  0.1344
  C  C408  1  0.576400  0.444100  0.099200  1.0  0.1424
  C  C409  1  0.591800  0.350900  0.096100  1.0  -0.1369
  C  C410  1  0.657500  0.013900  0.106500  1.0  -0.1063
  C  C411  1  0.682200  0.058600  0.128800  1.0  -0.1351
  C  C412  1  0.703300  0.005400  0.150100  1.0  0.1522
  C  C413  1  0.676000  0.864200  0.130500  1.0  0.1442
  C  C414  1  0.653800  0.912100  0.108000  1.0  -0.1142
  C  C415  1  0.811800  0.083200  0.733800  1.0  0.1471
  C  C416  1  0.817700  0.050000  0.762600  1.0  -0.1509
  C  C417  1  0.778900  0.026100  0.778900  1.0  -0.1003
  C  C418  1  0.735000  0.032800  0.765400  1.0  -0.0987
  C  C419  1  0.731100  0.067300  0.736700  1.0  0.1199
  C  C420  1  0.782300  0.995600  0.810700  1.0  0.4007
  C  C421  1  0.824400  0.959500  0.851600  1.0  0.3862
  C  C422  1  0.745500  0.959100  0.853500  1.0  0.4074
  C  C423  1  0.870300  0.946200  0.866800  1.0  -0.1117
  C  C424  1  0.912500  0.957200  0.851600  1.0  -0.1013
  C  C425  1  0.955400  0.939000  0.866200  1.0  0.1241
  C  C426  1  0.916400  0.904500  0.909400  1.0  0.121
  C  C427  1  0.872300  0.920100  0.896200  1.0  -0.1232
  C  C428  1  0.699600  0.942700  0.869800  1.0  -0.1027
  C  C429  1  0.699600  0.910400  0.899000  1.0  -0.1481
  C  C430  1  0.656300  0.892200  0.912500  1.0  0.141
  C  C431  1  0.615900  0.938300  0.870500  1.0  0.1267
  C  C432  1  0.656500  0.956900  0.855900  1.0  -0.1045
  C  C433  1  0.047100  0.490400  0.037900  1.0  0.1251
  C  C434  1  0.057800  0.440900  0.011800  1.0  -0.1076
  C  C435  1  0.079400  0.488700  0.988900  1.0  -0.077
  C  C436  1  0.087500  0.585800  0.991800  1.0  -0.1416
  C  C437  1  0.074900  0.631200  0.018600  1.0  0.1361
  C  C438  1  0.094200  0.436200  0.961900  1.0  0.3673
  C  C439  1  0.098300  0.299200  0.935000  1.0  0.3026
  C  C440  1  0.132800  0.434000  0.917500  1.0  0.3619
  C  C441  1  0.083500  0.197100  0.930100  1.0  -0.092
  C  C442  1  0.057900  0.150100  0.952200  1.0  -0.1273
  C  C443  1  0.042600  0.057700  0.947300  1.0  0.1351
  C  C444  1  0.076400  0.055900  0.900800  1.0  0.1411
  C  C445  1  0.091800  0.149100  0.903900  1.0  -0.1379
  C  C446  1  0.157500  0.486100  0.893500  1.0  -0.1073
  C  C447  1  0.182200  0.441400  0.871200  1.0  -0.1349
  C  C448  1  0.203300  0.494600  0.849900  1.0  0.152
  C  C449  1  0.176000  0.635800  0.869500  1.0  0.1436
  C  C450  1  0.153800  0.587900  0.892000  1.0  -0.1151
  C  C451  1  0.311800  0.416800  0.266200  1.0  0.1475
  C  C452  1  0.317700  0.450000  0.237400  1.0  -0.1503
  C  C453  1  0.278900  0.473900  0.221100  1.0  -0.0997
  C  C454  1  0.235000  0.467200  0.234600  1.0  -0.0983
  C  C455  1  0.231100  0.432700  0.263300  1.0  0.1208
  C  C456  1  0.282300  0.504400  0.189300  1.0  0.4006
  C  C457  1  0.324400  0.540500  0.148400  1.0  0.3864
  C  C458  1  0.245500  0.540900  0.146500  1.0  0.4073
  C  C459  1  0.370300  0.553800  0.133200  1.0  -0.1115
  C  C460  1  0.412500  0.542800  0.148400  1.0  -0.1024
  C  C461  1  0.455400  0.561000  0.133800  1.0  0.1237
  C  C462  1  0.416400  0.595500  0.090600  1.0  0.1217
  C  C463  1  0.372300  0.579900  0.103800  1.0  -0.1221
  C  C464  1  0.199600  0.557300  0.130200  1.0  -0.1033
  C  C465  1  0.199600  0.589600  0.101000  1.0  -0.1487
  C  C466  1  0.156300  0.607800  0.087500  1.0  0.1398
  C  C467  1  0.115900  0.561700  0.129500  1.0  0.1268
  C  C468  1  0.156500  0.543100  0.144100  1.0  -0.1043
  C  C469  1  0.452900  0.509600  0.537900  1.0  0.1247
  C  C470  1  0.442200  0.559100  0.511800  1.0  -0.1076
  C  C471  1  0.420600  0.511300  0.488900  1.0  -0.077
  C  C472  1  0.412500  0.414200  0.491800  1.0  -0.1407
  C  C473  1  0.425100  0.368800  0.518600  1.0  0.135
  C  C474  1  0.405800  0.563800  0.461900  1.0  0.3686
  C  C475  1  0.401700  0.700800  0.435000  1.0  0.3032
  C  C476  1  0.367200  0.566000  0.417500  1.0  0.3629
  C  C477  1  0.416500  0.802900  0.430100  1.0  -0.0909
  C  C478  1  0.442100  0.849900  0.452200  1.0  -0.126
  C  C479  1  0.457400  0.942300  0.447300  1.0  0.1338
  C  C480  1  0.423600  0.944100  0.400800  1.0  0.1424
  C  C481  1  0.408200  0.850900  0.403900  1.0  -0.1381
  C  C482  1  0.342500  0.513900  0.393500  1.0  -0.1067
  C  C483  1  0.317800  0.558600  0.371200  1.0  -0.1341
  C  C484  1  0.296700  0.505400  0.349900  1.0  0.1524
  C  C485  1  0.324000  0.364200  0.369500  1.0  0.1441
  C  C486  1  0.346200  0.412100  0.392000  1.0  -0.1134
  C  C487  1  0.188200  0.583200  0.766200  1.0  0.1475
  C  C488  1  0.182300  0.550000  0.737400  1.0  -0.1516
  C  C489  1  0.221100  0.526100  0.721100  1.0  -0.1001
  C  C490  1  0.265000  0.532800  0.734600  1.0  -0.0977
  C  C491  1  0.268900  0.567300  0.763300  1.0  0.1213
  C  C492  1  0.217700  0.495600  0.689300  1.0  0.4008
  C  C493  1  0.175600  0.459500  0.648400  1.0  0.3858
  C  C494  1  0.254500  0.459100  0.646500  1.0  0.407
  C  C495  1  0.129700  0.446200  0.633200  1.0  -0.1112
  C  C496  1  0.087500  0.457200  0.648400  1.0  -0.1029
  C  C497  1  0.044600  0.439000  0.633800  1.0  0.1239
  C  C498  1  0.083600  0.404500  0.590600  1.0  0.1214
  C  C499  1  0.127700  0.420100  0.603800  1.0  -0.1217
  C  C500  1  0.300400  0.442700  0.630200  1.0  -0.1026
  C  C501  1  0.300400  0.410400  0.601000  1.0  -0.1483
  C  C502  1  0.343700  0.392200  0.587500  1.0  0.1398
  C  C503  1  0.384100  0.438300  0.629500  1.0  0.1261
  C  C504  1  0.343500  0.456900  0.644100  1.0  -0.1056
  I  I505  1  0.987260  0.944050  0.611150  1.0  -0.3502
  I  I506  1  0.064670  0.674860  0.579990  1.0  -0.4064
  I  I507  1  0.193880  0.668110  0.310700  1.0  -0.3434
  I  I508  1  0.324050  0.824650  0.332410  1.0  -0.3076
  I  I509  1  0.068770  0.706150  0.373240  1.0  -0.3193
  I  I510  1  0.006250  0.700730  0.464570  1.0  -0.4216
  I  I511  1  0.512740  0.055950  0.111150  1.0  -0.3512
  I  I512  1  0.435330  0.325140  0.079990  1.0  -0.4055
  I  I513  1  0.306120  0.331890  0.810700  1.0  -0.3426
  I  I514  1  0.175950  0.175350  0.832410  1.0  -0.3077
  I  I515  1  0.431230  0.293850  0.873240  1.0  -0.3199
  I  I516  1  0.493750  0.299270  0.964570  1.0  -0.4205
  I  I517  1  0.012740  0.444050  0.888850  1.0  -0.3511
  I  I518  1  0.935330  0.174860  0.920010  1.0  -0.405
  I  I519  1  0.806120  0.168110  0.189300  1.0  -0.3429
  I  I520  1  0.675950  0.324650  0.167590  1.0  -0.3077
  I  I521  1  0.931230  0.206150  0.126760  1.0  -0.3185
  I  I522  1  0.993750  0.200730  0.035430  1.0  -0.4202
  I  I523  1  0.487260  0.555950  0.388850  1.0  -0.3513
  I  I524  1  0.564670  0.825140  0.420010  1.0  -0.4064
  I  I525  1  0.693880  0.831890  0.689300  1.0  -0.3431
  I  I526  1  0.824050  0.675350  0.667590  1.0  -0.3074
  I  I527  1  0.568770  0.793850  0.626760  1.0  -0.3187
  I  I528  1  0.506250  0.799270  0.535430  1.0  -0.4217
  I  I529  1  0.012740  0.055950  0.388850  1.0  -0.3513
  I  I530  1  0.935330  0.325140  0.420010  1.0  -0.4051
  I  I531  1  0.806120  0.331890  0.689300  1.0  -0.3427
  I  I532  1  0.675950  0.175350  0.667590  1.0  -0.3077
  I  I533  1  0.931230  0.293850  0.626760  1.0  -0.3186
  I  I534  1  0.993750  0.299270  0.535430  1.0  -0.4205
  I  I535  1  0.487260  0.944050  0.888850  1.0  -0.3511
  I  I536  1  0.564670  0.674860  0.920010  1.0  -0.4061
  I  I537  1  0.693880  0.668110  0.189300  1.0  -0.3435
  I  I538  1  0.824050  0.824650  0.167590  1.0  -0.3075
  I  I539  1  0.568770  0.706150  0.126760  1.0  -0.3183
  I  I540  1  0.506250  0.700730  0.035430  1.0  -0.4214
  I  I541  1  0.987260  0.555950  0.111150  1.0  -0.3507
  I  I542  1  0.064670  0.825140  0.079990  1.0  -0.4068
  I  I543  1  0.193880  0.831890  0.810700  1.0  -0.343
  I  I544  1  0.324050  0.675350  0.832410  1.0  -0.3075
  I  I545  1  0.068770  0.793850  0.873240  1.0  -0.3201
  I  I546  1  0.006250  0.799270  0.964570  1.0  -0.4218
  I  I547  1  0.512740  0.444050  0.611150  1.0  -0.3508
  I  I548  1  0.435330  0.174860  0.579990  1.0  -0.4052
  I  I549  1  0.306120  0.168110  0.310700  1.0  -0.3429
  I  I550  1  0.175950  0.324650  0.332410  1.0  -0.3077
  I  I551  1  0.431230  0.206150  0.373240  1.0  -0.3193
  I  I552  1  0.493750  0.200730  0.464570  1.0  -0.4204
  N  N553  1  0.056700  0.916300  0.541300  1.0  -0.296
  N  N554  1  0.081600  0.156300  0.459700  1.0  -0.5525
  N  N555  1  0.125100  0.158800  0.413300  1.0  -0.3962
  N  N556  1  0.119000  0.014100  0.441000  1.0  -0.4163
  N  N557  1  0.051100  0.490000  0.421400  1.0  -0.3245
  N  N558  1  0.200000  0.908800  0.348600  1.0  -0.2927
  N  N559  1  0.270300  0.094200  0.778900  1.0  -0.3174
  N  N560  1  0.325000  0.983900  0.677600  1.0  -0.4832
  N  N561  1  0.286200  0.946100  0.632200  1.0  -0.4021
  N  N562  1  0.241200  0.983400  0.675200  1.0  -0.5159
  N  N563  1  0.456600  0.911300  0.605200  1.0  -0.2993
  N  N564  1  0.115500  0.904500  0.601100  1.0  -0.3384
  N  N565  1  0.443300  0.083700  0.041300  1.0  -0.2979
  N  N566  1  0.418400  0.843700  0.959700  1.0  -0.5504
  N  N567  1  0.374900  0.841200  0.913300  1.0  -0.3942
  N  N568  1  0.381000  0.985900  0.941000  1.0  -0.4176
  N  N569  1  0.448900  0.510000  0.921400  1.0  -0.3243
  N  N570  1  0.300000  0.091200  0.848600  1.0  -0.2929
  N  N571  1  0.229700  0.905800  0.278900  1.0  -0.3165
  N  N572  1  0.175000  0.016100  0.177600  1.0  -0.4829
  N  N573  1  0.213800  0.053900  0.132200  1.0  -0.4008
  N  N574  1  0.258800  0.016600  0.175200  1.0  -0.5153
  N  N575  1  0.043400  0.088700  0.105200  1.0  -0.2984
  N  N576  1  0.384500  0.095500  0.101100  1.0  -0.3393
  N  N577  1  0.943300  0.416300  0.958700  1.0  -0.3004
  N  N578  1  0.918400  0.656300  0.040300  1.0  -0.5499
  N  N579  1  0.874900  0.658800  0.086700  1.0  -0.3957
  N  N580  1  0.881000  0.514100  0.059000  1.0  -0.4162
  N  N581  1  0.948900  0.990000  0.078600  1.0  -0.325
  N  N582  1  0.800000  0.408800  0.151400  1.0  -0.293
  N  N583  1  0.729700  0.594200  0.721100  1.0  -0.3186
  N  N584  1  0.675000  0.483900  0.822400  1.0  -0.4822
  N  N585  1  0.713800  0.446100  0.867800  1.0  -0.399
  N  N586  1  0.758800  0.483400  0.824800  1.0  -0.5157
  N  N587  1  0.543400  0.411300  0.894800  1.0  -0.2996
  N  N588  1  0.884500  0.404500  0.898900  1.0  -0.3399
  N  N589  1  0.556700  0.583700  0.458700  1.0  -0.2992
  N  N590  1  0.581600  0.343700  0.540300  1.0  -0.5538
  N  N591  1  0.625100  0.341200  0.586700  1.0  -0.3941
  N  N592  1  0.619000  0.485900  0.559000  1.0  -0.417
  N  N593  1  0.551100  0.010000  0.578600  1.0  -0.3244
  N  N594  1  0.700000  0.591200  0.651400  1.0  -0.2931
  N  N595  1  0.770300  0.405800  0.221100  1.0  -0.3185
  N  N596  1  0.825000  0.516100  0.322400  1.0  -0.4829
  N  N597  1  0.786200  0.553900  0.367800  1.0  -0.3998
  N  N598  1  0.741200  0.516600  0.324800  1.0  -0.5157
  N  N599  1  0.956600  0.588700  0.394800  1.0  -0.3013
  N  N600  1  0.615500  0.595500  0.398900  1.0  -0.3383
  N  N601  1  0.943300  0.083700  0.458700  1.0  -0.2995
  N  N602  1  0.918400  0.843700  0.540300  1.0  -0.5506
  N  N603  1  0.874900  0.841200  0.586700  1.0  -0.3936
  N  N604  1  0.881000  0.985900  0.559000  1.0  -0.4169
  N  N605  1  0.948900  0.510000  0.578600  1.0  -0.3244
  N  N606  1  0.800000  0.091200  0.651400  1.0  -0.2941
  N  N607  1  0.729700  0.905800  0.221100  1.0  -0.3185
  N  N608  1  0.675000  0.016100  0.322400  1.0  -0.4822
  N  N609  1  0.713800  0.053900  0.367800  1.0  -0.3997
  N  N610  1  0.758800  0.016600  0.324800  1.0  -0.5159
  N  N611  1  0.543400  0.088700  0.394800  1.0  -0.3006
  N  N612  1  0.884500  0.095500  0.398900  1.0  -0.3398
  N  N613  1  0.556700  0.916300  0.958700  1.0  -0.3006
  N  N614  1  0.581600  0.156300  0.040300  1.0  -0.5522
  N  N615  1  0.625100  0.158800  0.086700  1.0  -0.396
  N  N616  1  0.619000  0.014100  0.059000  1.0  -0.4158
  N  N617  1  0.551100  0.490000  0.078600  1.0  -0.3244
  N  N618  1  0.700000  0.908800  0.151400  1.0  -0.2921
  N  N619  1  0.770300  0.094200  0.721100  1.0  -0.3187
  N  N620  1  0.825000  0.983900  0.822400  1.0  -0.4829
  N  N621  1  0.786200  0.946100  0.867800  1.0  -0.3991
  N  N622  1  0.741200  0.983400  0.824800  1.0  -0.5155
  N  N623  1  0.956600  0.911300  0.894800  1.0  -0.3
  N  N624  1  0.615500  0.904500  0.898900  1.0  -0.339
  N  N625  1  0.056700  0.583700  0.041300  1.0  -0.2969
  N  N626  1  0.081600  0.343700  0.959700  1.0  -0.5529
  N  N627  1  0.125100  0.341200  0.913300  1.0  -0.395
  N  N628  1  0.119000  0.485900  0.941000  1.0  -0.4177
  N  N629  1  0.051100  0.010000  0.921400  1.0  -0.3244
  N  N630  1  0.200000  0.591200  0.848600  1.0  -0.2923
  N  N631  1  0.270300  0.405800  0.278900  1.0  -0.3166
  N  N632  1  0.325000  0.516100  0.177600  1.0  -0.483
  N  N633  1  0.286200  0.553900  0.132200  1.0  -0.401
  N  N634  1  0.241200  0.516600  0.175200  1.0  -0.5157
  N  N635  1  0.456600  0.588700  0.105200  1.0  -0.2996
  N  N636  1  0.115500  0.595500  0.101100  1.0  -0.3376
  N  N637  1  0.443300  0.416300  0.541300  1.0  -0.2969
  N  N638  1  0.418400  0.656300  0.459700  1.0  -0.5505
  N  N639  1  0.374900  0.658800  0.413300  1.0  -0.3953
  N  N640  1  0.381000  0.514100  0.441000  1.0  -0.4165
  N  N641  1  0.448900  0.990000  0.421400  1.0  -0.325
  N  N642  1  0.300000  0.408800  0.348600  1.0  -0.2937
  N  N643  1  0.229700  0.594200  0.778900  1.0  -0.3174
  N  N644  1  0.175000  0.483900  0.677600  1.0  -0.4831
  N  N645  1  0.213800  0.446100  0.632200  1.0  -0.4019
  N  N646  1  0.258800  0.483400  0.675200  1.0  -0.5155
  N  N647  1  0.043400  0.411300  0.605200  1.0  -0.2987
  N  N648  1  0.384500  0.404500  0.601100  1.0  -0.3394
