# generated using pymatgen
data_ZnH8C12(IN2)2
_symmetry_space_group_name_H-M   'P 1'
_cell_length_a   28.51900000
_cell_length_b   13.82190000
_cell_length_c   44.09700000
_cell_angle_alpha   90.00000000
_cell_angle_beta   90.00000000
_cell_angle_gamma   90.00000000
_symmetry_Int_Tables_number   1
_chemical_formula_structural   ZnH8C12(IN2)2
_chemical_formula_sum   'Zn24 H192 C288 I48 N96'
_cell_volume   17382.45382471
_cell_formula_units_Z   24
loop_
 _symmetry_equiv_pos_site_id
 _symmetry_equiv_pos_as_xyz
  1  'x, y, z'
loop_
 _atom_site_type_symbol
 _atom_site_label
 _atom_site_symmetry_multiplicity
 _atom_site_fract_x
 _atom_site_fract_y
 _atom_site_fract_z
 _atom_site_occupancy
 _atom_site_charge
  Zn  Zn1  1  0.049500  0.872280  0.595020  1.0  0.8855
  Zn  Zn2  1  0.235480  0.801570  0.326440  1.0  0.849
  Zn  Zn3  1  0.017880  0.608430  0.408900  1.0  0.8283
  Zn  Zn4  1  0.450500  0.127720  0.095020  1.0  0.8841
  Zn  Zn5  1  0.264520  0.198430  0.826440  1.0  0.8469
  Zn  Zn6  1  0.482120  0.391570  0.908900  1.0  0.8287
  Zn  Zn7  1  0.950500  0.372280  0.904980  1.0  0.8839
  Zn  Zn8  1  0.764520  0.301570  0.173560  1.0  0.8478
  Zn  Zn9  1  0.982120  0.108430  0.091100  1.0  0.8276
  Zn  Zn10  1  0.549500  0.627720  0.404980  1.0  0.885
  Zn  Zn11  1  0.735480  0.698430  0.673560  1.0  0.8472
  Zn  Zn12  1  0.517880  0.891570  0.591100  1.0  0.8289
  Zn  Zn13  1  0.950500  0.127720  0.404980  1.0  0.8829
  Zn  Zn14  1  0.764520  0.198430  0.673560  1.0  0.8468
  Zn  Zn15  1  0.982120  0.391570  0.591100  1.0  0.8284
  Zn  Zn16  1  0.549500  0.872280  0.904980  1.0  0.8858
  Zn  Zn17  1  0.735480  0.801570  0.173560  1.0  0.8483
  Zn  Zn18  1  0.517880  0.608430  0.091100  1.0  0.8285
  Zn  Zn19  1  0.049500  0.627720  0.095020  1.0  0.8848
  Zn  Zn20  1  0.235480  0.698430  0.826440  1.0  0.8472
  Zn  Zn21  1  0.017880  0.891570  0.908900  1.0  0.8291
  Zn  Zn22  1  0.450500  0.372280  0.595020  1.0  0.8847
  Zn  Zn23  1  0.264520  0.301570  0.326440  1.0  0.8486
  Zn  Zn24  1  0.482120  0.108430  0.408900  1.0  0.8277
  H  H25  1  0.032200  0.056200  0.562300  1.0  0.0772
  H  H26  1  0.047800  0.128600  0.516300  1.0  0.1262
  H  H27  1  0.081500  0.863500  0.483100  1.0  0.125
  H  H28  1  0.064700  0.799700  0.530200  1.0  0.0794
  H  H29  1  0.041800  0.312000  0.471800  1.0  0.1207
  H  H30  1  0.020500  0.471000  0.460700  1.0  0.0916
  H  H31  1  0.077100  0.453400  0.380300  1.0  0.0829
  H  H32  1  0.099500  0.295500  0.387600  1.0  0.1252
  H  H33  1  0.164500  0.099500  0.371300  1.0  0.1157
  H  H34  1  0.207000  0.009300  0.337400  1.0  0.0868
  H  H35  1  0.171100  0.768000  0.378100  1.0  0.0941
  H  H36  1  0.129800  0.853500  0.414800  1.0  0.1217
  H  H37  1  0.341100  0.130000  0.784100  1.0  0.0865
  H  H38  1  0.349400  0.070200  0.735400  1.0  0.1159
  H  H39  1  0.208900  0.040300  0.731500  1.0  0.1239
  H  H40  1  0.204100  0.095000  0.781300  1.0  0.0994
  H  H41  1  0.411200  0.000200  0.674100  1.0  0.1205
  H  H42  1  0.480900  0.965900  0.649600  1.0  0.0898
  H  H43  1  0.414400  0.901600  0.574100  1.0  0.0941
  H  H44  1  0.342000  0.932200  0.596800  1.0  0.127
  H  H45  1  0.224500  0.928600  0.594900  1.0  0.1222
  H  H46  1  0.151500  0.892000  0.574600  1.0  0.0839
  H  H47  1  0.087300  0.976400  0.648400  1.0  0.0971
  H  H48  1  0.158200  0.006300  0.672400  1.0  0.1234
  H  H49  1  0.467800  0.943800  0.062300  1.0  0.0785
  H  H50  1  0.452200  0.871400  0.016300  1.0  0.1261
  H  H51  1  0.418500  0.136500  0.983100  1.0  0.1259
  H  H52  1  0.435300  0.200300  0.030200  1.0  0.0776
  H  H53  1  0.458200  0.688000  0.971800  1.0  0.121
  H  H54  1  0.479500  0.529000  0.960700  1.0  0.0917
  H  H55  1  0.422900  0.546600  0.880300  1.0  0.0824
  H  H56  1  0.400500  0.704500  0.887600  1.0  0.1256
  H  H57  1  0.335500  0.900500  0.871300  1.0  0.1157
  H  H58  1  0.293000  0.990700  0.837400  1.0  0.0864
  H  H59  1  0.328900  0.232000  0.878100  1.0  0.0923
  H  H60  1  0.370200  0.146500  0.914800  1.0  0.1217
  H  H61  1  0.158900  0.870000  0.284100  1.0  0.0869
  H  H62  1  0.150600  0.929800  0.235400  1.0  0.1158
  H  H63  1  0.291100  0.959700  0.231500  1.0  0.1239
  H  H64  1  0.295900  0.905000  0.281300  1.0  0.0998
  H  H65  1  0.088800  0.999800  0.174100  1.0  0.1206
  H  H66  1  0.019100  0.034100  0.149600  1.0  0.09
  H  H67  1  0.085600  0.098400  0.074100  1.0  0.096
  H  H68  1  0.158000  0.067800  0.096800  1.0  0.1271
  H  H69  1  0.275500  0.071400  0.094900  1.0  0.122
  H  H70  1  0.348500  0.108000  0.074600  1.0  0.0836
  H  H71  1  0.412700  0.023600  0.148400  1.0  0.0954
  H  H72  1  0.341800  0.993700  0.172400  1.0  0.1231
  H  H73  1  0.967800  0.556200  0.937700  1.0  0.0777
  H  H74  1  0.952200  0.628600  0.983700  1.0  0.1261
  H  H75  1  0.918500  0.363500  0.016900  1.0  0.1261
  H  H76  1  0.935300  0.299700  0.969800  1.0  0.0789
  H  H77  1  0.958200  0.812000  0.028200  1.0  0.1211
  H  H78  1  0.979500  0.971000  0.039300  1.0  0.0916
  H  H79  1  0.922900  0.953400  0.119700  1.0  0.0813
  H  H80  1  0.900500  0.795500  0.112400  1.0  0.1259
  H  H81  1  0.835500  0.599500  0.128700  1.0  0.1155
  H  H82  1  0.793000  0.509300  0.162600  1.0  0.0862
  H  H83  1  0.828900  0.268000  0.121900  1.0  0.0942
  H  H84  1  0.870200  0.353500  0.085200  1.0  0.1214
  H  H85  1  0.658900  0.630000  0.715900  1.0  0.0865
  H  H86  1  0.650600  0.570200  0.764600  1.0  0.1158
  H  H87  1  0.791100  0.540300  0.768500  1.0  0.124
  H  H88  1  0.795900  0.595000  0.718700  1.0  0.0992
  H  H89  1  0.588800  0.500200  0.825900  1.0  0.121
  H  H90  1  0.519100  0.465900  0.850400  1.0  0.0895
  H  H91  1  0.585600  0.401600  0.925900  1.0  0.0965
  H  H92  1  0.658000  0.432200  0.903200  1.0  0.1267
  H  H93  1  0.775500  0.428600  0.905100  1.0  0.1219
  H  H94  1  0.848500  0.392000  0.925400  1.0  0.0838
  H  H95  1  0.912700  0.476400  0.851600  1.0  0.0952
  H  H96  1  0.841800  0.506300  0.827600  1.0  0.1238
  H  H97  1  0.532200  0.443800  0.437700  1.0  0.0782
  H  H98  1  0.547800  0.371400  0.483700  1.0  0.1265
  H  H99  1  0.581500  0.636500  0.516900  1.0  0.1258
  H  H100  1  0.564700  0.700300  0.469800  1.0  0.0799
  H  H101  1  0.541800  0.188000  0.528200  1.0  0.1212
  H  H102  1  0.520500  0.029000  0.539300  1.0  0.0924
  H  H103  1  0.577100  0.046600  0.619700  1.0  0.0817
  H  H104  1  0.599500  0.204500  0.612400  1.0  0.1258
  H  H105  1  0.664500  0.400500  0.628700  1.0  0.1159
  H  H106  1  0.707000  0.490700  0.662600  1.0  0.0869
  H  H107  1  0.671100  0.732000  0.621900  1.0  0.0926
  H  H108  1  0.629800  0.646500  0.585200  1.0  0.1219
  H  H109  1  0.841100  0.370000  0.215900  1.0  0.0863
  H  H110  1  0.849400  0.429800  0.264600  1.0  0.1156
  H  H111  1  0.708900  0.459700  0.268500  1.0  0.1237
  H  H112  1  0.704100  0.405000  0.218700  1.0  0.1015
  H  H113  1  0.911200  0.499800  0.325900  1.0  0.1209
  H  H114  1  0.980900  0.534100  0.350400  1.0  0.09
  H  H115  1  0.914400  0.598400  0.425900  1.0  0.0946
  H  H116  1  0.842000  0.567800  0.403200  1.0  0.1269
  H  H117  1  0.724500  0.571400  0.405100  1.0  0.1217
  H  H118  1  0.651500  0.608000  0.425400  1.0  0.0836
  H  H119  1  0.587300  0.523600  0.351600  1.0  0.0957
  H  H120  1  0.658200  0.493700  0.327600  1.0  0.123
  H  H121  1  0.967800  0.943800  0.437700  1.0  0.0783
  H  H122  1  0.952200  0.871400  0.483700  1.0  0.1261
  H  H123  1  0.918500  0.136500  0.516900  1.0  0.1262
  H  H124  1  0.935300  0.200300  0.469800  1.0  0.0791
  H  H125  1  0.958200  0.688000  0.528200  1.0  0.1212
  H  H126  1  0.979500  0.529000  0.539300  1.0  0.0919
  H  H127  1  0.922900  0.546600  0.619700  1.0  0.082
  H  H128  1  0.900500  0.704500  0.612400  1.0  0.1259
  H  H129  1  0.835500  0.900500  0.628700  1.0  0.1156
  H  H130  1  0.793000  0.990700  0.662600  1.0  0.0866
  H  H131  1  0.828900  0.232000  0.621900  1.0  0.0927
  H  H132  1  0.870200  0.146500  0.585200  1.0  0.1216
  H  H133  1  0.658900  0.870000  0.215900  1.0  0.0866
  H  H134  1  0.650600  0.929800  0.264600  1.0  0.1158
  H  H135  1  0.791100  0.959700  0.268500  1.0  0.1237
  H  H136  1  0.795900  0.905000  0.218700  1.0  0.101
  H  H137  1  0.588800  0.999800  0.325900  1.0  0.1209
  H  H138  1  0.519100  0.034100  0.350400  1.0  0.0894
  H  H139  1  0.585600  0.098400  0.425900  1.0  0.0963
  H  H140  1  0.658000  0.067800  0.403200  1.0  0.1265
  H  H141  1  0.775500  0.071400  0.405100  1.0  0.1218
  H  H142  1  0.848500  0.108000  0.425400  1.0  0.0834
  H  H143  1  0.912700  0.023600  0.351600  1.0  0.095
  H  H144  1  0.841800  0.993700  0.327600  1.0  0.1232
  H  H145  1  0.532200  0.056200  0.937700  1.0  0.0769
  H  H146  1  0.547800  0.128600  0.983700  1.0  0.1263
  H  H147  1  0.581500  0.863500  0.016900  1.0  0.1255
  H  H148  1  0.564700  0.799700  0.969800  1.0  0.0806
  H  H149  1  0.541800  0.312000  0.028200  1.0  0.1213
  H  H150  1  0.520500  0.471000  0.039300  1.0  0.092
  H  H151  1  0.577100  0.453400  0.119700  1.0  0.0817
  H  H152  1  0.599500  0.295500  0.112400  1.0  0.1257
  H  H153  1  0.664500  0.099500  0.128700  1.0  0.1157
  H  H154  1  0.707000  0.009300  0.162600  1.0  0.0866
  H  H155  1  0.671100  0.768000  0.121900  1.0  0.0942
  H  H156  1  0.629800  0.853500  0.085200  1.0  0.1214
  H  H157  1  0.841100  0.130000  0.715900  1.0  0.0867
  H  H158  1  0.849400  0.070200  0.764600  1.0  0.1157
  H  H159  1  0.708900  0.040300  0.768500  1.0  0.1239
  H  H160  1  0.704100  0.095000  0.718700  1.0  0.0988
  H  H161  1  0.911200  0.000200  0.825900  1.0  0.121
  H  H162  1  0.980900  0.965900  0.850400  1.0  0.09
  H  H163  1  0.914400  0.901600  0.925900  1.0  0.0951
  H  H164  1  0.842000  0.932200  0.903200  1.0  0.1278
  H  H165  1  0.724500  0.928600  0.905100  1.0  0.1219
  H  H166  1  0.651500  0.892000  0.925400  1.0  0.0837
  H  H167  1  0.587300  0.976400  0.851600  1.0  0.0962
  H  H168  1  0.658200  0.006300  0.827600  1.0  0.1232
  H  H169  1  0.032200  0.443800  0.062300  1.0  0.0782
  H  H170  1  0.047800  0.371400  0.016300  1.0  0.1264
  H  H171  1  0.081500  0.636500  0.983100  1.0  0.1255
  H  H172  1  0.064700  0.700300  0.030200  1.0  0.0797
  H  H173  1  0.041800  0.188000  0.971800  1.0  0.121
  H  H174  1  0.020500  0.029000  0.960700  1.0  0.0927
  H  H175  1  0.077100  0.046600  0.880300  1.0  0.083
  H  H176  1  0.099500  0.204500  0.887600  1.0  0.1254
  H  H177  1  0.164500  0.400500  0.871300  1.0  0.1158
  H  H178  1  0.207000  0.490700  0.837400  1.0  0.0868
  H  H179  1  0.171100  0.732000  0.878100  1.0  0.0923
  H  H180  1  0.129800  0.646500  0.914800  1.0  0.1219
  H  H181  1  0.341100  0.370000  0.284100  1.0  0.0866
  H  H182  1  0.349400  0.429800  0.235400  1.0  0.1159
  H  H183  1  0.208900  0.459700  0.231500  1.0  0.124
  H  H184  1  0.204100  0.405000  0.281300  1.0  0.1003
  H  H185  1  0.411200  0.499800  0.174100  1.0  0.1203
  H  H186  1  0.480900  0.534100  0.149600  1.0  0.0899
  H  H187  1  0.414400  0.598400  0.074100  1.0  0.094
  H  H188  1  0.342000  0.567800  0.096800  1.0  0.1269
  H  H189  1  0.224500  0.571400  0.094900  1.0  0.1222
  H  H190  1  0.151500  0.608000  0.074600  1.0  0.0841
  H  H191  1  0.087300  0.523600  0.148400  1.0  0.0969
  H  H192  1  0.158200  0.493700  0.172400  1.0  0.1237
  H  H193  1  0.467800  0.556200  0.562300  1.0  0.0783
  H  H194  1  0.452200  0.628600  0.516300  1.0  0.1261
  H  H195  1  0.418500  0.363500  0.483100  1.0  0.1252
  H  H196  1  0.435300  0.299700  0.530200  1.0  0.0787
  H  H197  1  0.458200  0.812000  0.471800  1.0  0.1205
  H  H198  1  0.479500  0.971000  0.460700  1.0  0.0912
  H  H199  1  0.422900  0.953400  0.380300  1.0  0.0818
  H  H200  1  0.400500  0.795500  0.387600  1.0  0.1255
  H  H201  1  0.335500  0.599500  0.371300  1.0  0.1156
  H  H202  1  0.293000  0.509300  0.337400  1.0  0.0866
  H  H203  1  0.328900  0.268000  0.378100  1.0  0.094
  H  H204  1  0.370200  0.353500  0.414800  1.0  0.1218
  H  H205  1  0.158900  0.630000  0.784100  1.0  0.0864
  H  H206  1  0.150600  0.570200  0.735400  1.0  0.1158
  H  H207  1  0.291100  0.540300  0.731500  1.0  0.1239
  H  H208  1  0.295900  0.595000  0.781300  1.0  0.0987
  H  H209  1  0.088800  0.500200  0.674100  1.0  0.1206
  H  H210  1  0.019100  0.465900  0.649600  1.0  0.0899
  H  H211  1  0.085600  0.401600  0.574100  1.0  0.096
  H  H212  1  0.158000  0.432200  0.596800  1.0  0.1265
  H  H213  1  0.275500  0.428600  0.594900  1.0  0.122
  H  H214  1  0.348500  0.392000  0.574600  1.0  0.0838
  H  H215  1  0.412700  0.476400  0.648400  1.0  0.0955
  H  H216  1  0.341800  0.506300  0.672400  1.0  0.1232
  C  C217  1  0.043400  0.017300  0.546100  1.0  0.1448
  C  C218  1  0.052100  0.060900  0.518700  1.0  -0.1517
  C  C219  1  0.067300  0.004100  0.494400  1.0  -0.0829
  C  C220  1  0.071900  0.904900  0.499100  1.0  -0.1673
  C  C221  1  0.062300  0.867700  0.527400  1.0  0.1436
  C  C222  1  0.080200  0.049900  0.465400  1.0  0.3907
  C  C223  1  0.086100  0.182400  0.436400  1.0  0.3974
  C  C224  1  0.118100  0.043400  0.420700  1.0  0.3573
  C  C225  1  0.073200  0.285400  0.430700  1.0  -0.0834
  C  C226  1  0.049200  0.339400  0.452600  1.0  -0.1472
  C  C227  1  0.036500  0.434100  0.445700  1.0  0.1372
  C  C228  1  0.069300  0.423300  0.399000  1.0  0.1563
  C  C229  1  0.083300  0.329500  0.403200  1.0  -0.1521
  C  C230  1  0.143500  0.987200  0.397200  1.0  -0.0813
  C  C231  1  0.166100  0.031200  0.373600  1.0  -0.1209
  C  C232  1  0.190900  0.977000  0.353300  1.0  0.1575
  C  C233  1  0.170400  0.836600  0.377100  1.0  0.1292
  C  C234  1  0.145400  0.887000  0.398900  1.0  -0.1362
  C  C235  1  0.313800  0.112000  0.773200  1.0  0.1438
  C  C236  1  0.319100  0.076700  0.744100  1.0  -0.1445
  C  C237  1  0.280200  0.051300  0.727920  1.0  -0.0817
  C  C238  1  0.236500  0.058500  0.742030  1.0  -0.0842
  C  C239  1  0.233800  0.092600  0.771500  1.0  0.1308
  C  C240  1  0.282500  0.020700  0.695890  1.0  0.3879
  C  C241  1  0.323200  0.982700  0.653960  1.0  0.3921
  C  C242  1  0.244100  0.984400  0.652150  1.0  0.4002
  C  C243  1  0.368800  0.967100  0.638390  1.0  -0.109
  C  C244  1  0.410900  0.978700  0.653700  1.0  -0.1495
  C  C245  1  0.452300  0.958600  0.638800  1.0  0.1441
  C  C246  1  0.413400  0.920800  0.594800  1.0  0.1323
  C  C247  1  0.370100  0.938900  0.608110  1.0  -0.1414
  C  C248  1  0.199300  0.967700  0.636100  1.0  -0.1239
  C  C249  1  0.196900  0.936200  0.606700  1.0  -0.1542
  C  C250  1  0.153100  0.915800  0.594800  1.0  0.1495
  C  C251  1  0.115700  0.963600  0.637900  1.0  0.1366
  C  C252  1  0.157600  0.983000  0.652100  1.0  -0.1328
  C  C253  1  0.456600  0.982700  0.046100  1.0  0.1512
  C  C254  1  0.447900  0.939100  0.018700  1.0  -0.1529
  C  C255  1  0.432700  0.995900  0.994400  1.0  -0.084
  C  C256  1  0.428100  0.095100  0.999100  1.0  -0.1684
  C  C257  1  0.437700  0.132300  0.027400  1.0  0.1487
  C  C258  1  0.419800  0.950100  0.965400  1.0  0.3917
  C  C259  1  0.413900  0.817600  0.936400  1.0  0.3987
  C  C260  1  0.381900  0.956600  0.920700  1.0  0.3569
  C  C261  1  0.426800  0.714600  0.930700  1.0  -0.0819
  C  C262  1  0.450800  0.660600  0.952600  1.0  -0.1455
  C  C263  1  0.463500  0.565900  0.945700  1.0  0.1341
  C  C264  1  0.430700  0.576700  0.899000  1.0  0.1611
  C  C265  1  0.416700  0.670500  0.903200  1.0  -0.1548
  C  C266  1  0.356500  0.012800  0.897200  1.0  -0.0803
  C  C267  1  0.333900  0.968800  0.873600  1.0  -0.1208
  C  C268  1  0.309100  0.023000  0.853300  1.0  0.1635
  C  C269  1  0.329600  0.163400  0.877100  1.0  0.122
  C  C270  1  0.354600  0.113000  0.898900  1.0  -0.1341
  C  C271  1  0.186200  0.888000  0.273200  1.0  0.1515
  C  C272  1  0.180900  0.923300  0.244100  1.0  -0.1443
  C  C273  1  0.219800  0.948700  0.227920  1.0  -0.0817
  C  C274  1  0.263500  0.941500  0.242030  1.0  -0.0829
  C  C275  1  0.266200  0.907400  0.271500  1.0  0.1239
  C  C276  1  0.217500  0.979300  0.195890  1.0  0.3879
  C  C277  1  0.176800  0.017300  0.153960  1.0  0.3919
  C  C278  1  0.255900  0.015600  0.152150  1.0  0.3997
  C  C279  1  0.131200  0.032900  0.138390  1.0  -0.1091
  C  C280  1  0.089100  0.021300  0.153700  1.0  -0.1495
  C  C281  1  0.047700  0.041400  0.138800  1.0  0.1509
  C  C282  1  0.086600  0.079200  0.094800  1.0  0.1242
  C  C283  1  0.129900  0.061100  0.108110  1.0  -0.1378
  C  C284  1  0.300700  0.032300  0.136100  1.0  -0.1244
  C  C285  1  0.303100  0.063800  0.106700  1.0  -0.1535
  C  C286  1  0.346900  0.084200  0.094800  1.0  0.1524
  C  C287  1  0.384300  0.036400  0.137900  1.0  0.1405
  C  C288  1  0.342400  0.017000  0.152100  1.0  -0.1343
  C  C289  1  0.956600  0.517300  0.953900  1.0  0.1469
  C  C290  1  0.947900  0.560900  0.981300  1.0  -0.1508
  C  C291  1  0.932700  0.504100  0.005600  1.0  -0.0831
  C  C292  1  0.928100  0.404900  0.000900  1.0  -0.1672
  C  C293  1  0.937700  0.367700  0.972600  1.0  0.1464
  C  C294  1  0.919800  0.549900  0.034600  1.0  0.3916
  C  C295  1  0.913900  0.682400  0.063600  1.0  0.3989
  C  C296  1  0.881900  0.543400  0.079300  1.0  0.3568
  C  C297  1  0.926800  0.785400  0.069300  1.0  -0.0826
  C  C298  1  0.950800  0.839400  0.047400  1.0  -0.1458
  C  C299  1  0.963500  0.934100  0.054300  1.0  0.1374
  C  C300  1  0.930700  0.923300  0.101000  1.0  0.1618
  C  C301  1  0.916700  0.829500  0.096800  1.0  -0.1552
  C  C302  1  0.856500  0.487200  0.102800  1.0  -0.0818
  C  C303  1  0.833900  0.531200  0.126400  1.0  -0.1212
  C  C304  1  0.809100  0.477000  0.146700  1.0  0.1579
  C  C305  1  0.829600  0.336600  0.122900  1.0  0.1278
  C  C306  1  0.854600  0.387000  0.101100  1.0  -0.1342
  C  C307  1  0.686200  0.612000  0.726800  1.0  0.1506
  C  C308  1  0.680900  0.576700  0.755900  1.0  -0.149
  C  C309  1  0.719800  0.551300  0.772080  1.0  -0.0831
  C  C310  1  0.763500  0.558500  0.757970  1.0  -0.0829
  C  C311  1  0.766200  0.592600  0.728500  1.0  0.1267
  C  C312  1  0.717500  0.520700  0.804110  1.0  0.3876
  C  C313  1  0.676800  0.482700  0.846040  1.0  0.392
  C  C314  1  0.755900  0.484400  0.847850  1.0  0.4001
  C  C315  1  0.631200  0.467100  0.861610  1.0  -0.1083
  C  C316  1  0.589100  0.478700  0.846300  1.0  -0.1457
  C  C317  1  0.547700  0.458600  0.861200  1.0  0.1451
  C  C318  1  0.586600  0.420800  0.905200  1.0  0.1268
  C  C319  1  0.629900  0.438900  0.891890  1.0  -0.1364
  C  C320  1  0.800700  0.467700  0.863900  1.0  -0.1245
  C  C321  1  0.803100  0.436200  0.893300  1.0  -0.1568
  C  C322  1  0.846900  0.415800  0.905200  1.0  0.1542
  C  C323  1  0.884300  0.463600  0.862100  1.0  0.1346
  C  C324  1  0.842400  0.483000  0.847900  1.0  -0.1362
  C  C325  1  0.543400  0.482700  0.453900  1.0  0.1509
  C  C326  1  0.552100  0.439100  0.481300  1.0  -0.155
  C  C327  1  0.567300  0.495900  0.505600  1.0  -0.0845
  C  C328  1  0.571900  0.595100  0.500900  1.0  -0.1663
  C  C329  1  0.562300  0.632300  0.472600  1.0  0.1433
  C  C330  1  0.580200  0.450100  0.534600  1.0  0.3913
  C  C331  1  0.586100  0.317600  0.563600  1.0  0.3981
  C  C332  1  0.618100  0.456600  0.579300  1.0  0.3574
  C  C333  1  0.573200  0.214600  0.569300  1.0  -0.0829
  C  C334  1  0.549200  0.160600  0.547400  1.0  -0.1469
  C  C335  1  0.536500  0.065900  0.554300  1.0  0.1378
  C  C336  1  0.569300  0.076700  0.601000  1.0  0.1587
  C  C337  1  0.583300  0.170500  0.596800  1.0  -0.1522
  C  C338  1  0.643500  0.512800  0.602800  1.0  -0.0811
  C  C339  1  0.666100  0.468800  0.626400  1.0  -0.1225
  C  C340  1  0.690900  0.523000  0.646700  1.0  0.1624
  C  C341  1  0.670400  0.663400  0.622900  1.0  0.1268
  C  C342  1  0.645400  0.613000  0.601100  1.0  -0.1353
  C  C343  1  0.813800  0.388000  0.226800  1.0  0.1439
  C  C344  1  0.819100  0.423300  0.255900  1.0  -0.1446
  C  C345  1  0.780200  0.448700  0.272080  1.0  -0.0833
  C  C346  1  0.736500  0.441500  0.257970  1.0  -0.085
  C  C347  1  0.733800  0.407400  0.228500  1.0  0.1255
  C  C348  1  0.782500  0.479300  0.304110  1.0  0.3874
  C  C349  1  0.823200  0.517300  0.346040  1.0  0.3924
  C  C350  1  0.744100  0.515600  0.347850  1.0  0.4004
  C  C351  1  0.868800  0.532900  0.361610  1.0  -0.1085
  C  C352  1  0.910900  0.521300  0.346300  1.0  -0.148
  C  C353  1  0.952300  0.541400  0.361200  1.0  0.15
  C  C354  1  0.913400  0.579200  0.405200  1.0  0.1285
  C  C355  1  0.870100  0.561100  0.391890  1.0  -0.1398
  C  C356  1  0.699300  0.532300  0.363900  1.0  -0.1242
  C  C357  1  0.696900  0.563800  0.393300  1.0  -0.1539
  C  C358  1  0.653100  0.584200  0.405200  1.0  0.1472
  C  C359  1  0.615700  0.536400  0.362100  1.0  0.1426
  C  C360  1  0.657600  0.517000  0.347900  1.0  -0.1361
  C  C361  1  0.956600  0.982700  0.453900  1.0  0.1516
  C  C362  1  0.947900  0.939100  0.481300  1.0  -0.1537
  C  C363  1  0.932700  0.995900  0.505600  1.0  -0.0833
  C  C364  1  0.928100  0.095100  0.500900  1.0  -0.1676
  C  C365  1  0.937700  0.132300  0.472600  1.0  0.1487
  C  C366  1  0.919800  0.950100  0.534600  1.0  0.3915
  C  C367  1  0.913900  0.817600  0.563600  1.0  0.3989
  C  C368  1  0.881900  0.956600  0.579300  1.0  0.357
  C  C369  1  0.926800  0.714600  0.569300  1.0  -0.0815
  C  C370  1  0.950800  0.660600  0.547400  1.0  -0.1458
  C  C371  1  0.963500  0.565900  0.554300  1.0  0.1369
  C  C372  1  0.930700  0.576700  0.601000  1.0  0.1619
  C  C373  1  0.916700  0.670500  0.596800  1.0  -0.1559
  C  C374  1  0.856500  0.012800  0.602800  1.0  -0.0812
  C  C375  1  0.833900  0.968800  0.626400  1.0  -0.1203
  C  C376  1  0.809100  0.023000  0.646700  1.0  0.1635
  C  C377  1  0.829600  0.163400  0.622900  1.0  0.122
  C  C378  1  0.854600  0.113000  0.601100  1.0  -0.1339
  C  C379  1  0.686200  0.888000  0.226800  1.0  0.1507
  C  C380  1  0.680900  0.923300  0.255900  1.0  -0.1446
  C  C381  1  0.719800  0.948700  0.272080  1.0  -0.0835
  C  C382  1  0.763500  0.941500  0.257970  1.0  -0.0829
  C  C383  1  0.766200  0.907400  0.228500  1.0  0.1231
  C  C384  1  0.717500  0.979300  0.304110  1.0  0.3875
  C  C385  1  0.676800  0.017300  0.346040  1.0  0.3921
  C  C386  1  0.755900  0.015600  0.347850  1.0  0.4001
  C  C387  1  0.631200  0.032900  0.361610  1.0  -0.1086
  C  C388  1  0.589100  0.021300  0.346300  1.0  -0.1476
  C  C389  1  0.547700  0.041400  0.361200  1.0  0.1511
  C  C390  1  0.586600  0.079200  0.405200  1.0  0.1226
  C  C391  1  0.629900  0.061100  0.391890  1.0  -0.1362
  C  C392  1  0.800700  0.032300  0.363900  1.0  -0.1247
  C  C393  1  0.803100  0.063800  0.393300  1.0  -0.1553
  C  C394  1  0.846900  0.084200  0.405200  1.0  0.1529
  C  C395  1  0.884300  0.036400  0.362100  1.0  0.1406
  C  C396  1  0.842400  0.017000  0.347900  1.0  -0.1364
  C  C397  1  0.543400  0.017300  0.953900  1.0  0.1492
  C  C398  1  0.552100  0.060900  0.981300  1.0  -0.1514
  C  C399  1  0.567300  0.004100  0.005600  1.0  -0.0844
  C  C400  1  0.571900  0.904900  0.000900  1.0  -0.1674
  C  C401  1  0.562300  0.867700  0.972600  1.0  0.1442
  C  C402  1  0.580200  0.049900  0.034600  1.0  0.391
  C  C403  1  0.586100  0.182400  0.063600  1.0  0.3978
  C  C404  1  0.618100  0.043400  0.079300  1.0  0.3573
  C  C405  1  0.573200  0.285400  0.069300  1.0  -0.0831
  C  C406  1  0.549200  0.339400  0.047400  1.0  -0.1469
  C  C407  1  0.536500  0.434100  0.054300  1.0  0.1381
  C  C408  1  0.569300  0.423300  0.101000  1.0  0.1575
  C  C409  1  0.583300  0.329500  0.096800  1.0  -0.1516
  C  C410  1  0.643500  0.987200  0.102800  1.0  -0.0818
  C  C411  1  0.666100  0.031200  0.126400  1.0  -0.1199
  C  C412  1  0.690900  0.977000  0.146700  1.0  0.1572
  C  C413  1  0.670400  0.836600  0.122900  1.0  0.1281
  C  C414  1  0.645400  0.887000  0.101100  1.0  -0.136
  C  C415  1  0.813800  0.112000  0.726800  1.0  0.1434
  C  C416  1  0.819100  0.076700  0.755900  1.0  -0.1445
  C  C417  1  0.780200  0.051300  0.772080  1.0  -0.083
  C  C418  1  0.736500  0.058500  0.757970  1.0  -0.0847
  C  C419  1  0.733800  0.092600  0.728500  1.0  0.1305
  C  C420  1  0.782500  0.020700  0.804110  1.0  0.3874
  C  C421  1  0.823200  0.982700  0.846040  1.0  0.3924
  C  C422  1  0.744100  0.984400  0.847850  1.0  0.4005
  C  C423  1  0.868800  0.967100  0.861610  1.0  -0.1087
  C  C424  1  0.910900  0.978700  0.846300  1.0  -0.1482
  C  C425  1  0.952300  0.958600  0.861200  1.0  0.1441
  C  C426  1  0.913400  0.920800  0.905200  1.0  0.1315
  C  C427  1  0.870100  0.938900  0.891890  1.0  -0.1413
  C  C428  1  0.699300  0.967700  0.863900  1.0  -0.1241
  C  C429  1  0.696900  0.936200  0.893300  1.0  -0.154
  C  C430  1  0.653100  0.915800  0.905200  1.0  0.1507
  C  C431  1  0.615700  0.963600  0.862100  1.0  0.1376
  C  C432  1  0.657600  0.983000  0.847900  1.0  -0.134
  C  C433  1  0.043400  0.482700  0.046100  1.0  0.1503
  C  C434  1  0.052100  0.439100  0.018700  1.0  -0.1531
  C  C435  1  0.067300  0.495900  0.994400  1.0  -0.083
  C  C436  1  0.071900  0.595100  0.999100  1.0  -0.1647
  C  C437  1  0.062300  0.632300  0.027400  1.0  0.1429
  C  C438  1  0.080200  0.450100  0.965400  1.0  0.3908
  C  C439  1  0.086100  0.317600  0.936400  1.0  0.3979
  C  C440  1  0.118100  0.456600  0.920700  1.0  0.3575
  C  C441  1  0.073200  0.214600  0.930700  1.0  -0.0835
  C  C442  1  0.049200  0.160600  0.952600  1.0  -0.1472
  C  C443  1  0.036500  0.065900  0.945700  1.0  0.1373
  C  C444  1  0.069300  0.076700  0.899000  1.0  0.1573
  C  C445  1  0.083300  0.170500  0.903200  1.0  -0.1523
  C  C446  1  0.143500  0.512800  0.897200  1.0  -0.0806
  C  C447  1  0.166100  0.468800  0.873600  1.0  -0.1228
  C  C448  1  0.190900  0.523000  0.853300  1.0  0.1623
  C  C449  1  0.170400  0.663400  0.877100  1.0  0.1262
  C  C450  1  0.145400  0.613000  0.898900  1.0  -0.1356
  C  C451  1  0.313800  0.388000  0.273200  1.0  0.1453
  C  C452  1  0.319100  0.423300  0.244100  1.0  -0.1446
  C  C453  1  0.280200  0.448700  0.227920  1.0  -0.0815
  C  C454  1  0.236500  0.441500  0.242030  1.0  -0.0846
  C  C455  1  0.233800  0.407400  0.271500  1.0  0.1263
  C  C456  1  0.282500  0.479300  0.195890  1.0  0.3878
  C  C457  1  0.323200  0.517300  0.153960  1.0  0.3922
  C  C458  1  0.244100  0.515600  0.152150  1.0  0.4001
  C  C459  1  0.368800  0.532900  0.138390  1.0  -0.1089
  C  C460  1  0.410900  0.521300  0.153700  1.0  -0.1495
  C  C461  1  0.452300  0.541400  0.138800  1.0  0.1497
  C  C462  1  0.413400  0.579200  0.094800  1.0  0.1302
  C  C463  1  0.370100  0.561100  0.108110  1.0  -0.1378
  C  C464  1  0.199300  0.532300  0.136100  1.0  -0.1241
  C  C465  1  0.196900  0.563800  0.106700  1.0  -0.1548
  C  C466  1  0.153100  0.584200  0.094800  1.0  0.1466
  C  C467  1  0.115700  0.536400  0.137900  1.0  0.1423
  C  C468  1  0.157600  0.517000  0.152100  1.0  -0.1348
  C  C469  1  0.456600  0.517300  0.546100  1.0  0.1452
  C  C470  1  0.447900  0.560900  0.518700  1.0  -0.1513
  C  C471  1  0.432700  0.504100  0.494400  1.0  -0.0835
  C  C472  1  0.428100  0.404900  0.499100  1.0  -0.1671
  C  C473  1  0.437700  0.367700  0.527400  1.0  0.1472
  C  C474  1  0.419800  0.549900  0.465400  1.0  0.3918
  C  C475  1  0.413900  0.682400  0.436400  1.0  0.3986
  C  C476  1  0.381900  0.543400  0.420700  1.0  0.3567
  C  C477  1  0.426800  0.785400  0.430700  1.0  -0.0827
  C  C478  1  0.450800  0.839400  0.452600  1.0  -0.1449
  C  C479  1  0.463500  0.934100  0.445700  1.0  0.1331
  C  C480  1  0.430700  0.923300  0.399000  1.0  0.1618
  C  C481  1  0.416700  0.829500  0.403200  1.0  -0.1547
  C  C482  1  0.356500  0.487200  0.397200  1.0  -0.081
  C  C483  1  0.333900  0.531200  0.373600  1.0  -0.1205
  C  C484  1  0.309100  0.477000  0.353300  1.0  0.1584
  C  C485  1  0.329600  0.336600  0.377100  1.0  0.1263
  C  C486  1  0.354600  0.387000  0.398900  1.0  -0.1346
  C  C487  1  0.186200  0.612000  0.773200  1.0  0.1505
  C  C488  1  0.180900  0.576700  0.744100  1.0  -0.1486
  C  C489  1  0.219800  0.551300  0.727920  1.0  -0.082
  C  C490  1  0.263500  0.558500  0.742030  1.0  -0.0829
  C  C491  1  0.266200  0.592600  0.771500  1.0  0.127
  C  C492  1  0.217500  0.520700  0.695890  1.0  0.388
  C  C493  1  0.176800  0.482700  0.653960  1.0  0.3918
  C  C494  1  0.255900  0.484400  0.652150  1.0  0.3997
  C  C495  1  0.131200  0.467100  0.638390  1.0  -0.1088
  C  C496  1  0.089100  0.478700  0.653700  1.0  -0.1474
  C  C497  1  0.047700  0.458600  0.638800  1.0  0.1451
  C  C498  1  0.086600  0.420800  0.594800  1.0  0.1278
  C  C499  1  0.129900  0.438900  0.608110  1.0  -0.1376
  C  C500  1  0.300700  0.467700  0.636100  1.0  -0.1241
  C  C501  1  0.303100  0.436200  0.606700  1.0  -0.1553
  C  C502  1  0.346900  0.415800  0.594800  1.0  0.1526
  C  C503  1  0.384300  0.463600  0.637900  1.0  0.1341
  C  C504  1  0.342400  0.483000  0.652100  1.0  -0.1342
  I  I505  1  0.987050  0.961720  0.624800  1.0  -0.3494
  I  I506  1  0.063560  0.691140  0.593800  1.0  -0.3971
  I  I507  1  0.200590  0.633880  0.318670  1.0  -0.3409
  I  I508  1  0.320200  0.814380  0.343740  1.0  -0.3473
  I  I509  1  0.064020  0.683400  0.365930  1.0  -0.3065
  I  I510  1  0.001760  0.694990  0.459220  1.0  -0.3471
  I  I511  1  0.512950  0.038280  0.124800  1.0  -0.3478
  I  I512  1  0.436440  0.308860  0.093800  1.0  -0.3976
  I  I513  1  0.299410  0.366120  0.818670  1.0  -0.3417
  I  I514  1  0.179800  0.185620  0.843740  1.0  -0.3471
  I  I515  1  0.435980  0.316600  0.865930  1.0  -0.3066
  I  I516  1  0.498240  0.305010  0.959220  1.0  -0.347
  I  I517  1  0.012950  0.461720  0.875200  1.0  -0.3492
  I  I518  1  0.936440  0.191140  0.906200  1.0  -0.3982
  I  I519  1  0.799410  0.133880  0.181330  1.0  -0.3417
  I  I520  1  0.679800  0.314380  0.156260  1.0  -0.3469
  I  I521  1  0.935980  0.183400  0.134070  1.0  -0.3054
  I  I522  1  0.998240  0.194990  0.040780  1.0  -0.3474
  I  I523  1  0.487050  0.538280  0.375200  1.0  -0.348
  I  I524  1  0.563560  0.808860  0.406200  1.0  -0.3976
  I  I525  1  0.700590  0.866120  0.681330  1.0  -0.3409
  I  I526  1  0.820200  0.685620  0.656260  1.0  -0.3475
  I  I527  1  0.564020  0.816600  0.634070  1.0  -0.3054
  I  I528  1  0.501760  0.805010  0.540780  1.0  -0.3471
  I  I529  1  0.012950  0.038280  0.375200  1.0  -0.3479
  I  I530  1  0.936440  0.308860  0.406200  1.0  -0.3981
  I  I531  1  0.799410  0.366120  0.681330  1.0  -0.3418
  I  I532  1  0.679800  0.185620  0.656260  1.0  -0.347
  I  I533  1  0.935980  0.316600  0.634070  1.0  -0.3054
  I  I534  1  0.998240  0.305010  0.540780  1.0  -0.3473
  I  I535  1  0.487050  0.961720  0.875200  1.0  -0.3492
  I  I536  1  0.563560  0.691140  0.906200  1.0  -0.3975
  I  I537  1  0.700590  0.633880  0.181330  1.0  -0.3409
  I  I538  1  0.820200  0.814380  0.156260  1.0  -0.3472
  I  I539  1  0.564020  0.683400  0.134070  1.0  -0.3055
  I  I540  1  0.501760  0.694990  0.040780  1.0  -0.3472
  I  I541  1  0.987050  0.538280  0.124800  1.0  -0.3484
  I  I542  1  0.063560  0.808860  0.093800  1.0  -0.3972
  I  I543  1  0.200590  0.866120  0.818670  1.0  -0.3408
  I  I544  1  0.320200  0.685620  0.843740  1.0  -0.3475
  I  I545  1  0.064020  0.816600  0.865930  1.0  -0.3065
  I  I546  1  0.001760  0.805010  0.959220  1.0  -0.3468
  I  I547  1  0.512950  0.461720  0.624800  1.0  -0.3488
  I  I548  1  0.436440  0.191140  0.593800  1.0  -0.3975
  I  I549  1  0.299410  0.133880  0.318670  1.0  -0.3417
  I  I550  1  0.179800  0.314380  0.343740  1.0  -0.347
  I  I551  1  0.435980  0.183400  0.365930  1.0  -0.3065
  I  I552  1  0.498240  0.194990  0.459220  1.0  -0.3472
  N  N553  1  0.049900  0.922400  0.551070  1.0  -0.3237
  N  N554  1  0.069700  0.143800  0.461810  1.0  -0.4816
  N  N555  1  0.111200  0.137200  0.415420  1.0  -0.4862
  N  N556  1  0.102800  0.995200  0.444990  1.0  -0.5122
  N  N557  1  0.045800  0.475200  0.419150  1.0  -0.3029
  N  N558  1  0.193700  0.880900  0.354900  1.0  -0.3118
  N  N559  1  0.271900  0.122000  0.786620  1.0  -0.3274
  N  N560  1  0.324100  0.007900  0.683280  1.0  -0.4767
  N  N561  1  0.284100  0.970800  0.637000  1.0  -0.4813
  N  N562  1  0.241200  0.010100  0.681340  1.0  -0.5036
  N  N563  1  0.454000  0.929400  0.610120  1.0  -0.296
  N  N564  1  0.113500  0.927400  0.609840  1.0  -0.3042
  N  N565  1  0.450100  0.077600  0.051070  1.0  -0.3255
  N  N566  1  0.430300  0.856200  0.961810  1.0  -0.4787
  N  N567  1  0.388800  0.862800  0.915420  1.0  -0.4828
  N  N568  1  0.397200  0.004800  0.944990  1.0  -0.5026
  N  N569  1  0.454200  0.524800  0.919150  1.0  -0.3015
  N  N570  1  0.306300  0.119100  0.854900  1.0  -0.3142
  N  N571  1  0.228100  0.878000  0.286620  1.0  -0.3265
  N  N572  1  0.175900  0.992100  0.183280  1.0  -0.4839
  N  N573  1  0.215900  0.029200  0.137000  1.0  -0.4796
  N  N574  1  0.258800  0.989900  0.181340  1.0  -0.5018
  N  N575  1  0.046000  0.070600  0.110120  1.0  -0.2963
  N  N576  1  0.386500  0.072600  0.109840  1.0  -0.3065
  N  N577  1  0.950100  0.422400  0.948930  1.0  -0.3254
  N  N578  1  0.930300  0.643800  0.038190  1.0  -0.4803
  N  N579  1  0.888800  0.637200  0.084580  1.0  -0.4839
  N  N580  1  0.897200  0.495200  0.055010  1.0  -0.5114
  N  N581  1  0.954200  0.975200  0.080850  1.0  -0.3028
  N  N582  1  0.806300  0.380900  0.145100  1.0  -0.3148
  N  N583  1  0.728100  0.622000  0.713380  1.0  -0.328
  N  N584  1  0.675900  0.507900  0.816720  1.0  -0.4824
  N  N585  1  0.715900  0.470800  0.863000  1.0  -0.4804
  N  N586  1  0.758800  0.510100  0.818660  1.0  -0.492
  N  N587  1  0.546000  0.429400  0.889880  1.0  -0.2981
  N  N588  1  0.886500  0.427400  0.890160  1.0  -0.3071
  N  N589  1  0.549900  0.577600  0.448930  1.0  -0.3254
  N  N590  1  0.569700  0.356200  0.538190  1.0  -0.4817
  N  N591  1  0.611200  0.362800  0.584580  1.0  -0.4828
  N  N592  1  0.602800  0.504800  0.555010  1.0  -0.5015
  N  N593  1  0.545800  0.024800  0.580850  1.0  -0.3018
  N  N594  1  0.693700  0.619100  0.645100  1.0  -0.3122
  N  N595  1  0.771900  0.378000  0.213380  1.0  -0.3282
  N  N596  1  0.824100  0.492100  0.316720  1.0  -0.4818
  N  N597  1  0.784100  0.529200  0.363000  1.0  -0.4697
  N  N598  1  0.741200  0.489900  0.318660  1.0  -0.5036
  N  N599  1  0.954000  0.570600  0.389880  1.0  -0.2977
  N  N600  1  0.613500  0.572600  0.390160  1.0  -0.3056
  N  N601  1  0.950100  0.077600  0.448930  1.0  -0.3244
  N  N602  1  0.930300  0.856200  0.538190  1.0  -0.4801
  N  N603  1  0.888800  0.862800  0.584580  1.0  -0.4848
  N  N604  1  0.897200  0.004800  0.555010  1.0  -0.5018
  N  N605  1  0.954200  0.524800  0.580850  1.0  -0.3014
  N  N606  1  0.806300  0.119100  0.645100  1.0  -0.3146
  N  N607  1  0.728100  0.878000  0.213380  1.0  -0.3276
  N  N608  1  0.675900  0.992100  0.316720  1.0  -0.4827
  N  N609  1  0.715900  0.029200  0.363000  1.0  -0.4786
  N  N610  1  0.758800  0.989900  0.318660  1.0  -0.5022
  N  N611  1  0.546000  0.070600  0.389880  1.0  -0.2985
  N  N612  1  0.886500  0.072600  0.390160  1.0  -0.3071
  N  N613  1  0.549900  0.922400  0.948930  1.0  -0.3265
  N  N614  1  0.569700  0.143800  0.038190  1.0  -0.4826
  N  N615  1  0.611200  0.137200  0.084580  1.0  -0.4777
  N  N616  1  0.602800  0.995200  0.055010  1.0  -0.5115
  N  N617  1  0.545800  0.475200  0.080850  1.0  -0.3027
  N  N618  1  0.693700  0.880900  0.145100  1.0  -0.3109
  N  N619  1  0.771900  0.122000  0.713380  1.0  -0.3274
  N  N620  1  0.824100  0.007900  0.816720  1.0  -0.4821
  N  N621  1  0.784100  0.970800  0.863000  1.0  -0.4803
  N  N622  1  0.741200  0.010100  0.818660  1.0  -0.5043
  N  N623  1  0.954000  0.929400  0.889880  1.0  -0.2961
  N  N624  1  0.613500  0.927400  0.890160  1.0  -0.3067
  N  N625  1  0.049900  0.577600  0.051070  1.0  -0.3247
  N  N626  1  0.069700  0.356200  0.961810  1.0  -0.4822
  N  N627  1  0.111200  0.362800  0.915420  1.0  -0.4856
  N  N628  1  0.102800  0.504800  0.944990  1.0  -0.5025
  N  N629  1  0.045800  0.024800  0.919150  1.0  -0.3019
  N  N630  1  0.193700  0.619100  0.854900  1.0  -0.3117
  N  N631  1  0.271900  0.378000  0.286620  1.0  -0.3271
  N  N632  1  0.324100  0.492100  0.183280  1.0  -0.4762
  N  N633  1  0.284100  0.529200  0.137000  1.0  -0.4793
  N  N634  1  0.241200  0.489900  0.181340  1.0  -0.5016
  N  N635  1  0.454000  0.570600  0.110120  1.0  -0.2957
  N  N636  1  0.113500  0.572600  0.109840  1.0  -0.3036
  N  N637  1  0.450100  0.422400  0.551070  1.0  -0.3245
  N  N638  1  0.430300  0.643800  0.461810  1.0  -0.4668
  N  N639  1  0.388800  0.637200  0.415420  1.0  -0.4853
  N  N640  1  0.397200  0.495200  0.444990  1.0  -0.5117
  N  N641  1  0.454200  0.975200  0.419150  1.0  -0.3024
  N  N642  1  0.306300  0.380900  0.354900  1.0  -0.3147
  N  N643  1  0.228100  0.622000  0.786620  1.0  -0.3279
  N  N644  1  0.175900  0.507900  0.683280  1.0  -0.4842
  N  N645  1  0.215900  0.470800  0.637000  1.0  -0.4814
  N  N646  1  0.258800  0.510100  0.681340  1.0  -0.502
  N  N647  1  0.046000  0.429400  0.610120  1.0  -0.2988
  N  N648  1  0.386500  0.427400  0.609840  1.0  -0.3064
