# generated using pymatgen
data_ZnH8C12(IN2)2
_symmetry_space_group_name_H-M   'P 1'
_cell_length_a   27.86500000
_cell_length_b   13.71170000
_cell_length_c   45.65000000
_cell_angle_alpha   90.00000000
_cell_angle_beta   90.00000000
_cell_angle_gamma   90.00000000
_symmetry_Int_Tables_number   1
_chemical_formula_structural   ZnH8C12(IN2)2
_chemical_formula_sum   'Zn24 H192 C288 I48 N96'
_cell_volume   17441.79316083
_cell_formula_units_Z   24
loop_
 _symmetry_equiv_pos_site_id
 _symmetry_equiv_pos_as_xyz
  1  'x, y, z'
loop_
 _atom_site_type_symbol
 _atom_site_label
 _atom_site_symmetry_multiplicity
 _atom_site_fract_x
 _atom_site_fract_y
 _atom_site_fract_z
 _atom_site_occupancy
 _atom_site_charge
  Zn  Zn1  1  0.056780  0.837350  0.572890  1.0  0.8801
  Zn  Zn2  1  0.242510  0.850010  0.312450  1.0  0.8996
  Zn  Zn3  1  0.026280  0.643090  0.414300  1.0  0.8175
  Zn  Zn4  1  0.443220  0.162650  0.072890  1.0  0.8797
  Zn  Zn5  1  0.257490  0.149990  0.812450  1.0  0.8977
  Zn  Zn6  1  0.473720  0.356910  0.914300  1.0  0.817
  Zn  Zn7  1  0.943220  0.337350  0.927110  1.0  0.8795
  Zn  Zn8  1  0.757490  0.350010  0.187550  1.0  0.9002
  Zn  Zn9  1  0.973720  0.143090  0.085700  1.0  0.8172
  Zn  Zn10  1  0.556780  0.662650  0.427110  1.0  0.8792
  Zn  Zn11  1  0.742510  0.649990  0.687550  1.0  0.8969
  Zn  Zn12  1  0.526280  0.856910  0.585700  1.0  0.8169
  Zn  Zn13  1  0.943220  0.162650  0.427110  1.0  0.8799
  Zn  Zn14  1  0.757490  0.149990  0.687550  1.0  0.8977
  Zn  Zn15  1  0.973720  0.356910  0.585700  1.0  0.8166
  Zn  Zn16  1  0.556780  0.837350  0.927110  1.0  0.8792
  Zn  Zn17  1  0.742510  0.850010  0.187550  1.0  0.8995
  Zn  Zn18  1  0.526280  0.643090  0.085700  1.0  0.8177
  Zn  Zn19  1  0.056780  0.662650  0.072890  1.0  0.8792
  Zn  Zn20  1  0.242510  0.649990  0.812450  1.0  0.8969
  Zn  Zn21  1  0.026280  0.856910  0.914300  1.0  0.8172
  Zn  Zn22  1  0.443220  0.337350  0.572890  1.0  0.8801
  Zn  Zn23  1  0.257490  0.350010  0.312450  1.0  0.9003
  Zn  Zn24  1  0.473720  0.143090  0.414300  1.0  0.8171
  H  H25  1  0.037600  0.034400  0.546900  1.0  0.0642
  H  H26  1  0.056500  0.127600  0.506200  1.0  0.1187
  H  H27  1  0.123700  0.892500  0.472500  1.0  0.1122
  H  H28  1  0.100700  0.804300  0.513500  1.0  0.0887
  H  H29  1  0.060900  0.334300  0.469700  1.0  0.1195
  H  H30  1  0.032600  0.493200  0.461900  1.0  0.085
  H  H31  1  0.086600  0.496600  0.382600  1.0  0.0824
  H  H32  1  0.117700  0.339900  0.388300  1.0  0.1168
  H  H33  1  0.185900  0.148300  0.365600  1.0  0.1065
  H  H34  1  0.220100  0.062700  0.328000  1.0  0.0868
  H  H35  1  0.183000  0.813300  0.364100  1.0  0.091
  H  H36  1  0.148200  0.896700  0.403500  1.0  0.1111
  H  H37  1  0.336000  0.079300  0.773700  1.0  0.0752
  H  H38  1  0.347600  0.022300  0.726300  1.0  0.1148
  H  H39  1  0.204600  0.984900  0.720200  1.0  0.111
  H  H40  1  0.196900  0.043400  0.768300  1.0  0.0978
  H  H41  1  0.415200  0.943800  0.668800  1.0  0.1115
  H  H42  1  0.488000  0.917300  0.644700  1.0  0.0798
  H  H43  1  0.422500  0.875200  0.569800  1.0  0.077
  H  H44  1  0.347800  0.899400  0.591400  1.0  0.1167
  H  H45  1  0.234100  0.877600  0.587900  1.0  0.1178
  H  H46  1  0.163000  0.844700  0.563400  1.0  0.0856
  H  H47  1  0.085800  0.923900  0.631100  1.0  0.0941
  H  H48  1  0.153600  0.950700  0.659100  1.0  0.1131
  H  H49  1  0.462400  0.965600  0.046900  1.0  0.0644
  H  H50  1  0.443500  0.872400  0.006200  1.0  0.118
  H  H51  1  0.376300  0.107500  0.972500  1.0  0.1126
  H  H52  1  0.399300  0.195700  0.013500  1.0  0.0889
  H  H53  1  0.439100  0.665700  0.969700  1.0  0.1198
  H  H54  1  0.467400  0.506800  0.961900  1.0  0.0849
  H  H55  1  0.413400  0.503400  0.882600  1.0  0.0823
  H  H56  1  0.382300  0.660100  0.888300  1.0  0.1165
  H  H57  1  0.314100  0.851700  0.865600  1.0  0.1064
  H  H58  1  0.279900  0.937300  0.828000  1.0  0.0869
  H  H59  1  0.317000  0.186700  0.864100  1.0  0.0905
  H  H60  1  0.351800  0.103300  0.903500  1.0  0.1111
  H  H61  1  0.164000  0.920700  0.273700  1.0  0.0757
  H  H62  1  0.152400  0.977700  0.226300  1.0  0.1147
  H  H63  1  0.295400  0.015100  0.220200  1.0  0.1111
  H  H64  1  0.303100  0.956600  0.268300  1.0  0.0974
  H  H65  1  0.084800  0.056200  0.168800  1.0  0.1118
  H  H66  1  0.012000  0.082700  0.144700  1.0  0.0798
  H  H67  1  0.077500  0.124800  0.069800  1.0  0.0771
  H  H68  1  0.152200  0.100600  0.091400  1.0  0.1167
  H  H69  1  0.265900  0.122400  0.087900  1.0  0.1184
  H  H70  1  0.337000  0.155300  0.063400  1.0  0.0851
  H  H71  1  0.414200  0.076100  0.131100  1.0  0.0929
  H  H72  1  0.346400  0.049300  0.159100  1.0  0.1129
  H  H73  1  0.962400  0.534400  0.953100  1.0  0.0639
  H  H74  1  0.943500  0.627600  0.993800  1.0  0.1178
  H  H75  1  0.876300  0.392500  0.027500  1.0  0.1125
  H  H76  1  0.899300  0.304300  0.986500  1.0  0.0883
  H  H77  1  0.939100  0.834300  0.030300  1.0  0.1203
  H  H78  1  0.967400  0.993200  0.038100  1.0  0.0836
  H  H79  1  0.913400  0.996600  0.117400  1.0  0.0829
  H  H80  1  0.882300  0.839900  0.111700  1.0  0.1171
  H  H81  1  0.814100  0.648300  0.134400  1.0  0.1066
  H  H82  1  0.779900  0.562700  0.172000  1.0  0.0868
  H  H83  1  0.817000  0.313300  0.135900  1.0  0.0911
  H  H84  1  0.851800  0.396700  0.096500  1.0  0.111
  H  H85  1  0.664000  0.579300  0.726300  1.0  0.0757
  H  H86  1  0.652400  0.522300  0.773700  1.0  0.1146
  H  H87  1  0.795400  0.484900  0.779800  1.0  0.1111
  H  H88  1  0.803100  0.543400  0.731700  1.0  0.0974
  H  H89  1  0.584800  0.443800  0.831200  1.0  0.1116
  H  H90  1  0.512000  0.417300  0.855300  1.0  0.0794
  H  H91  1  0.577500  0.375200  0.930200  1.0  0.0777
  H  H92  1  0.652200  0.399400  0.908600  1.0  0.1171
  H  H93  1  0.765900  0.377600  0.912100  1.0  0.1184
  H  H94  1  0.837000  0.344700  0.936600  1.0  0.0864
  H  H95  1  0.914200  0.423900  0.868900  1.0  0.0934
  H  H96  1  0.846400  0.450700  0.840900  1.0  0.1133
  H  H97  1  0.537600  0.465600  0.453100  1.0  0.0646
  H  H98  1  0.556500  0.372400  0.493800  1.0  0.1189
  H  H99  1  0.623700  0.607500  0.527500  1.0  0.112
  H  H100  1  0.600700  0.695700  0.486500  1.0  0.0886
  H  H101  1  0.560900  0.165700  0.530300  1.0  0.1197
  H  H102  1  0.532600  0.006800  0.538100  1.0  0.0843
  H  H103  1  0.586600  0.003400  0.617400  1.0  0.0826
  H  H104  1  0.617700  0.160100  0.611700  1.0  0.1171
  H  H105  1  0.685900  0.351700  0.634400  1.0  0.1065
  H  H106  1  0.720100  0.437300  0.672000  1.0  0.0868
  H  H107  1  0.683000  0.686700  0.635900  1.0  0.0905
  H  H108  1  0.648200  0.603300  0.596500  1.0  0.1112
  H  H109  1  0.836000  0.420700  0.226300  1.0  0.0752
  H  H110  1  0.847600  0.477700  0.273700  1.0  0.1148
  H  H111  1  0.704600  0.515100  0.279800  1.0  0.1107
  H  H112  1  0.696900  0.456600  0.231700  1.0  0.0976
  H  H113  1  0.915200  0.556200  0.331200  1.0  0.1117
  H  H114  1  0.988000  0.582700  0.355300  1.0  0.0796
  H  H115  1  0.922500  0.624800  0.430200  1.0  0.0777
  H  H116  1  0.847800  0.600600  0.408600  1.0  0.1169
  H  H117  1  0.734100  0.622400  0.412100  1.0  0.1178
  H  H118  1  0.663000  0.655300  0.436600  1.0  0.086
  H  H119  1  0.585800  0.576100  0.368900  1.0  0.0936
  H  H120  1  0.653600  0.549300  0.340900  1.0  0.1131
  H  H121  1  0.962400  0.965600  0.453100  1.0  0.0647
  H  H122  1  0.943500  0.872400  0.493800  1.0  0.1183
  H  H123  1  0.876300  0.107500  0.527500  1.0  0.1124
  H  H124  1  0.899300  0.195700  0.486500  1.0  0.0889
  H  H125  1  0.939100  0.665700  0.530300  1.0  0.12
  H  H126  1  0.967400  0.506800  0.538100  1.0  0.084
  H  H127  1  0.913400  0.503400  0.617400  1.0  0.083
  H  H128  1  0.882300  0.660100  0.611700  1.0  0.117
  H  H129  1  0.814100  0.851700  0.634400  1.0  0.1066
  H  H130  1  0.779900  0.937300  0.672000  1.0  0.0871
  H  H131  1  0.817000  0.186700  0.635900  1.0  0.0905
  H  H132  1  0.851800  0.103300  0.596500  1.0  0.1112
  H  H133  1  0.664000  0.920700  0.226300  1.0  0.0754
  H  H134  1  0.652400  0.977700  0.273700  1.0  0.1146
  H  H135  1  0.795400  0.015100  0.279800  1.0  0.111
  H  H136  1  0.803100  0.956600  0.231700  1.0  0.0973
  H  H137  1  0.584800  0.056200  0.331200  1.0  0.1115
  H  H138  1  0.512000  0.082700  0.355300  1.0  0.0792
  H  H139  1  0.577500  0.124800  0.430200  1.0  0.0775
  H  H140  1  0.652200  0.100600  0.408600  1.0  0.1169
  H  H141  1  0.765900  0.122400  0.412100  1.0  0.1183
  H  H142  1  0.837000  0.155300  0.436600  1.0  0.0855
  H  H143  1  0.914200  0.076100  0.368900  1.0  0.0934
  H  H144  1  0.846400  0.049300  0.340900  1.0  0.1132
  H  H145  1  0.537600  0.034400  0.953100  1.0  0.0642
  H  H146  1  0.556500  0.127600  0.993800  1.0  0.1188
  H  H147  1  0.623700  0.892500  0.027500  1.0  0.1118
  H  H148  1  0.600700  0.804300  0.986500  1.0  0.0887
  H  H149  1  0.560900  0.334300  0.030300  1.0  0.12
  H  H150  1  0.532600  0.493200  0.038100  1.0  0.084
  H  H151  1  0.586600  0.496600  0.117400  1.0  0.0828
  H  H152  1  0.617700  0.339900  0.111700  1.0  0.1171
  H  H153  1  0.685900  0.148300  0.134400  1.0  0.1064
  H  H154  1  0.720100  0.062700  0.172000  1.0  0.0867
  H  H155  1  0.683000  0.813300  0.135900  1.0  0.091
  H  H156  1  0.648200  0.896700  0.096500  1.0  0.1109
  H  H157  1  0.836000  0.079300  0.726300  1.0  0.0756
  H  H158  1  0.847600  0.022300  0.773700  1.0  0.1148
  H  H159  1  0.704600  0.984900  0.779800  1.0  0.1108
  H  H160  1  0.696900  0.043400  0.731700  1.0  0.0977
  H  H161  1  0.915200  0.943800  0.831200  1.0  0.1119
  H  H162  1  0.988000  0.917300  0.855300  1.0  0.0798
  H  H163  1  0.922500  0.875200  0.930200  1.0  0.078
  H  H164  1  0.847800  0.899400  0.908600  1.0  0.117
  H  H165  1  0.734100  0.877600  0.912100  1.0  0.118
  H  H166  1  0.663000  0.844700  0.936600  1.0  0.0858
  H  H167  1  0.585800  0.923900  0.868900  1.0  0.0936
  H  H168  1  0.653600  0.950700  0.840900  1.0  0.113
  H  H169  1  0.037600  0.465600  0.046900  1.0  0.0646
  H  H170  1  0.056500  0.372400  0.006200  1.0  0.1185
  H  H171  1  0.123700  0.607500  0.972500  1.0  0.1126
  H  H172  1  0.100700  0.695700  0.013500  1.0  0.0888
  H  H173  1  0.060900  0.165700  0.969700  1.0  0.1195
  H  H174  1  0.032600  0.006800  0.961900  1.0  0.0853
  H  H175  1  0.086600  0.003400  0.882600  1.0  0.0824
  H  H176  1  0.117700  0.160100  0.888300  1.0  0.1166
  H  H177  1  0.185900  0.351700  0.865600  1.0  0.1064
  H  H178  1  0.220100  0.437300  0.828000  1.0  0.0866
  H  H179  1  0.183000  0.686700  0.864100  1.0  0.0904
  H  H180  1  0.148200  0.603300  0.903500  1.0  0.1111
  H  H181  1  0.336000  0.420700  0.273700  1.0  0.0753
  H  H182  1  0.347600  0.477700  0.226300  1.0  0.1148
  H  H183  1  0.204600  0.515100  0.220200  1.0  0.111
  H  H184  1  0.196900  0.456600  0.268300  1.0  0.0979
  H  H185  1  0.415200  0.556200  0.168800  1.0  0.1116
  H  H186  1  0.488000  0.582700  0.144700  1.0  0.0798
  H  H187  1  0.422500  0.624800  0.069800  1.0  0.0769
  H  H188  1  0.347800  0.600600  0.091400  1.0  0.1167
  H  H189  1  0.234100  0.622400  0.087900  1.0  0.1178
  H  H190  1  0.163000  0.655300  0.063400  1.0  0.0858
  H  H191  1  0.085800  0.576100  0.131100  1.0  0.0942
  H  H192  1  0.153600  0.549300  0.159100  1.0  0.1134
  H  H193  1  0.462400  0.534400  0.546900  1.0  0.0639
  H  H194  1  0.443500  0.627600  0.506200  1.0  0.1177
  H  H195  1  0.376300  0.392500  0.472500  1.0  0.1121
  H  H196  1  0.399300  0.304300  0.513500  1.0  0.0885
  H  H197  1  0.439100  0.834300  0.469700  1.0  0.1198
  H  H198  1  0.467400  0.993200  0.461900  1.0  0.0846
  H  H199  1  0.413400  0.996600  0.382600  1.0  0.0821
  H  H200  1  0.382300  0.839900  0.388300  1.0  0.1167
  H  H201  1  0.314100  0.648300  0.365600  1.0  0.1066
  H  H202  1  0.279900  0.562700  0.328000  1.0  0.0869
  H  H203  1  0.317000  0.313300  0.364100  1.0  0.0912
  H  H204  1  0.351800  0.396700  0.403500  1.0  0.1113
  H  H205  1  0.164000  0.579300  0.773700  1.0  0.0755
  H  H206  1  0.152400  0.522300  0.726300  1.0  0.1147
  H  H207  1  0.295400  0.484900  0.720200  1.0  0.111
  H  H208  1  0.303100  0.543400  0.768300  1.0  0.0974
  H  H209  1  0.084800  0.443800  0.668800  1.0  0.1117
  H  H210  1  0.012000  0.417300  0.644700  1.0  0.0798
  H  H211  1  0.077500  0.375200  0.569800  1.0  0.0772
  H  H212  1  0.152200  0.399400  0.591400  1.0  0.1166
  H  H213  1  0.265900  0.377600  0.587900  1.0  0.1183
  H  H214  1  0.337000  0.344700  0.563400  1.0  0.0856
  H  H215  1  0.414200  0.423900  0.631100  1.0  0.0931
  H  H216  1  0.346400  0.450700  0.659100  1.0  0.1128
  C  C217  1  0.055300  0.005100  0.531500  1.0  0.1322
  C  C218  1  0.066800  0.061700  0.507400  1.0  -0.1626
  C  C219  1  0.093700  0.020500  0.485200  1.0  -0.0553
  C  C220  1  0.105900  0.923400  0.487600  1.0  -0.1263
  C  C221  1  0.092200  0.871200  0.512200  1.0  0.1283
  C  C222  1  0.108000  0.077900  0.459000  1.0  0.3691
  C  C223  1  0.108300  0.217900  0.433400  1.0  0.3741
  C  C224  1  0.141100  0.083200  0.413800  1.0  0.3785
  C  C225  1  0.092400  0.322200  0.429800  1.0  -0.0969
  C  C226  1  0.066900  0.366700  0.451700  1.0  -0.1233
  C  C227  1  0.049800  0.461200  0.446700  1.0  0.1271
  C  C228  1  0.081500  0.463200  0.400500  1.0  0.1457
  C  C229  1  0.100100  0.369900  0.403700  1.0  -0.134
  C  C230  1  0.163400  0.031300  0.389000  1.0  -0.0624
  C  C231  1  0.185100  0.079000  0.366000  1.0  -0.1181
  C  C232  1  0.205500  0.027800  0.343700  1.0  0.1398
  C  C233  1  0.184200  0.882500  0.364500  1.0  0.1166
  C  C234  1  0.163000  0.932500  0.388100  1.0  -0.0851
  C  C235  1  0.308700  0.061600  0.762500  1.0  0.1489
  C  C236  1  0.316100  0.027400  0.734200  1.0  -0.1564
  C  C237  1  0.276600  0.001300  0.718200  1.0  -0.105
  C  C238  1  0.232100  0.005600  0.730800  1.0  -0.0881
  C  C239  1  0.227700  0.040700  0.759400  1.0  0.1127
  C  C240  1  0.281300  0.970300  0.686700  1.0  0.35
  C  C241  1  0.326500  0.935800  0.647100  1.0  0.372
  C  C242  1  0.245100  0.932900  0.643960  1.0  0.3984
  C  C243  1  0.373600  0.923500  0.632800  1.0  -0.095
  C  C244  1  0.415600  0.929200  0.648400  1.0  -0.148
  C  C245  1  0.459000  0.913300  0.633800  1.0  0.134
  C  C246  1  0.421000  0.888600  0.590200  1.0  0.1265
  C  C247  1  0.376200  0.903200  0.602900  1.0  -0.1549
  C  C248  1  0.201700  0.916100  0.626700  1.0  -0.1274
  C  C249  1  0.204100  0.885400  0.597500  1.0  -0.1589
  C  C250  1  0.161500  0.867000  0.583100  1.0  0.1418
  C  C251  1  0.116400  0.911900  0.622700  1.0  0.1206
  C  C252  1  0.156500  0.929600  0.639300  1.0  -0.1535
  C  C253  1  0.444700  0.994900  0.031500  1.0  0.1328
  C  C254  1  0.433200  0.938300  0.007400  1.0  -0.1613
  C  C255  1  0.406300  0.979500  0.985200  1.0  -0.0552
  C  C256  1  0.394100  0.076600  0.987600  1.0  -0.1265
  C  C257  1  0.407800  0.128800  0.012200  1.0  0.1286
  C  C258  1  0.392000  0.922100  0.959000  1.0  0.3698
  C  C259  1  0.391700  0.782100  0.933400  1.0  0.3753
  C  C260  1  0.358900  0.916800  0.913800  1.0  0.3791
  C  C261  1  0.407600  0.677800  0.929800  1.0  -0.0973
  C  C262  1  0.433100  0.633300  0.951700  1.0  -0.1227
  C  C263  1  0.450200  0.538800  0.946700  1.0  0.1281
  C  C264  1  0.418500  0.536800  0.900500  1.0  0.1458
  C  C265  1  0.399900  0.630100  0.903700  1.0  -0.1349
  C  C266  1  0.336600  0.968700  0.889000  1.0  -0.0627
  C  C267  1  0.314900  0.921000  0.866000  1.0  -0.1147
  C  C268  1  0.294500  0.972200  0.843700  1.0  0.1398
  C  C269  1  0.315800  0.117500  0.864500  1.0  0.1166
  C  C270  1  0.337000  0.067500  0.888100  1.0  -0.0865
  C  C271  1  0.191300  0.938400  0.262500  1.0  0.1492
  C  C272  1  0.183900  0.972600  0.234200  1.0  -0.157
  C  C273  1  0.223400  0.998700  0.218200  1.0  -0.1052
  C  C274  1  0.267900  0.994400  0.230800  1.0  -0.0877
  C  C275  1  0.272300  0.959300  0.259400  1.0  0.1132
  C  C276  1  0.218700  0.029700  0.186700  1.0  0.35
  C  C277  1  0.173500  0.064200  0.147100  1.0  0.3718
  C  C278  1  0.254900  0.067100  0.143960  1.0  0.3982
  C  C279  1  0.126400  0.076500  0.132800  1.0  -0.0959
  C  C280  1  0.084400  0.070800  0.148400  1.0  -0.1485
  C  C281  1  0.041000  0.086700  0.133800  1.0  0.1342
  C  C282  1  0.079000  0.111400  0.090200  1.0  0.1261
  C  C283  1  0.123800  0.096800  0.102900  1.0  -0.1553
  C  C284  1  0.298300  0.083900  0.126700  1.0  -0.1278
  C  C285  1  0.295900  0.114600  0.097500  1.0  -0.1594
  C  C286  1  0.338500  0.133000  0.083100  1.0  0.1419
  C  C287  1  0.383600  0.088100  0.122700  1.0  0.1201
  C  C288  1  0.343500  0.070400  0.139300  1.0  -0.1525
  C  C289  1  0.944700  0.505100  0.968500  1.0  0.1328
  C  C290  1  0.933200  0.561700  0.992600  1.0  -0.1619
  C  C291  1  0.906300  0.520500  0.014800  1.0  -0.0547
  C  C292  1  0.894100  0.423400  0.012400  1.0  -0.1265
  C  C293  1  0.907800  0.371200  0.987800  1.0  0.1276
  C  C294  1  0.892000  0.577900  0.041000  1.0  0.3697
  C  C295  1  0.891700  0.717900  0.066600  1.0  0.375
  C  C296  1  0.858900  0.583200  0.086200  1.0  0.3794
  C  C297  1  0.907600  0.822200  0.070200  1.0  -0.0977
  C  C298  1  0.933100  0.866700  0.048300  1.0  -0.124
  C  C299  1  0.950200  0.961200  0.053300  1.0  0.1278
  C  C300  1  0.918500  0.963200  0.099500  1.0  0.1454
  C  C301  1  0.899900  0.869900  0.096300  1.0  -0.1352
  C  C302  1  0.836600  0.531300  0.111000  1.0  -0.0625
  C  C303  1  0.814900  0.579000  0.134000  1.0  -0.118
  C  C304  1  0.794500  0.527800  0.156300  1.0  0.1388
  C  C305  1  0.815800  0.382500  0.135500  1.0  0.1156
  C  C306  1  0.837000  0.432500  0.111900  1.0  -0.0861
  C  C307  1  0.691300  0.561600  0.737500  1.0  0.1493
  C  C308  1  0.683900  0.527400  0.765800  1.0  -0.1578
  C  C309  1  0.723400  0.501300  0.781800  1.0  -0.1043
  C  C310  1  0.767900  0.505600  0.769200  1.0  -0.0877
  C  C311  1  0.772300  0.540700  0.740600  1.0  0.1123
  C  C312  1  0.718700  0.470300  0.813300  1.0  0.3497
  C  C313  1  0.673500  0.435800  0.852900  1.0  0.3717
  C  C314  1  0.754900  0.432900  0.856040  1.0  0.3982
  C  C315  1  0.626400  0.423500  0.867200  1.0  -0.0959
  C  C316  1  0.584400  0.429200  0.851600  1.0  -0.1467
  C  C317  1  0.541000  0.413300  0.866200  1.0  0.1341
  C  C318  1  0.579000  0.388600  0.909800  1.0  0.1246
  C  C319  1  0.623800  0.403200  0.897100  1.0  -0.1539
  C  C320  1  0.798300  0.416100  0.873300  1.0  -0.1278
  C  C321  1  0.795900  0.385400  0.902500  1.0  -0.1602
  C  C322  1  0.838500  0.367000  0.916900  1.0  0.1421
  C  C323  1  0.883600  0.411900  0.877300  1.0  0.1195
  C  C324  1  0.843500  0.429600  0.860700  1.0  -0.1545
  C  C325  1  0.555300  0.494900  0.468500  1.0  0.1328
  C  C326  1  0.566800  0.438300  0.492600  1.0  -0.162
  C  C327  1  0.593700  0.479500  0.514800  1.0  -0.0562
  C  C328  1  0.605900  0.576600  0.512400  1.0  -0.1281
  C  C329  1  0.592200  0.628800  0.487800  1.0  0.1294
  C  C330  1  0.608000  0.422100  0.541000  1.0  0.3694
  C  C331  1  0.608300  0.282100  0.566600  1.0  0.375
  C  C332  1  0.641100  0.416800  0.586200  1.0  0.3789
  C  C333  1  0.592400  0.177800  0.570200  1.0  -0.0978
  C  C334  1  0.566900  0.133300  0.548300  1.0  -0.1233
  C  C335  1  0.549800  0.038800  0.553300  1.0  0.1266
  C  C336  1  0.581500  0.036800  0.599500  1.0  0.1472
  C  C337  1  0.600100  0.130100  0.596300  1.0  -0.134
  C  C338  1  0.663400  0.468700  0.611000  1.0  -0.063
  C  C339  1  0.685100  0.421000  0.634000  1.0  -0.1155
  C  C340  1  0.705500  0.472200  0.656300  1.0  0.139
  C  C341  1  0.684200  0.617500  0.635500  1.0  0.1171
  C  C342  1  0.663000  0.567500  0.611900  1.0  -0.0862
  C  C343  1  0.808700  0.438400  0.237500  1.0  0.149
  C  C344  1  0.816100  0.472600  0.265800  1.0  -0.1565
  C  C345  1  0.776600  0.498700  0.281800  1.0  -0.1048
  C  C346  1  0.732100  0.494400  0.269200  1.0  -0.0886
  C  C347  1  0.727700  0.459300  0.240600  1.0  0.1123
  C  C348  1  0.781300  0.529700  0.313300  1.0  0.3496
  C  C349  1  0.826500  0.564200  0.352900  1.0  0.3721
  C  C350  1  0.745100  0.567100  0.356040  1.0  0.3984
  C  C351  1  0.873600  0.576500  0.367200  1.0  -0.0953
  C  C352  1  0.915600  0.570800  0.351600  1.0  -0.1471
  C  C353  1  0.959000  0.586700  0.366200  1.0  0.1338
  C  C354  1  0.921000  0.611400  0.409800  1.0  0.124
  C  C355  1  0.876200  0.596800  0.397100  1.0  -0.156
  C  C356  1  0.701700  0.583900  0.373300  1.0  -0.1273
  C  C357  1  0.704100  0.614600  0.402500  1.0  -0.1582
  C  C358  1  0.661500  0.633000  0.416900  1.0  0.1412
  C  C359  1  0.616400  0.588100  0.377300  1.0  0.1201
  C  C360  1  0.656500  0.570400  0.360700  1.0  -0.1528
  C  C361  1  0.944700  0.994900  0.468500  1.0  0.133
  C  C362  1  0.933200  0.938300  0.492600  1.0  -0.1614
  C  C363  1  0.906300  0.979500  0.514800  1.0  -0.0549
  C  C364  1  0.894100  0.076600  0.512400  1.0  -0.1277
  C  C365  1  0.907800  0.128800  0.487800  1.0  0.1288
  C  C366  1  0.892000  0.922100  0.541000  1.0  0.3699
  C  C367  1  0.891700  0.782100  0.566600  1.0  0.3755
  C  C368  1  0.858900  0.916800  0.586200  1.0  0.3795
  C  C369  1  0.907600  0.677800  0.570200  1.0  -0.0974
  C  C370  1  0.933100  0.633300  0.548300  1.0  -0.1232
  C  C371  1  0.950200  0.538800  0.553300  1.0  0.1272
  C  C372  1  0.918500  0.536800  0.599500  1.0  0.1465
  C  C373  1  0.899900  0.630100  0.596300  1.0  -0.1357
  C  C374  1  0.836600  0.968700  0.611000  1.0  -0.0628
  C  C375  1  0.814900  0.921000  0.634000  1.0  -0.1146
  C  C376  1  0.794500  0.972200  0.656300  1.0  0.1393
  C  C377  1  0.815800  0.117500  0.635500  1.0  0.1167
  C  C378  1  0.837000  0.067500  0.611900  1.0  -0.0862
  C  C379  1  0.691300  0.938400  0.237500  1.0  0.1491
  C  C380  1  0.683900  0.972600  0.265800  1.0  -0.1578
  C  C381  1  0.723400  0.998700  0.281800  1.0  -0.1048
  C  C382  1  0.767900  0.994400  0.269200  1.0  -0.0878
  C  C383  1  0.772300  0.959300  0.240600  1.0  0.1127
  C  C384  1  0.718700  0.029700  0.313300  1.0  0.3497
  C  C385  1  0.673500  0.064200  0.352900  1.0  0.3718
  C  C386  1  0.754900  0.067100  0.356040  1.0  0.3983
  C  C387  1  0.626400  0.076500  0.367200  1.0  -0.096
  C  C388  1  0.584400  0.070800  0.351600  1.0  -0.1468
  C  C389  1  0.541000  0.086700  0.366200  1.0  0.1342
  C  C390  1  0.579000  0.111400  0.409800  1.0  0.1238
  C  C391  1  0.623800  0.096800  0.397100  1.0  -0.1543
  C  C392  1  0.798300  0.083900  0.373300  1.0  -0.1279
  C  C393  1  0.795900  0.114600  0.402500  1.0  -0.16
  C  C394  1  0.838500  0.133000  0.416900  1.0  0.1412
  C  C395  1  0.883600  0.088100  0.377300  1.0  0.1191
  C  C396  1  0.843500  0.070400  0.360700  1.0  -0.1535
  C  C397  1  0.555300  0.005100  0.968500  1.0  0.133
  C  C398  1  0.566800  0.061700  0.992600  1.0  -0.1624
  C  C399  1  0.593700  0.020500  0.014800  1.0  -0.0564
  C  C400  1  0.605900  0.923400  0.012400  1.0  -0.1266
  C  C401  1  0.592200  0.871200  0.987800  1.0  0.1286
  C  C402  1  0.608000  0.077900  0.041000  1.0  0.3692
  C  C403  1  0.608300  0.217900  0.066600  1.0  0.3741
  C  C404  1  0.641100  0.083200  0.086200  1.0  0.3789
  C  C405  1  0.592400  0.322200  0.070200  1.0  -0.0971
  C  C406  1  0.566900  0.366700  0.048300  1.0  -0.124
  C  C407  1  0.549800  0.461200  0.053300  1.0  0.1274
  C  C408  1  0.581500  0.463200  0.099500  1.0  0.1466
  C  C409  1  0.600100  0.369900  0.096300  1.0  -0.1335
  C  C410  1  0.663400  0.031300  0.111000  1.0  -0.0624
  C  C411  1  0.685100  0.079000  0.134000  1.0  -0.1183
  C  C412  1  0.705500  0.027800  0.156300  1.0  0.1388
  C  C413  1  0.684200  0.882500  0.135500  1.0  0.1163
  C  C414  1  0.663000  0.932500  0.111900  1.0  -0.086
  C  C415  1  0.808700  0.061600  0.737500  1.0  0.1492
  C  C416  1  0.816100  0.027400  0.765800  1.0  -0.1566
  C  C417  1  0.776600  0.001300  0.781800  1.0  -0.1042
  C  C418  1  0.732100  0.005600  0.769200  1.0  -0.0885
  C  C419  1  0.727700  0.040700  0.740600  1.0  0.1119
  C  C420  1  0.781300  0.970300  0.813300  1.0  0.3497
  C  C421  1  0.826500  0.935800  0.852900  1.0  0.3721
  C  C422  1  0.745100  0.932900  0.856040  1.0  0.3983
  C  C423  1  0.873600  0.923500  0.867200  1.0  -0.0952
  C  C424  1  0.915600  0.929200  0.851600  1.0  -0.147
  C  C425  1  0.959000  0.913300  0.866200  1.0  0.1336
  C  C426  1  0.921000  0.888600  0.909800  1.0  0.1249
  C  C427  1  0.876200  0.903200  0.897100  1.0  -0.1553
  C  C428  1  0.701700  0.916100  0.873300  1.0  -0.1273
  C  C429  1  0.704100  0.885400  0.902500  1.0  -0.1585
  C  C430  1  0.661500  0.867000  0.916900  1.0  0.1419
  C  C431  1  0.616400  0.911900  0.877300  1.0  0.1207
  C  C432  1  0.656500  0.929600  0.860700  1.0  -0.1536
  C  C433  1  0.055300  0.494900  0.031500  1.0  0.1323
  C  C434  1  0.066800  0.438300  0.007400  1.0  -0.1625
  C  C435  1  0.093700  0.479500  0.985200  1.0  -0.0552
  C  C436  1  0.105900  0.576600  0.987600  1.0  -0.1269
  C  C437  1  0.092200  0.628800  0.012200  1.0  0.1293
  C  C438  1  0.108000  0.422100  0.959000  1.0  0.3692
  C  C439  1  0.108300  0.282100  0.933400  1.0  0.3748
  C  C440  1  0.141100  0.416800  0.913800  1.0  0.3786
  C  C441  1  0.092400  0.177800  0.929800  1.0  -0.0978
  C  C442  1  0.066900  0.133300  0.951700  1.0  -0.1231
  C  C443  1  0.049800  0.038800  0.946700  1.0  0.1273
  C  C444  1  0.081500  0.036800  0.900500  1.0  0.1453
  C  C445  1  0.100100  0.130100  0.903700  1.0  -0.1344
  C  C446  1  0.163400  0.468700  0.889000  1.0  -0.0626
  C  C447  1  0.185100  0.421000  0.866000  1.0  -0.1155
  C  C448  1  0.205500  0.472200  0.843700  1.0  0.1394
  C  C449  1  0.184200  0.617500  0.864500  1.0  0.117
  C  C450  1  0.163000  0.567500  0.888100  1.0  -0.0867
  C  C451  1  0.308700  0.438400  0.262500  1.0  0.1494
  C  C452  1  0.316100  0.472600  0.234200  1.0  -0.1562
  C  C453  1  0.276600  0.498700  0.218200  1.0  -0.1048
  C  C454  1  0.232100  0.494400  0.230800  1.0  -0.088
  C  C455  1  0.227700  0.459300  0.259400  1.0  0.1132
  C  C456  1  0.281300  0.529700  0.186700  1.0  0.35
  C  C457  1  0.326500  0.564200  0.147100  1.0  0.372
  C  C458  1  0.245100  0.567100  0.143960  1.0  0.3985
  C  C459  1  0.373600  0.576500  0.132800  1.0  -0.0951
  C  C460  1  0.415600  0.570800  0.148400  1.0  -0.1479
  C  C461  1  0.459000  0.586700  0.133800  1.0  0.1342
  C  C462  1  0.421000  0.611400  0.090200  1.0  0.1263
  C  C463  1  0.376200  0.596800  0.102900  1.0  -0.1552
  C  C464  1  0.201700  0.583900  0.126700  1.0  -0.1275
  C  C465  1  0.204100  0.614600  0.097500  1.0  -0.1588
  C  C466  1  0.161500  0.633000  0.083100  1.0  0.1424
  C  C467  1  0.116400  0.588100  0.122700  1.0  0.1204
  C  C468  1  0.156500  0.570400  0.139300  1.0  -0.1527
  C  C469  1  0.444700  0.505100  0.531500  1.0  0.1321
  C  C470  1  0.433200  0.561700  0.507400  1.0  -0.1617
  C  C471  1  0.406300  0.520500  0.485200  1.0  -0.0548
  C  C472  1  0.394100  0.423400  0.487600  1.0  -0.1262
  C  C473  1  0.407800  0.371200  0.512200  1.0  0.1271
  C  C474  1  0.392000  0.577900  0.459000  1.0  0.3696
  C  C475  1  0.391700  0.717900  0.433400  1.0  0.3751
  C  C476  1  0.358900  0.583200  0.413800  1.0  0.379
  C  C477  1  0.407600  0.822200  0.429800  1.0  -0.0974
  C  C478  1  0.433100  0.866700  0.451700  1.0  -0.1229
  C  C479  1  0.450200  0.961200  0.446700  1.0  0.1278
  C  C480  1  0.418500  0.963200  0.400500  1.0  0.1463
  C  C481  1  0.399900  0.869900  0.403700  1.0  -0.1347
  C  C482  1  0.336600  0.531300  0.389000  1.0  -0.0628
  C  C483  1  0.314900  0.579000  0.366000  1.0  -0.1178
  C  C484  1  0.294500  0.527800  0.343700  1.0  0.1401
  C  C485  1  0.315800  0.382500  0.364500  1.0  0.116
  C  C486  1  0.337000  0.432500  0.388100  1.0  -0.085
  C  C487  1  0.191300  0.561600  0.762500  1.0  0.1486
  C  C488  1  0.183900  0.527400  0.734200  1.0  -0.1571
  C  C489  1  0.223400  0.501300  0.718200  1.0  -0.1055
  C  C490  1  0.267900  0.505600  0.730800  1.0  -0.0877
  C  C491  1  0.272300  0.540700  0.759400  1.0  0.1127
  C  C492  1  0.218700  0.470300  0.686700  1.0  0.3501
  C  C493  1  0.173500  0.435800  0.647100  1.0  0.3717
  C  C494  1  0.254900  0.432900  0.643960  1.0  0.3982
  C  C495  1  0.126400  0.423500  0.632800  1.0  -0.0958
  C  C496  1  0.084400  0.429200  0.648400  1.0  -0.1487
  C  C497  1  0.041000  0.413300  0.633800  1.0  0.1342
  C  C498  1  0.079000  0.388600  0.590200  1.0  0.1263
  C  C499  1  0.123800  0.403200  0.602900  1.0  -0.1551
  C  C500  1  0.298300  0.416100  0.626700  1.0  -0.1277
  C  C501  1  0.295900  0.385400  0.597500  1.0  -0.1595
  C  C502  1  0.338500  0.367000  0.583100  1.0  0.1415
  C  C503  1  0.383600  0.411900  0.622700  1.0  0.1203
  C  C504  1  0.343500  0.429600  0.639300  1.0  -0.1531
  I  I505  1  0.988450  0.917990  0.600260  1.0  -0.364
  I  I506  1  0.071290  0.656100  0.563780  1.0  -0.3745
  I  I507  1  0.195860  0.691840  0.304490  1.0  -0.3649
  I  I508  1  0.330900  0.843460  0.326080  1.0  -0.31
  I  I509  1  0.073410  0.728800  0.374070  1.0  -0.3235
  I  I510  1  0.008990  0.719160  0.464230  1.0  -0.3974
  I  I511  1  0.511550  0.082010  0.100260  1.0  -0.3631
  I  I512  1  0.428710  0.343900  0.063780  1.0  -0.3733
  I  I513  1  0.304140  0.308160  0.804490  1.0  -0.3642
  I  I514  1  0.169100  0.156540  0.826080  1.0  -0.3102
  I  I515  1  0.426590  0.271200  0.874070  1.0  -0.3243
  I  I516  1  0.491010  0.280840  0.964230  1.0  -0.3979
  I  I517  1  0.011550  0.417990  0.899740  1.0  -0.3639
  I  I518  1  0.928710  0.156100  0.936220  1.0  -0.3733
  I  I519  1  0.804140  0.191840  0.195510  1.0  -0.3642
  I  I520  1  0.669100  0.343460  0.173920  1.0  -0.3109
  I  I521  1  0.926590  0.228800  0.125930  1.0  -0.3231
  I  I522  1  0.991010  0.219160  0.035770  1.0  -0.3975
  I  I523  1  0.488450  0.582010  0.399740  1.0  -0.3647
  I  I524  1  0.571290  0.843900  0.436220  1.0  -0.374
  I  I525  1  0.695860  0.808160  0.695510  1.0  -0.3645
  I  I526  1  0.830900  0.656540  0.673920  1.0  -0.3105
  I  I527  1  0.573410  0.771200  0.625930  1.0  -0.3234
  I  I528  1  0.508990  0.780840  0.535770  1.0  -0.3978
  I  I529  1  0.011550  0.082010  0.399740  1.0  -0.3639
  I  I530  1  0.928710  0.343900  0.436220  1.0  -0.3731
  I  I531  1  0.804140  0.308160  0.695510  1.0  -0.3642
  I  I532  1  0.669100  0.156540  0.673920  1.0  -0.3109
  I  I533  1  0.926590  0.271200  0.625930  1.0  -0.3234
  I  I534  1  0.991010  0.280840  0.535770  1.0  -0.398
  I  I535  1  0.488450  0.917990  0.899740  1.0  -0.3647
  I  I536  1  0.571290  0.656100  0.936220  1.0  -0.3742
  I  I537  1  0.695860  0.691840  0.195510  1.0  -0.3648
  I  I538  1  0.830900  0.843460  0.173920  1.0  -0.3105
  I  I539  1  0.573410  0.728800  0.125930  1.0  -0.3231
  I  I540  1  0.508990  0.719160  0.035770  1.0  -0.3973
  I  I541  1  0.988450  0.582010  0.100260  1.0  -0.3641
  I  I542  1  0.071290  0.843900  0.063780  1.0  -0.3742
  I  I543  1  0.195860  0.808160  0.804490  1.0  -0.3644
  I  I544  1  0.330900  0.656540  0.826080  1.0  -0.31
  I  I545  1  0.073410  0.771200  0.874070  1.0  -0.3241
  I  I546  1  0.008990  0.780840  0.964230  1.0  -0.3977
  I  I547  1  0.511550  0.417990  0.600260  1.0  -0.3629
  I  I548  1  0.428710  0.156100  0.563780  1.0  -0.3736
  I  I549  1  0.304140  0.191840  0.304490  1.0  -0.3643
  I  I550  1  0.169100  0.343460  0.326080  1.0  -0.3101
  I  I551  1  0.426590  0.228800  0.374070  1.0  -0.3237
  I  I552  1  0.491010  0.219160  0.464230  1.0  -0.3976
  N  N553  1  0.067600  0.911400  0.534130  1.0  -0.3093
  N  N554  1  0.096000  0.171900  0.457770  1.0  -0.4593
  N  N555  1  0.131900  0.178700  0.410680  1.0  -0.4637
  N  N556  1  0.130100  0.029600  0.437110  1.0  -0.3294
  N  N557  1  0.056800  0.507900  0.421610  1.0  -0.2983
  N  N558  1  0.205900  0.929100  0.342810  1.0  -0.2989
  N  N559  1  0.266300  0.070900  0.774570  1.0  -0.3109
  N  N560  1  0.325600  0.960600  0.675440  1.0  -0.4752
  N  N561  1  0.287800  0.920900  0.630770  1.0  -0.5008
  N  N562  1  0.240500  0.957500  0.671940  1.0  -0.4401
  N  N563  1  0.461800  0.892500  0.605130  1.0  -0.306
  N  N564  1  0.118500  0.878600  0.595120  1.0  -0.309
  N  N565  1  0.432400  0.088600  0.034130  1.0  -0.3113
  N  N566  1  0.404000  0.828100  0.957770  1.0  -0.4569
  N  N567  1  0.368100  0.821300  0.910680  1.0  -0.4643
  N  N568  1  0.369900  0.970400  0.937110  1.0  -0.3302
  N  N569  1  0.443200  0.492100  0.921610  1.0  -0.2993
  N  N570  1  0.294100  0.070900  0.842810  1.0  -0.3
  N  N571  1  0.233700  0.929100  0.274570  1.0  -0.3091
  N  N572  1  0.174400  0.039400  0.175440  1.0  -0.4762
  N  N573  1  0.212200  0.079100  0.130770  1.0  -0.4998
  N  N574  1  0.259500  0.042500  0.171940  1.0  -0.44
  N  N575  1  0.038200  0.107500  0.105130  1.0  -0.3066
  N  N576  1  0.381500  0.121400  0.095120  1.0  -0.3088
  N  N577  1  0.932400  0.411400  0.965870  1.0  -0.3127
  N  N578  1  0.904000  0.671900  0.042230  1.0  -0.4562
  N  N579  1  0.868100  0.678700  0.089320  1.0  -0.4633
  N  N580  1  0.869900  0.529600  0.062890  1.0  -0.3297
  N  N581  1  0.943200  0.007900  0.078390  1.0  -0.2989
  N  N582  1  0.794100  0.429100  0.157190  1.0  -0.3
  N  N583  1  0.733700  0.570900  0.725430  1.0  -0.3108
  N  N584  1  0.674400  0.460600  0.824560  1.0  -0.4748
  N  N585  1  0.712200  0.420900  0.869230  1.0  -0.5019
  N  N586  1  0.759500  0.457500  0.828060  1.0  -0.4405
  N  N587  1  0.538200  0.392500  0.894870  1.0  -0.3086
  N  N588  1  0.881500  0.378600  0.904880  1.0  -0.3089
  N  N589  1  0.567600  0.588600  0.465870  1.0  -0.3097
  N  N590  1  0.596000  0.328100  0.542230  1.0  -0.4579
  N  N591  1  0.631900  0.321300  0.589320  1.0  -0.4624
  N  N592  1  0.630100  0.470400  0.562890  1.0  -0.3295
  N  N593  1  0.556800  0.992100  0.578390  1.0  -0.2986
  N  N594  1  0.705900  0.570900  0.657190  1.0  -0.2993
  N  N595  1  0.766300  0.429100  0.225430  1.0  -0.3109
  N  N596  1  0.825600  0.539400  0.324560  1.0  -0.4751
  N  N597  1  0.787800  0.579100  0.369230  1.0  -0.5015
  N  N598  1  0.740500  0.542500  0.328060  1.0  -0.4404
  N  N599  1  0.961800  0.607500  0.394870  1.0  -0.3075
  N  N600  1  0.618500  0.621400  0.404880  1.0  -0.3092
  N  N601  1  0.932400  0.088600  0.465870  1.0  -0.311
  N  N602  1  0.904000  0.828100  0.542230  1.0  -0.4565
  N  N603  1  0.868100  0.821300  0.589320  1.0  -0.4627
  N  N604  1  0.869900  0.970400  0.562890  1.0  -0.3301
  N  N605  1  0.943200  0.492100  0.578390  1.0  -0.2994
  N  N606  1  0.794100  0.070900  0.657190  1.0  -0.3007
  N  N607  1  0.733700  0.929100  0.225430  1.0  -0.3102
  N  N608  1  0.674400  0.039400  0.324560  1.0  -0.4749
  N  N609  1  0.712200  0.079100  0.369230  1.0  -0.5017
  N  N610  1  0.759500  0.042500  0.328060  1.0  -0.4408
  N  N611  1  0.538200  0.107500  0.394870  1.0  -0.3086
  N  N612  1  0.881500  0.121400  0.404880  1.0  -0.3089
  N  N613  1  0.567600  0.911400  0.965870  1.0  -0.3121
  N  N614  1  0.596000  0.171900  0.042230  1.0  -0.4572
  N  N615  1  0.631900  0.178700  0.089320  1.0  -0.4632
  N  N616  1  0.630100  0.029600  0.062890  1.0  -0.3293
  N  N617  1  0.556800  0.507900  0.078390  1.0  -0.2984
  N  N618  1  0.705900  0.929100  0.157190  1.0  -0.2984
  N  N619  1  0.766300  0.070900  0.725430  1.0  -0.311
  N  N620  1  0.825600  0.960600  0.824560  1.0  -0.4748
  N  N621  1  0.787800  0.920900  0.869230  1.0  -0.5016
  N  N622  1  0.740500  0.957500  0.828060  1.0  -0.4399
  N  N623  1  0.961800  0.892500  0.894870  1.0  -0.307
  N  N624  1  0.618500  0.878600  0.904880  1.0  -0.3095
  N  N625  1  0.067600  0.588600  0.034130  1.0  -0.3093
  N  N626  1  0.096000  0.328100  0.957770  1.0  -0.4586
  N  N627  1  0.131900  0.321300  0.910680  1.0  -0.4641
  N  N628  1  0.130100  0.470400  0.937110  1.0  -0.3298
  N  N629  1  0.056800  0.992100  0.921610  1.0  -0.2985
  N  N630  1  0.205900  0.570900  0.842810  1.0  -0.2985
  N  N631  1  0.266300  0.429100  0.274570  1.0  -0.3096
  N  N632  1  0.325600  0.539400  0.175440  1.0  -0.475
  N  N633  1  0.287800  0.579100  0.130770  1.0  -0.4997
  N  N634  1  0.240500  0.542500  0.171940  1.0  -0.4401
  N  N635  1  0.461800  0.607500  0.105130  1.0  -0.3059
  N  N636  1  0.118500  0.621400  0.095120  1.0  -0.3085
  N  N637  1  0.432400  0.411400  0.534130  1.0  -0.3108
  N  N638  1  0.404000  0.671900  0.457770  1.0  -0.4579
  N  N639  1  0.368100  0.678700  0.410680  1.0  -0.4637
  N  N640  1  0.369900  0.529600  0.437110  1.0  -0.3297
  N  N641  1  0.443200  0.007900  0.421610  1.0  -0.2987
  N  N642  1  0.294100  0.429100  0.342810  1.0  -0.3006
  N  N643  1  0.233700  0.570900  0.774570  1.0  -0.3107
  N  N644  1  0.174400  0.460600  0.675440  1.0  -0.4763
  N  N645  1  0.212200  0.420900  0.630770  1.0  -0.5009
  N  N646  1  0.259500  0.457500  0.671940  1.0  -0.44
  N  N647  1  0.038200  0.392500  0.605130  1.0  -0.3076
  N  N648  1  0.381500  0.378600  0.595120  1.0  -0.3089
