# generated using pymatgen
data_Cd3C6(N3Cl)2
_symmetry_space_group_name_H-M   'P 1'
_cell_length_a   23.79050000
_cell_length_b   8.85350000
_cell_length_c   15.55220000
_cell_angle_alpha   90.00000000
_cell_angle_beta   90.00000000
_cell_angle_gamma   90.00000000
_symmetry_Int_Tables_number   1
_chemical_formula_structural   Cd3C6(N3Cl)2
_chemical_formula_sum   'Cd12 C24 N24 Cl8'
_cell_volume   3275.74731593
_cell_formula_units_Z   4
loop_
 _symmetry_equiv_pos_site_id
 _symmetry_equiv_pos_as_xyz
  1  'x, y, z'
loop_
 _atom_site_type_symbol
 _atom_site_label
 _atom_site_symmetry_multiplicity
 _atom_site_fract_x
 _atom_site_fract_y
 _atom_site_fract_z
 _atom_site_occupancy
 _atom_site_charge
  Cd  Cd1  1  0.342360  0.750000  0.071540  1.0  0.9701
  Cd  Cd2  1  0.518780  0.750000  0.837010  1.0  0.7922
  Cd  Cd3  1  0.268360  0.750000  0.419880  1.0  0.7559
  Cd  Cd4  1  0.157640  0.250000  0.571540  1.0  0.9664
  Cd  Cd5  1  0.981220  0.250000  0.337010  1.0  0.7939
  Cd  Cd6  1  0.231640  0.250000  0.919880  1.0  0.7558
  Cd  Cd7  1  0.657640  0.250000  0.928460  1.0  0.9662
  Cd  Cd8  1  0.481220  0.250000  0.162990  1.0  0.7938
  Cd  Cd9  1  0.731640  0.250000  0.580120  1.0  0.7558
  Cd  Cd10  1  0.842360  0.750000  0.428460  1.0  0.9701
  Cd  Cd11  1  0.018780  0.750000  0.662990  1.0  0.7921
  Cd  Cd12  1  0.768360  0.750000  0.080120  1.0  0.7558
  C  C13  1  0.428400  0.453500  0.141000  1.0  0.0454
  C  C14  1  0.267900  0.458800  0.976700  1.0  0.0112
  C  C15  1  0.071600  0.546500  0.641000  1.0  0.0448
  C  C16  1  0.232100  0.541200  0.476700  1.0  0.0115
  C  C17  1  0.571600  0.953500  0.859000  1.0  0.0446
  C  C18  1  0.732100  0.958800  0.023300  1.0  0.0114
  C  C19  1  0.928400  0.046500  0.359000  1.0  0.0454
  C  C20  1  0.767900  0.041200  0.523300  1.0  0.0106
  C  C21  1  0.571600  0.546500  0.859000  1.0  0.045
  C  C22  1  0.732100  0.541200  0.023300  1.0  0.011
  C  C23  1  0.928400  0.453500  0.359000  1.0  0.0455
  C  C24  1  0.767900  0.458800  0.523300  1.0  0.0106
  C  C25  1  0.428400  0.046500  0.141000  1.0  0.0453
  C  C26  1  0.267900  0.041200  0.976700  1.0  0.0111
  C  C27  1  0.071600  0.953500  0.641000  1.0  0.0444
  C  C28  1  0.232100  0.958800  0.476700  1.0  0.0118
  C  C29  1  0.442200  0.750000  0.915600  1.0  0.0625
  C  C30  1  0.284600  0.750000  0.278100  1.0  -0.0149
  C  C31  1  0.057800  0.250000  0.415600  1.0  0.0628
  C  C32  1  0.215400  0.250000  0.778100  1.0  -0.0151
  C  C33  1  0.557800  0.250000  0.084400  1.0  0.0625
  C  C34  1  0.715400  0.250000  0.721900  1.0  -0.0168
  C  C35  1  0.942200  0.750000  0.584400  1.0  0.0626
  C  C36  1  0.784600  0.750000  0.221900  1.0  -0.0169
  N  N37  1  0.400800  0.554300  0.127500  1.0  -0.2755
  N  N38  1  0.286200  0.559700  0.010700  1.0  -0.3016
  N  N39  1  0.099200  0.445700  0.627500  1.0  -0.2744
  N  N40  1  0.213800  0.440300  0.510700  1.0  -0.3005
  N  N41  1  0.599200  0.054300  0.872500  1.0  -0.2751
  N  N42  1  0.713800  0.059700  0.989300  1.0  -0.301
  N  N43  1  0.900800  0.945700  0.372500  1.0  -0.2751
  N  N44  1  0.786200  0.940300  0.489300  1.0  -0.2998
  N  N45  1  0.599200  0.445700  0.872500  1.0  -0.2746
  N  N46  1  0.713800  0.440300  0.989300  1.0  -0.2989
  N  N47  1  0.900800  0.554300  0.372500  1.0  -0.2756
  N  N48  1  0.786200  0.559700  0.489300  1.0  -0.3
  N  N49  1  0.400800  0.945700  0.127500  1.0  -0.2748
  N  N50  1  0.286200  0.940300  0.010700  1.0  -0.2988
  N  N51  1  0.099200  0.054300  0.627500  1.0  -0.2752
  N  N52  1  0.213800  0.059700  0.510700  1.0  -0.3005
  N  N53  1  0.402800  0.750000  0.956200  1.0  -0.3502
  N  N54  1  0.298300  0.750000  0.207800  1.0  -0.3318
  N  N55  1  0.097200  0.250000  0.456200  1.0  -0.35
  N  N56  1  0.201700  0.250000  0.707800  1.0  -0.3311
  N  N57  1  0.597200  0.250000  0.043800  1.0  -0.3499
  N  N58  1  0.701700  0.250000  0.792200  1.0  -0.3331
  N  N59  1  0.902800  0.750000  0.543800  1.0  -0.3499
  N  N60  1  0.798300  0.750000  0.292200  1.0  -0.3335
  Cl  Cl61  1  0.492500  0.750000  0.682100  1.0  -0.4248
  Cl  Cl62  1  0.371300  0.750000  0.467000  1.0  -0.419
  Cl  Cl63  1  0.007500  0.250000  0.182100  1.0  -0.4249
  Cl  Cl64  1  0.128700  0.250000  0.967000  1.0  -0.4188
  Cl  Cl65  1  0.507500  0.250000  0.317900  1.0  -0.4245
  Cl  Cl66  1  0.628700  0.250000  0.533000  1.0  -0.4187
  Cl  Cl67  1  0.992500  0.750000  0.817900  1.0  -0.4242
  Cl  Cl68  1  0.871300  0.750000  0.033000  1.0  -0.4188
