# generated using pymatgen
data_LaP3H21C9(NO3)3
_symmetry_space_group_name_H-M   'P 1'
_cell_length_a   6.03940000
_cell_length_b   26.52400000
_cell_length_c   23.43100000
_cell_angle_alpha   90.00000000
_cell_angle_beta   93.71000000
_cell_angle_gamma   90.00000000
_symmetry_Int_Tables_number   1
_chemical_formula_structural   LaP3H21C9(NO3)3
_chemical_formula_sum   'La8 P24 H168 C72 N24 O72'
_cell_volume   3745.52369938
_cell_formula_units_Z   8
loop_
 _symmetry_equiv_pos_site_id
 _symmetry_equiv_pos_as_xyz
  1  'x, y, z'
loop_
 _atom_site_type_symbol
 _atom_site_label
 _atom_site_symmetry_multiplicity
 _atom_site_fract_x
 _atom_site_fract_y
 _atom_site_fract_z
 _atom_site_occupancy
 _atom_site_charge
  La  La1  1  0.754000  0.805410  0.944780  1.0  2.1876
  La  La2  1  0.746800  0.775030  0.554840  1.0  2.1867
  La  La3  1  0.254000  0.305410  0.944780  1.0  2.191
  La  La4  1  0.246800  0.275030  0.554840  1.0  2.1919
  La  La5  1  0.754000  0.194590  0.444780  1.0  2.1875
  La  La6  1  0.746800  0.224970  0.054840  1.0  2.1918
  La  La7  1  0.254000  0.694590  0.444780  1.0  2.191
  La  La8  1  0.246800  0.724970  0.054840  1.0  2.1936
  P  P9  1  0.885500  0.898900  0.624400  1.0  1.4307
  P  P10  1  0.260800  0.860300  0.022300  1.0  1.4162
  P  P11  1  0.785000  0.766980  0.107000  1.0  1.5458
  P  P12  1  0.231500  0.172400  0.981900  1.0  1.5314
  P  P13  1  0.715700  0.736260  0.393200  1.0  1.5022
  P  P14  1  0.604200  0.932500  0.884300  1.0  1.5337
  P  P15  1  0.385500  0.398900  0.624400  1.0  1.4307
  P  P16  1  0.760800  0.360300  0.022300  1.0  1.4162
  P  P17  1  0.285000  0.266980  0.107000  1.0  1.5458
  P  P18  1  0.731500  0.672400  0.981900  1.0  1.5314
  P  P19  1  0.215700  0.236260  0.393200  1.0  1.5022
  P  P20  1  0.104200  0.432500  0.884300  1.0  1.5337
  P  P21  1  0.885500  0.101100  0.124400  1.0  1.4302
  P  P22  1  0.260800  0.139700  0.522300  1.0  1.4157
  P  P23  1  0.785000  0.233020  0.607000  1.0  1.5443
  P  P24  1  0.231500  0.827600  0.481900  1.0  1.5318
  P  P25  1  0.715700  0.263740  0.893200  1.0  1.5031
  P  P26  1  0.604200  0.067500  0.384300  1.0  1.5333
  P  P27  1  0.385500  0.601100  0.124400  1.0  1.4302
  P  P28  1  0.760800  0.639700  0.522300  1.0  1.4157
  P  P29  1  0.285000  0.733020  0.607000  1.0  1.5443
  P  P30  1  0.731500  0.327600  0.481900  1.0  1.5318
  P  P31  1  0.215700  0.763740  0.893200  1.0  1.5031
  P  P32  1  0.104200  0.567500  0.384300  1.0  1.5333
  H  H33  1  0.229700  0.915500  0.671200  1.0  0.122
  H  H34  1  0.259300  0.879200  0.619500  1.0  0.1594
  H  H35  1  0.456000  0.805900  0.738800  1.0  0.0725
  H  H36  1  0.532900  0.842700  0.691500  1.0  0.0665
  H  H37  1  0.445900  0.912400  0.746900  1.0  0.0765
  H  H38  1  0.614000  0.877800  0.782600  1.0  0.0684
  H  H39  1  0.970000  0.870100  0.814900  1.0  0.085
  H  H40  1  0.038600  0.908500  0.768300  1.0  0.0842
  H  H41  1  0.886400  0.837200  0.722700  1.0  0.077
  H  H42  1  0.055700  0.802200  0.757300  1.0  0.0683
  H  H43  1  0.142000  0.924100  0.083900  1.0  0.1311
  H  H44  1  0.401900  0.920500  0.089700  1.0  0.1261
  H  H45  1  0.532700  0.002800  0.070900  1.0  0.0797
  H  H46  1  0.293400  0.020300  0.084400  1.0  0.0753
  H  H47  1  0.467900  0.084600  0.032900  1.0  0.0673
  H  H48  1  0.500600  0.046800  0.982500  1.0  0.0663
  H  H49  1  0.931000  0.029900  0.938800  1.0  0.0776
  H  H50  1  0.169800  0.013100  0.923900  1.0  0.0705
  H  H51  1  0.967500  0.986400  0.024900  1.0  0.0587
  H  H52  1  0.007200  0.949100  0.974600  1.0  0.0707
  H  H53  1  0.898800  0.849700  0.117800  1.0  0.0977
  H  H54  1  0.640100  0.847200  0.111500  1.0  0.0918
  H  H55  1  0.557500  0.785500  0.207200  1.0  0.0709
  H  H56  1  0.436000  0.836700  0.193700  1.0  0.0648
  H  H57  1  0.546700  0.866700  0.291600  1.0  0.0814
  H  H58  1  0.408400  0.816400  0.295700  1.0  0.0827
  H  H59  1  0.067500  0.812100  0.311200  1.0  0.0611
  H  H60  1  0.945100  0.864500  0.305500  1.0  0.075
  H  H61  1  0.070900  0.847000  0.216800  1.0  0.0688
  H  H62  1  0.979000  0.792100  0.217900  1.0  0.0782
  H  H63  1  0.052400  0.112700  0.919800  1.0  0.118
  H  H64  1  0.310600  0.105600  0.919500  1.0  0.1318
  H  H65  1  0.842300  0.817800  0.390200  1.0  0.1141
  H  H66  1  0.583000  0.816900  0.381000  1.0  0.1294
  H  H67  1  0.219500  0.909600  0.885200  1.0  0.1537
  H  H68  1  0.248400  0.948400  0.835800  1.0  0.1553
  H  H69  1  0.176600  0.811600  0.671900  1.0  0.2718
  H  H70  1  0.328900  0.845900  0.829900  1.0  0.2494
  H  H71  1  0.379500  0.956500  0.994900  1.0  0.2479
  H  H72  1  0.089600  0.078100  0.014800  1.0  0.2519
  H  H73  1  0.752300  0.875600  0.197300  1.0  0.1663
  H  H74  1  0.735300  0.774200  0.292400  1.0  0.2075
  H  H75  1  0.729700  0.415500  0.671200  1.0  0.122
  H  H76  1  0.759300  0.379200  0.619500  1.0  0.1594
  H  H77  1  0.956000  0.305900  0.738800  1.0  0.0725
  H  H78  1  0.032900  0.342700  0.691500  1.0  0.0665
  H  H79  1  0.945900  0.412400  0.746900  1.0  0.0765
  H  H80  1  0.114000  0.377800  0.782600  1.0  0.0684
  H  H81  1  0.470000  0.370100  0.814900  1.0  0.085
  H  H82  1  0.538600  0.408500  0.768300  1.0  0.0842
  H  H83  1  0.386400  0.337200  0.722700  1.0  0.077
  H  H84  1  0.555700  0.302200  0.757300  1.0  0.0683
  H  H85  1  0.642000  0.424100  0.083900  1.0  0.1311
  H  H86  1  0.901900  0.420500  0.089700  1.0  0.1261
  H  H87  1  0.032700  0.502800  0.070900  1.0  0.0797
  H  H88  1  0.793400  0.520300  0.084400  1.0  0.0753
  H  H89  1  0.967900  0.584600  0.032900  1.0  0.0673
  H  H90  1  0.000600  0.546800  0.982500  1.0  0.0663
  H  H91  1  0.431000  0.529900  0.938800  1.0  0.0776
  H  H92  1  0.669800  0.513100  0.923900  1.0  0.0705
  H  H93  1  0.467500  0.486400  0.024900  1.0  0.0587
  H  H94  1  0.507200  0.449100  0.974600  1.0  0.0707
  H  H95  1  0.398800  0.349700  0.117800  1.0  0.0977
  H  H96  1  0.140100  0.347200  0.111500  1.0  0.0918
  H  H97  1  0.057500  0.285500  0.207200  1.0  0.0709
  H  H98  1  0.936000  0.336700  0.193700  1.0  0.0648
  H  H99  1  0.046700  0.366700  0.291600  1.0  0.0814
  H  H100  1  0.908400  0.316400  0.295700  1.0  0.0827
  H  H101  1  0.567500  0.312100  0.311200  1.0  0.0611
  H  H102  1  0.445100  0.364500  0.305500  1.0  0.075
  H  H103  1  0.570900  0.347000  0.216800  1.0  0.0688
  H  H104  1  0.479000  0.292100  0.217900  1.0  0.0782
  H  H105  1  0.552400  0.612700  0.919800  1.0  0.118
  H  H106  1  0.810600  0.605600  0.919500  1.0  0.1318
  H  H107  1  0.342300  0.317800  0.390200  1.0  0.1141
  H  H108  1  0.083000  0.316900  0.381000  1.0  0.1294
  H  H109  1  0.719500  0.409600  0.885200  1.0  0.1537
  H  H110  1  0.748400  0.448400  0.835800  1.0  0.1553
  H  H111  1  0.676600  0.311600  0.671900  1.0  0.2718
  H  H112  1  0.828900  0.345900  0.829900  1.0  0.2494
  H  H113  1  0.879500  0.456500  0.994900  1.0  0.2479
  H  H114  1  0.589600  0.578100  0.014800  1.0  0.2519
  H  H115  1  0.252300  0.375600  0.197300  1.0  0.1663
  H  H116  1  0.235300  0.274200  0.292400  1.0  0.2075
  H  H117  1  0.229700  0.084500  0.171200  1.0  0.1241
  H  H118  1  0.259300  0.120800  0.119500  1.0  0.1593
  H  H119  1  0.456000  0.194100  0.238800  1.0  0.0701
  H  H120  1  0.532900  0.157300  0.191500  1.0  0.0663
  H  H121  1  0.445900  0.087600  0.246900  1.0  0.0761
  H  H122  1  0.614000  0.122200  0.282600  1.0  0.0683
  H  H123  1  0.970000  0.129900  0.314900  1.0  0.085
  H  H124  1  0.038600  0.091500  0.268300  1.0  0.0813
  H  H125  1  0.886400  0.162800  0.222700  1.0  0.0757
  H  H126  1  0.055700  0.197800  0.257300  1.0  0.0687
  H  H127  1  0.142000  0.075900  0.583900  1.0  0.1307
  H  H128  1  0.401900  0.079500  0.589700  1.0  0.1261
  H  H129  1  0.532700  0.997200  0.570900  1.0  0.079
  H  H130  1  0.293400  0.979700  0.584400  1.0  0.0755
  H  H131  1  0.467900  0.915400  0.532900  1.0  0.0681
  H  H132  1  0.500600  0.953200  0.482500  1.0  0.0658
  H  H133  1  0.931000  0.970100  0.438800  1.0  0.0775
  H  H134  1  0.169800  0.986900  0.423900  1.0  0.0709
  H  H135  1  0.967500  0.013600  0.524900  1.0  0.0583
  H  H136  1  0.007200  0.050900  0.474600  1.0  0.0714
  H  H137  1  0.898800  0.150300  0.617800  1.0  0.0975
  H  H138  1  0.640100  0.152800  0.611500  1.0  0.0907
  H  H139  1  0.557500  0.214500  0.707200  1.0  0.0725
  H  H140  1  0.436000  0.163300  0.693700  1.0  0.0647
  H  H141  1  0.546700  0.133300  0.791600  1.0  0.0804
  H  H142  1  0.408400  0.183600  0.795700  1.0  0.0819
  H  H143  1  0.067500  0.187900  0.811200  1.0  0.0617
  H  H144  1  0.945100  0.135500  0.805500  1.0  0.0744
  H  H145  1  0.070900  0.153000  0.716800  1.0  0.0683
  H  H146  1  0.979000  0.207900  0.717900  1.0  0.0769
  H  H147  1  0.052400  0.887300  0.419800  1.0  0.1178
  H  H148  1  0.310600  0.894400  0.419500  1.0  0.1319
  H  H149  1  0.842300  0.182200  0.890200  1.0  0.1151
  H  H150  1  0.583000  0.183100  0.881000  1.0  0.1299
  H  H151  1  0.219500  0.090400  0.385200  1.0  0.154
  H  H152  1  0.248400  0.051600  0.335800  1.0  0.1545
  H  H153  1  0.176600  0.188400  0.171900  1.0  0.2717
  H  H154  1  0.328900  0.154100  0.329900  1.0  0.2479
  H  H155  1  0.379500  0.043500  0.494900  1.0  0.2471
  H  H156  1  0.089600  0.921900  0.514800  1.0  0.2521
  H  H157  1  0.752300  0.124400  0.697300  1.0  0.1692
  H  H158  1  0.735300  0.225800  0.792400  1.0  0.209
  H  H159  1  0.729700  0.584500  0.171200  1.0  0.1241
  H  H160  1  0.759300  0.620800  0.119500  1.0  0.1593
  H  H161  1  0.956000  0.694100  0.238800  1.0  0.0701
  H  H162  1  0.032900  0.657300  0.191500  1.0  0.0663
  H  H163  1  0.945900  0.587600  0.246900  1.0  0.0761
  H  H164  1  0.114000  0.622200  0.282600  1.0  0.0683
  H  H165  1  0.470000  0.629900  0.314900  1.0  0.085
  H  H166  1  0.538600  0.591500  0.268300  1.0  0.0813
  H  H167  1  0.386400  0.662800  0.222700  1.0  0.0757
  H  H168  1  0.555700  0.697800  0.257300  1.0  0.0687
  H  H169  1  0.642000  0.575900  0.583900  1.0  0.1307
  H  H170  1  0.901900  0.579500  0.589700  1.0  0.1261
  H  H171  1  0.032700  0.497200  0.570900  1.0  0.079
  H  H172  1  0.793400  0.479700  0.584400  1.0  0.0755
  H  H173  1  0.967900  0.415400  0.532900  1.0  0.0681
  H  H174  1  0.000600  0.453200  0.482500  1.0  0.0658
  H  H175  1  0.431000  0.470100  0.438800  1.0  0.0775
  H  H176  1  0.669800  0.486900  0.423900  1.0  0.0709
  H  H177  1  0.467500  0.513600  0.524900  1.0  0.0583
  H  H178  1  0.507200  0.550900  0.474600  1.0  0.0714
  H  H179  1  0.398800  0.650300  0.617800  1.0  0.0975
  H  H180  1  0.140100  0.652800  0.611500  1.0  0.0907
  H  H181  1  0.057500  0.714500  0.707200  1.0  0.0725
  H  H182  1  0.936000  0.663300  0.693700  1.0  0.0647
  H  H183  1  0.046700  0.633300  0.791600  1.0  0.0804
  H  H184  1  0.908400  0.683600  0.795700  1.0  0.0819
  H  H185  1  0.567500  0.687900  0.811200  1.0  0.0617
  H  H186  1  0.445100  0.635500  0.805500  1.0  0.0744
  H  H187  1  0.570900  0.653000  0.716800  1.0  0.0683
  H  H188  1  0.479000  0.707900  0.717900  1.0  0.0769
  H  H189  1  0.552400  0.387300  0.419800  1.0  0.1178
  H  H190  1  0.810600  0.394400  0.419500  1.0  0.1319
  H  H191  1  0.342300  0.682200  0.890200  1.0  0.1151
  H  H192  1  0.083000  0.683100  0.881000  1.0  0.1299
  H  H193  1  0.719500  0.590400  0.385200  1.0  0.154
  H  H194  1  0.748400  0.551600  0.335800  1.0  0.1545
  H  H195  1  0.676600  0.688400  0.171900  1.0  0.2717
  H  H196  1  0.828900  0.654100  0.329900  1.0  0.2479
  H  H197  1  0.879500  0.543500  0.494900  1.0  0.2471
  H  H198  1  0.589600  0.421900  0.514800  1.0  0.2521
  H  H199  1  0.252300  0.624400  0.697300  1.0  0.1692
  H  H200  1  0.235300  0.725800  0.792400  1.0  0.209
  C  C201  1  0.170000  0.885700  0.651700  1.0  -0.426
  C  C202  1  0.428000  0.838400  0.720900  1.0  -0.1028
  C  C203  1  0.464000  0.879800  0.765400  1.0  -0.0775
  C  C204  1  0.072000  0.875700  0.785200  1.0  -0.0641
  C  C205  1  0.037000  0.835100  0.739500  1.0  -0.0507
  C  C206  1  0.274000  0.920800  0.062500  1.0  -0.4845
  C  C207  1  0.386000  0.011000  0.053900  1.0  -0.1024
  C  C208  1  0.404000  0.055700  0.012500  1.0  -0.0874
  C  C209  1  0.079000  0.022100  0.955000  1.0  -0.0954
  C  C210  1  0.067000  0.978200  0.995400  1.0  -0.0675
  C  C211  1  0.771000  0.832000  0.130800  1.0  -0.4299
  C  C212  1  0.563000  0.821500  0.214600  1.0  -0.0515
  C  C213  1  0.543000  0.831000  0.282600  1.0  -0.0105
  C  C214  1  0.941000  0.829700  0.292900  1.0  -0.04
  C  C215  1  0.947000  0.826800  0.227600  1.0  -0.0396
  C  C216  1  0.189000  0.111500  0.943800  1.0  -0.5019
  C  C217  1  0.718000  0.800600  0.370400  1.0  -0.371
  C  C218  1  0.311000  0.918400  0.854100  1.0  -0.4031
  C  C219  1  0.670000  0.385700  0.651700  1.0  -0.426
  C  C220  1  0.928000  0.338400  0.720900  1.0  -0.1028
  C  C221  1  0.964000  0.379800  0.765400  1.0  -0.0775
  C  C222  1  0.572000  0.375700  0.785200  1.0  -0.0641
  C  C223  1  0.537000  0.335100  0.739500  1.0  -0.0507
  C  C224  1  0.774000  0.420800  0.062500  1.0  -0.4845
  C  C225  1  0.886000  0.511000  0.053900  1.0  -0.1024
  C  C226  1  0.904000  0.555700  0.012500  1.0  -0.0874
  C  C227  1  0.579000  0.522100  0.955000  1.0  -0.0954
  C  C228  1  0.567000  0.478200  0.995400  1.0  -0.0675
  C  C229  1  0.271000  0.332000  0.130800  1.0  -0.4299
  C  C230  1  0.063000  0.321500  0.214600  1.0  -0.0515
  C  C231  1  0.043000  0.331000  0.282600  1.0  -0.0105
  C  C232  1  0.441000  0.329700  0.292900  1.0  -0.04
  C  C233  1  0.447000  0.326800  0.227600  1.0  -0.0396
  C  C234  1  0.689000  0.611500  0.943800  1.0  -0.5019
  C  C235  1  0.218000  0.300600  0.370400  1.0  -0.371
  C  C236  1  0.811000  0.418400  0.854100  1.0  -0.4031
  C  C237  1  0.170000  0.114300  0.151700  1.0  -0.4279
  C  C238  1  0.428000  0.161600  0.220900  1.0  -0.1025
  C  C239  1  0.464000  0.120200  0.265400  1.0  -0.0772
  C  C240  1  0.072000  0.124300  0.285200  1.0  -0.0633
  C  C241  1  0.037000  0.164900  0.239500  1.0  -0.0507
  C  C242  1  0.274000  0.079200  0.562500  1.0  -0.4851
  C  C243  1  0.386000  0.989000  0.553900  1.0  -0.1026
  C  C244  1  0.404000  0.944300  0.512500  1.0  -0.0879
  C  C245  1  0.079000  0.977900  0.455000  1.0  -0.0954
  C  C246  1  0.067000  0.021800  0.495400  1.0  -0.0682
  C  C247  1  0.771000  0.168000  0.630800  1.0  -0.431
  C  C248  1  0.563000  0.178500  0.714600  1.0  -0.0502
  C  C249  1  0.543000  0.169000  0.782600  1.0  -0.0085
  C  C250  1  0.941000  0.170300  0.792900  1.0  -0.0387
  C  C251  1  0.947000  0.173200  0.727600  1.0  -0.0381
  C  C252  1  0.189000  0.888500  0.443800  1.0  -0.5039
  C  C253  1  0.718000  0.199400  0.870400  1.0  -0.3705
  C  C254  1  0.311000  0.081600  0.354100  1.0  -0.4044
  C  C255  1  0.670000  0.614300  0.151700  1.0  -0.4279
  C  C256  1  0.928000  0.661600  0.220900  1.0  -0.1025
  C  C257  1  0.964000  0.620200  0.265400  1.0  -0.0772
  C  C258  1  0.572000  0.624300  0.285200  1.0  -0.0633
  C  C259  1  0.537000  0.664900  0.239500  1.0  -0.0507
  C  C260  1  0.774000  0.579200  0.562500  1.0  -0.4851
  C  C261  1  0.886000  0.489000  0.553900  1.0  -0.1026
  C  C262  1  0.904000  0.444300  0.512500  1.0  -0.0879
  C  C263  1  0.579000  0.477900  0.455000  1.0  -0.0954
  C  C264  1  0.567000  0.521800  0.495400  1.0  -0.0682
  C  C265  1  0.271000  0.668000  0.630800  1.0  -0.431
  C  C266  1  0.063000  0.678500  0.714600  1.0  -0.0502
  C  C267  1  0.043000  0.669000  0.782600  1.0  -0.0085
  C  C268  1  0.441000  0.670300  0.792900  1.0  -0.0387
  C  C269  1  0.447000  0.673200  0.727600  1.0  -0.0381
  C  C270  1  0.689000  0.388500  0.443800  1.0  -0.5039
  C  C271  1  0.218000  0.699400  0.870400  1.0  -0.3705
  C  C272  1  0.811000  0.581600  0.354100  1.0  -0.4044
  N  N273  1  0.194000  0.839900  0.693800  1.0  0.0603
  N  N274  1  0.304000  0.875500  0.810900  1.0  0.1015
  N  N275  1  0.289000  0.965100  0.022800  1.0  0.1427
  N  N276  1  0.178000  0.068900  0.986600  1.0  0.0302
  N  N277  1  0.762000  0.841600  0.193400  1.0  0.0961
  N  N278  1  0.736000  0.805900  0.307300  1.0  0.141
  N  N279  1  0.694000  0.339900  0.693800  1.0  0.0603
  N  N280  1  0.804000  0.375500  0.810900  1.0  0.1015
  N  N281  1  0.789000  0.465100  0.022800  1.0  0.1427
  N  N282  1  0.678000  0.568900  0.986600  1.0  0.0302
  N  N283  1  0.262000  0.341600  0.193400  1.0  0.0961
  N  N284  1  0.236000  0.305900  0.307300  1.0  0.141
  N  N285  1  0.194000  0.160100  0.193800  1.0  0.0603
  N  N286  1  0.304000  0.124500  0.310900  1.0  0.1022
  N  N287  1  0.289000  0.034900  0.522800  1.0  0.1433
  N  N288  1  0.178000  0.931100  0.486600  1.0  0.0296
  N  N289  1  0.762000  0.158400  0.693400  1.0  0.0966
  N  N290  1  0.736000  0.194100  0.807300  1.0  0.1425
  N  N291  1  0.694000  0.660100  0.193800  1.0  0.0603
  N  N292  1  0.804000  0.624500  0.310900  1.0  0.1022
  N  N293  1  0.789000  0.534900  0.522800  1.0  0.1433
  N  N294  1  0.678000  0.431100  0.486600  1.0  0.0296
  N  N295  1  0.262000  0.658400  0.693400  1.0  0.0966
  N  N296  1  0.236000  0.694100  0.807300  1.0  0.1425
  O  O297  1  0.760000  0.851100  0.618100  1.0  -0.8044
  O  O298  1  0.918000  0.933900  0.574800  1.0  -0.8007
  O  O299  1  0.774000  0.927900  0.673900  1.0  -0.657
  O  O300  1  0.036000  0.863300  0.984300  1.0  -0.8874
  O  O301  1  0.271000  0.818800  0.067600  1.0  -0.8924
  O  O302  1  0.473000  0.862000  0.987900  1.0  -0.8332
  O  O303  1  0.576000  0.740600  0.125800  1.0  -0.9045
  O  O304  1  0.994000  0.742800  0.132800  1.0  -0.8857
  O  O305  1  0.783000  0.774300  0.043900  1.0  -0.9282
  O  O306  1  0.459000  0.169400  0.016800  1.0  -0.8755
  O  O307  1  0.037000  0.171700  0.019100  1.0  -0.9255
  O  O308  1  0.220000  0.211400  0.936000  1.0  -0.868
  O  O309  1  0.919000  0.708800  0.373000  1.0  -0.9143
  O  O310  1  0.496000  0.711500  0.368600  1.0  -0.8623
  O  O311  1  0.712000  0.737400  0.460100  1.0  -0.9028
  O  O312  1  0.700000  0.967400  0.841400  1.0  -0.7216
  O  O313  1  0.577000  0.960000  0.937900  1.0  -0.7245
  O  O314  1  0.723000  0.884000  0.887700  1.0  -0.7902
  O  O315  1  0.260000  0.351100  0.618100  1.0  -0.8044
  O  O316  1  0.418000  0.433900  0.574800  1.0  -0.8007
  O  O317  1  0.274000  0.427900  0.673900  1.0  -0.657
  O  O318  1  0.536000  0.363300  0.984300  1.0  -0.8874
  O  O319  1  0.771000  0.318800  0.067600  1.0  -0.8924
  O  O320  1  0.973000  0.362000  0.987900  1.0  -0.8332
  O  O321  1  0.076000  0.240600  0.125800  1.0  -0.9045
  O  O322  1  0.494000  0.242800  0.132800  1.0  -0.8857
  O  O323  1  0.283000  0.274300  0.043900  1.0  -0.9273
  O  O324  1  0.959000  0.669400  0.016800  1.0  -0.8755
  O  O325  1  0.537000  0.671700  0.019100  1.0  -0.9255
  O  O326  1  0.720000  0.711400  0.936000  1.0  -0.868
  O  O327  1  0.419000  0.208800  0.373000  1.0  -0.9143
  O  O328  1  0.996000  0.211500  0.368600  1.0  -0.8623
  O  O329  1  0.212000  0.237400  0.460100  1.0  -0.9028
  O  O330  1  0.200000  0.467400  0.841400  1.0  -0.7216
  O  O331  1  0.077000  0.460000  0.937900  1.0  -0.7245
  O  O332  1  0.223000  0.384000  0.887700  1.0  -0.7902
  O  O333  1  0.760000  0.148900  0.118100  1.0  -0.8026
  O  O334  1  0.918000  0.066100  0.074800  1.0  -0.8008
  O  O335  1  0.774000  0.072100  0.173900  1.0  -0.6594
  O  O336  1  0.036000  0.136700  0.484300  1.0  -0.8879
  O  O337  1  0.271000  0.181200  0.567600  1.0  -0.8927
  O  O338  1  0.473000  0.138000  0.487900  1.0  -0.8322
  O  O339  1  0.576000  0.259400  0.625800  1.0  -0.9041
  O  O340  1  0.994000  0.257200  0.632800  1.0  -0.8858
  O  O341  1  0.783000  0.225700  0.543900  1.0  -0.9282
  O  O342  1  0.459000  0.830600  0.516800  1.0  -0.874
  O  O343  1  0.037000  0.828300  0.519100  1.0  -0.926
  O  O344  1  0.220000  0.788600  0.436000  1.0  -0.8685
  O  O345  1  0.919000  0.291200  0.873000  1.0  -0.9142
  O  O346  1  0.496000  0.288500  0.868600  1.0  -0.8621
  O  O347  1  0.712000  0.262600  0.960100  1.0  -0.9029
  O  O348  1  0.700000  0.032600  0.341400  1.0  -0.7212
  O  O349  1  0.577000  0.040000  0.437900  1.0  -0.7251
  O  O350  1  0.723000  0.116000  0.387700  1.0  -0.789
  O  O351  1  0.260000  0.648900  0.118100  1.0  -0.8026
  O  O352  1  0.418000  0.566100  0.074800  1.0  -0.8008
  O  O353  1  0.274000  0.572100  0.173900  1.0  -0.6594
  O  O354  1  0.536000  0.636700  0.484300  1.0  -0.8879
  O  O355  1  0.771000  0.681200  0.567600  1.0  -0.8927
  O  O356  1  0.973000  0.638000  0.487900  1.0  -0.8322
  O  O357  1  0.076000  0.759400  0.625800  1.0  -0.9041
  O  O358  1  0.494000  0.757200  0.632800  1.0  -0.8858
  O  O359  1  0.283000  0.725700  0.543900  1.0  -0.9274
  O  O360  1  0.959000  0.330600  0.516800  1.0  -0.874
  O  O361  1  0.537000  0.328300  0.519100  1.0  -0.926
  O  O362  1  0.720000  0.288600  0.436000  1.0  -0.8685
  O  O363  1  0.419000  0.791200  0.873000  1.0  -0.9142
  O  O364  1  0.996000  0.788500  0.868600  1.0  -0.8621
  O  O365  1  0.212000  0.762600  0.960100  1.0  -0.9029
  O  O366  1  0.200000  0.532600  0.341400  1.0  -0.7212
  O  O367  1  0.077000  0.540000  0.437900  1.0  -0.7251
  O  O368  1  0.223000  0.616000  0.387700  1.0  -0.789
