# generated using pymatgen
data_SmV2H24C44S4N4O13
_symmetry_space_group_name_H-M   'P 1'
_cell_length_a   15.39040000
_cell_length_b   15.39040000
_cell_length_c   9.85860000
_cell_angle_alpha   90.00000000
_cell_angle_beta   90.00000000
_cell_angle_gamma   90.00000000
_symmetry_Int_Tables_number   1
_chemical_formula_structural   SmV2H24C44S4N4O13
_chemical_formula_sum   'Sm2 V4 H48 C88 S8 N8 O26'
_cell_volume   2335.15149372
_cell_formula_units_Z   2
loop_
 _symmetry_equiv_pos_site_id
 _symmetry_equiv_pos_as_xyz
  1  'x, y, z'
loop_
 _atom_site_type_symbol
 _atom_site_label
 _atom_site_symmetry_multiplicity
 _atom_site_fract_x
 _atom_site_fract_y
 _atom_site_fract_z
 _atom_site_occupancy
 _atom_site_charge
  Sm  Sm1  1  0.500000  0.500000  0.250000  1.0  2.3904
  Sm  Sm2  1  0.500000  0.500000  0.750000  1.0  2.3904
  V  V3  1  0.000000  0.000000  0.088000  1.0  1.8623
  V  V4  1  0.000000  0.000000  0.412000  1.0  1.8599
  V  V5  1  0.000000  0.000000  0.912000  1.0  1.8599
  V  V6  1  0.000000  0.000000  0.588000  1.0  1.8623
  H  H7  1  0.177700  0.712700  0.204900  1.0  0.0797
  H  H8  1  0.262000  0.587700  0.203100  1.0  0.0916
  H  H9  1  0.822300  0.287300  0.204900  1.0  0.0797
  H  H10  1  0.738000  0.412300  0.203100  1.0  0.0907
  H  H11  1  0.287300  0.177700  0.204900  1.0  0.0787
  H  H12  1  0.412300  0.262000  0.203100  1.0  0.0912
  H  H13  1  0.712700  0.822300  0.204900  1.0  0.079
  H  H14  1  0.587700  0.738000  0.203100  1.0  0.0907
  H  H15  1  0.822300  0.712700  0.295100  1.0  0.0794
  H  H16  1  0.738000  0.587700  0.296900  1.0  0.0911
  H  H17  1  0.177700  0.287300  0.295100  1.0  0.0799
  H  H18  1  0.262000  0.412300  0.296900  1.0  0.0912
  H  H19  1  0.712700  0.177700  0.295100  1.0  0.0786
  H  H20  1  0.587700  0.262000  0.296900  1.0  0.0909
  H  H21  1  0.287300  0.822300  0.295100  1.0  0.0788
  H  H22  1  0.412300  0.738000  0.296900  1.0  0.0911
  H  H23  1  0.822300  0.287300  0.795100  1.0  0.0798
  H  H24  1  0.738000  0.412300  0.796900  1.0  0.0913
  H  H25  1  0.177700  0.712700  0.795100  1.0  0.0794
  H  H26  1  0.262000  0.587700  0.796900  1.0  0.0913
  H  H27  1  0.712700  0.822300  0.795100  1.0  0.0789
  H  H28  1  0.587700  0.738000  0.796900  1.0  0.0913
  H  H29  1  0.287300  0.177700  0.795100  1.0  0.0783
  H  H30  1  0.412300  0.262000  0.796900  1.0  0.0909
  H  H31  1  0.177700  0.287300  0.704900  1.0  0.0799
  H  H32  1  0.262000  0.412300  0.703100  1.0  0.091
  H  H33  1  0.822300  0.712700  0.704900  1.0  0.0797
  H  H34  1  0.738000  0.587700  0.703100  1.0  0.091
  H  H35  1  0.287300  0.822300  0.704900  1.0  0.0786
  H  H36  1  0.412300  0.738000  0.703100  1.0  0.0907
  H  H37  1  0.712700  0.177700  0.704900  1.0  0.0792
  H  H38  1  0.587700  0.262000  0.703100  1.0  0.091
  H  H39  1  0.299900  0.848100  0.000000  1.0  0.0976
  H  H40  1  0.333900  0.004700  0.000000  1.0  0.0969
  H  H41  1  0.700100  0.151900  0.000000  1.0  0.0973
  H  H42  1  0.666100  0.995300  0.000000  1.0  0.0974
  H  H43  1  0.151900  0.299900  0.000000  1.0  0.0974
  H  H44  1  0.995300  0.333900  0.000000  1.0  0.0987
  H  H45  1  0.848100  0.700100  0.000000  1.0  0.0956
  H  H46  1  0.004700  0.666100  0.000000  1.0  0.0981
  H  H47  1  0.700100  0.848100  0.500000  1.0  0.0975
  H  H48  1  0.666100  0.004700  0.500000  1.0  0.0974
  H  H49  1  0.299900  0.151900  0.500000  1.0  0.0971
  H  H50  1  0.333900  0.995300  0.500000  1.0  0.0972
  H  H51  1  0.848100  0.299900  0.500000  1.0  0.0958
  H  H52  1  0.004700  0.333900  0.500000  1.0  0.0987
  H  H53  1  0.151900  0.700100  0.500000  1.0  0.0975
  H  H54  1  0.995300  0.666100  0.500000  1.0  0.0979
  C  C55  1  0.194800  0.687900  0.120800  1.0  -0.1685
  C  C56  1  0.244400  0.613200  0.119700  1.0  -0.0652
  C  C57  1  0.805200  0.312100  0.120800  1.0  -0.1684
  C  C58  1  0.755600  0.386800  0.119700  1.0  -0.0655
  C  C59  1  0.312100  0.194800  0.120800  1.0  -0.1687
  C  C60  1  0.386800  0.244400  0.119700  1.0  -0.0668
  C  C61  1  0.687900  0.805200  0.120800  1.0  -0.1679
  C  C62  1  0.613200  0.755600  0.119700  1.0  -0.066
  C  C63  1  0.805200  0.687900  0.379200  1.0  -0.1703
  C  C64  1  0.755600  0.613200  0.380300  1.0  -0.0638
  C  C65  1  0.194800  0.312100  0.379200  1.0  -0.1696
  C  C66  1  0.244400  0.386800  0.380300  1.0  -0.0634
  C  C67  1  0.687900  0.194800  0.379200  1.0  -0.1694
  C  C68  1  0.613200  0.244400  0.380300  1.0  -0.0642
  C  C69  1  0.312100  0.805200  0.379200  1.0  -0.1697
  C  C70  1  0.386800  0.755600  0.380300  1.0  -0.0646
  C  C71  1  0.805200  0.312100  0.879200  1.0  -0.1661
  C  C72  1  0.755600  0.386800  0.880300  1.0  -0.0636
  C  C73  1  0.194800  0.687900  0.879200  1.0  -0.1662
  C  C74  1  0.244400  0.613200  0.880300  1.0  -0.0637
  C  C75  1  0.687900  0.805200  0.879200  1.0  -0.1652
  C  C76  1  0.613200  0.755600  0.880300  1.0  -0.0641
  C  C77  1  0.312100  0.194800  0.879200  1.0  -0.1665
  C  C78  1  0.386800  0.244400  0.880300  1.0  -0.0646
  C  C79  1  0.194800  0.312100  0.620800  1.0  -0.1648
  C  C80  1  0.244400  0.386800  0.619700  1.0  -0.0653
  C  C81  1  0.805200  0.687900  0.620800  1.0  -0.1651
  C  C82  1  0.755600  0.613200  0.619700  1.0  -0.0652
  C  C83  1  0.312100  0.805200  0.620800  1.0  -0.1647
  C  C84  1  0.386800  0.755600  0.619700  1.0  -0.0666
  C  C85  1  0.687900  0.194800  0.620800  1.0  -0.1647
  C  C86  1  0.613200  0.244400  0.619700  1.0  -0.0661
  C  C87  1  0.268400  0.575500  0.000000  1.0  -0.1714
  C  C88  1  0.169700  0.727100  0.000000  1.0  0.0638
  C  C89  1  0.259100  0.894500  0.000000  1.0  -0.1725
  C  C90  1  0.117100  0.809000  0.000000  1.0  -0.1076
  C  C91  1  0.163500  0.886700  0.000000  1.0  0.126
  C  C92  1  0.027400  0.803700  0.000000  1.0  0.1723
  C  C93  1  0.277400  0.979900  0.000000  1.0  -0.1906
  C  C94  1  0.731600  0.424500  0.000000  1.0  -0.1733
  C  C95  1  0.830300  0.272900  0.000000  1.0  0.0651
  C  C96  1  0.740900  0.105500  0.000000  1.0  -0.1718
  C  C97  1  0.882900  0.191000  0.000000  1.0  -0.1082
  C  C98  1  0.836500  0.113300  0.000000  1.0  0.1267
  C  C99  1  0.972600  0.196300  0.000000  1.0  0.1714
  C  C100  1  0.722600  0.020100  0.000000  1.0  -0.1889
  C  C101  1  0.424500  0.268400  0.000000  1.0  -0.1702
  C  C102  1  0.272900  0.169700  0.000000  1.0  0.0644
  C  C103  1  0.105500  0.259100  0.000000  1.0  -0.1731
  C  C104  1  0.191000  0.117100  0.000000  1.0  -0.1088
  C  C105  1  0.113300  0.163500  0.000000  1.0  0.1257
  C  C106  1  0.196300  0.027400  0.000000  1.0  0.1729
  C  C107  1  0.020100  0.277400  0.000000  1.0  -0.1913
  C  C108  1  0.575500  0.731600  0.000000  1.0  -0.1712
  C  C109  1  0.727100  0.830300  0.000000  1.0  0.063
  C  C110  1  0.894500  0.740900  0.000000  1.0  -0.1748
  C  C111  1  0.809000  0.882900  0.000000  1.0  -0.109
  C  C112  1  0.886700  0.836500  0.000000  1.0  0.1257
  C  C113  1  0.803700  0.972600  0.000000  1.0  0.1727
  C  C114  1  0.979900  0.722600  0.000000  1.0  -0.193
  C  C115  1  0.731600  0.575500  0.500000  1.0  -0.1704
  C  C116  1  0.830300  0.727100  0.500000  1.0  0.065
  C  C117  1  0.740900  0.894500  0.500000  1.0  -0.1726
  C  C118  1  0.882900  0.809000  0.500000  1.0  -0.1077
  C  C119  1  0.836500  0.886700  0.500000  1.0  0.1266
  C  C120  1  0.972600  0.803700  0.500000  1.0  0.1718
  C  C121  1  0.722600  0.979900  0.500000  1.0  -0.1886
  C  C122  1  0.268400  0.424500  0.500000  1.0  -0.1737
  C  C123  1  0.169700  0.272900  0.500000  1.0  0.0637
  C  C124  1  0.259100  0.105500  0.500000  1.0  -0.1715
  C  C125  1  0.117100  0.191000  0.500000  1.0  -0.108
  C  C126  1  0.163500  0.113300  0.500000  1.0  0.1259
  C  C127  1  0.027400  0.196300  0.500000  1.0  0.1718
  C  C128  1  0.277400  0.020100  0.500000  1.0  -0.1915
  C  C129  1  0.575500  0.268400  0.500000  1.0  -0.1722
  C  C130  1  0.727100  0.169700  0.500000  1.0  0.0629
  C  C131  1  0.894500  0.259100  0.500000  1.0  -0.1743
  C  C132  1  0.809000  0.117100  0.500000  1.0  -0.1092
  C  C133  1  0.886700  0.163500  0.500000  1.0  0.1255
  C  C134  1  0.803700  0.027400  0.500000  1.0  0.1731
  C  C135  1  0.979900  0.277400  0.500000  1.0  -0.1909
  C  C136  1  0.424500  0.731600  0.500000  1.0  -0.1697
  C  C137  1  0.272900  0.830300  0.500000  1.0  0.0648
  C  C138  1  0.105500  0.740900  0.500000  1.0  -0.1748
  C  C139  1  0.191000  0.882900  0.500000  1.0  -0.1088
  C  C140  1  0.113300  0.836500  0.500000  1.0  0.126
  C  C141  1  0.196300  0.972600  0.500000  1.0  0.1725
  C  C142  1  0.020100  0.722600  0.500000  1.0  -0.1929
  S  S143  1  0.321170  0.473990  0.000000  1.0  1.3768
  S  S144  1  0.678830  0.526010  0.000000  1.0  1.3767
  S  S145  1  0.526010  0.321170  0.000000  1.0  1.3762
  S  S146  1  0.473990  0.678830  0.000000  1.0  1.3767
  S  S147  1  0.678830  0.473990  0.500000  1.0  1.3767
  S  S148  1  0.321170  0.526010  0.500000  1.0  1.3771
  S  S149  1  0.473990  0.321170  0.500000  1.0  1.3766
  S  S150  1  0.526010  0.678830  0.500000  1.0  1.3759
  N  N151  1  0.130400  0.970000  0.000000  1.0  -0.285
  N  N152  1  0.869600  0.030000  0.000000  1.0  -0.284
  N  N153  1  0.030000  0.130400  0.000000  1.0  -0.2863
  N  N154  1  0.970000  0.869600  0.000000  1.0  -0.2857
  N  N155  1  0.869600  0.970000  0.500000  1.0  -0.284
  N  N156  1  0.130400  0.030000  0.500000  1.0  -0.2851
  N  N157  1  0.970000  0.130400  0.500000  1.0  -0.2859
  N  N158  1  0.030000  0.869600  0.500000  1.0  -0.286
  O  O159  1  0.373600  0.469400  0.122300  1.0  -0.747
  O  O160  1  0.626400  0.530600  0.122300  1.0  -0.7475
  O  O161  1  0.530600  0.373600  0.122300  1.0  -0.7484
  O  O162  1  0.469400  0.626400  0.122300  1.0  -0.7479
  O  O163  1  0.626400  0.469400  0.377700  1.0  -0.7467
  O  O164  1  0.373600  0.530600  0.377700  1.0  -0.7462
  O  O165  1  0.469400  0.373600  0.377700  1.0  -0.747
  O  O166  1  0.530600  0.626400  0.377700  1.0  -0.7477
  O  O167  1  0.626400  0.530600  0.877700  1.0  -0.7468
  O  O168  1  0.373600  0.469400  0.877700  1.0  -0.7464
  O  O169  1  0.469400  0.626400  0.877700  1.0  -0.7474
  O  O170  1  0.530600  0.373600  0.877700  1.0  -0.7473
  O  O171  1  0.373600  0.530600  0.622300  1.0  -0.7468
  O  O172  1  0.626400  0.469400  0.622300  1.0  -0.7476
  O  O173  1  0.530600  0.626400  0.622300  1.0  -0.7484
  O  O174  1  0.469400  0.373600  0.622300  1.0  -0.7479
  O  O175  1  0.253000  0.410400  0.000000  1.0  -0.6891
  O  O176  1  0.747000  0.589600  0.000000  1.0  -0.6903
  O  O177  1  0.589600  0.253000  0.000000  1.0  -0.6954
  O  O178  1  0.410400  0.747000  0.000000  1.0  -0.6934
  O  O179  1  0.747000  0.410400  0.500000  1.0  -0.6898
  O  O180  1  0.253000  0.589600  0.500000  1.0  -0.689
  O  O181  1  0.410400  0.253000  0.500000  1.0  -0.6939
  O  O182  1  0.589600  0.747000  0.500000  1.0  -0.6964
  O  O183  1  0.000000  0.000000  0.250000  1.0  -0.8878
  O  O184  1  0.000000  0.000000  0.750000  1.0  -0.8878
