# generated using pymatgen
data_NdP3H15(CO)12
_symmetry_space_group_name_H-M   'P 1'
_cell_length_a   10.39120000
_cell_length_b   11.87230000
_cell_length_c   11.87900000
_cell_angle_alpha   82.37900000
_cell_angle_beta   87.72500000
_cell_angle_gamma   81.66600000
_symmetry_Int_Tables_number   1
_chemical_formula_structural   NdP3H15(CO)12
_chemical_formula_sum   'Nd2 P6 H30 C24 O24'
_cell_volume   1436.88518276
_cell_formula_units_Z   2
loop_
 _symmetry_equiv_pos_site_id
 _symmetry_equiv_pos_as_xyz
  1  'x, y, z'
loop_
 _atom_site_type_symbol
 _atom_site_label
 _atom_site_symmetry_multiplicity
 _atom_site_fract_x
 _atom_site_fract_y
 _atom_site_fract_z
 _atom_site_occupancy
 _atom_site_charge
  Nd  Nd1  1  0.981040  0.077380  0.239290  1.0  2.2804
  Nd  Nd2  1  0.018960  0.922620  0.760710  1.0  2.2803
  P  P3  1  0.701990  0.316650  0.278060  1.0  1.584
  P  P4  1  0.118610  0.116780  0.504620  1.0  1.4772
  P  P5  1  0.846300  0.107440  0.965360  1.0  1.5258
  P  P6  1  0.298010  0.683350  0.721940  1.0  1.5877
  P  P7  1  0.881390  0.883220  0.495380  1.0  1.4759
  P  P8  1  0.153700  0.892560  0.034640  1.0  1.5375
  H  H9  1  0.551300  0.330300  0.178800  1.0  0.3815
  H  H10  1  0.819600  0.328900  0.537500  1.0  0.3963
  H  H11  1  0.202500  0.256400  0.448400  1.0  0.3737
  H  H12  1  0.245100  0.946600  0.313100  1.0  0.306
  H  H13  1  0.755900  0.268400  0.956800  1.0  0.4731
  H  H14  1  0.756900  0.948500  0.211300  1.0  0.3799
  H  H15  1  0.671200  0.246300  0.467900  1.0  0.0804
  H  H16  1  0.456200  0.314100  0.505200  1.0  0.0848
  H  H17  1  0.703400  0.545000  0.440000  1.0  0.0924
  H  H18  1  0.202600  0.926800  0.484600  1.0  0.0921
  H  H19  1  0.357800  0.930200  0.638000  1.0  0.0835
  H  H20  1  0.426600  0.070900  0.320000  1.0  0.0773
  H  H21  1  0.820100  0.915400  0.023500  1.0  0.0819
  H  H22  1  0.564900  0.105700  0.132500  1.0  0.0733
  H  H23  1  0.653800  0.881600  0.907400  1.0  0.0894
  H  H24  1  0.448700  0.669700  0.821200  1.0  0.381
  H  H25  1  0.180400  0.671100  0.462500  1.0  0.3973
  H  H26  1  0.797500  0.743600  0.551600  1.0  0.3742
  H  H27  1  0.754900  0.053400  0.686900  1.0  0.3057
  H  H28  1  0.244100  0.731600  0.043200  1.0  0.4706
  H  H29  1  0.243100  0.051500  0.788700  1.0  0.3792
  H  H30  1  0.328800  0.753700  0.532100  1.0  0.0793
  H  H31  1  0.543800  0.685900  0.494800  1.0  0.0847
  H  H32  1  0.296600  0.455000  0.560000  1.0  0.0927
  H  H33  1  0.797400  0.073200  0.515400  1.0  0.0921
  H  H34  1  0.642200  0.069800  0.362000  1.0  0.0835
  H  H35  1  0.573400  0.929100  0.680000  1.0  0.077
  H  H36  1  0.179900  0.084600  0.976500  1.0  0.0814
  H  H37  1  0.435100  0.894300  0.867500  1.0  0.074
  H  H38  1  0.346200  0.118400  0.092600  1.0  0.0889
  C  C39  1  0.694400  0.319900  0.431400  1.0  -0.2355
  C  C40  1  0.595200  0.414200  0.467900  1.0  0.0464
  C  C41  1  0.474300  0.388800  0.503100  1.0  -0.1104
  C  C42  1  0.621800  0.526700  0.464200  1.0  -0.1539
  C  C43  1  0.227700  0.999900  0.448800  1.0  -0.0433
  C  C44  1  0.369500  0.000400  0.473900  1.0  0.0572
  C  C45  1  0.414600  0.958300  0.582200  1.0  -0.1099
  C  C46  1  0.455700  0.042100  0.392600  1.0  -0.1281
  C  C47  1  0.774300  0.987400  0.045900  1.0  -0.0955
  C  C48  1  0.631100  0.992900  0.023800  1.0  0.0851
  C  C49  1  0.539000  0.063200  0.079200  1.0  -0.1608
  C  C50  1  0.592200  0.929300  0.944600  1.0  -0.0897
  C  C51  1  0.305600  0.680100  0.568600  1.0  -0.2354
  C  C52  1  0.404800  0.585800  0.532100  1.0  0.0453
  C  C53  1  0.525700  0.611200  0.496900  1.0  -0.106
  C  C54  1  0.378200  0.473300  0.535800  1.0  -0.1524
  C  C55  1  0.772300  0.000100  0.551200  1.0  -0.0417
  C  C56  1  0.630500  0.999600  0.526100  1.0  0.0576
  C  C57  1  0.585400  0.041700  0.417800  1.0  -0.1121
  C  C58  1  0.544300  0.957900  0.607400  1.0  -0.1297
  C  C59  1  0.225700  0.012600  0.954100  1.0  -0.0944
  C  C60  1  0.368900  0.007100  0.976200  1.0  0.0853
  C  C61  1  0.461000  0.936800  0.920800  1.0  -0.1619
  C  C62  1  0.407800  0.070700  0.055400  1.0  -0.0885
  O  O63  1  0.799900  0.215700  0.259100  1.0  -0.9262
  O  O64  1  0.564400  0.301200  0.244700  1.0  -0.6718
  O  O65  1  0.739100  0.429500  0.220100  1.0  -0.6153
  O  O66  1  0.820900  0.330600  0.468300  1.0  -0.5657
  O  O67  1  0.081700  0.073100  0.624000  1.0  -0.8831
  O  O68  1  0.010900  0.153600  0.420800  1.0  -0.8927
  O  O69  1  0.198100  0.219400  0.511500  1.0  -0.6852
  O  O70  1  0.204400  0.009800  0.330000  1.0  -0.6338
  O  O71  1  0.894000  0.070300  0.853400  1.0  -0.88
  O  O72  1  0.944100  0.141100  0.039700  1.0  -0.8937
  O  O73  1  0.733400  0.209400  0.940000  1.0  -0.6787
  O  O74  1  0.798300  0.990000  0.163800  1.0  -0.6731
  O  O75  1  0.200100  0.784300  0.740900  1.0  -0.9258
  O  O76  1  0.435600  0.698800  0.755300  1.0  -0.6716
  O  O77  1  0.260900  0.570500  0.779900  1.0  -0.6178
  O  O78  1  0.179100  0.669400  0.531700  1.0  -0.5654
  O  O79  1  0.918300  0.926900  0.376000  1.0  -0.8847
  O  O80  1  0.989100  0.846400  0.579200  1.0  -0.8961
  O  O81  1  0.801900  0.780600  0.488500  1.0  -0.6845
  O  O82  1  0.795600  0.990200  0.670000  1.0  -0.636
  O  O83  1  0.106000  0.929700  0.146600  1.0  -0.8805
  O  O84  1  0.055900  0.858900  0.960300  1.0  -0.8942
  O  O85  1  0.266600  0.790600  0.060000  1.0  -0.6744
  O  O86  1  0.201700  0.010000  0.836200  1.0  -0.6728
