# generated using pymatgen
data_EuP3H15(CO)12
_symmetry_space_group_name_H-M   'P 1'
_cell_length_a   10.39000000
_cell_length_b   11.80300000
_cell_length_c   11.93400000
_cell_angle_alpha   82.96700000
_cell_angle_beta   81.36600000
_cell_angle_gamma   87.88400000
_symmetry_Int_Tables_number   1
_chemical_formula_structural   EuP3H15(CO)12
_chemical_formula_sum   'Eu2 P6 H30 C24 O24'
_cell_volume   1435.77572371
_cell_formula_units_Z   2
loop_
 _symmetry_equiv_pos_site_id
 _symmetry_equiv_pos_as_xyz
  1  'x, y, z'
loop_
 _atom_site_type_symbol
 _atom_site_label
 _atom_site_symmetry_multiplicity
 _atom_site_fract_x
 _atom_site_fract_y
 _atom_site_fract_z
 _atom_site_occupancy
 _atom_site_charge
  Eu  Eu1  1  0.980460  0.239920  0.075320  1.0  2.1524
  Eu  Eu2  1  0.019540  0.760080  0.924680  1.0  2.1535
  P  P3  1  0.705410  0.276500  0.314290  1.0  1.5912
  P  P4  1  0.116270  0.505480  0.115980  1.0  1.4821
  P  P5  1  0.847360  0.966130  0.105550  1.0  1.4902
  P  P6  1  0.294590  0.723500  0.685710  1.0  1.5942
  P  P7  1  0.883730  0.494520  0.884020  1.0  1.4827
  P  P8  1  0.152640  0.033870  0.894450  1.0  1.4907
  H  H9  1  0.553400  0.176300  0.328700  1.0  0.3801
  H  H10  1  0.817300  0.539400  0.326300  1.0  0.3939
  H  H11  1  0.198500  0.450500  0.255300  1.0  0.3948
  H  H12  1  0.243400  0.312900  0.945900  1.0  0.2977
  H  H13  1  0.757000  0.959000  0.266700  1.0  0.4739
  H  H14  1  0.759200  0.211700  0.947100  1.0  0.3751
  H  H15  1  0.671500  0.466300  0.245700  1.0  0.0815
  H  H16  1  0.453900  0.505200  0.316200  1.0  0.0912
  H  H17  1  0.703800  0.439900  0.541800  1.0  0.0951
  H  H18  1  0.202600  0.483900  0.927700  1.0  0.0965
  H  H19  1  0.358400  0.638700  0.931400  1.0  0.0931
  H  H20  1  0.423900  0.320300  0.071300  1.0  0.0793
  H  H21  1  0.820500  0.022200  0.915500  1.0  0.0892
  H  H22  1  0.565200  0.132500  0.107200  1.0  0.0839
  H  H23  1  0.652600  0.907000  0.880300  1.0  0.0957
  H  H24  1  0.446600  0.823700  0.671300  1.0  0.3801
  H  H25  1  0.182700  0.460600  0.673700  1.0  0.3911
  H  H26  1  0.801500  0.549500  0.744700  1.0  0.3964
  H  H27  1  0.756600  0.687100  0.054100  1.0  0.2973
  H  H28  1  0.243000  0.041000  0.733300  1.0  0.4729
  H  H29  1  0.240800  0.788300  0.052900  1.0  0.3757
  H  H30  1  0.328500  0.533700  0.754300  1.0  0.0814
  H  H31  1  0.546100  0.494800  0.683800  1.0  0.0912
  H  H32  1  0.296200  0.560100  0.458200  1.0  0.0949
  H  H33  1  0.797400  0.516100  0.072300  1.0  0.0973
  H  H34  1  0.641600  0.361300  0.068600  1.0  0.0927
  H  H35  1  0.576100  0.679700  0.928700  1.0  0.0798
  H  H36  1  0.179500  0.977800  0.084500  1.0  0.0888
  H  H37  1  0.434800  0.867500  0.892800  1.0  0.0841
  H  H38  1  0.347400  0.093000  0.119700  1.0  0.0954
  C  C39  1  0.695300  0.430600  0.318500  1.0  -0.2284
  C  C40  1  0.594300  0.467000  0.413400  1.0  0.051
  C  C41  1  0.472800  0.503000  0.390200  1.0  -0.0962
  C  C42  1  0.621900  0.464000  0.524800  1.0  -0.1381
  C  C43  1  0.227000  0.448300  0.000300  1.0  -0.0493
  C  C44  1  0.369100  0.473500  0.000200  1.0  0.049
  C  C45  1  0.414800  0.582500  0.958600  1.0  -0.0956
  C  C46  1  0.454000  0.392700  0.042000  1.0  -0.1213
  C  C47  1  0.774900  0.045800  0.987200  1.0  -0.0917
  C  C48  1  0.631600  0.023700  0.992800  1.0  0.088
  C  C49  1  0.539300  0.079200  0.064100  1.0  -0.1608
  C  C50  1  0.591200  0.944400  0.928600  1.0  -0.1043
  C  C51  1  0.304700  0.569400  0.681500  1.0  -0.2277
  C  C52  1  0.405700  0.533000  0.586600  1.0  0.0517
  C  C53  1  0.527200  0.497000  0.609800  1.0  -0.0895
  C  C54  1  0.378100  0.536000  0.475200  1.0  -0.1374
  C  C55  1  0.773000  0.551700  0.999700  1.0  -0.0536
  C  C56  1  0.630900  0.526500  0.999800  1.0  0.0506
  C  C57  1  0.585200  0.417500  0.041400  1.0  -0.0965
  C  C58  1  0.546000  0.607300  0.958000  1.0  -0.119
  C  C59  1  0.225100  0.954200  0.012800  1.0  -0.0966
  C  C60  1  0.368400  0.976300  0.007200  1.0  0.0886
  C  C61  1  0.460700  0.920800  0.935900  1.0  -0.1617
  C  C62  1  0.408800  0.055600  0.071400  1.0  -0.0949
  O  O63  1  0.800400  0.258700  0.211100  1.0  -0.9047
  O  O64  1  0.566600  0.242200  0.299600  1.0  -0.6649
  O  O65  1  0.744100  0.219000  0.425000  1.0  -0.614
  O  O66  1  0.819900  0.469700  0.328100  1.0  -0.5514
  O  O67  1  0.078300  0.624800  0.072500  1.0  -0.9092
  O  O68  1  0.009500  0.420100  0.151400  1.0  -0.8689
  O  O69  1  0.194200  0.513700  0.218700  1.0  -0.6657
  O  O70  1  0.202700  0.329800  0.009100  1.0  -0.6299
  O  O71  1  0.895600  0.852300  0.070100  1.0  -0.9206
  O  O72  1  0.945300  0.042100  0.138300  1.0  -0.888
  O  O73  1  0.733900  0.942000  0.208200  1.0  -0.6665
  O  O74  1  0.800700  0.164300  0.988600  1.0  -0.6586
  O  O75  1  0.199600  0.741300  0.788900  1.0  -0.9032
  O  O76  1  0.433400  0.757800  0.700400  1.0  -0.6668
  O  O77  1  0.255900  0.781000  0.575000  1.0  -0.6158
  O  O78  1  0.180100  0.530300  0.671900  1.0  -0.5497
  O  O79  1  0.921700  0.375200  0.927500  1.0  -0.9057
  O  O80  1  0.990500  0.579900  0.848600  1.0  -0.8695
  O  O81  1  0.805800  0.486300  0.781300  1.0  -0.6657
  O  O82  1  0.797300  0.670200  0.990900  1.0  -0.6296
  O  O83  1  0.104400  0.147700  0.929900  1.0  -0.9251
  O  O84  1  0.054700  0.957900  0.861700  1.0  -0.8938
  O  O85  1  0.266100  0.058000  0.791800  1.0  -0.6654
  O  O86  1  0.199300  0.835700  0.011400  1.0  -0.6606
