# generated using pymatgen
data_LaP3H15(CO)12
_symmetry_space_group_name_H-M   'P 1'
_cell_length_a   10.35000000
_cell_length_b   11.94000000
_cell_length_c   12.75000000
_cell_angle_alpha   104.97000000
_cell_angle_beta   90.47000000
_cell_angle_gamma   93.06000000
_symmetry_Int_Tables_number   1
_chemical_formula_structural   LaP3H15(CO)12
_chemical_formula_sum   'La2 P6 H30 C24 O24'
_cell_volume   1519.59184778
_cell_formula_units_Z   2
loop_
 _symmetry_equiv_pos_site_id
 _symmetry_equiv_pos_as_xyz
  1  'x, y, z'
loop_
 _atom_site_type_symbol
 _atom_site_label
 _atom_site_symmetry_multiplicity
 _atom_site_fract_x
 _atom_site_fract_y
 _atom_site_fract_z
 _atom_site_occupancy
 _atom_site_charge
  La  La1  1  0.999340  0.727330  0.920580  1.0  1.9213
  La  La2  1  0.000660  0.272670  0.079420  1.0  1.9234
  P  P3  1  0.199600  0.641100  0.668800  1.0  1.5354
  P  P4  1  0.134800  0.451600  0.898900  1.0  1.4085
  P  P5  1  0.857500  0.990800  0.894500  1.0  1.4165
  P  P6  1  0.800400  0.358900  0.331200  1.0  1.5329
  P  P7  1  0.865200  0.548400  0.101100  1.0  1.4111
  P  P8  1  0.142500  0.009200  0.105500  1.0  1.423
  H  H9  1  0.113700  0.744200  0.595100  1.0  0.4719
  H  H10  1  0.488800  0.792400  0.673300  1.0  0.4004
  H  H11  1  0.039300  0.298800  0.883200  1.0  0.3872
  H  H12  1  0.221700  0.710800  0.061400  1.0  0.2828
  H  H13  1  0.944700  0.132100  0.992300  1.0  0.3541
  H  H14  1  0.773700  0.814100  0.051100  1.0  0.3106
  H  H15  1  0.405800  0.655600  0.744000  1.0  0.0789
  H  H16  1  0.501700  0.479600  0.674400  1.0  0.1039
  H  H17  1  0.404100  0.652900  0.461500  1.0  0.1061
  H  H18  1  0.194700  0.545900  0.076900  1.0  0.0944
  H  H19  1  0.359300  0.409500  0.095500  1.0  0.1232
  H  H20  1  0.429700  0.634200  0.916300  1.0  0.0841
  H  H21  1  0.810300  0.992000  0.072300  1.0  0.1011
  H  H22  1  0.565200  0.822700  0.900400  1.0  0.0905
  H  H23  1  0.651500  0.132900  0.104000  1.0  0.0918
  H  H24  1  0.886300  0.255800  0.404900  1.0  0.4715
  H  H25  1  0.511200  0.207600  0.326700  1.0  0.4005
  H  H26  1  0.960700  0.701200  0.116800  1.0  0.3865
  H  H27  1  0.778300  0.289200  0.938600  1.0  0.2838
  H  H28  1  0.055300  0.867900  0.007700  1.0  0.3529
  H  H29  1  0.226300  0.185900  0.948900  1.0  0.3105
  H  H30  1  0.594200  0.344400  0.256000  1.0  0.0795
  H  H31  1  0.498300  0.520400  0.325600  1.0  0.104
  H  H32  1  0.595900  0.347100  0.538500  1.0  0.1059
  H  H33  1  0.805300  0.454100  0.923100  1.0  0.0956
  H  H34  1  0.640700  0.590500  0.904500  1.0  0.1228
  H  H35  1  0.570300  0.365800  0.083700  1.0  0.0838
  H  H36  1  0.189700  0.008000  0.927700  1.0  0.1007
  H  H37  1  0.434800  0.177300  0.099600  1.0  0.0905
  H  H38  1  0.348500  0.867100  0.896000  1.0  0.0922
  C  C39  1  0.374100  0.666300  0.674800  1.0  -0.222
  C  C40  1  0.438900  0.576400  0.580700  1.0  0.0422
  C  C41  1  0.499700  0.487600  0.603800  1.0  -0.1072
  C  C42  1  0.442000  0.589900  0.476800  1.0  -0.1574
  C  C43  1  0.229600  0.552600  0.007400  1.0  -0.249
  C  C44  1  0.371300  0.527700  0.006600  1.0  0.0699
  C  C45  1  0.415900  0.446100  0.057000  1.0  -0.1381
  C  C46  1  0.458200  0.579700  0.950400  1.0  -0.1125
  C  C47  1  0.770400  0.948500  0.002700  1.0  -0.236
  C  C48  1  0.628500  0.974800  0.003100  1.0  0.0391
  C  C49  1  0.539100  0.894200  0.940600  1.0  -0.124
  C  C50  1  0.591000  0.079100  0.062000  1.0  -0.0863
  C  C51  1  0.625900  0.333700  0.325200  1.0  -0.2217
  C  C52  1  0.561100  0.423600  0.419300  1.0  0.0415
  C  C53  1  0.500300  0.512400  0.396200  1.0  -0.1081
  C  C54  1  0.558000  0.410100  0.523200  1.0  -0.1582
  C  C55  1  0.770400  0.447400  0.992600  1.0  -0.2475
  C  C56  1  0.628700  0.472300  0.993400  1.0  0.0696
  C  C57  1  0.584100  0.553900  0.943000  1.0  -0.1406
  C  C58  1  0.541800  0.420300  0.049600  1.0  -0.1112
  C  C59  1  0.229600  0.051500  0.997300  1.0  -0.2344
  C  C60  1  0.371500  0.025200  0.996900  1.0  0.0393
  C  C61  1  0.460900  0.105800  0.059400  1.0  -0.123
  C  C62  1  0.409000  0.920900  0.938000  1.0  -0.0853
  O  O63  1  0.149300  0.717600  0.773700  1.0  -0.9054
  O  O64  1  0.151300  0.684300  0.572300  1.0  -0.6449
  O  O65  1  0.171900  0.512100  0.646900  1.0  -0.6575
  O  O66  1  0.409700  0.782800  0.671700  1.0  -0.5254
  O  O67  1  0.227100  0.414400  0.800600  1.0  -0.5918
  O  O68  1  0.028600  0.515400  0.868800  1.0  -0.7624
  O  O69  1  0.092000  0.332200  0.934600  1.0  -0.6915
  O  O70  1  0.210200  0.666200  0.997900  1.0  -0.6657
  O  O71  1  0.757100  0.985100  0.799800  1.0  -0.5458
  O  O72  1  0.955000  0.902600  0.854000  1.0  -0.8382
  O  O73  1  0.903900  0.121300  0.934900  1.0  -0.6404
  O  O74  1  0.788000  0.827300  0.989800  1.0  -0.6203
  O  O75  1  0.850700  0.282400  0.226300  1.0  -0.9056
  O  O76  1  0.848700  0.315700  0.427700  1.0  -0.6451
  O  O77  1  0.828100  0.487900  0.353100  1.0  -0.6586
  O  O78  1  0.590300  0.217200  0.328300  1.0  -0.5264
  O  O79  1  0.772900  0.585600  0.199400  1.0  -0.5923
  O  O80  1  0.971400  0.484600  0.131200  1.0  -0.7682
  O  O81  1  0.908000  0.667800  0.065400  1.0  -0.6958
  O  O82  1  0.789800  0.333800  0.002100  1.0  -0.6625
  O  O83  1  0.242900  0.014900  0.200200  1.0  -0.5435
  O  O84  1  0.045000  0.097400  0.146000  1.0  -0.8308
  O  O85  1  0.096100  0.878700  0.065100  1.0  -0.6381
  O  O86  1  0.212000  0.172700  0.010200  1.0  -0.6169
