# generated using pymatgen
data_AlPCO6
_symmetry_space_group_name_H-M   'P 1'
_cell_length_a   9.99200000
_cell_length_b   11.64400000
_cell_length_c   12.23100000
_cell_angle_alpha   90.00000000
_cell_angle_beta   90.00000000
_cell_angle_gamma   90.00000000
_symmetry_Int_Tables_number   1
_chemical_formula_structural   AlPCO6
_chemical_formula_sum   'Al8 P8 C8 O48'
_cell_volume   1423.03829789
_cell_formula_units_Z   8
loop_
 _symmetry_equiv_pos_site_id
 _symmetry_equiv_pos_as_xyz
  1  'x, y, z'
loop_
 _atom_site_type_symbol
 _atom_site_label
 _atom_site_symmetry_multiplicity
 _atom_site_fract_x
 _atom_site_fract_y
 _atom_site_fract_z
 _atom_site_occupancy
 _atom_site_charge
  Al  Al1  1  0.045300  0.275100  0.000000  1.0  1.7437
  Al  Al2  1  0.954700  0.724900  0.000000  1.0  1.7454
  Al  Al3  1  0.954700  0.275100  0.500000  1.0  1.7438
  Al  Al4  1  0.045300  0.724900  0.500000  1.0  1.745
  Al  Al5  1  0.769100  0.000000  0.250000  1.0  1.861
  Al  Al6  1  0.230900  0.000000  0.250000  1.0  1.8601
  Al  Al7  1  0.230900  0.000000  0.750000  1.0  1.8601
  Al  Al8  1  0.769100  0.000000  0.750000  1.0  1.861
  P  P9  1  0.274200  0.088100  0.000000  1.0  1.7999
  P  P10  1  0.725800  0.911900  0.000000  1.0  1.7995
  P  P11  1  0.725800  0.088100  0.500000  1.0  1.7993
  P  P12  1  0.274200  0.911900  0.500000  1.0  1.8
  P  P13  1  0.000000  0.197700  0.250000  1.0  2.0506
  P  P14  1  0.000000  0.802300  0.250000  1.0  2.0507
  P  P15  1  0.000000  0.802300  0.750000  1.0  2.0507
  P  P16  1  0.000000  0.197700  0.750000  1.0  2.0506
  C  C17  1  0.074900  0.510200  0.000000  1.0  0.6324
  C  C18  1  0.925100  0.489800  0.000000  1.0  0.6343
  C  C19  1  0.925100  0.510200  0.500000  1.0  0.6345
  C  C20  1  0.074900  0.489800  0.500000  1.0  0.6325
  C  C21  1  0.500000  0.065900  0.250000  1.0  0.6431
  C  C22  1  0.500000  0.934100  0.250000  1.0  0.6428
  C  C23  1  0.500000  0.934100  0.750000  1.0  0.6428
  C  C24  1  0.500000  0.065900  0.750000  1.0  0.6431
  O  O25  1  0.030800  0.275100  0.152100  1.0  -0.8506
  O  O26  1  0.880000  0.122000  0.222300  1.0  -0.9612
  O  O27  1  0.238500  0.019500  0.100300  1.0  -0.9064
  O  O28  1  0.612000  0.112300  0.241600  1.0  -0.5118
  O  O29  1  0.969200  0.724900  0.152100  1.0  -0.8492
  O  O30  1  0.120000  0.878000  0.222300  1.0  -0.9603
  O  O31  1  0.761500  0.980500  0.100300  1.0  -0.9065
  O  O32  1  0.388000  0.887700  0.241600  1.0  -0.5108
  O  O33  1  0.969200  0.275100  0.347900  1.0  -0.8497
  O  O34  1  0.120000  0.122000  0.277700  1.0  -0.9631
  O  O35  1  0.761500  0.019500  0.399700  1.0  -0.9075
  O  O36  1  0.388000  0.112300  0.258400  1.0  -0.5112
  O  O37  1  0.030800  0.724900  0.347900  1.0  -0.8482
  O  O38  1  0.880000  0.878000  0.277700  1.0  -0.9629
  O  O39  1  0.238500  0.980500  0.399700  1.0  -0.9075
  O  O40  1  0.612000  0.887700  0.258400  1.0  -0.5105
  O  O41  1  0.969200  0.724900  0.847900  1.0  -0.8493
  O  O42  1  0.120000  0.878000  0.777700  1.0  -0.9613
  O  O43  1  0.761500  0.980500  0.899700  1.0  -0.9076
  O  O44  1  0.388000  0.887700  0.758400  1.0  -0.5109
  O  O45  1  0.030800  0.275100  0.847900  1.0  -0.8508
  O  O46  1  0.880000  0.122000  0.777700  1.0  -0.9632
  O  O47  1  0.238500  0.019500  0.899700  1.0  -0.9073
  O  O48  1  0.612000  0.112300  0.758400  1.0  -0.5111
  O  O49  1  0.030800  0.724900  0.652100  1.0  -0.8481
  O  O50  1  0.880000  0.878000  0.722300  1.0  -0.9612
  O  O51  1  0.238500  0.980500  0.600300  1.0  -0.9063
  O  O52  1  0.612000  0.887700  0.741600  1.0  -0.5106
  O  O53  1  0.969200  0.275100  0.652100  1.0  -0.8494
  O  O54  1  0.120000  0.122000  0.722300  1.0  -0.9616
  O  O55  1  0.761500  0.019500  0.600300  1.0  -0.9067
  O  O56  1  0.388000  0.112300  0.741600  1.0  -0.5115
  O  O57  1  0.212500  0.206800  0.000000  1.0  -0.8429
  O  O58  1  0.146600  0.421600  0.000000  1.0  -0.4728
  O  O59  1  0.887600  0.386300  0.000000  1.0  -0.4867
  O  O60  1  0.431300  0.109300  0.000000  1.0  -0.4717
  O  O61  1  0.787500  0.793200  0.000000  1.0  -0.8427
  O  O62  1  0.853400  0.578400  0.000000  1.0  -0.4686
  O  O63  1  0.112400  0.613700  0.000000  1.0  -0.4872
  O  O64  1  0.568700  0.890700  0.000000  1.0  -0.4733
  O  O65  1  0.787500  0.206800  0.500000  1.0  -0.844
  O  O66  1  0.853400  0.421600  0.500000  1.0  -0.4685
  O  O67  1  0.112400  0.386300  0.500000  1.0  -0.4874
  O  O68  1  0.568700  0.109300  0.500000  1.0  -0.4722
  O  O69  1  0.212500  0.793200  0.500000  1.0  -0.8421
  O  O70  1  0.146600  0.578400  0.500000  1.0  -0.4724
  O  O71  1  0.887600  0.613700  0.500000  1.0  -0.4875
  O  O72  1  0.431300  0.890700  0.500000  1.0  -0.4726
