# generated using pymatgen
data_Zn7(PO4)6
_symmetry_space_group_name_H-M   'P 1'
_cell_length_a   15.35600000
_cell_length_b   15.35600000
_cell_length_c   12.61700000
_cell_angle_alpha   90.00000000
_cell_angle_beta   90.00000000
_cell_angle_gamma   120.00000000
_symmetry_Int_Tables_number   1
_chemical_formula_structural   Zn7(PO4)6
_chemical_formula_sum   'Zn21 P18 O72'
_cell_volume   2576.57590797
_cell_formula_units_Z   3
loop_
 _symmetry_equiv_pos_site_id
 _symmetry_equiv_pos_as_xyz
  1  'x, y, z'
loop_
 _atom_site_type_symbol
 _atom_site_label
 _atom_site_symmetry_multiplicity
 _atom_site_fract_x
 _atom_site_fract_y
 _atom_site_fract_z
 _atom_site_occupancy
 _atom_site_charge
  Zn  Zn1  1  0.647600  0.682800  0.993200  1.0  1.1664
  Zn  Zn2  1  0.771700  0.931600  0.194400  1.0  0.8723
  Zn  Zn3  1  0.314270  0.016130  0.326530  1.0  1.1664
  Zn  Zn4  1  0.438370  0.264930  0.527730  1.0  0.8722
  Zn  Zn5  1  0.980930  0.349470  0.659870  1.0  1.174
  Zn  Zn6  1  0.105030  0.598270  0.861070  1.0  0.8723
  Zn  Zn7  1  0.317200  0.964800  0.993200  1.0  1.1757
  Zn  Zn8  1  0.068400  0.840100  0.194400  1.0  0.8738
  Zn  Zn9  1  0.983870  0.298130  0.326530  1.0  1.1757
  Zn  Zn10  1  0.735070  0.173430  0.527730  1.0  0.8738
  Zn  Zn11  1  0.650530  0.631470  0.659870  1.0  1.1757
  Zn  Zn12  1  0.401730  0.506770  0.861070  1.0  0.8738
  Zn  Zn13  1  0.035200  0.352400  0.993200  1.0  1.1757
  Zn  Zn14  1  0.159900  0.228300  0.194400  1.0  0.8731
  Zn  Zn15  1  0.701870  0.685730  0.326530  1.0  1.1757
  Zn  Zn16  1  0.826570  0.561630  0.527730  1.0  0.8731
  Zn  Zn17  1  0.368530  0.019070  0.659870  1.0  1.1681
  Zn  Zn18  1  0.493230  0.894970  0.861070  1.0  0.8731
  Zn  Zn19  1  0.333333  0.666667  0.152100  1.0  0.766
  Zn  Zn20  1  0.000000  0.000000  0.485430  1.0  0.7658
  Zn  Zn21  1  0.666667  0.333333  0.818770  1.0  0.7661
  P  P22  1  0.565300  0.739400  0.181300  1.0  1.7601
  P  P23  1  0.843900  0.774100  0.129900  1.0  1.8018
  P  P24  1  0.231970  0.072730  0.514630  1.0  1.7601
  P  P25  1  0.510570  0.107430  0.463230  1.0  1.8028
  P  P26  1  0.898630  0.406070  0.847970  1.0  1.7601
  P  P27  1  0.177230  0.440770  0.796570  1.0  1.8018
  P  P28  1  0.260600  0.825900  0.181300  1.0  1.7607
  P  P29  1  0.225900  0.069800  0.129900  1.0  1.8024
  P  P30  1  0.927270  0.159230  0.514630  1.0  1.7607
  P  P31  1  0.892570  0.403130  0.463230  1.0  1.8024
  P  P32  1  0.593930  0.492570  0.847970  1.0  1.7607
  P  P33  1  0.559230  0.736470  0.796570  1.0  1.8024
  P  P34  1  0.174100  0.434700  0.181300  1.0  1.7599
  P  P35  1  0.930200  0.156100  0.129900  1.0  1.802
  P  P36  1  0.840770  0.768030  0.514630  1.0  1.7599
  P  P37  1  0.596870  0.489430  0.463230  1.0  1.8019
  P  P38  1  0.507430  0.101370  0.847970  1.0  1.7599
  P  P39  1  0.263530  0.822770  0.796570  1.0  1.802
  O  O40  1  0.793000  0.752000  0.022000  1.0  -0.7127
  O  O41  1  0.783000  0.690000  0.208000  1.0  -0.7502
  O  O42  1  0.547000  0.655000  0.101000  1.0  -0.7485
  O  O43  1  0.608000  0.726000  0.287000  1.0  -0.7746
  O  O44  1  0.640000  0.840000  0.134000  1.0  -0.7198
  O  O45  1  0.946000  0.785000  0.109000  1.0  -0.7032
  O  O46  1  0.860000  0.871000  0.177000  1.0  -0.7278
  O  O47  1  0.470000  0.741000  0.206000  1.0  -0.7364
  O  O48  1  0.459670  0.085330  0.355330  1.0  -0.7132
  O  O49  1  0.449670  0.023330  0.541330  1.0  -0.7502
  O  O50  1  0.213670  0.988330  0.434330  1.0  -0.7485
  O  O51  1  0.274670  0.059330  0.620330  1.0  -0.7747
  O  O52  1  0.306670  0.173330  0.467330  1.0  -0.7198
  O  O53  1  0.612670  0.118330  0.442330  1.0  -0.7032
  O  O54  1  0.526670  0.204330  0.510330  1.0  -0.7278
  O  O55  1  0.136670  0.074330  0.539330  1.0  -0.7364
  O  O56  1  0.126330  0.418670  0.688670  1.0  -0.7127
  O  O57  1  0.116330  0.356670  0.874670  1.0  -0.7502
  O  O58  1  0.880330  0.321670  0.767670  1.0  -0.7485
  O  O59  1  0.941330  0.392670  0.953670  1.0  -0.7746
  O  O60  1  0.973330  0.506670  0.800670  1.0  -0.7198
  O  O61  1  0.279330  0.451670  0.775670  1.0  -0.7033
  O  O62  1  0.193330  0.537670  0.843670  1.0  -0.7278
  O  O63  1  0.803330  0.407670  0.872670  1.0  -0.7328
  O  O64  1  0.248000  0.041000  0.022000  1.0  -0.7054
  O  O65  1  0.310000  0.093000  0.208000  1.0  -0.7493
  O  O66  1  0.345000  0.892000  0.101000  1.0  -0.7465
  O  O67  1  0.274000  0.882000  0.287000  1.0  -0.7734
  O  O68  1  0.160000  0.800000  0.134000  1.0  -0.7178
  O  O69  1  0.215000  0.161000  0.109000  1.0  -0.7042
  O  O70  1  0.129000  0.989000  0.177000  1.0  -0.7304
  O  O71  1  0.259000  0.729000  0.206000  1.0  -0.7221
  O  O72  1  0.914670  0.374330  0.355330  1.0  -0.7126
  O  O73  1  0.976670  0.426330  0.541330  1.0  -0.7493
  O  O74  1  0.011670  0.225330  0.434330  1.0  -0.7465
  O  O75  1  0.940670  0.215330  0.620330  1.0  -0.7686
  O  O76  1  0.826670  0.133330  0.467330  1.0  -0.7178
  O  O77  1  0.881670  0.494330  0.442330  1.0  -0.7042
  O  O78  1  0.795670  0.322330  0.510330  1.0  -0.7304
  O  O79  1  0.925670  0.062330  0.539330  1.0  -0.7221
  O  O80  1  0.581330  0.707670  0.688670  1.0  -0.705
  O  O81  1  0.643330  0.759670  0.874670  1.0  -0.7493
  O  O82  1  0.678330  0.558670  0.767670  1.0  -0.7465
  O  O83  1  0.607330  0.548670  0.953670  1.0  -0.7735
  O  O84  1  0.493330  0.466670  0.800670  1.0  -0.7178
  O  O85  1  0.548330  0.827670  0.775670  1.0  -0.7042
  O  O86  1  0.462330  0.655670  0.843670  1.0  -0.7304
  O  O87  1  0.592330  0.395670  0.872670  1.0  -0.7365
  O  O88  1  0.959000  0.207000  0.022000  1.0  -0.712
  O  O89  1  0.907000  0.217000  0.208000  1.0  -0.7501
  O  O90  1  0.108000  0.453000  0.101000  1.0  -0.7482
  O  O91  1  0.118000  0.392000  0.287000  1.0  -0.7745
  O  O92  1  0.200000  0.360000  0.134000  1.0  -0.7182
  O  O93  1  0.839000  0.054000  0.109000  1.0  -0.7022
  O  O94  1  0.011000  0.140000  0.177000  1.0  -0.7294
  O  O95  1  0.271000  0.530000  0.206000  1.0  -0.7314
  O  O96  1  0.625670  0.540330  0.355330  1.0  -0.71
  O  O97  1  0.573670  0.550330  0.541330  1.0  -0.7501
  O  O98  1  0.774670  0.786330  0.434330  1.0  -0.7482
  O  O99  1  0.784670  0.725330  0.620330  1.0  -0.7745
  O  O100  1  0.866670  0.693330  0.467330  1.0  -0.7182
  O  O101  1  0.505670  0.387330  0.442330  1.0  -0.7022
  O  O102  1  0.677670  0.473330  0.510330  1.0  -0.7293
  O  O103  1  0.937670  0.863330  0.539330  1.0  -0.7314
  O  O104  1  0.292330  0.873670  0.688670  1.0  -0.712
  O  O105  1  0.240330  0.883670  0.874670  1.0  -0.7501
  O  O106  1  0.441330  0.119670  0.767670  1.0  -0.7482
  O  O107  1  0.451330  0.058670  0.953670  1.0  -0.7745
  O  O108  1  0.533330  0.026670  0.800670  1.0  -0.7182
  O  O109  1  0.172330  0.720670  0.775670  1.0  -0.7022
  O  O110  1  0.344330  0.806670  0.843670  1.0  -0.7294
  O  O111  1  0.604330  0.196670  0.872670  1.0  -0.7251
