# generated using pymatgen
data_Zn4H10C20N2O13
_symmetry_space_group_name_H-M   'P 1'
_cell_length_a   10.33700000
_cell_length_b   14.43700000
_cell_length_c   19.42000000
_cell_angle_alpha   90.00000000
_cell_angle_beta   89.73100000
_cell_angle_gamma   90.00000000
_symmetry_Int_Tables_number   1
_chemical_formula_structural   Zn4H10C20N2O13
_chemical_formula_sum   'Zn8 H20 C40 N4 O26'
_cell_volume   2898.11698293
_cell_formula_units_Z   2
loop_
 _symmetry_equiv_pos_site_id
 _symmetry_equiv_pos_as_xyz
  1  'x, y, z'
loop_
 _atom_site_type_symbol
 _atom_site_label
 _atom_site_symmetry_multiplicity
 _atom_site_fract_x
 _atom_site_fract_y
 _atom_site_fract_z
 _atom_site_occupancy
 _atom_site_charge
  Zn  Zn1  1  0.654430  0.915990  0.751450  1.0  1.0562
  Zn  Zn2  1  0.969150  0.985040  0.750290  1.0  1.0307
  Zn  Zn3  1  0.155050  0.780100  0.748610  1.0  1.0304
  Zn  Zn4  1  0.469940  0.710620  0.749710  1.0  1.0326
  Zn  Zn5  1  0.345570  0.415990  0.248550  1.0  1.055
  Zn  Zn6  1  0.030850  0.485040  0.249710  1.0  1.0305
  Zn  Zn7  1  0.844950  0.280100  0.251390  1.0  1.0314
  Zn  Zn8  1  0.530060  0.210620  0.250290  1.0  1.0327
  H  H9  1  0.955300  0.086700  0.949700  1.0  0.1274
  H  H10  1  0.923600  0.175500  0.054400  1.0  0.1198
  H  H11  1  0.558900  0.056500  0.058200  1.0  0.1262
  H  H12  1  0.573800  0.053000  0.934600  1.0  0.1272
  H  H13  1  0.575000  0.051100  0.563100  1.0  0.0904
  H  H14  1  0.549900  0.080200  0.449300  1.0  0.1274
  H  H15  1  0.932800  0.174900  0.450500  1.0  0.1353
  H  H16  1  0.947000  0.093800  0.556500  1.0  0.1144
  H  H17  1  0.286000  0.079300  0.720100  1.0  0.1508
  H  H18  1  0.271600  0.060800  0.798400  1.0  0.1595
  H  H19  1  0.044700  0.586700  0.050300  1.0  0.1268
  H  H20  1  0.076400  0.675500  0.945600  1.0  0.1194
  H  H21  1  0.441100  0.556500  0.941800  1.0  0.1261
  H  H22  1  0.426200  0.553000  0.065400  1.0  0.1267
  H  H23  1  0.425000  0.551100  0.436900  1.0  0.0912
  H  H24  1  0.450100  0.580200  0.550700  1.0  0.1268
  H  H25  1  0.067200  0.674900  0.549500  1.0  0.1345
  H  H26  1  0.053000  0.593800  0.443500  1.0  0.1135
  H  H27  1  0.714000  0.579300  0.279900  1.0  0.152
  H  H28  1  0.728400  0.560800  0.201600  1.0  0.1631
  C  C29  1  0.791800  0.026700  0.869400  1.0  0.6773
  C  C30  1  0.769200  0.066300  0.938000  1.0  -0.1061
  C  C31  1  0.873600  0.095600  0.968800  1.0  -0.0957
  C  C32  1  0.855700  0.143000  0.034500  1.0  -0.0568
  C  C33  1  0.734300  0.138700  0.067200  1.0  -0.1415
  C  C34  1  0.721500  0.169100  0.144300  1.0  0.7025
  C  C35  1  0.628700  0.080000  0.033400  1.0  -0.0527
  C  C36  1  0.644000  0.064300  0.963100  1.0  -0.038
  C  C37  1  0.792300  0.024800  0.643300  1.0  0.6647
  C  C38  1  0.756400  0.064900  0.565900  1.0  -0.1037
  C  C39  1  0.647100  0.067500  0.537000  1.0  -0.042
  C  C40  1  0.627900  0.092500  0.471200  1.0  -0.0302
  C  C41  1  0.731100  0.138700  0.435700  1.0  -0.1631
  C  C42  1  0.724000  0.172500  0.361700  1.0  0.7197
  C  C43  1  0.862300  0.144600  0.470200  1.0  -0.0781
  C  C44  1  0.867800  0.100000  0.534500  1.0  -0.0665
  C  C45  1  0.231000  0.049300  0.754100  1.0  -0.0415
  C  C46  1  0.364900  0.918900  0.745300  1.0  0.7201
  C  C47  1  0.866000  0.791800  0.752900  1.0  0.5821
  C  C48  1  0.243000  0.969000  0.744200  1.0  0.2362
  C  C49  1  0.208200  0.526700  0.130600  1.0  0.6794
  C  C50  1  0.230800  0.566300  0.062000  1.0  -0.1069
  C  C51  1  0.126400  0.595600  0.031200  1.0  -0.1097
  C  C52  1  0.144300  0.643000  0.965500  1.0  -0.0582
  C  C53  1  0.265700  0.638700  0.932800  1.0  -0.1417
  C  C54  1  0.278500  0.669100  0.855700  1.0  0.703
  C  C55  1  0.371300  0.580000  0.966600  1.0  -0.0526
  C  C56  1  0.356000  0.564300  0.036900  1.0  -0.0381
  C  C57  1  0.207700  0.524800  0.356700  1.0  0.6649
  C  C58  1  0.243600  0.564900  0.434100  1.0  -0.1067
  C  C59  1  0.352900  0.567500  0.463000  1.0  -0.0431
  C  C60  1  0.372100  0.592500  0.528800  1.0  -0.0304
  C  C61  1  0.268900  0.638700  0.564300  1.0  -0.1644
  C  C62  1  0.276000  0.672500  0.638300  1.0  0.7197
  C  C63  1  0.137700  0.644600  0.529800  1.0  -0.0809
  C  C64  1  0.132200  0.600000  0.465500  1.0  -0.0682
  C  C65  1  0.769000  0.549300  0.245900  1.0  -0.0414
  C  C66  1  0.635100  0.418900  0.254700  1.0  0.7161
  C  C67  1  0.134000  0.291800  0.247100  1.0  0.5827
  C  C68  1  0.757000  0.469000  0.255800  1.0  0.2358
  N  N69  1  0.131700  0.914400  0.754200  1.0  -0.7403
  N  N70  1  0.626400  0.782500  0.746700  1.0  -0.6294
  N  N71  1  0.868300  0.414400  0.245800  1.0  -0.736
  N  N72  1  0.373600  0.282500  0.253300  1.0  -0.6289
  O  O73  1  0.896500  0.031600  0.837900  1.0  -0.58
  O  O74  1  0.689800  0.987900  0.835200  1.0  -0.6713
  O  O75  1  0.605900  0.163300  0.164300  1.0  -0.5982
  O  O76  1  0.816900  0.210700  0.163000  1.0  -0.5463
  O  O77  1  0.895100  0.036000  0.665700  1.0  -0.5303
  O  O78  1  0.691400  0.987300  0.667200  1.0  -0.6132
  O  O79  1  0.604900  0.168600  0.336700  1.0  -0.6501
  O  O80  1  0.814800  0.212000  0.338100  1.0  -0.5461
  O  O81  1  0.111700  0.102200  0.755100  1.0  -0.4629
  O  O82  1  0.356900  0.833400  0.750100  1.0  -0.6277
  O  O83  1  0.463700  0.961500  0.746800  1.0  -0.5261
  O  O84  1  0.971000  0.739800  0.750600  1.0  -0.5466
  O  O85  1  0.853000  0.871000  0.749600  1.0  -0.4437
  O  O86  1  0.103500  0.531600  0.162100  1.0  -0.5811
  O  O87  1  0.310200  0.487900  0.164800  1.0  -0.6716
  O  O88  1  0.394100  0.663300  0.835700  1.0  -0.5974
  O  O89  1  0.183100  0.710700  0.837000  1.0  -0.5467
  O  O90  1  0.104900  0.536000  0.334300  1.0  -0.5401
  O  O91  1  0.308600  0.487300  0.332800  1.0  -0.6126
  O  O92  1  0.395100  0.668600  0.663300  1.0  -0.6497
  O  O93  1  0.185200  0.712000  0.661900  1.0  -0.546
  O  O94  1  0.888300  0.602200  0.244900  1.0  -0.4442
  O  O95  1  0.643100  0.333400  0.249900  1.0  -0.6274
  O  O96  1  0.536300  0.461500  0.253200  1.0  -0.5247
  O  O97  1  0.029000  0.239800  0.249400  1.0  -0.5435
  O  O98  1  0.147000  0.371000  0.250400  1.0  -0.4421
