# generated using pymatgen
data_Zn3H54C64(N5O2)4
_symmetry_space_group_name_H-M   'P 1'
_cell_length_a   9.81000000
_cell_length_b   18.57100000
_cell_length_c   20.23090000
_cell_angle_alpha   80.76480000
_cell_angle_beta   75.96870000
_cell_angle_gamma   74.68520000
_symmetry_Int_Tables_number   1
_chemical_formula_structural   Zn3H54C64(N5O2)4
_chemical_formula_sum   'Zn6 H108 C128 N40 O16'
_cell_volume   3430.38022166
_cell_formula_units_Z   2
loop_
 _symmetry_equiv_pos_site_id
 _symmetry_equiv_pos_as_xyz
  1  'x, y, z'
loop_
 _atom_site_type_symbol
 _atom_site_label
 _atom_site_symmetry_multiplicity
 _atom_site_fract_x
 _atom_site_fract_y
 _atom_site_fract_z
 _atom_site_occupancy
 _atom_site_charge
  Zn  Zn1  1  0.662140  0.599890  0.821010  1.0  0.8094
  Zn  Zn2  1  0.083040  0.900110  0.678990  1.0  0.8087
  Zn  Zn3  1  0.337860  0.400110  0.178990  1.0  0.8096
  Zn  Zn4  1  0.916960  0.099890  0.321010  1.0  0.8092
  Zn  Zn5  1  0.008890  0.750000  0.250000  1.0  0.857
  Zn  Zn6  1  0.991110  0.250000  0.750000  1.0  0.8572
  H  H7  1  0.166600  0.237000  0.888200  1.0  0.2668
  H  H8  1  0.900600  0.549100  0.199300  1.0  0.0972
  H  H9  1  0.892700  0.421600  0.207400  1.0  0.0769
  H  H10  1  0.741400  0.472800  0.236000  1.0  0.0565
  H  H11  1  0.787100  0.363700  0.313100  1.0  0.0558
  H  H12  1  0.929800  0.382300  0.320100  1.0  0.0732
  H  H13  1  0.747600  0.419000  0.414200  1.0  0.0735
  H  H14  1  0.649000  0.469700  0.365700  1.0  0.06
  H  H15  1  0.909000  0.496300  0.383100  1.0  0.0751
  H  H16  1  0.754100  0.546800  0.407000  1.0  0.08
  H  H17  1  0.731100  0.583200  0.294600  1.0  0.0941
  H  H18  1  0.426400  0.558400  0.936600  1.0  0.0594
  H  H19  1  0.283200  0.475500  0.967500  1.0  0.1339
  H  H20  1  0.487100  0.381100  0.795100  1.0  0.1166
  H  H21  1  0.629600  0.464300  0.770900  1.0  0.0819
  H  H22  1  0.018500  0.183400  0.976600  1.0  0.1361
  H  H23  1  0.842800  0.146900  0.063500  1.0  0.0752
  H  H24  1  0.782500  0.324600  0.153600  1.0  0.0613
  H  H25  1  0.957700  0.367200  0.071200  1.0  0.1304
  H  H26  1  0.134800  0.651700  0.140300  1.0  0.0855
  H  H27  1  0.304300  0.639300  0.040700  1.0  0.1206
  H  H28  1  0.438000  0.811800  0.078400  1.0  0.1314
  H  H29  1  0.258100  0.822100  0.175700  1.0  0.0752
  H  H30  1  0.762100  0.851900  0.906700  1.0  0.1198
  H  H31  1  0.919100  0.910100  0.828900  1.0  0.0892
  H  H32  1  0.995300  0.757500  0.703900  1.0  0.0679
  H  H33  1  0.836000  0.696300  0.779100  1.0  0.1072
  H  H34  1  0.291800  0.263000  0.611800  1.0  0.266
  H  H35  1  0.649000  0.950900  0.300700  1.0  0.0966
  H  H36  1  0.521700  0.078400  0.292600  1.0  0.0776
  H  H37  1  0.450200  0.027200  0.264000  1.0  0.0551
  H  H38  1  0.463900  0.136300  0.186900  1.0  0.0573
  H  H39  1  0.632200  0.117700  0.179900  1.0  0.0724
  H  H40  1  0.580800  0.081000  0.085800  1.0  0.0727
  H  H41  1  0.484400  0.030300  0.134300  1.0  0.0518
  H  H42  1  0.788400  0.003700  0.116900  1.0  0.0787
  H  H43  1  0.707900  0.953200  0.093000  1.0  0.0758
  H  H44  1  0.608900  0.916800  0.205400  1.0  0.0934
  H  H45  1  0.921400  0.941600  0.563400  1.0  0.0601
  H  H46  1  0.726200  0.024500  0.532500  1.0  0.1325
  H  H47  1  0.663300  0.118900  0.704900  1.0  0.1148
  H  H48  1  0.864800  0.035700  0.729100  1.0  0.0829
  H  H49  1  0.178500  0.316600  0.523400  1.0  0.1366
  H  H50  1  0.053200  0.353100  0.436500  1.0  0.0758
  H  H51  1  0.260700  0.175400  0.346400  1.0  0.0627
  H  H52  1  0.396100  0.132800  0.428800  1.0  0.131
  H  H53  1  0.926800  0.848300  0.359700  1.0  0.0856
  H  H54  1  0.984300  0.860700  0.459300  1.0  0.1206
  H  H55  1  0.328200  0.688200  0.421600  1.0  0.1316
  H  H56  1  0.255900  0.677900  0.324300  1.0  0.0753
  H  H57  1  0.520700  0.648100  0.593300  1.0  0.1214
  H  H58  1  0.658100  0.589900  0.671100  1.0  0.0891
  H  H59  1  0.456700  0.742500  0.796100  1.0  0.07
  H  H60  1  0.311400  0.803700  0.720900  1.0  0.1072
  H  H61  1  0.833400  0.763000  0.111800  1.0  0.2662
  H  H62  1  0.099400  0.450900  0.800700  1.0  0.0965
  H  H63  1  0.107300  0.578400  0.792600  1.0  0.0775
  H  H64  1  0.258600  0.527200  0.764000  1.0  0.0575
  H  H65  1  0.212900  0.636300  0.686900  1.0  0.0556
  H  H66  1  0.070200  0.617700  0.679900  1.0  0.0723
  H  H67  1  0.252400  0.581000  0.585800  1.0  0.0732
  H  H68  1  0.351000  0.530300  0.634300  1.0  0.0595
  H  H69  1  0.091000  0.503700  0.616900  1.0  0.0746
  H  H70  1  0.245900  0.453200  0.593000  1.0  0.0778
  H  H71  1  0.268900  0.416800  0.705400  1.0  0.0945
  H  H72  1  0.573600  0.441600  0.063400  1.0  0.06
  H  H73  1  0.716800  0.524500  0.032500  1.0  0.1342
  H  H74  1  0.512900  0.618900  0.204900  1.0  0.1166
  H  H75  1  0.370400  0.535700  0.229100  1.0  0.0817
  H  H76  1  0.981500  0.816600  0.023400  1.0  0.1362
  H  H77  1  0.157200  0.853100  0.936500  1.0  0.0758
  H  H78  1  0.217500  0.675400  0.846400  1.0  0.0618
  H  H79  1  0.042300  0.632800  0.928800  1.0  0.1308
  H  H80  1  0.865200  0.348300  0.859700  1.0  0.0851
  H  H81  1  0.695700  0.360700  0.959300  1.0  0.1199
  H  H82  1  0.562000  0.188200  0.921600  1.0  0.1311
  H  H83  1  0.741900  0.177900  0.824300  1.0  0.075
  H  H84  1  0.237900  0.148100  0.093300  1.0  0.1207
  H  H85  1  0.080900  0.089900  0.171100  1.0  0.0882
  H  H86  1  0.004700  0.242500  0.296100  1.0  0.0678
  H  H87  1  0.164000  0.303700  0.220900  1.0  0.107
  H  H88  1  0.708200  0.737000  0.388200  1.0  0.2683
  H  H89  1  0.351000  0.049100  0.699300  1.0  0.0979
  H  H90  1  0.478300  0.921600  0.707400  1.0  0.0779
  H  H91  1  0.549800  0.972800  0.736000  1.0  0.0563
  H  H92  1  0.536100  0.863700  0.813100  1.0  0.0574
  H  H93  1  0.367800  0.882300  0.820100  1.0  0.0718
  H  H94  1  0.419200  0.919000  0.914200  1.0  0.0716
  H  H95  1  0.515600  0.969700  0.865700  1.0  0.0551
  H  H96  1  0.211600  0.996300  0.883100  1.0  0.0786
  H  H97  1  0.292100  0.046800  0.907000  1.0  0.077
  H  H98  1  0.391100  0.083200  0.794600  1.0  0.0931
  H  H99  1  0.078600  0.058400  0.436600  1.0  0.0592
  H  H100  1  0.273800  0.975500  0.467500  1.0  0.1314
  H  H101  1  0.336700  0.881100  0.295100  1.0  0.1149
  H  H102  1  0.135200  0.964300  0.270900  1.0  0.0831
  H  H103  1  0.821500  0.683400  0.476600  1.0  0.1365
  H  H104  1  0.946800  0.646900  0.563500  1.0  0.0756
  H  H105  1  0.739300  0.824600  0.653600  1.0  0.063
  H  H106  1  0.603900  0.867200  0.571200  1.0  0.1305
  H  H107  1  0.073200  0.151700  0.640300  1.0  0.0856
  H  H108  1  0.015700  0.139300  0.540700  1.0  0.1201
  H  H109  1  0.671800  0.311800  0.578400  1.0  0.132
  H  H110  1  0.744100  0.322100  0.675700  1.0  0.0753
  H  H111  1  0.479300  0.351900  0.406700  1.0  0.1205
  H  H112  1  0.341900  0.410100  0.328900  1.0  0.0892
  H  H113  1  0.543300  0.257500  0.203900  1.0  0.0692
  H  H114  1  0.688600  0.196300  0.279100  1.0  0.107
  C  C115  1  0.069300  0.486900  0.241100  1.0  0.6861
  C  C116  1  0.910000  0.516600  0.242000  1.0  -0.1759
  C  C117  1  0.838500  0.452600  0.243800  1.0  -0.1122
  C  C118  1  0.832400  0.404200  0.313200  1.0  -0.1185
  C  C119  1  0.748200  0.450500  0.370900  1.0  -0.1187
  C  C120  1  0.814600  0.515600  0.371800  1.0  -0.1203
  C  C121  1  0.830100  0.563900  0.301900  1.0  -0.165
  C  C122  1  0.882400  0.631500  0.302300  1.0  0.6938
  C  C123  1  0.438300  0.522000  0.907800  1.0  0.1809
  C  C124  1  0.351600  0.472400  0.926600  1.0  -0.1648
  C  C125  1  0.365600  0.417400  0.884600  1.0  0.051
  C  C126  1  0.472800  0.416600  0.825200  1.0  -0.1675
  C  C127  1  0.557000  0.467200  0.810400  1.0  0.1569
  C  C128  1  0.275500  0.364100  0.904100  1.0  0.336
  C  C129  1  0.121300  0.306900  0.960100  1.0  0.286
  C  C130  1  0.008100  0.280200  0.014200  1.0  0.0214
  C  C131  1  0.972700  0.213000  0.012200  1.0  -0.1996
  C  C132  1  0.866600  0.191800  0.065000  1.0  0.1779
  C  C133  1  0.831500  0.295500  0.117900  1.0  0.1782
  C  C134  1  0.936200  0.322200  0.068200  1.0  -0.169
  C  C135  1  0.195400  0.684800  0.127400  1.0  0.1687
  C  C136  1  0.297300  0.676900  0.067500  1.0  -0.176
  C  C137  1  0.389400  0.725000  0.046800  1.0  0.0564
  C  C138  1  0.376100  0.779400  0.089400  1.0  -0.1631
  C  C139  1  0.268600  0.784400  0.148400  1.0  0.1626
  C  C140  1  0.500200  0.718500  0.982900  1.0  0.3309
  C  C141  1  0.666100  0.734800  0.899200  1.0  0.3215
  C  C142  1  0.776100  0.768100  0.851500  1.0  0.0465
  C  C143  1  0.806800  0.832100  0.865300  1.0  -0.1534
  C  C144  1  0.902200  0.866700  0.818500  1.0  0.1595
  C  C145  1  0.946800  0.777300  0.744900  1.0  0.1732
  C  C146  1  0.850500  0.740100  0.790100  1.0  -0.1584
  C  C147  1  0.797300  0.013100  0.258900  1.0  0.6844
  C  C148  1  0.668600  0.983400  0.258000  1.0  -0.1707
  C  C149  1  0.534900  0.047400  0.256200  1.0  -0.1155
  C  C150  1  0.549800  0.095800  0.186800  1.0  -0.1181
  C  C151  1  0.569600  0.049500  0.129100  1.0  -0.1167
  C  C152  1  0.702000  0.984400  0.128200  1.0  -0.1243
  C  C153  1  0.695900  0.936100  0.198100  1.0  -0.1652
  C  C154  1  0.816200  0.868500  0.197700  1.0  0.6934
  C  C155  1  0.868100  0.978000  0.592200  1.0  0.1798
  C  C156  1  0.750600  0.027600  0.573400  1.0  -0.1643
  C  C157  1  0.667600  0.082600  0.615400  1.0  0.0525
  C  C158  1  0.714600  0.083400  0.674800  1.0  -0.1692
  C  C159  1  0.834600  0.032800  0.689600  1.0  0.157
  C  C160  1  0.543700  0.135900  0.595900  1.0  0.336
  C  C161  1  0.388300  0.193100  0.539900  1.0  0.2895
  C  C162  1  0.302500  0.219800  0.485800  1.0  0.0227
  C  C163  1  0.197900  0.287000  0.487800  1.0  -0.1984
  C  C164  1  0.123400  0.308200  0.435000  1.0  0.1785
  C  C165  1  0.244900  0.204500  0.382100  1.0  0.1821
  C  C166  1  0.326600  0.177800  0.431800  1.0  -0.1704
  C  C167  1  0.007600  0.815200  0.372600  1.0  0.1702
  C  C168  1  0.041700  0.823100  0.432500  1.0  -0.1773
  C  C169  1  0.161200  0.775000  0.453200  1.0  0.054
  C  C170  1  0.244900  0.720600  0.410600  1.0  -0.1645
  C  C171  1  0.201400  0.715600  0.351600  1.0  0.1638
  C  C172  1  0.201600  0.781500  0.517100  1.0  0.3312
  C  C173  1  0.300100  0.765200  0.600800  1.0  0.32
  C  C174  1  0.395700  0.731900  0.648500  1.0  0.045
  C  C175  1  0.504200  0.667900  0.634700  1.0  -0.1522
  C  C176  1  0.587400  0.633300  0.681500  1.0  0.1575
  C  C177  1  0.469000  0.722700  0.755100  1.0  0.172
  C  C178  1  0.380700  0.759900  0.709900  1.0  -0.1577
  C  C179  1  0.930700  0.513100  0.758900  1.0  0.6835
  C  C180  1  0.090000  0.483400  0.758000  1.0  -0.1768
  C  C181  1  0.161500  0.547400  0.756200  1.0  -0.1133
  C  C182  1  0.167600  0.595800  0.686800  1.0  -0.1204
  C  C183  1  0.251800  0.549500  0.629100  1.0  -0.1187
  C  C184  1  0.185400  0.484400  0.628200  1.0  -0.1213
  C  C185  1  0.169900  0.436100  0.698100  1.0  -0.1652
  C  C186  1  0.117600  0.368500  0.697700  1.0  0.6937
  C  C187  1  0.561700  0.478000  0.092200  1.0  0.1805
  C  C188  1  0.648400  0.527600  0.073400  1.0  -0.1663
  C  C189  1  0.634400  0.582600  0.115400  1.0  0.051
  C  C190  1  0.527200  0.583400  0.174800  1.0  -0.1703
  C  C191  1  0.443000  0.532800  0.189600  1.0  0.1574
  C  C192  1  0.724500  0.635900  0.095900  1.0  0.3366
  C  C193  1  0.878700  0.693100  0.039900  1.0  0.2883
  C  C194  1  0.991900  0.719800  0.985800  1.0  0.0207
  C  C195  1  0.027300  0.787000  0.987800  1.0  -0.2002
  C  C196  1  0.133400  0.808200  0.935000  1.0  0.1784
  C  C197  1  0.168500  0.704500  0.882100  1.0  0.1797
  C  C198  1  0.063800  0.677800  0.931800  1.0  -0.1699
  C  C199  1  0.804600  0.315200  0.872600  1.0  0.1688
  C  C200  1  0.702700  0.323100  0.932500  1.0  -0.1749
  C  C201  1  0.610600  0.275000  0.953200  1.0  0.0557
  C  C202  1  0.623900  0.220600  0.910600  1.0  -0.1637
  C  C203  1  0.731400  0.215600  0.851600  1.0  0.1628
  C  C204  1  0.499800  0.281500  0.017100  1.0  0.3316
  C  C205  1  0.333900  0.265200  0.100800  1.0  0.3199
  C  C206  1  0.223900  0.231900  0.148500  1.0  0.0477
  C  C207  1  0.193200  0.167900  0.134700  1.0  -0.1539
  C  C208  1  0.097800  0.133300  0.181500  1.0  0.1579
  C  C209  1  0.053200  0.222700  0.255100  1.0  0.173
  C  C210  1  0.149500  0.259900  0.209900  1.0  -0.1576
  C  C211  1  0.202700  0.986900  0.741100  1.0  0.6817
  C  C212  1  0.331400  0.016600  0.742000  1.0  -0.1702
  C  C213  1  0.465100  0.952600  0.743800  1.0  -0.1161
  C  C214  1  0.450200  0.904200  0.813200  1.0  -0.1173
  C  C215  1  0.430400  0.950500  0.870900  1.0  -0.1159
  C  C216  1  0.298000  0.015600  0.871800  1.0  -0.1223
  C  C217  1  0.304100  0.063900  0.801900  1.0  -0.1656
  C  C218  1  0.183800  0.131500  0.802300  1.0  0.6918
  C  C219  1  0.131900  0.022000  0.407800  1.0  0.1802
  C  C220  1  0.249400  0.972400  0.426600  1.0  -0.167
  C  C221  1  0.332400  0.917400  0.384600  1.0  0.0525
  C  C222  1  0.285400  0.916600  0.325200  1.0  -0.168
  C  C223  1  0.165400  0.967200  0.310400  1.0  0.1572
  C  C224  1  0.456300  0.864100  0.404100  1.0  0.3361
  C  C225  1  0.611700  0.806900  0.460100  1.0  0.289
  C  C226  1  0.697500  0.780200  0.514200  1.0  0.0238
  C  C227  1  0.802100  0.713000  0.512200  1.0  -0.198
  C  C228  1  0.876600  0.691800  0.565000  1.0  0.1792
  C  C229  1  0.755100  0.795500  0.617900  1.0  0.1803
  C  C230  1  0.673400  0.822200  0.568200  1.0  -0.1676
  C  C231  1  0.992400  0.184800  0.627400  1.0  0.1699
  C  C232  1  0.958300  0.176900  0.567500  1.0  -0.1781
  C  C233  1  0.838800  0.225000  0.546800  1.0  0.0555
  C  C234  1  0.755100  0.279400  0.589400  1.0  -0.1635
  C  C235  1  0.798600  0.284400  0.648400  1.0  0.1644
  C  C236  1  0.798400  0.218500  0.482900  1.0  0.331
  C  C237  1  0.699900  0.234800  0.399200  1.0  0.3196
  C  C238  1  0.604300  0.268100  0.351500  1.0  0.0445
  C  C239  1  0.495800  0.332100  0.365300  1.0  -0.1523
  C  C240  1  0.412600  0.366700  0.318500  1.0  0.1583
  C  C241  1  0.531000  0.277300  0.244900  1.0  0.1735
  C  C242  1  0.619300  0.240100  0.290100  1.0  -0.1584
  N  N243  1  0.538800  0.520800  0.850600  1.0  -0.3369
  N  N244  1  0.172200  0.365100  0.962900  1.0  -0.4793
  N  N245  1  0.188300  0.273700  0.903900  1.0  -0.0304
  N  N246  1  0.288200  0.309800  0.866600  1.0  -0.3534
  N  N247  1  0.796400  0.231000  0.117800  1.0  -0.3947
  N  N248  1  0.179200  0.738100  0.168500  1.0  -0.3477
  N  N249  1  0.590100  0.764400  0.957800  1.0  -0.4976
  N  N250  1  0.514700  0.662700  0.944700  1.0  -0.3207
  N  N251  1  0.623700  0.674400  0.889400  1.0  -0.2637
  N  N252  1  0.973000  0.840100  0.757900  1.0  -0.3509
  N  N253  1  0.910200  0.979200  0.649400  1.0  -0.3353
  N  N254  1  0.500200  0.134900  0.537100  1.0  -0.479
  N  N255  1  0.365900  0.226300  0.596100  1.0  -0.0286
  N  N256  1  0.464600  0.190200  0.633400  1.0  -0.3524
  N  N257  1  0.145200  0.269000  0.382200  1.0  -0.3932
  N  N258  1  0.085800  0.761900  0.331500  1.0  -0.3507
  N  N259  1  0.312300  0.735600  0.542200  1.0  -0.4968
  N  N260  1  0.122100  0.837300  0.555300  1.0  -0.3226
  N  N261  1  0.187500  0.825600  0.610600  1.0  -0.2625
  N  N262  1  0.571000  0.659900  0.742100  1.0  -0.3493
  N  N263  1  0.461200  0.479200  0.149400  1.0  -0.3366
  N  N264  1  0.827800  0.634900  0.037100  1.0  -0.4801
  N  N265  1  0.811700  0.726300  0.096100  1.0  -0.0287
  N  N266  1  0.711800  0.690200  0.133400  1.0  -0.3551
  N  N267  1  0.203600  0.769000  0.882200  1.0  -0.395
  N  N268  1  0.820800  0.261900  0.831500  1.0  -0.3489
  N  N269  1  0.409900  0.235600  0.042200  1.0  -0.4981
  N  N270  1  0.485300  0.337300  0.055300  1.0  -0.3239
  N  N271  1  0.376300  0.325600  0.110600  1.0  -0.2619
  N  N272  1  0.027000  0.159900  0.242100  1.0  -0.351
  N  N273  1  0.089800  0.020800  0.350600  1.0  -0.3374
  N  N274  1  0.499800  0.865100  0.462900  1.0  -0.4776
  N  N275  1  0.634100  0.773700  0.403900  1.0  -0.0309
  N  N276  1  0.535400  0.809800  0.366600  1.0  -0.3505
  N  N277  1  0.854800  0.731000  0.617800  1.0  -0.3954
  N  N278  1  0.914200  0.238100  0.668500  1.0  -0.3485
  N  N279  1  0.687700  0.264400  0.457800  1.0  -0.4971
  N  N280  1  0.877900  0.162700  0.444700  1.0  -0.3202
  N  N281  1  0.812500  0.174400  0.389400  1.0  -0.2626
  N  N282  1  0.429000  0.340100  0.257900  1.0  -0.3526
  O  O283  1  0.136400  0.447800  0.190600  1.0  -0.6447
  O  O284  1  0.131200  0.497300  0.282500  1.0  -0.5792
  O  O285  1  0.950830  0.658840  0.244900  1.0  -0.6235
  O  O286  1  0.859300  0.662300  0.355700  1.0  -0.6352
  O  O287  1  0.774800  0.052200  0.309400  1.0  -0.6463
  O  O288  1  0.911000  0.002700  0.217500  1.0  -0.5798
  O  O289  1  0.854570  0.841160  0.255100  1.0  -0.6235
  O  O290  1  0.877300  0.837700  0.144300  1.0  -0.6358
  O  O291  1  0.863600  0.552200  0.809400  1.0  -0.6467
  O  O292  1  0.868800  0.502700  0.717500  1.0  -0.5811
  O  O293  1  0.049170  0.341160  0.755100  1.0  -0.6234
  O  O294  1  0.140700  0.337700  0.644300  1.0  -0.6357
  O  O295  1  0.225200  0.947800  0.690600  1.0  -0.6441
  O  O296  1  0.089000  0.997300  0.782500  1.0  -0.5793
  O  O297  1  0.145430  0.158840  0.744900  1.0  -0.6225
  O  O298  1  0.122700  0.162300  0.855700  1.0  -0.6364
