# generated using pymatgen
data_Gd2Co2H15C35(NO4)5
_symmetry_space_group_name_H-M   'P 1'
_cell_length_a   12.22750000
_cell_length_b   14.43250000
_cell_length_c   28.84300000
_cell_angle_alpha   90.00000000
_cell_angle_beta   90.00000000
_cell_angle_gamma   90.00000000
_symmetry_Int_Tables_number   1
_chemical_formula_structural   Gd2Co2H15C35(NO4)5
_chemical_formula_sum   'Gd8 Co8 H60 C140 N20 O80'
_cell_volume   5090.02209593
_cell_formula_units_Z   4
loop_
 _symmetry_equiv_pos_site_id
 _symmetry_equiv_pos_as_xyz
  1  'x, y, z'
loop_
 _atom_site_type_symbol
 _atom_site_label
 _atom_site_symmetry_multiplicity
 _atom_site_fract_x
 _atom_site_fract_y
 _atom_site_fract_z
 _atom_site_occupancy
 _atom_site_charge
  Gd  Gd1  1  0.126120  0.609660  0.842940  1.0  2.1924
  Gd  Gd2  1  0.339970  0.926700  0.906700  1.0  2.0546
  Gd  Gd3  1  0.626120  0.390340  0.157060  1.0  2.1933
  Gd  Gd4  1  0.839970  0.073300  0.093300  1.0  2.0552
  Gd  Gd5  1  0.126120  0.890340  0.342940  1.0  2.1932
  Gd  Gd6  1  0.339970  0.573300  0.406700  1.0  2.0556
  Gd  Gd7  1  0.626120  0.109660  0.657060  1.0  2.1925
  Gd  Gd8  1  0.839970  0.426700  0.593300  1.0  2.0543
  Co  Co9  1  0.325190  0.619660  0.036790  1.0  0.7439
  Co  Co10  1  0.740120  0.829570  0.797100  1.0  0.9466
  Co  Co11  1  0.825190  0.380340  0.963210  1.0  0.7449
  Co  Co12  1  0.240120  0.170430  0.202900  1.0  0.9477
  Co  Co13  1  0.325190  0.880340  0.536790  1.0  0.7435
  Co  Co14  1  0.740120  0.670430  0.297100  1.0  0.947
  Co  Co15  1  0.825190  0.119660  0.463210  1.0  0.7455
  Co  Co16  1  0.240120  0.329570  0.702900  1.0  0.9469
  H  H17  1  0.149600  0.239200  0.895800  1.0  0.1168
  H  H18  1  0.124000  0.122500  0.838800  1.0  0.1171
  H  H19  1  0.152700  0.155800  0.762200  1.0  0.0954
  H  H20  1  0.896800  0.320200  0.766900  1.0  0.1155
  H  H21  1  0.851000  0.193000  0.814000  1.0  0.1463
  H  H22  1  0.841200  0.216000  0.891200  1.0  0.0572
  H  H23  1  0.728900  0.778100  0.964000  1.0  0.1202
  H  H24  1  0.731300  0.626700  0.983100  1.0  0.1282
  H  H25  1  0.579000  0.559800  0.017300  1.0  0.1069
  H  H26  1  0.481500  0.563600  0.896100  1.0  0.1185
  H  H27  1  0.663400  0.523400  0.876300  1.0  0.1309
  H  H28  1  0.765400  0.631800  0.834800  1.0  0.0788
  H  H29  1  0.984500  0.019600  0.942800  1.0  0.1223
  H  H30  1  0.796600  0.052200  0.932800  1.0  0.1324
  H  H31  1  0.699300  0.977800  0.880200  1.0  0.0984
  H  H32  1  0.649600  0.760800  0.104200  1.0  0.1165
  H  H33  1  0.624000  0.877500  0.161200  1.0  0.1163
  H  H34  1  0.652700  0.844200  0.237800  1.0  0.0959
  H  H35  1  0.396800  0.679800  0.233100  1.0  0.1163
  H  H36  1  0.351000  0.807000  0.186000  1.0  0.1462
  H  H37  1  0.341200  0.784000  0.108800  1.0  0.057
  H  H38  1  0.228900  0.221900  0.036000  1.0  0.12
  H  H39  1  0.231300  0.373300  0.016900  1.0  0.1279
  H  H40  1  0.079000  0.440200  0.982700  1.0  0.1062
  H  H41  1  0.981500  0.436400  0.103900  1.0  0.119
  H  H42  1  0.163400  0.476600  0.123700  1.0  0.132
  H  H43  1  0.265400  0.368200  0.165200  1.0  0.0786
  H  H44  1  0.484500  0.980400  0.057200  1.0  0.1235
  H  H45  1  0.296600  0.947800  0.067200  1.0  0.1317
  H  H46  1  0.199300  0.022200  0.119800  1.0  0.0986
  H  H47  1  0.149600  0.260800  0.395800  1.0  0.1166
  H  H48  1  0.124000  0.377500  0.338800  1.0  0.116
  H  H49  1  0.152700  0.344200  0.262200  1.0  0.0957
  H  H50  1  0.896800  0.179800  0.266900  1.0  0.1154
  H  H51  1  0.851000  0.307000  0.314000  1.0  0.1464
  H  H52  1  0.841200  0.284000  0.391200  1.0  0.0569
  H  H53  1  0.728900  0.721900  0.464000  1.0  0.1201
  H  H54  1  0.731300  0.873300  0.483100  1.0  0.1276
  H  H55  1  0.579000  0.940200  0.517300  1.0  0.1061
  H  H56  1  0.481500  0.936400  0.396100  1.0  0.1186
  H  H57  1  0.663400  0.976600  0.376300  1.0  0.132
  H  H58  1  0.765400  0.868200  0.334800  1.0  0.0786
  H  H59  1  0.984500  0.480400  0.442800  1.0  0.1223
  H  H60  1  0.796600  0.447800  0.432800  1.0  0.1325
  H  H61  1  0.699300  0.522200  0.380200  1.0  0.0989
  H  H62  1  0.649600  0.739200  0.604200  1.0  0.1167
  H  H63  1  0.624000  0.622500  0.661200  1.0  0.1172
  H  H64  1  0.652700  0.655800  0.737800  1.0  0.0955
  H  H65  1  0.396800  0.820200  0.733100  1.0  0.1165
  H  H66  1  0.351000  0.693000  0.686000  1.0  0.1459
  H  H67  1  0.341200  0.716000  0.608800  1.0  0.0567
  H  H68  1  0.228900  0.278100  0.536000  1.0  0.1203
  H  H69  1  0.231300  0.126700  0.516900  1.0  0.1283
  H  H70  1  0.079000  0.059800  0.482700  1.0  0.1071
  H  H71  1  0.981500  0.063600  0.603900  1.0  0.1188
  H  H72  1  0.163400  0.023400  0.623700  1.0  0.1312
  H  H73  1  0.265400  0.131800  0.665200  1.0  0.0792
  H  H74  1  0.484500  0.519600  0.557200  1.0  0.1233
  H  H75  1  0.296600  0.552200  0.567200  1.0  0.1321
  H  H76  1  0.199300  0.477800  0.619800  1.0  0.098
  C  C77  1  0.213800  0.351800  0.803600  1.0  0.0884
  C  C78  1  0.197400  0.337700  0.851700  1.0  -0.1122
  C  C79  1  0.162800  0.252200  0.864700  1.0  -0.037
  C  C80  1  0.146700  0.181500  0.830000  1.0  -0.1621
  C  C81  1  0.164700  0.201400  0.784400  1.0  0.1779
  C  C82  1  0.253900  0.440600  0.783900  1.0  0.6687
  C  C83  1  0.216500  0.410700  0.886600  1.0  0.7258
  C  C84  1  0.889900  0.418000  0.867700  1.0  0.1084
  C  C85  1  0.906600  0.414900  0.819200  1.0  -0.1509
  C  C86  1  0.889700  0.327500  0.798800  1.0  -0.002
  C  C87  1  0.862100  0.251500  0.826600  1.0  -0.1781
  C  C88  1  0.852600  0.267000  0.872100  1.0  0.1794
  C  C89  1  0.910500  0.508600  0.895200  1.0  0.6454
  C  C90  1  0.932200  0.494200  0.786400  1.0  0.741
  C  C91  1  0.478600  0.758400  0.995500  1.0  0.0682
  C  C92  1  0.569000  0.801100  0.977500  1.0  -0.126
  C  C93  1  0.665400  0.749900  0.974800  1.0  -0.0009
  C  C94  1  0.668000  0.661400  0.987300  1.0  -0.1517
  C  C95  1  0.575500  0.620700  0.006900  1.0  0.1508
  C  C96  1  0.367200  0.803000  0.001100  1.0  0.6471
  C  C97  1  0.568300  0.900800  0.962600  1.0  0.7017
  C  C98  1  0.552300  0.749300  0.846000  1.0  0.0859
  C  C99  1  0.484300  0.689500  0.868300  1.0  -0.1491
  C  C100  1  0.525200  0.605500  0.880100  1.0  -0.026
  C  C101  1  0.634100  0.580600  0.868200  1.0  -0.1551
  C  C102  1  0.694500  0.646500  0.843900  1.0  0.1954
  C  C103  1  0.516100  0.843600  0.830100  1.0  0.6224
  C  C104  1  0.368900  0.710000  0.879800  1.0  0.7923
  C  C105  1  0.922800  0.876900  0.860000  1.0  0.0997
  C  C106  1  0.989400  0.922500  0.889300  1.0  -0.0596
  C  C107  1  0.942900  0.989800  0.920300  1.0  -0.0255
  C  C108  1  0.830400  0.007700  0.914400  1.0  -0.1576
  C  C109  1  0.772900  0.962700  0.883400  1.0  0.1759
  C  C110  1  0.957600  0.792100  0.832200  1.0  0.6687
  C  C111  1  0.112400  0.909600  0.892000  1.0  0.6542
  C  C112  1  0.713800  0.648200  0.196400  1.0  0.0884
  C  C113  1  0.697400  0.662300  0.148300  1.0  -0.1123
  C  C114  1  0.662800  0.747800  0.135300  1.0  -0.0411
  C  C115  1  0.646700  0.818500  0.170000  1.0  -0.1622
  C  C116  1  0.664700  0.798600  0.215600  1.0  0.1769
  C  C117  1  0.753900  0.559400  0.216100  1.0  0.6702
  C  C118  1  0.716500  0.589300  0.113400  1.0  0.7247
  C  C119  1  0.389900  0.582000  0.132300  1.0  0.1081
  C  C120  1  0.406600  0.585100  0.180800  1.0  -0.1501
  C  C121  1  0.389700  0.672500  0.201200  1.0  -0.001
  C  C122  1  0.362100  0.748500  0.173400  1.0  -0.1791
  C  C123  1  0.352600  0.733000  0.127900  1.0  0.1787
  C  C124  1  0.410500  0.491400  0.104800  1.0  0.6456
  C  C125  1  0.432200  0.505800  0.213600  1.0  0.7413
  C  C126  1  0.978600  0.241600  0.004500  1.0  0.0679
  C  C127  1  0.069000  0.198900  0.022500  1.0  -0.1272
  C  C128  1  0.165400  0.250100  0.025200  1.0  0.0002
  C  C129  1  0.168000  0.338600  0.012700  1.0  -0.1516
  C  C130  1  0.075500  0.379300  0.993100  1.0  0.15
  C  C131  1  0.867200  0.197000  0.998900  1.0  0.6464
  C  C132  1  0.068300  0.099200  0.037400  1.0  0.7026
  C  C133  1  0.052300  0.250700  0.154000  1.0  0.0863
  C  C134  1  0.984300  0.310500  0.131700  1.0  -0.1483
  C  C135  1  0.025200  0.394500  0.119900  1.0  -0.0265
  C  C136  1  0.134100  0.419400  0.131800  1.0  -0.154
  C  C137  1  0.194500  0.353500  0.156100  1.0  0.1958
  C  C138  1  0.016100  0.156400  0.169900  1.0  0.622
  C  C139  1  0.868900  0.290000  0.120200  1.0  0.7917
  C  C140  1  0.422800  0.123100  0.140000  1.0  0.0999
  C  C141  1  0.489400  0.077500  0.110700  1.0  -0.0603
  C  C142  1  0.442900  0.010200  0.079700  1.0  -0.0323
  C  C143  1  0.330400  0.992300  0.085600  1.0  -0.1579
  C  C144  1  0.272900  0.037300  0.116600  1.0  0.1765
  C  C145  1  0.457600  0.207900  0.167800  1.0  0.6692
  C  C146  1  0.612400  0.090400  0.108000  1.0  0.6539
  C  C147  1  0.213800  0.148200  0.303600  1.0  0.0882
  C  C148  1  0.197400  0.162300  0.351700  1.0  -0.1122
  C  C149  1  0.162800  0.247800  0.364700  1.0  -0.0372
  C  C150  1  0.146700  0.318500  0.330000  1.0  -0.1625
  C  C151  1  0.164700  0.298600  0.284400  1.0  0.1775
  C  C152  1  0.253900  0.059400  0.283900  1.0  0.6694
  C  C153  1  0.216500  0.089300  0.386600  1.0  0.7261
  C  C154  1  0.889900  0.082000  0.367700  1.0  0.1089
  C  C155  1  0.906600  0.085100  0.319200  1.0  -0.1518
  C  C156  1  0.889700  0.172500  0.298800  1.0  -0.0026
  C  C157  1  0.862100  0.248500  0.326600  1.0  -0.1789
  C  C158  1  0.852600  0.233000  0.372100  1.0  0.1782
  C  C159  1  0.910500  0.991400  0.395200  1.0  0.6462
  C  C160  1  0.932200  0.005800  0.286400  1.0  0.7406
  C  C161  1  0.478600  0.741600  0.495500  1.0  0.0682
  C  C162  1  0.569000  0.698900  0.477500  1.0  -0.1269
  C  C163  1  0.665400  0.750100  0.474800  1.0  -0.0009
  C  C164  1  0.668000  0.838600  0.487300  1.0  -0.1519
  C  C165  1  0.575500  0.879300  0.506900  1.0  0.15
  C  C166  1  0.367200  0.697000  0.501100  1.0  0.6467
  C  C167  1  0.568300  0.599200  0.462600  1.0  0.7017
  C  C168  1  0.552300  0.750700  0.346000  1.0  0.0854
  C  C169  1  0.484300  0.810500  0.368300  1.0  -0.1481
  C  C170  1  0.525200  0.894500  0.380100  1.0  -0.0266
  C  C171  1  0.634100  0.919400  0.368200  1.0  -0.1544
  C  C172  1  0.694500  0.853500  0.343900  1.0  0.1957
  C  C173  1  0.516100  0.656400  0.330100  1.0  0.6208
  C  C174  1  0.368900  0.790000  0.379800  1.0  0.7916
  C  C175  1  0.922800  0.623100  0.360000  1.0  0.0998
  C  C176  1  0.989400  0.577500  0.389300  1.0  -0.0607
  C  C177  1  0.942900  0.510200  0.420300  1.0  -0.0281
  C  C178  1  0.830400  0.492300  0.414400  1.0  -0.1572
  C  C179  1  0.772900  0.537300  0.383400  1.0  0.1755
  C  C180  1  0.957600  0.707900  0.332200  1.0  0.6681
  C  C181  1  0.112400  0.590400  0.392000  1.0  0.6539
  C  C182  1  0.713800  0.851800  0.696400  1.0  0.0884
  C  C183  1  0.697400  0.837700  0.648300  1.0  -0.1121
  C  C184  1  0.662800  0.752200  0.635300  1.0  -0.0404
  C  C185  1  0.646700  0.681500  0.670000  1.0  -0.1618
  C  C186  1  0.664700  0.701400  0.715600  1.0  0.1786
  C  C187  1  0.753900  0.940600  0.716100  1.0  0.6688
  C  C188  1  0.716500  0.910700  0.613400  1.0  0.725
  C  C189  1  0.389900  0.918000  0.632300  1.0  0.1076
  C  C190  1  0.406600  0.914900  0.680800  1.0  -0.1499
  C  C191  1  0.389700  0.827500  0.701200  1.0  -0.0007
  C  C192  1  0.362100  0.751500  0.673400  1.0  -0.1772
  C  C193  1  0.352600  0.767000  0.627900  1.0  0.1799
  C  C194  1  0.410500  0.008600  0.604800  1.0  0.6468
  C  C195  1  0.432200  0.994200  0.713600  1.0  0.7392
  C  C196  1  0.978600  0.258400  0.504500  1.0  0.068
  C  C197  1  0.069000  0.301100  0.522500  1.0  -0.1263
  C  C198  1  0.165400  0.249900  0.525200  1.0  -1e-04
  C  C199  1  0.168000  0.161400  0.512700  1.0  -0.1513
  C  C200  1  0.075500  0.120700  0.493100  1.0  0.1507
  C  C201  1  0.867200  0.303000  0.498900  1.0  0.6469
  C  C202  1  0.068300  0.400800  0.537400  1.0  0.7018
  C  C203  1  0.052300  0.249300  0.654000  1.0  0.0864
  C  C204  1  0.984300  0.189500  0.631700  1.0  -0.149
  C  C205  1  0.025200  0.105500  0.619900  1.0  -0.026
  C  C206  1  0.134100  0.080600  0.631800  1.0  -0.1543
  C  C207  1  0.194500  0.146500  0.656100  1.0  0.1956
  C  C208  1  0.016100  0.343600  0.669900  1.0  0.6224
  C  C209  1  0.868900  0.210000  0.620200  1.0  0.7925
  C  C210  1  0.422800  0.376900  0.640000  1.0  0.0998
  C  C211  1  0.489400  0.422500  0.610700  1.0  -0.0592
  C  C212  1  0.442900  0.489800  0.579700  1.0  -0.0293
  C  C213  1  0.330400  0.507700  0.585600  1.0  -0.1581
  C  C214  1  0.272900  0.462700  0.616600  1.0  0.1765
  C  C215  1  0.457600  0.292100  0.667800  1.0  0.6701
  C  C216  1  0.612400  0.409600  0.608000  1.0  0.6542
  N  N217  1  0.198900  0.284400  0.771000  1.0  -0.3174
  N  N218  1  0.858200  0.348800  0.891800  1.0  -0.3323
  N  N219  1  0.479800  0.668800  0.011000  1.0  -0.3647
  N  N220  1  0.655500  0.727400  0.833600  1.0  -0.3383
  N  N221  1  0.814400  0.895400  0.855600  1.0  -0.3458
  N  N222  1  0.698900  0.715600  0.229000  1.0  -0.3176
  N  N223  1  0.358200  0.651200  0.108200  1.0  -0.333
  N  N224  1  0.979800  0.331200  0.989000  1.0  -0.3644
  N  N225  1  0.155500  0.272600  0.166400  1.0  -0.3382
  N  N226  1  0.314400  0.104600  0.144400  1.0  -0.345
  N  N227  1  0.198900  0.215600  0.271000  1.0  -0.3181
  N  N228  1  0.858200  0.151200  0.391800  1.0  -0.3323
  N  N229  1  0.479800  0.831200  0.511000  1.0  -0.3646
  N  N230  1  0.655500  0.772600  0.333600  1.0  -0.3392
  N  N231  1  0.814400  0.604600  0.355600  1.0  -0.345
  N  N232  1  0.698900  0.784400  0.729000  1.0  -0.3172
  N  N233  1  0.358200  0.848800  0.608200  1.0  -0.3322
  N  N234  1  0.979800  0.168800  0.489000  1.0  -0.3649
  N  N235  1  0.155500  0.227400  0.666400  1.0  -0.338
  N  N236  1  0.314400  0.395400  0.644400  1.0  -0.3452
  O  O237  1  0.259700  0.511100  0.808700  1.0  -0.6963
  O  O238  1  0.286300  0.440500  0.741800  1.0  -0.5282
  O  O239  1  0.149100  0.477700  0.889500  1.0  -0.7813
  O  O240  1  0.293600  0.402500  0.913600  1.0  -0.5415
  O  O241  1  0.948700  0.580700  0.876200  1.0  -0.6843
  O  O242  1  0.880900  0.503700  0.937200  1.0  -0.5654
  O  O243  1  0.027700  0.528700  0.789000  1.0  -0.7672
  O  O244  1  0.861300  0.519100  0.759800  1.0  -0.507
  O  O245  1  0.291500  0.755100  0.018800  1.0  -0.5193
  O  O246  1  0.354700  0.885500  0.986700  1.0  -0.6767
  O  O247  1  0.524600  0.922000  0.925800  1.0  -0.7185
  O  O248  1  0.621400  0.957600  0.987500  1.0  -0.5606
  O  O249  1  0.420900  0.870400  0.836900  1.0  -0.6855
  O  O250  1  0.586800  0.890100  0.806700  1.0  -0.5411
  O  O251  1  0.301500  0.662800  0.857600  1.0  -0.6407
  O  O252  1  0.344000  0.765700  0.910800  1.0  -0.6543
  O  O253  1  0.889900  0.763500  0.800800  1.0  -0.5724
  O  O254  1  0.046800  0.759100  0.841400  1.0  -0.6951
  O  O255  1  0.152100  0.880600  0.929600  1.0  -0.6282
  O  O256  1  0.171600  0.938800  0.859900  1.0  -0.6641
  O  O257  1  0.759700  0.488900  0.191300  1.0  -0.6963
  O  O258  1  0.786300  0.559500  0.258200  1.0  -0.5271
  O  O259  1  0.649100  0.522300  0.110500  1.0  -0.7795
  O  O260  1  0.793600  0.597500  0.086400  1.0  -0.5387
  O  O261  1  0.448700  0.419300  0.123800  1.0  -0.6853
  O  O262  1  0.380900  0.496300  0.062800  1.0  -0.5634
  O  O263  1  0.527700  0.471300  0.211000  1.0  -0.7666
  O  O264  1  0.361300  0.480900  0.240200  1.0  -0.5061
  O  O265  1  0.791500  0.244900  0.981200  1.0  -0.5209
  O  O266  1  0.854700  0.114500  0.013300  1.0  -0.6755
  O  O267  1  0.024600  0.078000  0.074200  1.0  -0.7226
  O  O268  1  0.121400  0.042400  0.012500  1.0  -0.5601
  O  O269  1  0.920900  0.129600  0.163100  1.0  -0.6852
  O  O270  1  0.086800  0.109900  0.193300  1.0  -0.5384
  O  O271  1  0.801500  0.337200  0.142400  1.0  -0.6403
  O  O272  1  0.844000  0.234300  0.089200  1.0  -0.6547
  O  O273  1  0.389900  0.236500  0.199200  1.0  -0.5728
  O  O274  1  0.546800  0.240900  0.158600  1.0  -0.6936
  O  O275  1  0.652100  0.119400  0.070400  1.0  -0.6291
  O  O276  1  0.671600  0.061200  0.140100  1.0  -0.6647
  O  O277  1  0.259700  0.988900  0.308700  1.0  -0.6966
  O  O278  1  0.286300  0.059500  0.241800  1.0  -0.5267
  O  O279  1  0.149100  0.022300  0.389500  1.0  -0.7776
  O  O280  1  0.293600  0.097500  0.413600  1.0  -0.5418
  O  O281  1  0.948700  0.919300  0.376200  1.0  -0.6843
  O  O282  1  0.880900  0.996300  0.437200  1.0  -0.5645
  O  O283  1  0.027700  0.971300  0.289000  1.0  -0.7629
  O  O284  1  0.861300  0.980900  0.259800  1.0  -0.5067
  O  O285  1  0.291500  0.744900  0.518800  1.0  -0.5221
  O  O286  1  0.354700  0.614500  0.486700  1.0  -0.6756
  O  O287  1  0.524600  0.578000  0.425800  1.0  -0.724
  O  O288  1  0.621400  0.542400  0.487500  1.0  -0.559
  O  O289  1  0.420900  0.629600  0.336900  1.0  -0.6853
  O  O290  1  0.586800  0.609900  0.306700  1.0  -0.5381
  O  O291  1  0.301500  0.837200  0.357600  1.0  -0.6411
  O  O292  1  0.344000  0.734300  0.410800  1.0  -0.6541
  O  O293  1  0.889900  0.736500  0.300800  1.0  -0.5733
  O  O294  1  0.046800  0.740900  0.341400  1.0  -0.6944
  O  O295  1  0.152100  0.619400  0.429600  1.0  -0.6292
  O  O296  1  0.171600  0.561200  0.359900  1.0  -0.6648
  O  O297  1  0.759700  0.011100  0.691300  1.0  -0.696
  O  O298  1  0.786300  0.940500  0.758200  1.0  -0.5281
  O  O299  1  0.649100  0.977700  0.610500  1.0  -0.7811
  O  O300  1  0.793600  0.902500  0.586400  1.0  -0.539
  O  O301  1  0.448700  0.080700  0.623800  1.0  -0.6847
  O  O302  1  0.380900  0.003700  0.562800  1.0  -0.5644
  O  O303  1  0.527700  0.028700  0.711000  1.0  -0.7691
  O  O304  1  0.361300  0.019100  0.740200  1.0  -0.5072
  O  O305  1  0.791500  0.255100  0.481200  1.0  -0.5182
  O  O306  1  0.854700  0.385500  0.513300  1.0  -0.677
  O  O307  1  0.024600  0.422000  0.574200  1.0  -0.7183
  O  O308  1  0.121400  0.457600  0.512500  1.0  -0.5606
  O  O309  1  0.920900  0.370400  0.663100  1.0  -0.6864
  O  O310  1  0.086800  0.390100  0.693300  1.0  -0.5416
  O  O311  1  0.801500  0.162800  0.642400  1.0  -0.6389
  O  O312  1  0.844000  0.265700  0.589200  1.0  -0.655
  O  O313  1  0.389900  0.263500  0.699200  1.0  -0.5726
  O  O314  1  0.546800  0.259100  0.658600  1.0  -0.6946
  O  O315  1  0.652100  0.380600  0.570400  1.0  -0.6284
  O  O316  1  0.671600  0.438800  0.640100  1.0  -0.6647
