# generated using pymatgen
data_Cu2CSI2N
_symmetry_space_group_name_H-M   'P 1'
_cell_length_a   12.05700000
_cell_length_b   24.89100000
_cell_length_c   12.38000000
_cell_angle_alpha   90.00000000
_cell_angle_beta   93.04000000
_cell_angle_gamma   90.00000000
_symmetry_Int_Tables_number   1
_chemical_formula_structural   Cu2CSI2N
_chemical_formula_sum   'Cu16 C8 S8 I16 N8'
_cell_volume   3710.14310135
_cell_formula_units_Z   8
loop_
 _symmetry_equiv_pos_site_id
 _symmetry_equiv_pos_as_xyz
  1  'x, y, z'
loop_
 _atom_site_type_symbol
 _atom_site_label
 _atom_site_symmetry_multiplicity
 _atom_site_fract_x
 _atom_site_fract_y
 _atom_site_fract_z
 _atom_site_occupancy
 _atom_site_charge
  Cu  Cu1  1  0.677300  0.673000  0.758800  1.0  0.2285
  Cu  Cu2  1  0.678500  0.761800  0.893000  1.0  0.3116
  Cu  Cu3  1  0.851100  0.752300  0.743000  1.0  0.2062
  Cu  Cu4  1  0.856400  0.678800  0.923000  1.0  0.249
  Cu  Cu5  1  0.825500  0.419100  0.388400  1.0  0.247
  Cu  Cu6  1  0.648800  0.431200  0.243300  1.0  0.2061
  Cu  Cu7  1  0.665500  0.502500  0.421900  1.0  0.1655
  Cu  Cu8  1  0.816600  0.511400  0.260400  1.0  0.2137
  Cu  Cu9  1  0.322700  0.173000  0.241200  1.0  0.2285
  Cu  Cu10  1  0.321500  0.261800  0.107000  1.0  0.3107
  Cu  Cu11  1  0.148900  0.252300  0.257000  1.0  0.2076
  Cu  Cu12  1  0.143600  0.178800  0.077000  1.0  0.2506
  Cu  Cu13  1  0.174500  0.919100  0.611600  1.0  0.2478
  Cu  Cu14  1  0.351200  0.931200  0.756700  1.0  0.2062
  Cu  Cu15  1  0.334500  0.002500  0.578100  1.0  0.1657
  Cu  Cu16  1  0.183400  0.011400  0.739600  1.0  0.214
  C  C17  1  0.934000  0.587000  0.108000  1.0  0.2147
  C  C18  1  0.498000  0.856000  0.906000  1.0  0.2989
  C  C19  1  0.001000  0.820800  0.597000  1.0  0.2619
  C  C20  1  0.575000  0.579000  0.593000  1.0  0.3243
  C  C21  1  0.066000  0.087000  0.892000  1.0  0.2134
  C  C22  1  0.502000  0.356000  0.094000  1.0  0.2999
  C  C23  1  0.999000  0.320800  0.403000  1.0  0.2626
  C  C24  1  0.425000  0.079000  0.407000  1.0  0.3224
  S  S25  1  0.531000  0.621600  0.683800  1.0  -0.1455
  S  S26  1  0.570100  0.817800  0.994800  1.0  -0.1522
  S  S27  1  0.074000  0.853500  0.512100  1.0  -0.1418
  S  S28  1  0.991900  0.628500  0.020600  1.0  -0.1513
  S  S29  1  0.469000  0.121600  0.316200  1.0  -0.1448
  S  S30  1  0.429900  0.317800  0.005200  1.0  -0.1496
  S  S31  1  0.926000  0.353500  0.487900  1.0  -0.1438
  S  S32  1  0.008100  0.128500  0.979400  1.0  -0.1515
  I  I33  1  0.879100  0.643800  0.717200  1.0  -0.1107
  I  I34  1  0.896800  0.784500  0.946900  1.0  -0.1611
  I  I35  1  0.634000  0.773600  0.684100  1.0  -0.1167
  I  I36  1  0.652900  0.663500  0.981700  1.0  -0.1686
  I  I37  1  0.611100  0.399700  0.445900  1.0  -0.1287
  I  I38  1  0.861000  0.412800  0.180100  1.0  -0.1193
  I  I39  1  0.885400  0.515100  0.471600  1.0  -0.1456
  I  I40  1  0.598300  0.536500  0.223500  1.0  -0.1387
  I  I41  1  0.120900  0.143800  0.282800  1.0  -0.1127
  I  I42  1  0.103200  0.284500  0.053100  1.0  -0.1612
  I  I43  1  0.366000  0.273600  0.315900  1.0  -0.1155
  I  I44  1  0.347100  0.163500  0.018300  1.0  -0.169
  I  I45  1  0.388900  0.899700  0.554100  1.0  -0.1298
  I  I46  1  0.139000  0.912800  0.819900  1.0  -0.1187
  I  I47  1  0.114600  0.015100  0.528400  1.0  -0.1451
  I  I48  1  0.401700  0.036500  0.776500  1.0  -0.139
  N  N49  1  0.891000  0.562500  0.171000  1.0  -0.3357
  N  N50  1  0.446000  0.884400  0.848000  1.0  -0.2595
  N  N51  1  0.946000  0.793000  0.653000  1.0  -0.2917
  N  N52  1  0.602000  0.551000  0.530000  1.0  -0.359
  N  N53  1  0.109000  0.062500  0.829000  1.0  -0.3362
  N  N54  1  0.554000  0.384400  0.152000  1.0  -0.2645
  N  N55  1  0.054000  0.293000  0.347000  1.0  -0.2921
  N  N56  1  0.398000  0.051000  0.470000  1.0  -0.3574
