# generated using pymatgen
data_Mg2H7C13O8
_symmetry_space_group_name_H-M   'P 1'
_cell_length_a   8.86900000
_cell_length_b   12.08310000
_cell_length_c   19.61290000
_cell_angle_alpha   85.24020000
_cell_angle_beta   76.93260000
_cell_angle_gamma   68.46980000
_symmetry_Int_Tables_number   1
_chemical_formula_structural   Mg2H7C13O8
_chemical_formula_sum   'Mg8 H28 C52 O32'
_cell_volume   1904.53154245
_cell_formula_units_Z   4
loop_
 _symmetry_equiv_pos_site_id
 _symmetry_equiv_pos_as_xyz
  1  'x, y, z'
loop_
 _atom_site_type_symbol
 _atom_site_label
 _atom_site_symmetry_multiplicity
 _atom_site_fract_x
 _atom_site_fract_y
 _atom_site_fract_z
 _atom_site_occupancy
 _atom_site_charge
  Mg  Mg1  1  0.608080  0.528600  0.912220  1.0  1.5326
  Mg  Mg2  1  0.861810  0.656540  0.975380  1.0  1.5079
  Mg  Mg3  1  0.048900  0.471400  0.087780  1.0  1.5406
  Mg  Mg4  1  0.493730  0.343460  0.024620  1.0  1.5076
  Mg  Mg5  1  0.770300  0.028600  0.587780  1.0  1.5388
  Mg  Mg6  1  0.087190  0.156540  0.524620  1.0  1.5073
  Mg  Mg7  1  0.386680  0.971400  0.412220  1.0  1.5336
  Mg  Mg8  1  0.768350  0.843460  0.475380  1.0  1.5073
  H  H9  1  0.904700  0.756800  0.738000  1.0  0.087
  H  H10  1  0.739800  0.411200  0.091400  1.0  -0.0119
  H  H11  1  0.960800  0.418200  0.784800  1.0  0.0893
  H  H12  1  0.943600  0.535400  0.589400  1.0  0.0901
  H  H13  1  0.171300  0.827800  0.974200  1.0  0.0729
  H  H14  1  0.983600  0.381400  0.668600  1.0  0.0868
  H  H15  1  0.399500  0.243200  0.262000  1.0  0.0874
  H  H16  1  0.242400  0.588800  0.908600  1.0  -0.012
  H  H17  1  0.163800  0.581800  0.215200  1.0  0.091
  H  H18  1  0.068400  0.464600  0.410600  1.0  0.0888
  H  H19  1  0.973300  0.172200  0.025800  1.0  0.0733
  H  H20  1  0.033600  0.618600  0.331400  1.0  0.0873
  H  H21  1  0.892700  0.256800  0.762000  1.0  0.0874
  H  H22  1  0.081200  0.911200  0.408600  1.0  -0.0115
  H  H23  1  0.995600  0.918200  0.715200  1.0  0.0907
  H  H24  1  0.783000  0.035400  0.910600  1.0  0.089
  H  H25  1  0.395500  0.327800  0.525800  1.0  0.0727
  H  H26  1  0.902200  0.881400  0.831400  1.0  0.0874
  H  H27  1  0.911500  0.743200  0.238000  1.0  0.0872
  H  H28  1  0.401000  0.088800  0.591400  1.0  -0.0129
  H  H29  1  0.629000  0.081800  0.284800  1.0  0.0889
  H  H30  1  0.729000  0.964600  0.089400  1.0  0.09
  H  H31  1  0.249100  0.672200  0.474200  1.0  0.073
  H  H32  1  0.615000  0.118600  0.168600  1.0  0.0871
  H  H33  1  0.941000  0.000000  0.000000  1.0  0.0913
  H  H34  1  0.469500  0.000000  0.000000  1.0  0.09
  H  H35  1  0.191000  0.500000  0.500000  1.0  0.0913
  H  H36  1  0.719500  0.500000  0.500000  1.0  0.09
  C  C37  1  0.908400  0.614380  0.848420  1.0  0.6361
  C  C38  1  0.344960  0.895220  0.984060  1.0  -0.2033
  C  C39  1  0.895000  0.761220  0.603180  1.0  0.6776
  C  C40  1  0.922320  0.660640  0.655320  1.0  -0.1868
  C  C41  1  0.492190  0.782180  0.968440  1.0  0.7017
  C  C42  1  0.916870  0.681460  0.724400  1.0  -0.0251
  C  C43  1  0.731330  0.464760  0.054380  1.0  0.6376
  C  C44  1  0.952300  0.479740  0.752260  1.0  -0.1156
  C  C45  1  0.929250  0.590900  0.773600  1.0  -0.099
  C  C46  1  0.943010  0.549240  0.635340  1.0  -0.0685
  C  C47  1  0.184290  0.897080  0.984540  1.0  -0.0582
  C  C48  1  0.962910  0.457980  0.683000  1.0  -0.1483
  C  C49  1  0.371200  0.385620  0.151580  1.0  0.6361
  C  C50  1  0.224240  0.104780  0.015940  1.0  -0.2038
  C  C51  1  0.259400  0.238780  0.396820  1.0  0.6772
  C  C52  1  0.238280  0.339360  0.344680  1.0  -0.1864
  C  C53  1  0.242810  0.217820  0.031560  1.0  0.7004
  C  C54  1  0.322730  0.318540  0.275600  1.0  -0.0251
  C  C55  1  0.250470  0.535240  0.945620  1.0  0.6381
  C  C56  1  0.184300  0.520260  0.247740  1.0  -0.1143
  C  C57  1  0.293750  0.409100  0.226400  1.0  -0.0999
  C  C58  1  0.127590  0.450760  0.364660  1.0  -0.0675
  C  C59  1  0.065910  0.102920  0.015460  1.0  -0.0588
  C  C60  1  0.103890  0.542020  0.317000  1.0  -0.1495
  C  C61  1  0.006820  0.114380  0.651580  1.0  0.636
  C  C62  1  0.579020  0.395220  0.515940  1.0  -0.2033
  C  C63  1  0.748180  0.261220  0.896820  1.0  0.6772
  C  C64  1  0.827640  0.160640  0.844680  1.0  -0.1858
  C  C65  1  0.710630  0.282180  0.531560  1.0  0.7005
  C  C66  1  0.891270  0.181460  0.775600  1.0  -0.025
  C  C67  1  0.035710  0.964760  0.445620  1.0  0.6385
  C  C68  1  0.954560  0.979740  0.747740  1.0  -0.1141
  C  C69  1  0.952850  0.090900  0.726400  1.0  -0.0999
  C  C70  1  0.828350  0.049240  0.864660  1.0  -0.0674
  C  C71  1  0.418830  0.397080  0.515460  1.0  -0.0586
  C  C72  1  0.895910  0.957980  0.817000  1.0  -0.1493
  C  C73  1  0.772780  0.885620  0.348420  1.0  0.6364
  C  C74  1  0.490180  0.604780  0.484060  1.0  -0.2037
  C  C75  1  0.906220  0.738780  0.103180  1.0  0.6769
  C  C76  1  0.832960  0.839360  0.155320  1.0  -0.1872
  C  C77  1  0.524370  0.717820  0.468440  1.0  0.7016
  C  C78  1  0.848330  0.818540  0.224400  1.0  -0.0253
  C  C79  1  0.446090  0.035240  0.554380  1.0  0.6381
  C  C80  1  0.682040  0.020260  0.252260  1.0  -0.1158
  C  C81  1  0.770150  0.909100  0.273600  1.0  -0.0987
  C  C82  1  0.742250  0.950760  0.135340  1.0  -0.0687
  C  C83  1  0.331370  0.602920  0.484540  1.0  -0.0584
  C  C84  1  0.670890  0.042020  0.183000  1.0  -0.1486
  C  C85  1  0.045900  0.000000  0.000000  1.0  -0.0986
  C  C86  1  0.364700  0.000000  0.000000  1.0  0.0213
  C  C87  1  0.295900  0.500000  0.500000  1.0  -0.0986
  C  C88  1  0.614700  0.500000  0.500000  1.0  0.0213
  O  O89  1  0.632450  0.464860  0.016440  1.0  -0.6925
  O  O90  1  0.900710  0.737260  0.541520  1.0  -0.614
  O  O91  1  0.831030  0.561140  0.894000  1.0  -0.7432
  O  O92  1  0.963760  0.686880  0.868600  1.0  -0.6059
  O  O93  1  0.818790  0.527900  0.048120  1.0  -0.6855
  O  O94  1  0.859980  0.863840  0.626400  1.0  -0.6303
  O  O95  1  0.467570  0.696420  0.946240  1.0  -0.6457
  O  O96  1  0.631340  0.779240  0.978680  1.0  -0.6438
  O  O97  1  0.113750  0.535140  0.983560  1.0  -0.6916
  O  O98  1  0.179490  0.262740  0.458480  1.0  -0.6137
  O  O99  1  0.286170  0.438860  0.106000  1.0  -0.7441
  O  O100  1  0.519240  0.313120  0.131400  1.0  -0.6035
  O  O101  1  0.394810  0.472100  0.951880  1.0  -0.685
  O  O102  1  0.350220  0.136160  0.373600  1.0  -0.6282
  O  O103  1  0.110230  0.303580  0.053760  1.0  -0.6459
  O  O104  1  0.389260  0.220760  0.021320  1.0  -0.6441
  O  O105  1  0.898890  0.964860  0.483560  1.0  -0.6913
  O  O106  1  0.692230  0.237260  0.958480  1.0  -0.6136
  O  O107  1  0.975030  0.061140  0.606000  1.0  -0.7443
  O  O108  1  0.082360  0.186880  0.631400  1.0  -0.604
  O  O109  1  0.116910  0.027900  0.451880  1.0  -0.6853
  O  O110  1  0.736380  0.363840  0.873600  1.0  -0.6294
  O  O111  1  0.663810  0.196420  0.553760  1.0  -0.6453
  O  O112  1  0.860020  0.279240  0.521320  1.0  -0.644
  O  O113  1  0.347310  0.035140  0.516440  1.0  -0.6928
  O  O114  1  0.887970  0.762740  0.041520  1.0  -0.6138
  O  O115  1  0.642170  0.938860  0.394000  1.0  -0.7427
  O  O116  1  0.900640  0.813120  0.368600  1.0  -0.6049
  O  O117  1  0.596690  0.972100  0.548120  1.0  -0.6852
  O  O118  1  0.973820  0.636160  0.126400  1.0  -0.6292
  O  O119  1  0.413990  0.803580  0.446240  1.0  -0.6456
  O  O120  1  0.660580  0.720760  0.478680  1.0  -0.644
