# generated using pymatgen
data_MgH4(C2O)4
_symmetry_space_group_name_H-M   'P 1'
_cell_length_a   14.15400000
_cell_length_b   16.25110000
_cell_length_c   19.14950000
_cell_angle_alpha   90.00000000
_cell_angle_beta   90.00000000
_cell_angle_gamma   90.00000000
_symmetry_Int_Tables_number   1
_chemical_formula_structural   MgH4(C2O)4
_chemical_formula_sum   'Mg16 H64 C128 O64'
_cell_volume   4404.73101998
_cell_formula_units_Z   16
loop_
 _symmetry_equiv_pos_site_id
 _symmetry_equiv_pos_as_xyz
  1  'x, y, z'
loop_
 _atom_site_type_symbol
 _atom_site_label
 _atom_site_symmetry_multiplicity
 _atom_site_fract_x
 _atom_site_fract_y
 _atom_site_fract_z
 _atom_site_occupancy
 _atom_site_charge
  Mg  Mg1  1  0.522440  0.208830  0.455710  1.0  1.5862
  Mg  Mg2  1  0.310330  0.240770  0.564450  1.0  1.5333
  Mg  Mg3  1  0.977560  0.791170  0.955710  1.0  1.5853
  Mg  Mg4  1  0.189670  0.759230  0.064450  1.0  1.5336
  Mg  Mg5  1  0.477560  0.708830  0.044290  1.0  1.5851
  Mg  Mg6  1  0.689670  0.740770  0.935550  1.0  1.534
  Mg  Mg7  1  0.022440  0.291170  0.544290  1.0  1.5876
  Mg  Mg8  1  0.810330  0.259230  0.435550  1.0  1.5338
  Mg  Mg9  1  0.477560  0.791170  0.544290  1.0  1.5866
  Mg  Mg10  1  0.689670  0.759230  0.435550  1.0  1.534
  Mg  Mg11  1  0.022440  0.208830  0.044290  1.0  1.5861
  Mg  Mg12  1  0.810330  0.240770  0.935550  1.0  1.5338
  Mg  Mg13  1  0.522440  0.291170  0.955710  1.0  1.5865
  Mg  Mg14  1  0.310330  0.259230  0.064450  1.0  1.5334
  Mg  Mg15  1  0.977560  0.708830  0.455710  1.0  1.5852
  Mg  Mg16  1  0.189670  0.740770  0.564450  1.0  1.5335
  H  H17  1  0.303000  0.509500  0.513100  1.0  0.0913
  H  H18  1  0.490700  0.399500  0.388400  1.0  0.0803
  H  H19  1  0.526400  0.524800  0.338400  1.0  0.0873
  H  H20  1  0.459300  0.644000  0.381300  1.0  0.0835
  H  H21  1  0.505300  0.281100  0.238400  1.0  0.0807
  H  H22  1  0.769900  0.357800  0.268200  1.0  0.0817
  H  H23  1  0.641300  0.400500  0.086200  1.0  0.0806
  H  H24  1  0.770200  0.416800  0.158900  1.0  0.0747
  H  H25  1  0.197000  0.490500  0.013100  1.0  0.0904
  H  H26  1  0.009300  0.600500  0.888400  1.0  0.0801
  H  H27  1  0.973600  0.475200  0.838400  1.0  0.0867
  H  H28  1  0.040700  0.356000  0.881300  1.0  0.0834
  H  H29  1  0.994700  0.718900  0.738400  1.0  0.0811
  H  H30  1  0.730100  0.642200  0.768200  1.0  0.0816
  H  H31  1  0.858700  0.599500  0.586200  1.0  0.0809
  H  H32  1  0.729800  0.583200  0.658900  1.0  0.0752
  H  H33  1  0.697000  0.009500  0.986900  1.0  0.0906
  H  H34  1  0.509300  0.899500  0.111600  1.0  0.0802
  H  H35  1  0.473600  0.024800  0.161600  1.0  0.0879
  H  H36  1  0.540700  0.144000  0.118700  1.0  0.0838
  H  H37  1  0.494700  0.781100  0.261600  1.0  0.0809
  H  H38  1  0.230100  0.857800  0.231800  1.0  0.0821
  H  H39  1  0.358700  0.900500  0.413800  1.0  0.0811
  H  H40  1  0.229800  0.916800  0.341100  1.0  0.0745
  H  H41  1  0.803000  0.990500  0.486900  1.0  0.0911
  H  H42  1  0.990700  0.100500  0.611600  1.0  0.08
  H  H43  1  0.026400  0.975200  0.661600  1.0  0.0877
  H  H44  1  0.959300  0.856000  0.618700  1.0  0.0843
  H  H45  1  0.005300  0.218900  0.761600  1.0  0.0806
  H  H46  1  0.269900  0.142200  0.731800  1.0  0.0824
  H  H47  1  0.141300  0.099500  0.913800  1.0  0.0813
  H  H48  1  0.270200  0.083200  0.841100  1.0  0.0747
  H  H49  1  0.697000  0.490500  0.486900  1.0  0.0904
  H  H50  1  0.509300  0.600500  0.611600  1.0  0.0799
  H  H51  1  0.473600  0.475200  0.661600  1.0  0.0878
  H  H52  1  0.540700  0.356000  0.618700  1.0  0.0841
  H  H53  1  0.494700  0.718900  0.761600  1.0  0.081
  H  H54  1  0.230100  0.642200  0.731800  1.0  0.0821
  H  H55  1  0.358700  0.599500  0.913800  1.0  0.0812
  H  H56  1  0.229800  0.583200  0.841100  1.0  0.0748
  H  H57  1  0.803000  0.509500  0.986900  1.0  0.0912
  H  H58  1  0.990700  0.399500  0.111600  1.0  0.0802
  H  H59  1  0.026400  0.524800  0.161600  1.0  0.0877
  H  H60  1  0.959300  0.644000  0.118700  1.0  0.0839
  H  H61  1  0.005300  0.281100  0.261600  1.0  0.0806
  H  H62  1  0.269900  0.357800  0.231800  1.0  0.0824
  H  H63  1  0.141300  0.400500  0.413800  1.0  0.081
  H  H64  1  0.270200  0.416800  0.341100  1.0  0.0743
  H  H65  1  0.303000  0.990500  0.013100  1.0  0.091
  H  H66  1  0.490700  0.100500  0.888400  1.0  0.0803
  H  H67  1  0.526400  0.975200  0.838400  1.0  0.087
  H  H68  1  0.459300  0.856000  0.881300  1.0  0.0836
  H  H69  1  0.505300  0.218900  0.738400  1.0  0.0805
  H  H70  1  0.769900  0.142200  0.768200  1.0  0.0821
  H  H71  1  0.641300  0.099500  0.586200  1.0  0.081
  H  H72  1  0.770200  0.083200  0.658900  1.0  0.0751
  H  H73  1  0.197000  0.009500  0.513100  1.0  0.0906
  H  H74  1  0.009300  0.899500  0.388400  1.0  0.0801
  H  H75  1  0.973600  0.024800  0.338400  1.0  0.0872
  H  H76  1  0.040700  0.144000  0.381300  1.0  0.0835
  H  H77  1  0.994700  0.781100  0.238400  1.0  0.081
  H  H78  1  0.730100  0.857800  0.268200  1.0  0.0812
  H  H79  1  0.858700  0.900500  0.086200  1.0  0.0806
  H  H80  1  0.729800  0.916800  0.158900  1.0  0.0749
  C  C81  1  0.328510  0.664320  0.480800  1.0  0.6948
  C  C82  1  0.373470  0.589160  0.451360  1.0  -0.1432
  C  C83  1  0.349650  0.512890  0.479100  1.0  -0.0225
  C  C84  1  0.394480  0.442020  0.456750  1.0  -0.1842
  C  C85  1  0.460880  0.447010  0.404160  1.0  -0.0552
  C  C86  1  0.483200  0.522040  0.374910  1.0  -0.134
  C  C87  1  0.441530  0.593210  0.399570  1.0  -0.083
  C  C88  1  0.635620  0.277930  0.336740  1.0  0.734
  C  C89  1  0.559580  0.306790  0.221890  1.0  -0.0299
  C  C90  1  0.636920  0.314290  0.265110  1.0  -0.1789
  C  C91  1  0.716500  0.354000  0.240130  1.0  -0.0684
  C  C92  1  0.479520  0.320840  0.107110  1.0  0.6836
  C  C93  1  0.561210  0.336730  0.154450  1.0  -0.1719
  C  C94  1  0.640300  0.378600  0.131050  1.0  -0.0706
  C  C95  1  0.371960  0.362270  0.491320  1.0  0.654
  C  C96  1  0.717500  0.387800  0.174270  1.0  -0.13
  C  C97  1  0.171490  0.335680  0.980800  1.0  0.6949
  C  C98  1  0.126530  0.410840  0.951360  1.0  -0.1444
  C  C99  1  0.150350  0.487110  0.979100  1.0  -0.0211
  C  C100  1  0.105520  0.557980  0.956750  1.0  -0.1842
  C  C101  1  0.039120  0.552990  0.904160  1.0  -0.0547
  C  C102  1  0.016800  0.477960  0.874910  1.0  -0.1338
  C  C103  1  0.058470  0.406790  0.899570  1.0  -0.0838
  C  C104  1  0.864380  0.722070  0.836740  1.0  0.7333
  C  C105  1  0.940420  0.693210  0.721890  1.0  -0.0287
  C  C106  1  0.863080  0.685710  0.765110  1.0  -0.179
  C  C107  1  0.783500  0.646000  0.740130  1.0  -0.0667
  C  C108  1  0.020480  0.679160  0.607110  1.0  0.6828
  C  C109  1  0.938790  0.663270  0.654450  1.0  -0.1714
  C  C110  1  0.859700  0.621400  0.631050  1.0  -0.0715
  C  C111  1  0.128040  0.637730  0.991320  1.0  0.6537
  C  C112  1  0.782500  0.612200  0.674270  1.0  -0.1312
  C  C113  1  0.671490  0.164320  0.019200  1.0  0.6944
  C  C114  1  0.626530  0.089160  0.048640  1.0  -0.1446
  C  C115  1  0.650350  0.012890  0.020900  1.0  -0.0213
  C  C116  1  0.605520  0.942020  0.043250  1.0  -0.1838
  C  C117  1  0.539120  0.947010  0.095840  1.0  -0.0552
  C  C118  1  0.516800  0.022040  0.125090  1.0  -0.1365
  C  C119  1  0.558470  0.093210  0.100430  1.0  -0.0863
  C  C120  1  0.364380  0.777930  0.163260  1.0  0.7344
  C  C121  1  0.440420  0.806790  0.278110  1.0  -0.029
  C  C122  1  0.363080  0.814290  0.234890  1.0  -0.1784
  C  C123  1  0.283500  0.854000  0.259870  1.0  -0.0673
  C  C124  1  0.520480  0.820840  0.392890  1.0  0.6836
  C  C125  1  0.438790  0.836730  0.345550  1.0  -0.1723
  C  C126  1  0.359700  0.878600  0.368950  1.0  -0.0712
  C  C127  1  0.628040  0.862270  0.008680  1.0  0.6537
  C  C128  1  0.282500  0.887800  0.325730  1.0  -0.1318
  C  C129  1  0.828510  0.835680  0.519200  1.0  0.6947
  C  C130  1  0.873470  0.910840  0.548640  1.0  -0.1432
  C  C131  1  0.849650  0.987110  0.520900  1.0  -0.0223
  C  C132  1  0.894480  0.057980  0.543250  1.0  -0.1832
  C  C133  1  0.960880  0.052990  0.595840  1.0  -0.0536
  C  C134  1  0.983200  0.977960  0.625090  1.0  -0.1344
  C  C135  1  0.941530  0.906790  0.600430  1.0  -0.0871
  C  C136  1  0.135620  0.222070  0.663260  1.0  0.7345
  C  C137  1  0.059580  0.193210  0.778110  1.0  -0.0287
  C  C138  1  0.136920  0.185710  0.734890  1.0  -0.1771
  C  C139  1  0.216500  0.146000  0.759870  1.0  -0.0679
  C  C140  1  0.979520  0.179160  0.892890  1.0  0.6834
  C  C141  1  0.061210  0.163270  0.845550  1.0  -0.1715
  C  C142  1  0.140300  0.121400  0.868950  1.0  -0.0713
  C  C143  1  0.871960  0.137730  0.508680  1.0  0.6535
  C  C144  1  0.217500  0.112200  0.825730  1.0  -0.1303
  C  C145  1  0.671490  0.335680  0.519200  1.0  0.6948
  C  C146  1  0.626530  0.410840  0.548640  1.0  -0.1445
  C  C147  1  0.650350  0.487110  0.520900  1.0  -0.0212
  C  C148  1  0.605520  0.557980  0.543250  1.0  -0.1837
  C  C149  1  0.539120  0.552990  0.595840  1.0  -0.0539
  C  C150  1  0.516800  0.477960  0.625090  1.0  -0.1359
  C  C151  1  0.558470  0.406790  0.600430  1.0  -0.0871
  C  C152  1  0.364380  0.722070  0.663260  1.0  0.7342
  C  C153  1  0.440420  0.693210  0.778110  1.0  -0.0282
  C  C154  1  0.363080  0.685710  0.734890  1.0  -0.1771
  C  C155  1  0.283500  0.646000  0.759870  1.0  -0.0669
  C  C156  1  0.520480  0.679160  0.892890  1.0  0.6832
  C  C157  1  0.438790  0.663270  0.845550  1.0  -0.1714
  C  C158  1  0.359700  0.621400  0.868950  1.0  -0.0716
  C  C159  1  0.628040  0.637730  0.508680  1.0  0.6536
  C  C160  1  0.282500  0.612200  0.825730  1.0  -0.1316
  C  C161  1  0.828510  0.664320  0.019200  1.0  0.6948
  C  C162  1  0.873470  0.589160  0.048640  1.0  -0.1427
  C  C163  1  0.849650  0.512890  0.020900  1.0  -0.0225
  C  C164  1  0.894480  0.442020  0.043250  1.0  -0.1838
  C  C165  1  0.960880  0.447010  0.095840  1.0  -0.0544
  C  C166  1  0.983200  0.522040  0.125090  1.0  -0.135
  C  C167  1  0.941530  0.593210  0.100430  1.0  -0.0863
  C  C168  1  0.135620  0.277930  0.163260  1.0  0.7345
  C  C169  1  0.059580  0.306790  0.278110  1.0  -0.0295
  C  C170  1  0.136920  0.314290  0.234890  1.0  -0.1782
  C  C171  1  0.216500  0.354000  0.259870  1.0  -0.068
  C  C172  1  0.979520  0.320840  0.392890  1.0  0.6833
  C  C173  1  0.061210  0.336730  0.345550  1.0  -0.1718
  C  C174  1  0.140300  0.378600  0.368950  1.0  -0.0716
  C  C175  1  0.871960  0.362270  0.008680  1.0  0.6536
  C  C176  1  0.217500  0.387800  0.325730  1.0  -0.1303
  C  C177  1  0.328510  0.835680  0.980800  1.0  0.6948
  C  C178  1  0.373470  0.910840  0.951360  1.0  -0.1439
  C  C179  1  0.349650  0.987110  0.979100  1.0  -0.0223
  C  C180  1  0.394480  0.057980  0.956750  1.0  -0.1837
  C  C181  1  0.460880  0.052990  0.904160  1.0  -0.055
  C  C182  1  0.483200  0.977960  0.874910  1.0  -0.1341
  C  C183  1  0.441530  0.906790  0.899570  1.0  -0.0835
  C  C184  1  0.635620  0.222070  0.836740  1.0  0.7336
  C  C185  1  0.559580  0.193210  0.721890  1.0  -0.0295
  C  C186  1  0.636920  0.185710  0.765110  1.0  -0.1789
  C  C187  1  0.716500  0.146000  0.740130  1.0  -0.068
  C  C188  1  0.479520  0.179160  0.607110  1.0  0.6832
  C  C189  1  0.561210  0.163270  0.654450  1.0  -0.1716
  C  C190  1  0.640300  0.121400  0.631050  1.0  -0.0714
  C  C191  1  0.371960  0.137730  0.991320  1.0  0.6538
  C  C192  1  0.717500  0.112200  0.674270  1.0  -0.1298
  C  C193  1  0.171490  0.164320  0.480800  1.0  0.6943
  C  C194  1  0.126530  0.089160  0.451360  1.0  -0.1444
  C  C195  1  0.150350  0.012890  0.479100  1.0  -0.0213
  C  C196  1  0.105520  0.942020  0.456750  1.0  -0.1843
  C  C197  1  0.039120  0.947010  0.404160  1.0  -0.0551
  C  C198  1  0.016800  0.022040  0.374910  1.0  -0.1339
  C  C199  1  0.058470  0.093210  0.399570  1.0  -0.0834
  C  C200  1  0.864380  0.777930  0.336740  1.0  0.7339
  C  C201  1  0.940420  0.806790  0.221890  1.0  -0.0292
  C  C202  1  0.863080  0.814290  0.265110  1.0  -0.1792
  C  C203  1  0.783500  0.854000  0.240130  1.0  -0.0675
  C  C204  1  0.020480  0.820840  0.107110  1.0  0.6837
  C  C205  1  0.938790  0.836730  0.154450  1.0  -0.1721
  C  C206  1  0.859700  0.878600  0.131050  1.0  -0.0705
  C  C207  1  0.128040  0.862270  0.491320  1.0  0.6539
  C  C208  1  0.782500  0.887800  0.174270  1.0  -0.1317
  O  O209  1  0.416870  0.298080  0.477640  1.0  -0.6973
  O  O210  1  0.376320  0.727950  0.488480  1.0  -0.6975
  O  O211  1  0.558100  0.261330  0.363530  1.0  -0.6324
  O  O212  1  0.480320  0.347350  0.045800  1.0  -0.7087
  O  O213  1  0.242230  0.658970  0.498120  1.0  -0.6248
  O  O214  1  0.305850  0.359860  0.536050  1.0  -0.6178
  O  O215  1  0.412340  0.280040  0.131260  1.0  -0.6023
  O  O216  1  0.713880  0.265670  0.365040  1.0  -0.691
  O  O217  1  0.083130  0.701920  0.977640  1.0  -0.6958
  O  O218  1  0.123680  0.272050  0.988480  1.0  -0.6981
  O  O219  1  0.941900  0.738670  0.863530  1.0  -0.6328
  O  O220  1  0.019680  0.652650  0.545800  1.0  -0.7077
  O  O221  1  0.257770  0.341030  0.998120  1.0  -0.6255
  O  O222  1  0.194150  0.640140  0.036050  1.0  -0.6173
  O  O223  1  0.087660  0.719960  0.631260  1.0  -0.6021
  O  O224  1  0.786120  0.734330  0.865040  1.0  -0.6911
  O  O225  1  0.583130  0.798080  0.022360  1.0  -0.698
  O  O226  1  0.623680  0.227950  0.011520  1.0  -0.6969
  O  O227  1  0.441900  0.761330  0.136470  1.0  -0.6326
  O  O228  1  0.519680  0.847350  0.454200  1.0  -0.7092
  O  O229  1  0.757770  0.158970  0.001880  1.0  -0.6252
  O  O230  1  0.694150  0.859860  0.963950  1.0  -0.6183
  O  O231  1  0.587660  0.780040  0.368740  1.0  -0.6023
  O  O232  1  0.286120  0.765670  0.134960  1.0  -0.6907
  O  O233  1  0.916870  0.201920  0.522360  1.0  -0.699
  O  O234  1  0.876320  0.772050  0.511520  1.0  -0.6987
  O  O235  1  0.058100  0.238670  0.636470  1.0  -0.6329
  O  O236  1  0.980320  0.152650  0.954200  1.0  -0.7104
  O  O237  1  0.742230  0.841030  0.501880  1.0  -0.6253
  O  O238  1  0.805850  0.140140  0.463950  1.0  -0.6176
  O  O239  1  0.912340  0.219960  0.868740  1.0  -0.603
  O  O240  1  0.213880  0.234330  0.634960  1.0  -0.691
  O  O241  1  0.583130  0.701920  0.522360  1.0  -0.6984
  O  O242  1  0.623680  0.272050  0.511520  1.0  -0.698
  O  O243  1  0.441900  0.738670  0.636470  1.0  -0.6329
  O  O244  1  0.519680  0.652650  0.954200  1.0  -0.7107
  O  O245  1  0.757770  0.341030  0.501880  1.0  -0.6253
  O  O246  1  0.694150  0.640140  0.463950  1.0  -0.6183
  O  O247  1  0.587660  0.719960  0.868740  1.0  -0.6025
  O  O248  1  0.286120  0.734330  0.634960  1.0  -0.6917
  O  O249  1  0.916870  0.298080  0.022360  1.0  -0.6981
  O  O250  1  0.876320  0.727950  0.011520  1.0  -0.6971
  O  O251  1  0.058100  0.261330  0.136470  1.0  -0.6325
  O  O252  1  0.980320  0.347350  0.454200  1.0  -0.7091
  O  O253  1  0.742230  0.658970  0.001880  1.0  -0.6247
  O  O254  1  0.805850  0.359860  0.963950  1.0  -0.6174
  O  O255  1  0.912340  0.280040  0.368740  1.0  -0.6026
  O  O256  1  0.213880  0.265670  0.134960  1.0  -0.6913
  O  O257  1  0.416870  0.201920  0.977640  1.0  -0.6966
  O  O258  1  0.376320  0.772050  0.988480  1.0  -0.6987
  O  O259  1  0.558100  0.238670  0.863530  1.0  -0.6327
  O  O260  1  0.480320  0.152650  0.545800  1.0  -0.7079
  O  O261  1  0.242230  0.841030  0.998120  1.0  -0.6247
  O  O262  1  0.305850  0.140140  0.036050  1.0  -0.6173
  O  O263  1  0.412340  0.219960  0.631260  1.0  -0.6028
  O  O264  1  0.713880  0.234330  0.865040  1.0  -0.6921
  O  O265  1  0.083130  0.798080  0.477640  1.0  -0.6971
  O  O266  1  0.123680  0.227950  0.488480  1.0  -0.6973
  O  O267  1  0.941900  0.761330  0.363530  1.0  -0.6323
  O  O268  1  0.019680  0.847350  0.045800  1.0  -0.7083
  O  O269  1  0.257770  0.158970  0.498120  1.0  -0.6252
  O  O270  1  0.194150  0.859860  0.536050  1.0  -0.6177
  O  O271  1  0.087660  0.780040  0.131260  1.0  -0.6018
  O  O272  1  0.786120  0.765670  0.365040  1.0  -0.692
