# generated using pymatgen
data_SmHC5(NO2)2
_symmetry_space_group_name_H-M   'P 1'
_cell_length_a   16.26630000
_cell_length_b   16.53970000
_cell_length_c   16.53970000
_cell_angle_alpha   76.00700000
_cell_angle_beta   60.54530000
_cell_angle_gamma   60.54530000
_symmetry_Int_Tables_number   1
_chemical_formula_structural   SmHC5(NO2)2
_chemical_formula_sum   'Sm16 H16 C80 N32 O64'
_cell_volume   3373.84995030
_cell_formula_units_Z   16
loop_
 _symmetry_equiv_pos_site_id
 _symmetry_equiv_pos_as_xyz
  1  'x, y, z'
loop_
 _atom_site_type_symbol
 _atom_site_label
 _atom_site_symmetry_multiplicity
 _atom_site_fract_x
 _atom_site_fract_y
 _atom_site_fract_z
 _atom_site_occupancy
 _atom_site_charge
  Sm  Sm1  1  0.238170  0.878480  0.469420  1.0  2.2445
  Sm  Sm2  1  0.512650  0.522660  0.114000  1.0  2.2604
  Sm  Sm3  1  0.086070  0.621520  0.030580  1.0  2.2485
  Sm  Sm4  1  0.649310  0.977340  0.386000  1.0  2.2608
  Sm  Sm5  1  0.707590  0.530580  0.378480  1.0  2.2508
  Sm  Sm6  1  0.626650  0.886000  0.022660  1.0  2.2598
  Sm  Sm7  1  0.116650  0.969420  0.121520  1.0  2.2512
  Sm  Sm8  1  0.035310  0.614000  0.477340  1.0  2.2589
  Sm  Sm9  1  0.761830  0.121520  0.530580  1.0  2.2432
  Sm  Sm10  1  0.487350  0.477340  0.886000  1.0  2.2611
  Sm  Sm11  1  0.913930  0.378480  0.969420  1.0  2.2482
  Sm  Sm12  1  0.350690  0.022660  0.614000  1.0  2.2606
  Sm  Sm13  1  0.292410  0.469420  0.621520  1.0  2.2494
  Sm  Sm14  1  0.373350  0.114000  0.977340  1.0  2.2596
  Sm  Sm15  1  0.883350  0.030580  0.878480  1.0  2.2511
  Sm  Sm16  1  0.964690  0.386000  0.522660  1.0  2.2582
  H  H17  1  0.306700  0.751500  0.252500  1.0  0.0405
  H  H18  1  0.365400  0.899200  0.217600  1.0  0.0427
  H  H19  1  0.810700  0.748500  0.247500  1.0  0.0414
  H  H20  1  0.982200  0.600800  0.282400  1.0  0.0405
  H  H21  1  0.559200  0.747500  0.251500  1.0  0.0415
  H  H22  1  0.583000  0.782400  0.399200  1.0  0.0436
  H  H23  1  0.058200  0.752500  0.248500  1.0  0.0401
  H  H24  1  0.264600  0.717600  0.100800  1.0  0.0418
  H  H25  1  0.693300  0.248500  0.747500  1.0  0.0411
  H  H26  1  0.634600  0.100800  0.782400  1.0  0.043
  H  H27  1  0.189300  0.251500  0.752500  1.0  0.0413
  H  H28  1  0.017800  0.399200  0.717600  1.0  0.0422
  H  H29  1  0.440800  0.252500  0.748500  1.0  0.0415
  H  H30  1  0.417000  0.217600  0.600800  1.0  0.043
  H  H31  1  0.941800  0.247500  0.751500  1.0  0.0411
  H  H32  1  0.735400  0.282400  0.899200  1.0  0.0416
  C  C33  1  0.353300  0.715700  0.278500  1.0  0.3809
  C  C34  1  0.427300  0.669000  0.369000  1.0  -0.0229
  C  C35  1  0.486100  0.604200  0.298400  1.0  0.0197
  C  C36  1  0.579300  0.513700  0.275500  1.0  0.7746
  C  C37  1  0.439100  0.677700  0.448300  1.0  0.7487
  C  C38  1  0.399200  0.913200  0.240200  1.0  0.4113
  C  C39  1  0.437100  0.941000  0.337000  1.0  0.0155
  C  C40  1  0.504900  0.950600  0.245400  1.0  0.0297
  C  C41  1  0.598500  0.968200  0.205800  1.0  0.7424
  C  C42  1  0.419400  0.953400  0.431600  1.0  0.7392
  C  C43  1  0.847500  0.784300  0.221500  1.0  0.3811
  C  C44  1  0.965300  0.831000  0.131000  1.0  -0.022
  C  C45  1  0.888700  0.895800  0.201600  1.0  0.0188
  C  C46  1  0.868500  0.986300  0.224500  1.0  0.7754
  C  C47  1  0.065100  0.822300  0.051700  1.0  0.7378
  C  C48  1  0.052600  0.586800  0.259800  1.0  0.4113
  C  C49  1  0.215100  0.559000  0.163000  1.0  0.0196
  C  C50  1  0.200900  0.549400  0.254600  1.0  0.0293
  C  C51  1  0.272500  0.531800  0.294200  1.0  0.743
  C  C52  1  0.304400  0.546600  0.068400  1.0  0.7368
  C  C53  1  0.631800  0.721500  0.215700  1.0  0.38
  C  C54  1  0.796300  0.631000  0.169000  1.0  -0.0227
  C  C55  1  0.784500  0.701600  0.104200  1.0  0.0187
  C  C56  1  0.854800  0.724500  0.013700  1.0  0.7712
  C  C57  1  0.887400  0.551700  0.177700  1.0  0.743
  C  C58  1  0.639400  0.759800  0.413200  1.0  0.4119
  C  C59  1  0.774100  0.663000  0.441000  1.0  0.0174
  C  C60  1  0.750300  0.754600  0.450600  1.0  0.0309
  C  C61  1  0.804300  0.794200  0.468200  1.0  0.747
  C  C62  1  0.851000  0.568400  0.453400  1.0  0.7401
  C  C63  1  0.069000  0.778500  0.284300  1.0  0.3817
  C  C64  1  0.096300  0.869000  0.331000  1.0  -0.0207
  C  C65  1  0.090300  0.798400  0.395800  1.0  0.0198
  C  C66  1  0.093000  0.775500  0.486300  1.0  0.7812
  C  C67  1  0.116800  0.948300  0.322300  1.0  0.7427
  C  C68  1  0.312400  0.740200  0.086800  1.0  0.412
  C  C69  1  0.378100  0.837000  0.059000  1.0  0.0177
  C  C70  1  0.455500  0.745400  0.049400  1.0  0.0292
  C  C71  1  0.566700  0.705800  0.031800  1.0  0.7438
  C  C72  1  0.372800  0.931600  0.046600  1.0  0.7398
  C  C73  1  0.646700  0.284300  0.721500  1.0  0.3806
  C  C74  1  0.572700  0.331000  0.631000  1.0  -0.0227
  C  C75  1  0.513900  0.395800  0.701600  1.0  0.0192
  C  C76  1  0.420700  0.486300  0.724500  1.0  0.7764
  C  C77  1  0.560900  0.322300  0.551700  1.0  0.7479
  C  C78  1  0.600800  0.086800  0.759800  1.0  0.4105
  C  C79  1  0.562900  0.059000  0.663000  1.0  0.0198
  C  C80  1  0.495100  0.049400  0.754600  1.0  0.0289
  C  C81  1  0.401500  0.031800  0.794200  1.0  0.742
  C  C82  1  0.580600  0.046600  0.568400  1.0  0.7371
  C  C83  1  0.152500  0.215700  0.778500  1.0  0.3812
  C  C84  1  0.034700  0.169000  0.869000  1.0  -0.0227
  C  C85  1  0.111300  0.104200  0.798400  1.0  0.0193
  C  C86  1  0.131500  0.013700  0.775500  1.0  0.7746
  C  C87  1  0.934900  0.177700  0.948300  1.0  0.7415
  C  C88  1  0.947400  0.413200  0.740200  1.0  0.4128
  C  C89  1  0.784900  0.441000  0.837000  1.0  0.0152
  C  C90  1  0.799100  0.450600  0.745400  1.0  0.0282
  C  C91  1  0.727500  0.468200  0.705800  1.0  0.743
  C  C92  1  0.695600  0.453400  0.931600  1.0  0.7385
  C  C93  1  0.368200  0.278500  0.784300  1.0  0.3804
  C  C94  1  0.203700  0.369000  0.831000  1.0  -0.0207
  C  C95  1  0.215500  0.298400  0.895800  1.0  0.0197
  C  C96  1  0.145200  0.275500  0.986300  1.0  0.7707
  C  C97  1  0.112600  0.448300  0.822300  1.0  0.7449
  C  C98  1  0.360600  0.240200  0.586800  1.0  0.4107
  C  C99  1  0.225900  0.337000  0.559000  1.0  0.0155
  C  C100  1  0.249700  0.245400  0.549400  1.0  0.0294
  C  C101  1  0.195700  0.205800  0.531800  1.0  0.7476
  C  C102  1  0.149000  0.431600  0.546600  1.0  0.7387
  C  C103  1  0.931000  0.221500  0.715700  1.0  0.3806
  C  C104  1  0.903700  0.131000  0.669000  1.0  -0.0214
  C  C105  1  0.909700  0.201600  0.604200  1.0  0.0185
  C  C106  1  0.907000  0.224500  0.513700  1.0  0.7805
  C  C107  1  0.883200  0.051700  0.677700  1.0  0.7413
  C  C108  1  0.687600  0.259800  0.913200  1.0  0.4128
  C  C109  1  0.621900  0.163000  0.941000  1.0  0.0167
  C  C110  1  0.544500  0.254600  0.950600  1.0  0.0307
  C  C111  1  0.433300  0.294200  0.968200  1.0  0.7416
  C  C112  1  0.627200  0.068400  0.953400  1.0  0.7408
  N  N113  1  0.438800  0.633900  0.241100  1.0  -0.5795
  N  N114  1  0.342600  0.739800  0.356600  1.0  -0.6036
  N  N115  1  0.370000  0.916400  0.331600  1.0  -0.6405
  N  N116  1  0.481200  0.932300  0.185300  1.0  -0.6132
  N  N117  1  0.813800  0.866100  0.258900  1.0  -0.5797
  N  N118  1  0.939000  0.760200  0.143400  1.0  -0.6054
  N  N119  1  0.118000  0.583600  0.168400  1.0  -0.639
  N  N120  1  0.098800  0.567700  0.314700  1.0  -0.6116
  N  N121  1  0.679900  0.758900  0.133900  1.0  -0.5799
  N  N122  1  0.699200  0.643400  0.239800  1.0  -0.6041
  N  N123  1  0.701600  0.668400  0.416400  1.0  -0.6357
  N  N124  1  0.666500  0.814700  0.432300  1.0  -0.615
  N  N125  1  0.072700  0.741100  0.366100  1.0  -0.5771
  N  N126  1  0.082400  0.856600  0.260200  1.0  -0.6047
  N  N127  1  0.286400  0.831600  0.083600  1.0  -0.6381
  N  N128  1  0.413500  0.685300  0.067700  1.0  -0.6141
  N  N129  1  0.561200  0.366100  0.758900  1.0  -0.5801
  N  N130  1  0.657400  0.260200  0.643400  1.0  -0.6043
  N  N131  1  0.630000  0.083600  0.668400  1.0  -0.641
  N  N132  1  0.518800  0.067700  0.814700  1.0  -0.612
  N  N133  1  0.186200  0.133900  0.741100  1.0  -0.5805
  N  N134  1  0.061000  0.239800  0.856600  1.0  -0.6047
  N  N135  1  0.882000  0.416400  0.831600  1.0  -0.6371
  N  N136  1  0.901200  0.432300  0.685300  1.0  -0.6121
  N  N137  1  0.320100  0.241100  0.866100  1.0  -0.5782
  N  N138  1  0.300800  0.356600  0.760200  1.0  -0.604
  N  N139  1  0.298400  0.331600  0.583600  1.0  -0.6376
  N  N140  1  0.333500  0.185300  0.567700  1.0  -0.6144
  N  N141  1  0.927300  0.258900  0.633900  1.0  -0.5811
  N  N142  1  0.917600  0.143400  0.739800  1.0  -0.6056
  N  N143  1  0.713600  0.168400  0.916400  1.0  -0.6334
  N  N144  1  0.586500  0.314700  0.932300  1.0  -0.6142
  O  O145  1  0.603300  0.468800  0.209600  1.0  -0.7064
  O  O146  1  0.634100  0.481700  0.320900  1.0  -0.788
  O  O147  1  0.526500  0.627000  0.454200  1.0  -0.7761
  O  O148  1  0.361900  0.737400  0.508400  1.0  -0.6926
  O  O149  1  0.652500  0.957300  0.118300  1.0  -0.6884
  O  O150  1  0.619400  0.995900  0.255300  1.0  -0.7534
  O  O151  1  0.469400  0.984100  0.443900  1.0  -0.8222
  O  O152  1  0.351100  0.930400  0.499000  1.0  -0.7646
  O  O153  1  0.781700  0.031200  0.290400  1.0  -0.707
  O  O154  1  0.936700  0.018300  0.179100  1.0  -0.7901
  O  O155  1  0.107700  0.873000  0.045800  1.0  -0.773
  O  O156  1  0.107700  0.762600  0.991600  1.0  -0.6923
  O  O157  1  0.228100  0.542700  0.381700  1.0  -0.6914
  O  O158  1  0.370600  0.504100  0.244700  1.0  -0.7511
  O  O159  1  0.397400  0.515900  0.056100  1.0  -0.8201
  O  O160  1  0.280500  0.569600  0.001000  1.0  -0.7688
  O  O161  1  0.812900  0.790400  0.968800  1.0  -0.7103
  O  O162  1  0.955000  0.679100  0.981700  1.0  -0.7882
  O  O163  1  0.980700  0.545800  0.127000  1.0  -0.7721
  O  O164  1  0.870300  0.491600  0.237400  1.0  -0.6912
  O  O165  1  0.770800  0.881700  0.457300  1.0  -0.6921
  O  O166  1  0.874700  0.744700  0.495900  1.0  -0.7568
  O  O167  1  0.913300  0.556100  0.484100  1.0  -0.8254
  O  O168  1  0.850100  0.501000  0.430400  1.0  -0.765
  O  O169  1  0.072100  0.709600  0.531200  1.0  -0.7078
  O  O170  1  0.115800  0.820900  0.518300  1.0  -0.7929
  O  O171  1  0.153500  0.954200  0.373000  1.0  -0.776
  O  O172  1  0.099300  0.008400  0.262600  1.0  -0.6932
  O  O173  1  0.609800  0.618300  0.042700  1.0  -0.6894
  O  O174  1  0.615300  0.755300  0.004100  1.0  -0.7498
  O  O175  1  0.453500  0.943900  0.015900  1.0  -0.8215
  O  O176  1  0.281500  0.999000  0.069600  1.0  -0.7636
  O  O177  1  0.396700  0.531200  0.790400  1.0  -0.7072
  O  O178  1  0.365900  0.518300  0.679100  1.0  -0.792
  O  O179  1  0.473500  0.373000  0.545800  1.0  -0.7764
  O  O180  1  0.638100  0.262600  0.491600  1.0  -0.6926
  O  O181  1  0.347500  0.042700  0.881700  1.0  -0.6877
  O  O182  1  0.380600  0.004100  0.744700  1.0  -0.7509
  O  O183  1  0.530600  0.015900  0.556100  1.0  -0.8209
  O  O184  1  0.648900  0.069600  0.501000  1.0  -0.7655
  O  O185  1  0.218300  0.968800  0.709600  1.0  -0.7057
  O  O186  1  0.063300  0.981700  0.820900  1.0  -0.7888
  O  O187  1  0.892300  0.127000  0.954200  1.0  -0.7705
  O  O188  1  0.892300  0.237400  0.008400  1.0  -0.6934
  O  O189  1  0.771900  0.457300  0.618300  1.0  -0.691
  O  O190  1  0.629400  0.495900  0.755300  1.0  -0.751
  O  O191  1  0.602600  0.484100  0.943900  1.0  -0.8213
  O  O192  1  0.719500  0.430400  0.999000  1.0  -0.7697
  O  O193  1  0.187100  0.209600  0.031200  1.0  -0.7115
  O  O194  1  0.045000  0.320900  0.018300  1.0  -0.7879
  O  O195  1  0.019300  0.454200  0.873000  1.0  -0.7725
  O  O196  1  0.129700  0.508400  0.762600  1.0  -0.6915
  O  O197  1  0.229200  0.118300  0.542700  1.0  -0.6902
  O  O198  1  0.125300  0.255300  0.504100  1.0  -0.7562
  O  O199  1  0.086700  0.443900  0.515900  1.0  -0.8252
  O  O200  1  0.149900  0.499000  0.569600  1.0  -0.7646
  O  O201  1  0.927900  0.290400  0.468800  1.0  -0.7082
  O  O202  1  0.884200  0.179100  0.481700  1.0  -0.7926
  O  O203  1  0.846500  0.045800  0.627000  1.0  -0.774
  O  O204  1  0.900700  0.991600  0.737400  1.0  -0.6917
  O  O205  1  0.390200  0.381700  0.957300  1.0  -0.69
  O  O206  1  0.384700  0.244700  0.995900  1.0  -0.7491
  O  O207  1  0.546500  0.056100  0.984100  1.0  -0.822
  O  O208  1  0.718500  0.001000  0.930400  1.0  -0.764
