# generated using pymatgen
data_EuHC5(NO2)2
_symmetry_space_group_name_H-M   'P 1'
_cell_length_a   16.13900000
_cell_length_b   16.48300000
_cell_length_c   16.48300000
_cell_angle_alpha   76.13280000
_cell_angle_beta   60.68800000
_cell_angle_gamma   60.68810000
_symmetry_Int_Tables_number   1
_chemical_formula_structural   EuHC5(NO2)2
_chemical_formula_sum   'Eu16 H16 C80 N32 O64'
_cell_volume   3333.87583346
_cell_formula_units_Z   16
loop_
 _symmetry_equiv_pos_site_id
 _symmetry_equiv_pos_as_xyz
  1  'x, y, z'
loop_
 _atom_site_type_symbol
 _atom_site_label
 _atom_site_symmetry_multiplicity
 _atom_site_fract_x
 _atom_site_fract_y
 _atom_site_fract_z
 _atom_site_occupancy
 _atom_site_charge
  Eu  Eu1  1  0.585000  0.620990  0.031990  1.0  2.1363
  Eu  Eu2  1  0.149720  0.976240  0.386600  1.0  2.1396
  Eu  Eu3  1  0.737970  0.879010  0.468010  1.0  2.1332
  Eu  Eu4  1  0.012560  0.523760  0.113400  1.0  2.139
  Eu  Eu5  1  0.616980  0.968010  0.121000  1.0  2.1403
  Eu  Eu6  1  0.536320  0.613400  0.476240  1.0  2.1379
  Eu  Eu7  1  0.205990  0.531990  0.379000  1.0  2.141
  Eu  Eu8  1  0.125960  0.886600  0.023760  1.0  2.1386
  Eu  Eu9  1  0.415000  0.379010  0.968010  1.0  2.1356
  Eu  Eu10  1  0.850280  0.023760  0.613400  1.0  2.1394
  Eu  Eu11  1  0.262030  0.120990  0.531990  1.0  2.1313
  Eu  Eu12  1  0.987440  0.476240  0.886600  1.0  2.139
  Eu  Eu13  1  0.383020  0.031990  0.879000  1.0  2.141
  Eu  Eu14  1  0.463680  0.386600  0.523760  1.0  2.1373
  Eu  Eu15  1  0.794010  0.468010  0.621000  1.0  2.139
  Eu  Eu16  1  0.874040  0.113400  0.976240  1.0  2.1385
  H  H17  1  0.311200  0.746900  0.249500  1.0  0.0437
  H  H18  1  0.482000  0.602000  0.282000  1.0  0.0522
  H  H19  1  0.807600  0.753100  0.250500  1.0  0.0426
  H  H20  1  0.866000  0.898000  0.218000  1.0  0.0542
  H  H21  1  0.560700  0.750500  0.246900  1.0  0.0425
  H  H22  1  0.764000  0.718000  0.102000  1.0  0.0537
  H  H23  1  0.058100  0.749500  0.253100  1.0  0.0438
  H  H24  1  0.084000  0.782000  0.398000  1.0  0.0554
  H  H25  1  0.688800  0.253100  0.750500  1.0  0.0439
  H  H26  1  0.518000  0.398000  0.718000  1.0  0.0534
  H  H27  1  0.192400  0.246900  0.749500  1.0  0.0432
  H  H28  1  0.134000  0.102000  0.782000  1.0  0.0544
  H  H29  1  0.439300  0.249500  0.753100  1.0  0.0432
  H  H30  1  0.236000  0.282000  0.898000  1.0  0.0536
  H  H31  1  0.941900  0.250500  0.746900  1.0  0.044
  H  H32  1  0.916000  0.218000  0.602000  1.0  0.0547
  C  C33  1  0.347600  0.783300  0.223100  1.0  0.4027
  C  C34  1  0.388800  0.894200  0.202400  1.0  0.0062
  C  C35  1  0.464700  0.829200  0.132000  1.0  0.0214
  C  C36  1  0.370400  0.984500  0.224100  1.0  0.7605
  C  C37  1  0.565400  0.821600  0.052600  1.0  0.743
  C  C38  1  0.553200  0.586900  0.258900  1.0  0.4144
  C  C39  1  0.715100  0.557500  0.163100  1.0  0.0456
  C  C40  1  0.703000  0.549400  0.253200  1.0  0.0328
  C  C41  1  0.801800  0.546700  0.070100  1.0  0.7418
  C  C42  1  0.774500  0.531600  0.294200  1.0  0.731
  C  C43  1  0.854000  0.716700  0.276900  1.0  0.4031
  C  C44  1  0.985400  0.605800  0.297600  1.0  0.0077
  C  C45  1  0.925900  0.670800  0.368000  1.0  0.0202
  C  C46  1  0.079000  0.515500  0.275900  1.0  0.7595
  C  C47  1  0.939600  0.678400  0.447400  1.0  0.7551
  C  C48  1  0.899000  0.913100  0.241100  1.0  0.4144
  C  C49  1  0.935700  0.942500  0.336900  1.0  0.0439
  C  C50  1  0.005600  0.950600  0.246800  1.0  0.0336
  C  C51  1  0.918600  0.953300  0.429900  1.0  0.7422
  C  C52  1  0.100300  0.968400  0.205800  1.0  0.7325
  C  C53  1  0.570700  0.776900  0.283300  1.0  0.4038
  C  C54  1  0.591200  0.797600  0.394200  1.0  0.0078
  C  C55  1  0.596700  0.868000  0.329200  1.0  0.0218
  C  C56  1  0.594500  0.775900  0.484500  1.0  0.768
  C  C57  1  0.618000  0.947400  0.321600  1.0  0.7467
  C  C58  1  0.812100  0.741100  0.086900  1.0  0.4151
  C  C59  1  0.878200  0.836900  0.057500  1.0  0.0454
  C  C60  1  0.956200  0.746800  0.049400  1.0  0.0334
  C  C61  1  0.871900  0.929900  0.046700  1.0  0.7407
  C  C62  1  0.068700  0.705800  0.031600  1.0  0.7349
  C  C63  1  0.130900  0.723100  0.216700  1.0  0.402
  C  C64  1  0.283000  0.702400  0.105800  1.0  0.0083
  C  C65  1  0.293900  0.632000  0.170800  1.0  0.021
  C  C66  1  0.354900  0.724100  0.015500  1.0  0.7645
  C  C67  1  0.387000  0.552600  0.178400  1.0  0.7475
  C  C68  1  0.140100  0.758900  0.413100  1.0  0.4151
  C  C69  1  0.272600  0.663100  0.442500  1.0  0.0455
  C  C70  1  0.252400  0.753200  0.450600  1.0  0.0342
  C  C71  1  0.348500  0.570100  0.453300  1.0  0.7428
  C  C72  1  0.306100  0.794200  0.468400  1.0  0.7376
  C  C73  1  0.652400  0.216700  0.776900  1.0  0.4022
  C  C74  1  0.611200  0.105800  0.797600  1.0  0.0065
  C  C75  1  0.535300  0.170800  0.868000  1.0  0.0209
  C  C76  1  0.629600  0.015500  0.775900  1.0  0.76
  C  C77  1  0.434600  0.178400  0.947400  1.0  0.7465
  C  C78  1  0.446800  0.413100  0.741100  1.0  0.4147
  C  C79  1  0.284900  0.442500  0.836900  1.0  0.0452
  C  C80  1  0.297000  0.450600  0.746800  1.0  0.0321
  C  C81  1  0.198200  0.453300  0.929900  1.0  0.7415
  C  C82  1  0.225500  0.468400  0.705800  1.0  0.7319
  C  C83  1  0.146000  0.283300  0.723100  1.0  0.4009
  C  C84  1  0.014600  0.394200  0.702400  1.0  0.007
  C  C85  1  0.074100  0.329200  0.632000  1.0  0.0206
  C  C86  1  0.921000  0.484500  0.724100  1.0  0.7607
  C  C87  1  0.060400  0.321600  0.552600  1.0  0.7538
  C  C88  1  0.101000  0.086900  0.758900  1.0  0.4148
  C  C89  1  0.064300  0.057500  0.663100  1.0  0.0464
  C  C90  1  0.994400  0.049400  0.753200  1.0  0.0326
  C  C91  1  0.081400  0.046700  0.570100  1.0  0.7411
  C  C92  1  0.899700  0.031600  0.794200  1.0  0.7336
  C  C93  1  0.429300  0.223100  0.716700  1.0  0.4014
  C  C94  1  0.408800  0.202400  0.605800  1.0  0.0086
  C  C95  1  0.403300  0.132000  0.670800  1.0  0.0213
  C  C96  1  0.405500  0.224100  0.515500  1.0  0.7703
  C  C97  1  0.382000  0.052600  0.678400  1.0  0.7474
  C  C98  1  0.187900  0.258900  0.913100  1.0  0.4165
  C  C99  1  0.121800  0.163100  0.942500  1.0  0.0447
  C  C100  1  0.043800  0.253200  0.950600  1.0  0.0339
  C  C101  1  0.128100  0.070100  0.953300  1.0  0.7424
  C  C102  1  0.931300  0.294200  0.968400  1.0  0.7356
  C  C103  1  0.869100  0.276900  0.783300  1.0  0.4015
  C  C104  1  0.717000  0.297600  0.894200  1.0  0.0076
  C  C105  1  0.706100  0.368000  0.829200  1.0  0.0218
  C  C106  1  0.645100  0.275900  0.984500  1.0  0.7578
  C  C107  1  0.613000  0.447400  0.821600  1.0  0.7462
  C  C108  1  0.859900  0.241100  0.586900  1.0  0.4138
  C  C109  1  0.727400  0.336900  0.557500  1.0  0.0462
  C  C110  1  0.747600  0.246800  0.549400  1.0  0.0341
  C  C111  1  0.651500  0.429900  0.546700  1.0  0.7401
  C  C112  1  0.693900  0.205800  0.531600  1.0  0.7366
  N  N113  1  0.438100  0.758700  0.145100  1.0  -0.5912
  N  N114  1  0.312900  0.863600  0.260600  1.0  -0.5795
  N  N115  1  0.617600  0.581900  0.168100  1.0  -0.606
  N  N116  1  0.599500  0.568200  0.313800  1.0  -0.628
  N  N117  1  0.841900  0.741300  0.354900  1.0  -0.5894
  N  N118  1  0.937100  0.636400  0.239400  1.0  -0.5769
  N  N119  1  0.867600  0.918100  0.331900  1.0  -0.6103
  N  N120  1  0.981500  0.931800  0.186200  1.0  -0.6282
  N  N121  1  0.583200  0.854900  0.258700  1.0  -0.59
  N  N122  1  0.573500  0.739400  0.363600  1.0  -0.5772
  N  N123  1  0.785700  0.831900  0.081900  1.0  -0.6086
  N  N124  1  0.913300  0.686200  0.068200  1.0  -0.6298
  N  N125  1  0.196800  0.645100  0.241300  1.0  -0.5889
  N  N126  1  0.176500  0.760600  0.136400  1.0  -0.5787
  N  N127  1  0.199500  0.668100  0.418100  1.0  -0.6071
  N  N128  1  0.167700  0.813800  0.431800  1.0  -0.6294
  N  N129  1  0.561900  0.241300  0.854900  1.0  -0.5903
  N  N130  1  0.687100  0.136400  0.739400  1.0  -0.5788
  N  N131  1  0.382400  0.418100  0.831900  1.0  -0.6082
  N  N132  1  0.400500  0.431800  0.686200  1.0  -0.6278
  N  N133  1  0.158100  0.258700  0.645100  1.0  -0.5913
  N  N134  1  0.062900  0.363600  0.760600  1.0  -0.5769
  N  N135  1  0.132400  0.081900  0.668100  1.0  -0.6066
  N  N136  1  0.018500  0.068200  0.813800  1.0  -0.6278
  N  N137  1  0.416800  0.145100  0.741300  1.0  -0.5894
  N  N138  1  0.426500  0.260600  0.636400  1.0  -0.5775
  N  N139  1  0.214300  0.168100  0.918100  1.0  -0.6057
  N  N140  1  0.086700  0.313800  0.931800  1.0  -0.6288
  N  N141  1  0.803200  0.354900  0.758700  1.0  -0.5895
  N  N142  1  0.823500  0.239400  0.863600  1.0  -0.5782
  N  N143  1  0.800500  0.331900  0.581900  1.0  -0.6084
  N  N144  1  0.832300  0.186200  0.568200  1.0  -0.63
  O  O145  1  0.609300  0.759500  0.993300  1.0  -0.6953
  O  O146  1  0.605000  0.873000  0.045800  1.0  -0.7386
  O  O147  1  0.282610  0.028890  0.292890  1.0  -0.6943
  O  O148  1  0.436000  0.017600  0.179400  1.0  -0.7547
  O  O149  1  0.729600  0.542800  0.381200  1.0  -0.6622
  O  O150  1  0.870400  0.505400  0.244400  1.0  -0.7202
  O  O151  1  0.780010  0.567730  0.001650  1.0  -0.7855
  O  O152  1  0.898450  0.514470  0.055230  1.0  -0.8307
  O  O153  1  0.862100  0.740500  0.506700  1.0  -0.694
  O  O154  1  0.023800  0.627000  0.454200  1.0  -0.7406
  O  O155  1  0.104390  0.471110  0.207110  1.0  -0.6942
  O  O156  1  0.133000  0.482400  0.320600  1.0  -0.7522
  O  O157  1  0.153600  0.957200  0.118800  1.0  -0.6613
  O  O158  1  0.120200  0.994600  0.255600  1.0  -0.7197
  O  O159  1  0.849390  0.932270  0.498350  1.0  -0.7814
  O  O160  1  0.968150  0.985530  0.444770  1.0  -0.833
  O  O161  1  0.602600  0.006700  0.259500  1.0  -0.6917
  O  O162  1  0.650800  0.954200  0.373000  1.0  -0.7394
  O  O163  1  0.575500  0.707110  0.528890  1.0  -0.6975
  O  O164  1  0.615400  0.820600  0.517600  1.0  -0.7592
  O  O165  1  0.110800  0.618800  0.042800  1.0  -0.6631
  O  O166  1  0.114800  0.755600  0.005400  1.0  -0.7194
  O  O167  1  0.781660  0.998350  0.067730  1.0  -0.7803
  O  O168  1  0.953680  0.944770  0.014470  1.0  -0.8309
  O  O169  1  0.368800  0.493300  0.240500  1.0  -0.6908
  O  O170  1  0.478000  0.545800  0.127000  1.0  -0.7375
  O  O171  1  0.311500  0.792890  0.971110  1.0  -0.6976
  O  O172  1  0.453600  0.679400  0.982400  1.0  -0.7537
  O  O173  1  0.272400  0.881200  0.457200  1.0  -0.6641
  O  O174  1  0.375800  0.744400  0.494600  1.0  -0.7214
  O  O175  1  0.347740  0.501650  0.432270  1.0  -0.7823
  O  O176  1  0.412920  0.555230  0.485530  1.0  -0.8329
  O  O177  1  0.390700  0.240500  0.006700  1.0  -0.6957
  O  O178  1  0.395000  0.127000  0.954200  1.0  -0.7357
  O  O179  1  0.717390  0.971110  0.707110  1.0  -0.6932
  O  O180  1  0.564000  0.982400  0.820600  1.0  -0.7533
  O  O181  1  0.270400  0.457200  0.618800  1.0  -0.6635
  O  O182  1  0.129600  0.494600  0.755600  1.0  -0.7185
  O  O183  1  0.219990  0.432270  0.998350  1.0  -0.787
  O  O184  1  0.101550  0.485530  0.944770  1.0  -0.8316
  O  O185  1  0.137900  0.259500  0.493300  1.0  -0.6942
  O  O186  1  0.976200  0.373000  0.545800  1.0  -0.7414
  O  O187  1  0.895610  0.528890  0.792890  1.0  -0.6946
  O  O188  1  0.867000  0.517600  0.679400  1.0  -0.753
  O  O189  1  0.846400  0.042800  0.881200  1.0  -0.66
  O  O190  1  0.879800  0.005400  0.744400  1.0  -0.7191
  O  O191  1  0.150610  0.067730  0.501650  1.0  -0.7827
  O  O192  1  0.031850  0.014470  0.555230  1.0  -0.8318
  O  O193  1  0.397400  0.993300  0.740500  1.0  -0.6915
  O  O194  1  0.349200  0.045800  0.627000  1.0  -0.7379
  O  O195  1  0.424500  0.292890  0.471110  1.0  -0.6967
  O  O196  1  0.384600  0.179400  0.482400  1.0  -0.7594
  O  O197  1  0.889200  0.381200  0.957200  1.0  -0.6637
  O  O198  1  0.885200  0.244400  0.994600  1.0  -0.7179
  O  O199  1  0.218340  0.001650  0.932270  1.0  -0.7805
  O  O200  1  0.046320  0.055230  0.985530  1.0  -0.8301
  O  O201  1  0.631200  0.506700  0.759500  1.0  -0.6903
  O  O202  1  0.522000  0.454200  0.873000  1.0  -0.7381
  O  O203  1  0.688500  0.207110  0.028890  1.0  -0.7001
  O  O204  1  0.546400  0.320600  0.017600  1.0  -0.7547
  O  O205  1  0.727600  0.118800  0.542800  1.0  -0.6644
  O  O206  1  0.624200  0.255600  0.505400  1.0  -0.7211
  O  O207  1  0.652260  0.498350  0.567730  1.0  -0.7816
  O  O208  1  0.587080  0.444770  0.514470  1.0  -0.8367
