# generated using pymatgen
data_Cu3H36C44S4(N10O7)2
_symmetry_space_group_name_H-M   'P 1'
_cell_length_a   10.92490000
_cell_length_b   12.61480000
_cell_length_c   29.95700000
_cell_angle_alpha   90.77050000
_cell_angle_beta   90.00000000
_cell_angle_gamma   90.00000000
_symmetry_Int_Tables_number   1
_chemical_formula_structural   Cu3H36C44S4(N10O7)2
_chemical_formula_sum   'Cu6 H72 C88 S8 N40 O28'
_cell_volume   4128.16349076
_cell_formula_units_Z   2
loop_
 _symmetry_equiv_pos_site_id
 _symmetry_equiv_pos_as_xyz
  1  'x, y, z'
loop_
 _atom_site_type_symbol
 _atom_site_label
 _atom_site_symmetry_multiplicity
 _atom_site_fract_x
 _atom_site_fract_y
 _atom_site_fract_z
 _atom_site_occupancy
 _atom_site_charge
  Cu  Cu1  1  0.087810  0.003680  0.318400  1.0  0.6801
  Cu  Cu2  1  0.587810  0.496320  0.181600  1.0  0.6768
  Cu  Cu3  1  0.912190  0.996320  0.681600  1.0  0.677
  Cu  Cu4  1  0.412190  0.503680  0.818400  1.0  0.6805
  Cu  Cu5  1  0.500000  0.500000  0.500000  1.0  0.3452
  Cu  Cu6  1  0.000000  0.000000  0.000000  1.0  0.3452
  H  H7  1  0.184000  0.860000  0.393400  1.0  0.1168
  H  H8  1  0.364500  0.616300  0.333100  1.0  0.1358
  H  H9  1  0.225400  0.861100  0.262800  1.0  0.1155
  H  H10  1  0.452300  0.597100  0.402700  1.0  0.1184
  H  H11  1  0.252700  0.632200  0.511700  1.0  0.1218
  H  H12  1  0.154900  0.740600  0.453400  1.0  0.1347
  H  H13  1  0.489900  0.598600  0.270900  1.0  0.1199
  H  H14  1  0.354900  0.632500  0.150200  1.0  0.1264
  H  H15  1  0.227800  0.738100  0.201400  1.0  0.1393
  H  H16  1  0.261100  0.110300  0.262100  1.0  0.1102
  H  H17  1  0.477500  0.306500  0.335100  1.0  0.1336
  H  H18  1  0.236500  0.107700  0.393800  1.0  0.1207
  H  H19  1  0.473400  0.406100  0.269500  1.0  0.113
  H  H20  1  0.504000  0.258300  0.152600  1.0  0.1173
  H  H21  1  0.412800  0.131300  0.204400  1.0  0.136
  H  H22  1  0.445300  0.406100  0.401500  1.0  0.1084
  H  H23  1  0.430400  0.257400  0.516300  1.0  0.1177
  H  H24  1  0.364600  0.129900  0.458200  1.0  0.1392
  H  H25  1  0.684000  0.640000  0.106600  1.0  0.1163
  H  H26  1  0.864500  0.883700  0.166900  1.0  0.1357
  H  H27  1  0.725400  0.638900  0.237200  1.0  0.1157
  H  H28  1  0.952300  0.902900  0.097300  1.0  0.1181
  H  H29  1  0.752700  0.867800  0.988300  1.0  0.1208
  H  H30  1  0.654900  0.759400  0.046600  1.0  0.1342
  H  H31  1  0.989900  0.901400  0.229100  1.0  0.1196
  H  H32  1  0.854900  0.867500  0.349800  1.0  0.1273
  H  H33  1  0.727800  0.761900  0.298600  1.0  0.1392
  H  H34  1  0.761100  0.389700  0.237900  1.0  0.1101
  H  H35  1  0.977500  0.193500  0.164900  1.0  0.134
  H  H36  1  0.736500  0.392300  0.106200  1.0  0.1209
  H  H37  1  0.973400  0.093900  0.230500  1.0  0.1124
  H  H38  1  0.004000  0.241700  0.347400  1.0  0.1166
  H  H39  1  0.912800  0.368700  0.295600  1.0  0.1361
  H  H40  1  0.945300  0.093900  0.098500  1.0  0.1087
  H  H41  1  0.930400  0.242600  0.983700  1.0  0.1185
  H  H42  1  0.864600  0.370100  0.041800  1.0  0.1394
  H  H43  1  0.816000  0.140000  0.606600  1.0  0.1163
  H  H44  1  0.635500  0.383700  0.666900  1.0  0.1362
  H  H45  1  0.774600  0.138900  0.737200  1.0  0.1164
  H  H46  1  0.547700  0.402900  0.597300  1.0  0.1189
  H  H47  1  0.747300  0.367800  0.488300  1.0  0.121
  H  H48  1  0.845100  0.259400  0.546600  1.0  0.1346
  H  H49  1  0.510100  0.401400  0.729100  1.0  0.1193
  H  H50  1  0.645100  0.367500  0.849800  1.0  0.1259
  H  H51  1  0.772200  0.261900  0.798600  1.0  0.1388
  H  H52  1  0.738900  0.889700  0.737900  1.0  0.1102
  H  H53  1  0.522500  0.693500  0.664900  1.0  0.1342
  H  H54  1  0.763500  0.892300  0.606200  1.0  0.1207
  H  H55  1  0.526600  0.593900  0.730500  1.0  0.1122
  H  H56  1  0.496000  0.741700  0.847400  1.0  0.1165
  H  H57  1  0.587200  0.868700  0.795600  1.0  0.136
  H  H58  1  0.554700  0.593900  0.598500  1.0  0.1086
  H  H59  1  0.569600  0.742600  0.483700  1.0  0.1183
  H  H60  1  0.635400  0.870100  0.541800  1.0  0.139
  H  H61  1  0.316000  0.360000  0.893400  1.0  0.1167
  H  H62  1  0.135500  0.116300  0.833100  1.0  0.1362
  H  H63  1  0.274600  0.361100  0.762800  1.0  0.1161
  H  H64  1  0.047700  0.097100  0.902700  1.0  0.1193
  H  H65  1  0.247300  0.132200  0.011700  1.0  0.1211
  H  H66  1  0.345100  0.240600  0.953400  1.0  0.1344
  H  H67  1  0.010100  0.098600  0.770900  1.0  0.1194
  H  H68  1  0.145100  0.132500  0.650200  1.0  0.1266
  H  H69  1  0.272200  0.238100  0.701400  1.0  0.1388
  H  H70  1  0.238900  0.610300  0.762100  1.0  0.1101
  H  H71  1  0.022500  0.806500  0.835100  1.0  0.1337
  H  H72  1  0.263500  0.607700  0.893800  1.0  0.1205
  H  H73  1  0.026600  0.906100  0.769500  1.0  0.1128
  H  H74  1  0.996000  0.758300  0.652600  1.0  0.1164
  H  H75  1  0.087200  0.631300  0.704400  1.0  0.1356
  H  H76  1  0.054700  0.906100  0.901500  1.0  0.1086
  H  H77  1  0.069600  0.757400  0.016300  1.0  0.1172
  H  H78  1  0.135400  0.629900  0.958200  1.0  0.1392
  C  C79  1  0.213700  0.826450  0.366950  1.0  0.1604
  C  C80  1  0.278000  0.731680  0.370080  1.0  0.1608
  C  C81  1  0.321900  0.681810  0.331810  1.0  -0.1787
  C  C82  1  0.300900  0.731860  0.291660  1.0  0.1712
  C  C83  1  0.237200  0.827080  0.290580  1.0  0.1441
  C  C84  1  0.390100  0.619390  0.422890  1.0  0.1304
  C  C85  1  0.281000  0.639120  0.481920  1.0  0.0062
  C  C86  1  0.226600  0.698440  0.450240  1.0  -0.0932
  C  C87  1  0.440400  0.620820  0.246720  1.0  0.1218
  C  C88  1  0.366700  0.639220  0.181520  1.0  -0.0025
  C  C89  1  0.297300  0.697100  0.209200  1.0  -0.0807
  C  C90  1  0.286600  0.137130  0.290330  1.0  0.1437
  C  C91  1  0.374800  0.214790  0.292390  1.0  0.1703
  C  C92  1  0.415200  0.254060  0.333260  1.0  -0.2071
  C  C93  1  0.361400  0.213910  0.371110  1.0  0.1648
  C  C94  1  0.272200  0.135430  0.367530  1.0  0.1482
  C  C95  1  0.468600  0.353640  0.246440  1.0  0.1354
  C  C96  1  0.484800  0.272230  0.183030  1.0  0.0308
  C  C97  1  0.435700  0.202410  0.211110  1.0  -0.0908
  C  C98  1  0.433200  0.353050  0.423250  1.0  0.1234
  C  C99  1  0.424600  0.271640  0.485340  1.0  0.0138
  C  C100  1  0.389000  0.201280  0.453780  1.0  -0.0894
  C  C101  1  0.713700  0.673550  0.133050  1.0  0.1609
  C  C102  1  0.778000  0.768320  0.129920  1.0  0.161
  C  C103  1  0.821900  0.818190  0.168190  1.0  -0.1785
  C  C104  1  0.800900  0.768140  0.208340  1.0  0.171
  C  C105  1  0.737200  0.672920  0.209420  1.0  0.1432
  C  C106  1  0.890100  0.880610  0.077110  1.0  0.1313
  C  C107  1  0.781000  0.860880  0.018080  1.0  0.0072
  C  C108  1  0.726600  0.801560  0.049760  1.0  -0.0925
  C  C109  1  0.940400  0.879180  0.253280  1.0  0.1217
  C  C110  1  0.866700  0.860780  0.318480  1.0  -0.005
  C  C111  1  0.797300  0.802900  0.290800  1.0  -0.0826
  C  C112  1  0.786600  0.362870  0.209670  1.0  0.1436
  C  C113  1  0.874800  0.285210  0.207610  1.0  0.1699
  C  C114  1  0.915200  0.245940  0.166740  1.0  -0.2078
  C  C115  1  0.861400  0.286090  0.128890  1.0  0.1647
  C  C116  1  0.772200  0.364570  0.132470  1.0  0.1488
  C  C117  1  0.968600  0.146360  0.253560  1.0  0.1351
  C  C118  1  0.984800  0.227770  0.316970  1.0  0.0292
  C  C119  1  0.935700  0.297590  0.288890  1.0  -0.09
  C  C120  1  0.933200  0.146950  0.076750  1.0  0.1241
  C  C121  1  0.924600  0.228360  0.014660  1.0  0.0145
  C  C122  1  0.889000  0.298720  0.046220  1.0  -0.0893
  C  C123  1  0.786300  0.173550  0.633050  1.0  0.1611
  C  C124  1  0.722000  0.268320  0.629920  1.0  0.1605
  C  C125  1  0.678100  0.318190  0.668190  1.0  -0.1767
  C  C126  1  0.699100  0.268140  0.708340  1.0  0.171
  C  C127  1  0.762800  0.172920  0.709420  1.0  0.1436
  C  C128  1  0.609900  0.380610  0.577110  1.0  0.1303
  C  C129  1  0.719000  0.360880  0.518080  1.0  0.0076
  C  C130  1  0.773400  0.301560  0.549760  1.0  -0.0922
  C  C131  1  0.559600  0.379180  0.753280  1.0  0.1218
  C  C132  1  0.633300  0.360780  0.818480  1.0  -0.0041
  C  C133  1  0.702700  0.302900  0.790800  1.0  -0.0797
  C  C134  1  0.713400  0.862870  0.709670  1.0  0.1442
  C  C135  1  0.625200  0.785210  0.707610  1.0  0.1688
  C  C136  1  0.584800  0.745940  0.666740  1.0  -0.2099
  C  C137  1  0.638600  0.786090  0.628890  1.0  0.1644
  C  C138  1  0.727800  0.864570  0.632470  1.0  0.149
  C  C139  1  0.531400  0.646360  0.753560  1.0  0.1353
  C  C140  1  0.515200  0.727770  0.816970  1.0  0.0283
  C  C141  1  0.564300  0.797590  0.788890  1.0  -0.0887
  C  C142  1  0.566800  0.646950  0.576750  1.0  0.1242
  C  C143  1  0.575400  0.728360  0.514660  1.0  0.0141
  C  C144  1  0.611000  0.798720  0.546220  1.0  -0.0894
  C  C145  1  0.286300  0.326450  0.866950  1.0  0.1609
  C  C146  1  0.222000  0.231680  0.870080  1.0  0.1602
  C  C147  1  0.178100  0.181810  0.831810  1.0  -0.177
  C  C148  1  0.199100  0.231860  0.791660  1.0  0.1712
  C  C149  1  0.262800  0.327080  0.790580  1.0  0.1447
  C  C150  1  0.109900  0.119390  0.922890  1.0  0.1299
  C  C151  1  0.219000  0.139120  0.981920  1.0  0.0069
  C  C152  1  0.273400  0.198440  0.950240  1.0  -0.0915
  C  C153  1  0.059600  0.120820  0.746720  1.0  0.1218
  C  C154  1  0.133300  0.139220  0.681520  1.0  -0.0027
  C  C155  1  0.202700  0.197100  0.709200  1.0  -0.0787
  C  C156  1  0.213400  0.637130  0.790330  1.0  0.144
  C  C157  1  0.125200  0.714790  0.792390  1.0  0.1692
  C  C158  1  0.084800  0.754060  0.833260  1.0  -0.209
  C  C159  1  0.138600  0.713910  0.871110  1.0  0.1645
  C  C160  1  0.227800  0.635430  0.867530  1.0  0.1488
  C  C161  1  0.031400  0.853640  0.746440  1.0  0.1351
  C  C162  1  0.015200  0.772230  0.683030  1.0  0.0298
  C  C163  1  0.064300  0.702410  0.711110  1.0  -0.0896
  C  C164  1  0.066800  0.853050  0.923250  1.0  0.1237
  C  C165  1  0.075400  0.771640  0.985340  1.0  0.014
  C  C166  1  0.111000  0.701280  0.953780  1.0  -0.0892
  S  S167  1  0.000200  0.009100  0.433900  1.0  0.2448
  S  S168  1  0.500200  0.490900  0.066100  1.0  0.2431
  S  S169  1  0.999800  0.990900  0.566100  1.0  0.241
  S  S170  1  0.499800  0.509100  0.933900  1.0  0.2416
  S  S171  1  0.667200  0.479710  0.328110  1.0  1.4179
  S  S172  1  0.167200  0.020290  0.171890  1.0  1.4169
  S  S173  1  0.332800  0.520290  0.671890  1.0  1.4198
  S  S174  1  0.832800  0.979710  0.828110  1.0  1.4193
  N  N175  1  0.192800  0.871490  0.327390  1.0  -0.2945
  N  N176  1  0.297400  0.684900  0.412400  1.0  0.0715
  N  N177  1  0.383100  0.590520  0.464620  1.0  -0.2512
  N  N178  1  0.345400  0.686100  0.250900  1.0  0.0605
  N  N179  1  0.457200  0.591120  0.205120  1.0  -0.3167
  N  N180  1  0.236100  0.098450  0.327550  1.0  -0.3072
  N  N181  1  0.425100  0.254250  0.251850  1.0  0.0491
  N  N182  1  0.503200  0.367610  0.205010  1.0  -0.3417
  N  N183  1  0.394900  0.253220  0.413820  1.0  0.0707
  N  N184  1  0.451200  0.367450  0.465950  1.0  -0.3331
  N  N185  1  0.692800  0.628510  0.172610  1.0  -0.2962
  N  N186  1  0.797400  0.815100  0.087600  1.0  0.0713
  N  N187  1  0.883100  0.909480  0.035380  1.0  -0.2519
  N  N188  1  0.845400  0.813900  0.249100  1.0  0.0604
  N  N189  1  0.957200  0.908880  0.294880  1.0  -0.3173
  N  N190  1  0.736100  0.401550  0.172450  1.0  -0.308
  N  N191  1  0.925100  0.245750  0.248150  1.0  0.0502
  N  N192  1  0.003200  0.132390  0.294990  1.0  -0.3417
  N  N193  1  0.894900  0.246780  0.086180  1.0  0.0712
  N  N194  1  0.951200  0.132550  0.034050  1.0  -0.3326
  N  N195  1  0.807200  0.128510  0.672610  1.0  -0.2964
  N  N196  1  0.702600  0.315100  0.587600  1.0  0.0704
  N  N197  1  0.616900  0.409480  0.535380  1.0  -0.2514
  N  N198  1  0.654600  0.313900  0.749100  1.0  0.0604
  N  N199  1  0.542800  0.408880  0.794880  1.0  -0.3171
  N  N200  1  0.763900  0.901550  0.672450  1.0  -0.3098
  N  N201  1  0.574900  0.745750  0.748150  1.0  0.0501
  N  N202  1  0.496800  0.632390  0.794990  1.0  -0.3414
  N  N203  1  0.605100  0.746780  0.586180  1.0  0.0707
  N  N204  1  0.548800  0.632550  0.534050  1.0  -0.3327
  N  N205  1  0.307200  0.371490  0.827390  1.0  -0.2949
  N  N206  1  0.202600  0.184900  0.912400  1.0  0.0706
  N  N207  1  0.116900  0.090520  0.964620  1.0  -0.2515
  N  N208  1  0.154600  0.186100  0.750900  1.0  0.0606
  N  N209  1  0.042800  0.091120  0.705120  1.0  -0.3166
  N  N210  1  0.263900  0.598450  0.827550  1.0  -0.309
  N  N211  1  0.074900  0.754250  0.751850  1.0  0.0489
  N  N212  1  0.996800  0.867610  0.705010  1.0  -0.3417
  N  N213  1  0.105100  0.753220  0.913820  1.0  0.0704
  N  N214  1  0.048800  0.867450  0.965950  1.0  -0.3329
  O  O215  1  0.018900  0.016990  0.386490  1.0  -0.7631
  O  O216  1  0.099500  0.090000  0.461200  1.0  -0.5343
  O  O217  1  0.034800  0.909300  0.454600  1.0  -0.5993
  O  O218  1  0.518900  0.483010  0.113510  1.0  -0.763
  O  O219  1  0.599500  0.410000  0.038800  1.0  -0.5336
  O  O220  1  0.534800  0.590700  0.045400  1.0  -0.5982
  O  O221  1  0.981100  0.983010  0.613510  1.0  -0.7613
  O  O222  1  0.900500  0.910000  0.538800  1.0  -0.5328
  O  O223  1  0.965200  0.090700  0.545400  1.0  -0.5982
  O  O224  1  0.481100  0.516990  0.886490  1.0  -0.7629
  O  O225  1  0.400500  0.590000  0.961200  1.0  -0.5328
  O  O226  1  0.465200  0.409300  0.954600  1.0  -0.599
  O  O227  1  0.530300  0.490620  0.339220  1.0  -0.6096
  O  O228  1  0.690100  0.512520  0.284820  1.0  -0.5663
  O  O229  1  0.672200  0.364400  0.324900  1.0  -0.5817
  O  O230  1  0.750000  0.525500  0.359500  1.0  -0.5765
  O  O231  1  0.030300  0.009380  0.160780  1.0  -0.6081
  O  O232  1  0.190100  0.987480  0.215180  1.0  -0.5661
  O  O233  1  0.172200  0.135600  0.175100  1.0  -0.5809
  O  O234  1  0.250000  0.974500  0.140500  1.0  -0.5721
  O  O235  1  0.469700  0.509380  0.660780  1.0  -0.6081
  O  O236  1  0.309900  0.487480  0.715180  1.0  -0.5658
  O  O237  1  0.327800  0.635600  0.675100  1.0  -0.5821
  O  O238  1  0.250000  0.474500  0.640500  1.0  -0.5717
  O  O239  1  0.969700  0.990620  0.839220  1.0  -0.6094
  O  O240  1  0.809900  0.012520  0.784820  1.0  -0.5662
  O  O241  1  0.827800  0.864400  0.824900  1.0  -0.5821
  O  O242  1  0.750000  0.025500  0.859500  1.0  -0.5724
