# generated using pymatgen
data_Tb2H6C18(SO4)3
_symmetry_space_group_name_H-M   'P 1'
_cell_length_a   10.15200000
_cell_length_b   17.44000000
_cell_length_c   17.71500000
_cell_angle_alpha   90.00000000
_cell_angle_beta   90.00000000
_cell_angle_gamma   90.00000000
_symmetry_Int_Tables_number   1
_chemical_formula_structural   Tb2H6C18(SO4)3
_chemical_formula_sum   'Tb8 H24 C72 S12 O48'
_cell_volume   3136.45633920
_cell_formula_units_Z   4
loop_
 _symmetry_equiv_pos_site_id
 _symmetry_equiv_pos_as_xyz
  1  'x, y, z'
loop_
 _atom_site_type_symbol
 _atom_site_label
 _atom_site_symmetry_multiplicity
 _atom_site_fract_x
 _atom_site_fract_y
 _atom_site_fract_z
 _atom_site_occupancy
 _atom_site_charge
  Tb  Tb1  1  0.338760  0.479120  0.240960  1.0  2.3058
  Tb  Tb2  1  0.117690  0.678900  0.227130  1.0  2.2886
  Tb  Tb3  1  0.661240  0.520880  0.740960  1.0  2.3067
  Tb  Tb4  1  0.882310  0.321100  0.727130  1.0  2.2881
  Tb  Tb5  1  0.161240  0.979120  0.240960  1.0  2.3069
  Tb  Tb6  1  0.382310  0.178900  0.227130  1.0  2.2835
  Tb  Tb7  1  0.838760  0.020880  0.740960  1.0  2.3055
  Tb  Tb8  1  0.617690  0.821100  0.727130  1.0  2.2838
  H  H9  1  0.884700  0.624200  0.545900  1.0  0.1097
  H  H10  1  0.977500  0.640600  0.421400  1.0  0.1071
  H  H11  1  0.638300  0.213500  0.923100  1.0  0.1099
  H  H12  1  0.543600  0.207300  0.049800  1.0  0.1107
  H  H13  1  0.614000  0.548800  0.936300  1.0  0.1101
  H  H14  1  0.518100  0.533000  0.061600  1.0  0.1106
  H  H15  1  0.115300  0.375800  0.045900  1.0  0.11
  H  H16  1  0.022500  0.359400  0.921400  1.0  0.1063
  H  H17  1  0.361700  0.786500  0.423100  1.0  0.1105
  H  H18  1  0.456400  0.792700  0.549800  1.0  0.1108
  H  H19  1  0.386000  0.451200  0.436300  1.0  0.1092
  H  H20  1  0.481900  0.467000  0.561600  1.0  0.111
  H  H21  1  0.615300  0.124200  0.545900  1.0  0.1099
  H  H22  1  0.522500  0.140600  0.421400  1.0  0.107
  H  H23  1  0.861700  0.713500  0.923100  1.0  0.1097
  H  H24  1  0.956400  0.707300  0.049800  1.0  0.1109
  H  H25  1  0.886000  0.048800  0.936300  1.0  0.1092
  H  H26  1  0.981900  0.033000  0.061600  1.0  0.1112
  H  H27  1  0.384700  0.875800  0.045900  1.0  0.1096
  H  H28  1  0.477500  0.859400  0.921400  1.0  0.1067
  H  H29  1  0.138300  0.286500  0.423100  1.0  0.1107
  H  H30  1  0.043600  0.292700  0.549800  1.0  0.1107
  H  H31  1  0.114000  0.951200  0.436300  1.0  0.11
  H  H32  1  0.018100  0.967000  0.561600  1.0  0.1106
  C  C33  1  0.950800  0.516100  0.549800  1.0  -0.198
  C  C34  1  0.930200  0.585700  0.520600  1.0  -0.0397
  C  C35  1  0.983500  0.595200  0.448800  1.0  -0.0505
  C  C36  1  0.044600  0.531700  0.423200  1.0  -0.2198
  C  C37  1  0.110700  0.521000  0.350400  1.0  0.7874
  C  C38  1  0.905600  0.483600  0.623100  1.0  0.781
  C  C39  1  0.591100  0.327200  0.917700  1.0  -0.2143
  C  C40  1  0.600900  0.255200  0.947900  1.0  -0.0638
  C  C41  1  0.547300  0.251900  0.021100  1.0  -0.0585
  C  C42  1  0.501400  0.321300  0.045600  1.0  -0.2175
  C  C43  1  0.444300  0.338400  0.120900  1.0  0.7753
  C  C44  1  0.635600  0.356100  0.843300  1.0  0.7576
  C  C45  1  0.522300  0.651900  0.925500  1.0  -0.1987
  C  C46  1  0.558400  0.584500  0.958800  1.0  -0.0593
  C  C47  1  0.502300  0.575100  0.030600  1.0  -0.0474
  C  C48  1  0.421900  0.634600  0.050000  1.0  -0.2102
  C  C49  1  0.344500  0.642500  0.120100  1.0  0.7493
  C  C50  1  0.562600  0.678900  0.849900  1.0  0.7789
  C  C51  1  0.049200  0.483900  0.049800  1.0  -0.1984
  C  C52  1  0.069800  0.414300  0.020600  1.0  -0.0387
  C  C53  1  0.016500  0.404800  0.948800  1.0  -0.0512
  C  C54  1  0.955400  0.468300  0.923200  1.0  -0.2208
  C  C55  1  0.889300  0.479000  0.850400  1.0  0.787
  C  C56  1  0.094400  0.516400  0.123100  1.0  0.7805
  C  C57  1  0.408900  0.672800  0.417700  1.0  -0.2146
  C  C58  1  0.399100  0.744800  0.447900  1.0  -0.0647
  C  C59  1  0.452700  0.748100  0.521100  1.0  -0.0583
  C  C60  1  0.498600  0.678700  0.545600  1.0  -0.2162
  C  C61  1  0.555700  0.661600  0.620900  1.0  0.776
  C  C62  1  0.364400  0.643900  0.343300  1.0  0.757
  C  C63  1  0.477700  0.348100  0.425500  1.0  -0.1979
  C  C64  1  0.441600  0.415500  0.458800  1.0  -0.0588
  C  C65  1  0.497700  0.424900  0.530600  1.0  -0.047
  C  C66  1  0.578100  0.365400  0.550000  1.0  -0.2095
  C  C67  1  0.655500  0.357500  0.620100  1.0  0.7418
  C  C68  1  0.437400  0.321100  0.349900  1.0  0.7796
  C  C69  1  0.549200  0.016100  0.549800  1.0  -0.198
  C  C70  1  0.569800  0.085700  0.520600  1.0  -0.0393
  C  C71  1  0.516500  0.095200  0.448800  1.0  -0.0511
  C  C72  1  0.455400  0.031700  0.423200  1.0  -0.2195
  C  C73  1  0.389300  0.021000  0.350400  1.0  0.7874
  C  C74  1  0.594400  0.983600  0.623100  1.0  0.7798
  C  C75  1  0.908900  0.827200  0.917700  1.0  -0.2148
  C  C76  1  0.899100  0.755200  0.947900  1.0  -0.0644
  C  C77  1  0.952700  0.751900  0.021100  1.0  -0.0583
  C  C78  1  0.998600  0.821300  0.045600  1.0  -0.2169
  C  C79  1  0.055700  0.838400  0.120900  1.0  0.7756
  C  C80  1  0.864400  0.856100  0.843300  1.0  0.7575
  C  C81  1  0.977700  0.151900  0.925500  1.0  -0.1985
  C  C82  1  0.941600  0.084500  0.958800  1.0  -0.0594
  C  C83  1  0.997700  0.075100  0.030600  1.0  -0.0468
  C  C84  1  0.078100  0.134600  0.050000  1.0  -0.2097
  C  C85  1  0.155500  0.142500  0.120100  1.0  0.7484
  C  C86  1  0.937400  0.178900  0.849900  1.0  0.7794
  C  C87  1  0.450800  0.983900  0.049800  1.0  -0.1982
  C  C88  1  0.430200  0.914300  0.020600  1.0  -0.0392
  C  C89  1  0.483500  0.904800  0.948800  1.0  -0.0507
  C  C90  1  0.544600  0.968300  0.923200  1.0  -0.2204
  C  C91  1  0.610700  0.979000  0.850400  1.0  0.788
  C  C92  1  0.405600  0.016400  0.123100  1.0  0.7817
  C  C93  1  0.091100  0.172800  0.417700  1.0  -0.2145
  C  C94  1  0.100900  0.244800  0.447900  1.0  -0.0644
  C  C95  1  0.047300  0.248100  0.521100  1.0  -0.0583
  C  C96  1  0.001400  0.178700  0.545600  1.0  -0.2167
  C  C97  1  0.944300  0.161600  0.620900  1.0  0.7759
  C  C98  1  0.135600  0.143900  0.343300  1.0  0.757
  C  C99  1  0.022300  0.848100  0.425500  1.0  -0.1984
  C  C100  1  0.058400  0.915500  0.458800  1.0  -0.0589
  C  C101  1  0.002300  0.924900  0.530600  1.0  -0.0476
  C  C102  1  0.921900  0.865400  0.550000  1.0  -0.2099
  C  C103  1  0.844500  0.857500  0.620100  1.0  0.7429
  C  C104  1  0.062600  0.821100  0.349900  1.0  0.7791
  S  S105  1  0.038200  0.458850  0.488020  1.0  0.1717
  S  S106  1  0.518300  0.389990  0.978460  1.0  0.1701
  S  S107  1  0.418300  0.703280  0.981300  1.0  0.1841
  S  S108  1  0.961800  0.541150  0.988020  1.0  0.1716
  S  S109  1  0.481700  0.610010  0.478460  1.0  0.1713
  S  S110  1  0.581700  0.296720  0.481300  1.0  0.1839
  S  S111  1  0.461800  0.958850  0.488020  1.0  0.1721
  S  S112  1  0.981700  0.889990  0.978460  1.0  0.17
  S  S113  1  0.081700  0.203280  0.981300  1.0  0.1841
  S  S114  1  0.538200  0.041150  0.988020  1.0  0.1709
  S  S115  1  0.018300  0.110010  0.478460  1.0  0.1716
  S  S116  1  0.918300  0.796720  0.481300  1.0  0.1837
  O  O117  1  0.175300  0.461200  0.337900  1.0  -0.6319
  O  O118  1  0.107100  0.576200  0.304500  1.0  -0.8044
  O  O119  1  0.932000  0.414000  0.635200  1.0  -0.7775
  O  O120  1  0.848600  0.530000  0.667500  1.0  -0.7237
  O  O121  1  0.410800  0.407500  0.134600  1.0  -0.7467
  O  O122  1  0.446100  0.285900  0.167300  1.0  -0.7607
  O  O123  1  0.615700  0.425200  0.829400  1.0  -0.7508
  O  O124  1  0.691200  0.307500  0.799700  1.0  -0.7243
  O  O125  1  0.277300  0.700500  0.131900  1.0  -0.6245
  O  O126  1  0.348000  0.585600  0.165500  1.0  -0.82
  O  O127  1  0.545400  0.747900  0.832200  1.0  -0.6839
  O  O128  1  0.615500  0.630300  0.806300  1.0  -0.772
  O  O129  1  0.824700  0.538800  0.837900  1.0  -0.6303
  O  O130  1  0.892900  0.423800  0.804500  1.0  -0.8027
  O  O131  1  0.068000  0.586000  0.135200  1.0  -0.7794
  O  O132  1  0.151400  0.470000  0.167500  1.0  -0.725
  O  O133  1  0.589200  0.592500  0.634600  1.0  -0.747
  O  O134  1  0.553900  0.714100  0.667300  1.0  -0.764
  O  O135  1  0.384300  0.574800  0.329400  1.0  -0.7538
  O  O136  1  0.308800  0.692500  0.299700  1.0  -0.7219
  O  O137  1  0.722700  0.299500  0.631900  1.0  -0.6246
  O  O138  1  0.652000  0.414400  0.665500  1.0  -0.8225
  O  O139  1  0.454600  0.252100  0.332200  1.0  -0.6865
  O  O140  1  0.384500  0.369700  0.306300  1.0  -0.772
  O  O141  1  0.324700  0.961200  0.337900  1.0  -0.6311
  O  O142  1  0.392900  0.076200  0.304500  1.0  -0.8028
  O  O143  1  0.568000  0.914000  0.635200  1.0  -0.7784
  O  O144  1  0.651400  0.030000  0.667500  1.0  -0.7238
  O  O145  1  0.089200  0.907500  0.134600  1.0  -0.7469
  O  O146  1  0.053900  0.785900  0.167300  1.0  -0.7631
  O  O147  1  0.884300  0.925200  0.829400  1.0  -0.7534
  O  O148  1  0.808800  0.807500  0.799700  1.0  -0.7239
  O  O149  1  0.222700  0.200500  0.131900  1.0  -0.6254
  O  O150  1  0.152000  0.085600  0.165500  1.0  -0.8214
  O  O151  1  0.954600  0.247900  0.832200  1.0  -0.6835
  O  O152  1  0.884500  0.130300  0.806300  1.0  -0.7721
  O  O153  1  0.675300  0.038800  0.837900  1.0  -0.6316
  O  O154  1  0.607100  0.923800  0.804500  1.0  -0.8045
  O  O155  1  0.432000  0.086000  0.135200  1.0  -0.7785
  O  O156  1  0.348600  0.970000  0.167500  1.0  -0.7252
  O  O157  1  0.910800  0.092500  0.634600  1.0  -0.747
  O  O158  1  0.946100  0.214100  0.667300  1.0  -0.7616
  O  O159  1  0.115700  0.074800  0.329400  1.0  -0.7518
  O  O160  1  0.191200  0.192500  0.299700  1.0  -0.7226
  O  O161  1  0.777300  0.799500  0.631900  1.0  -0.6245
  O  O162  1  0.848000  0.914400  0.665500  1.0  -0.8208
  O  O163  1  0.045400  0.752100  0.332200  1.0  -0.687
  O  O164  1  0.115500  0.869700  0.306300  1.0  -0.7722
