# generated using pymatgen
data_Dy2H6C18(SO4)3
_symmetry_space_group_name_H-M   'P 1'
_cell_length_a   10.15370000
_cell_length_b   17.43560000
_cell_length_c   17.65940000
_cell_angle_alpha   90.00000000
_cell_angle_beta   90.00000000
_cell_angle_gamma   90.00000000
_symmetry_Int_Tables_number   1
_chemical_formula_structural   Dy2H6C18(SO4)3
_chemical_formula_sum   'Dy8 H24 C72 S12 O48'
_cell_volume   3126.34691986
_cell_formula_units_Z   4
loop_
 _symmetry_equiv_pos_site_id
 _symmetry_equiv_pos_as_xyz
  1  'x, y, z'
loop_
 _atom_site_type_symbol
 _atom_site_label
 _atom_site_symmetry_multiplicity
 _atom_site_fract_x
 _atom_site_fract_y
 _atom_site_fract_z
 _atom_site_occupancy
 _atom_site_charge
  Dy  Dy1  1  0.661040  0.979100  0.220440  1.0  2.3241
  Dy  Dy2  1  0.881990  0.178860  0.206250  1.0  2.3282
  Dy  Dy3  1  0.338960  0.020900  0.720440  1.0  2.3227
  Dy  Dy4  1  0.118010  0.821140  0.706250  1.0  2.3281
  Dy  Dy5  1  0.838960  0.479100  0.220440  1.0  2.3226
  Dy  Dy6  1  0.618010  0.678860  0.206250  1.0  2.326
  Dy  Dy7  1  0.161040  0.520900  0.720440  1.0  2.3242
  Dy  Dy8  1  0.381990  0.321140  0.706250  1.0  2.3262
  H  H9  1  0.633100  0.286900  0.401500  1.0  0.1118
  H  H10  1  0.980000  0.857500  0.902700  1.0  0.1012
  H  H11  1  0.622800  0.950000  0.417600  1.0  0.1008
  H  H12  1  0.880300  0.876200  0.025500  1.0  0.1117
  H  H13  1  0.536600  0.292700  0.528400  1.0  0.099
  H  H14  1  0.520400  0.967200  0.541200  1.0  0.1076
  H  H15  1  0.366900  0.713100  0.901500  1.0  0.1104
  H  H16  1  0.020000  0.142500  0.402700  1.0  0.1011
  H  H17  1  0.377200  0.050000  0.917600  1.0  0.1003
  H  H18  1  0.119700  0.123800  0.525500  1.0  0.112
  H  H19  1  0.463400  0.707300  0.028400  1.0  0.0995
  H  H20  1  0.479600  0.032800  0.041200  1.0  0.1082
  H  H21  1  0.866900  0.786900  0.401500  1.0  0.1117
  H  H22  1  0.520000  0.357500  0.902700  1.0  0.1008
  H  H23  1  0.877200  0.450000  0.417600  1.0  0.1006
  H  H24  1  0.619700  0.376200  0.025500  1.0  0.1123
  H  H25  1  0.963400  0.792700  0.528400  1.0  0.0992
  H  H26  1  0.979600  0.467200  0.541200  1.0  0.1081
  H  H27  1  0.133100  0.213100  0.901500  1.0  0.1108
  H  H28  1  0.480000  0.642500  0.402700  1.0  0.1012
  H  H29  1  0.122800  0.550000  0.917600  1.0  0.1008
  H  H30  1  0.380300  0.623800  0.525500  1.0  0.1117
  H  H31  1  0.036600  0.207300  0.028400  1.0  0.0993
  H  H32  1  0.020400  0.532800  0.041200  1.0  0.1076
  C  C33  1  0.109500  0.977100  0.828800  1.0  0.8074
  C  C34  1  0.951000  0.983600  0.029700  1.0  -0.2117
  C  C35  1  0.597600  0.244800  0.426600  1.0  -0.0497
  C  C36  1  0.562800  0.820600  0.327500  1.0  0.8274
  C  C37  1  0.984200  0.903300  0.929500  1.0  -0.0457
  C  C38  1  0.636900  0.143600  0.322300  1.0  0.8151
  C  C39  1  0.045900  0.967900  0.903400  1.0  -0.2217
  C  C40  1  0.423300  0.866200  0.529400  1.0  -0.2166
  C  C41  1  0.563800  0.915400  0.438800  1.0  -0.0626
  C  C42  1  0.524200  0.848900  0.403900  1.0  -0.2226
  C  C43  1  0.501900  0.178600  0.525500  1.0  -0.2403
  C  C44  1  0.591400  0.173100  0.397100  1.0  -0.2216
  C  C45  1  0.928500  0.913900  0.000600  1.0  -0.0486
  C  C46  1  0.347700  0.858100  0.599300  1.0  0.8106
  C  C47  1  0.543300  0.247800  0.500200  1.0  -0.0407
  C  C48  1  0.505000  0.925000  0.510200  1.0  -0.0468
  C  C49  1  0.904800  0.015700  0.104100  1.0  0.8094
  C  C50  1  0.441100  0.162100  0.600200  1.0  0.8437
  C  C51  1  0.890500  0.022900  0.328800  1.0  0.8065
  C  C52  1  0.049000  0.016400  0.529700  1.0  -0.2117
  C  C53  1  0.402400  0.755200  0.926600  1.0  -0.0496
  C  C54  1  0.437200  0.179400  0.827500  1.0  0.8301
  C  C55  1  0.015800  0.096700  0.429500  1.0  -0.0466
  C  C56  1  0.363100  0.856400  0.822300  1.0  0.8153
  C  C57  1  0.954100  0.032100  0.403400  1.0  -0.2223
  C  C58  1  0.576700  0.133800  0.029400  1.0  -0.217
  C  C59  1  0.436200  0.084600  0.938800  1.0  -0.0628
  C  C60  1  0.475800  0.151100  0.903900  1.0  -0.2214
  C  C61  1  0.498100  0.821400  0.025500  1.0  -0.2412
  C  C62  1  0.408600  0.826900  0.897100  1.0  -0.2214
  C  C63  1  0.071500  0.086100  0.500600  1.0  -0.0489
  C  C64  1  0.652300  0.141900  0.099300  1.0  0.8052
  C  C65  1  0.456700  0.752200  0.000200  1.0  -0.0413
  C  C66  1  0.495000  0.075000  0.010200  1.0  -0.0454
  C  C67  1  0.095200  0.984300  0.604100  1.0  0.807
  C  C68  1  0.558900  0.837900  0.100200  1.0  0.839
  C  C69  1  0.390500  0.477100  0.828800  1.0  0.8066
  C  C70  1  0.549000  0.483600  0.029700  1.0  -0.2117
  C  C71  1  0.902400  0.744800  0.426600  1.0  -0.0496
  C  C72  1  0.937200  0.320600  0.327500  1.0  0.8287
  C  C73  1  0.515800  0.403300  0.929500  1.0  -0.0469
  C  C74  1  0.863100  0.643600  0.322300  1.0  0.8152
  C  C75  1  0.454100  0.467900  0.903400  1.0  -0.2226
  C  C76  1  0.076700  0.366200  0.529400  1.0  -0.2167
  C  C77  1  0.936200  0.415400  0.438800  1.0  -0.0626
  C  C78  1  0.975800  0.348900  0.403900  1.0  -0.2217
  C  C79  1  0.998100  0.678600  0.525500  1.0  -0.2393
  C  C80  1  0.908600  0.673100  0.397100  1.0  -0.2214
  C  C81  1  0.571500  0.413900  0.000600  1.0  -0.0487
  C  C82  1  0.152300  0.358100  0.599300  1.0  0.8109
  C  C83  1  0.956700  0.747800  0.500200  1.0  -0.0406
  C  C84  1  0.995000  0.425000  0.510200  1.0  -0.0459
  C  C85  1  0.595200  0.515700  0.104100  1.0  0.8082
  C  C86  1  0.058900  0.662100  0.600200  1.0  0.8435
  C  C87  1  0.609500  0.522900  0.328800  1.0  0.8073
  C  C88  1  0.451000  0.516400  0.529700  1.0  -0.2116
  C  C89  1  0.097600  0.255200  0.926600  1.0  -0.0494
  C  C90  1  0.062800  0.679400  0.827500  1.0  0.829
  C  C91  1  0.484200  0.596700  0.429500  1.0  -0.0456
  C  C92  1  0.136900  0.356400  0.822300  1.0  0.8157
  C  C93  1  0.545900  0.532100  0.403400  1.0  -0.2216
  C  C94  1  0.923300  0.633800  0.029400  1.0  -0.2172
  C  C95  1  0.063800  0.584600  0.938800  1.0  -0.0625
  C  C96  1  0.024200  0.651100  0.903900  1.0  -0.2216
  C  C97  1  0.001900  0.321400  0.025500  1.0  -0.2423
  C  C98  1  0.091400  0.326900  0.897100  1.0  -0.2212
  C  C99  1  0.428500  0.586100  0.500600  1.0  -0.0487
  C  C100  1  0.847700  0.641900  0.099300  1.0  0.8047
  C  C101  1  0.043300  0.252200  0.000200  1.0  -0.0414
  C  C102  1  0.005000  0.575000  0.010200  1.0  -0.0463
  C  C103  1  0.404800  0.484300  0.604100  1.0  0.8082
  C  C104  1  0.941100  0.337900  0.100200  1.0  0.8387
  S  S105  1  0.038000  0.040520  0.967700  1.0  0.1844
  S  S106  1  0.418800  0.797630  0.460220  1.0  0.1889
  S  S107  1  0.517500  0.109830  0.457470  1.0  0.1918
  S  S108  1  0.962000  0.959480  0.467700  1.0  0.1847
  S  S109  1  0.581200  0.202370  0.960220  1.0  0.188
  S  S110  1  0.482500  0.890170  0.957470  1.0  0.1906
  S  S111  1  0.462000  0.540520  0.967700  1.0  0.1841
  S  S112  1  0.081200  0.297630  0.460220  1.0  0.1885
  S  S113  1  0.982500  0.609830  0.457470  1.0  0.1916
  S  S114  1  0.538000  0.459480  0.467700  1.0  0.1852
  S  S115  1  0.918800  0.702370  0.960220  1.0  0.1885
  S  S116  1  0.017500  0.390170  0.957470  1.0  0.1909
  O  O117  1  0.175000  0.038100  0.816900  1.0  -0.6819
  O  O118  1  0.349200  0.915400  0.645300  1.0  -0.8794
  O  O119  1  0.847500  0.970100  0.147300  1.0  -0.7063
  O  O120  1  0.105400  0.923600  0.783700  1.0  -0.8504
  O  O121  1  0.618000  0.869300  0.285400  1.0  -0.7898
  O  O122  1  0.546300  0.752000  0.311600  1.0  -0.7238
  O  O123  1  0.410500  0.093000  0.614200  1.0  -0.7699
  O  O124  1  0.278200  0.801700  0.610700  1.0  -0.6598
  O  O125  1  0.932100  0.085700  0.115800  1.0  -0.7901
  O  O126  1  0.691400  0.192300  0.278400  1.0  -0.7214
  O  O127  1  0.442400  0.214000  0.647200  1.0  -0.7873
  O  O128  1  0.618000  0.075300  0.308400  1.0  -0.7655
  O  O129  1  0.825000  0.961900  0.316900  1.0  -0.6798
  O  O130  1  0.650800  0.084600  0.145300  1.0  -0.8791
  O  O131  1  0.152500  0.029900  0.647300  1.0  -0.708
  O  O132  1  0.894600  0.076400  0.283700  1.0  -0.8488
  O  O133  1  0.382000  0.130700  0.785400  1.0  -0.7912
  O  O134  1  0.453700  0.248000  0.811600  1.0  -0.7227
  O  O135  1  0.589500  0.907000  0.114200  1.0  -0.7687
  O  O136  1  0.721800  0.198300  0.110700  1.0  -0.661
  O  O137  1  0.067900  0.914300  0.615800  1.0  -0.7926
  O  O138  1  0.308600  0.807700  0.778400  1.0  -0.722
  O  O139  1  0.557600  0.786000  0.147200  1.0  -0.7895
  O  O140  1  0.382000  0.924700  0.808400  1.0  -0.7663
  O  O141  1  0.325000  0.538100  0.816900  1.0  -0.6793
  O  O142  1  0.150800  0.415400  0.645300  1.0  -0.8807
  O  O143  1  0.652500  0.470100  0.147300  1.0  -0.7067
  O  O144  1  0.394600  0.423600  0.783700  1.0  -0.8488
  O  O145  1  0.882000  0.369300  0.285400  1.0  -0.7899
  O  O146  1  0.953700  0.252000  0.311600  1.0  -0.7223
  O  O147  1  0.089500  0.593000  0.614200  1.0  -0.7702
  O  O148  1  0.221800  0.301700  0.610700  1.0  -0.6597
  O  O149  1  0.567900  0.585700  0.115800  1.0  -0.7919
  O  O150  1  0.808600  0.692300  0.278400  1.0  -0.7206
  O  O151  1  0.057600  0.714000  0.647200  1.0  -0.79
  O  O152  1  0.882000  0.575300  0.308400  1.0  -0.768
  O  O153  1  0.675000  0.461900  0.316900  1.0  -0.6811
  O  O154  1  0.849200  0.584600  0.145300  1.0  -0.8779
  O  O155  1  0.347500  0.529900  0.647300  1.0  -0.7077
  O  O156  1  0.605400  0.576400  0.283700  1.0  -0.8501
  O  O157  1  0.118000  0.630700  0.785400  1.0  -0.7911
  O  O158  1  0.046300  0.748000  0.811600  1.0  -0.7226
  O  O159  1  0.910500  0.407000  0.114200  1.0  -0.7689
  O  O160  1  0.778200  0.698300  0.110700  1.0  -0.6598
  O  O161  1  0.432100  0.414300  0.615800  1.0  -0.7905
  O  O162  1  0.191400  0.307700  0.778400  1.0  -0.7223
  O  O163  1  0.942400  0.286000  0.147200  1.0  -0.7868
  O  O164  1  0.118000  0.424700  0.808400  1.0  -0.7624
