# generated using pymatgen
data_MgH5C10N3O4
_symmetry_space_group_name_H-M   'P 1'
_cell_length_a   7.76390000
_cell_length_b   10.17650000
_cell_length_c   15.94900000
_cell_angle_alpha   90.00000000
_cell_angle_beta   90.00000000
_cell_angle_gamma   90.00000000
_symmetry_Int_Tables_number   1
_chemical_formula_structural   MgH5C10N3O4
_chemical_formula_sum   'Mg4 H20 C40 N12 O16'
_cell_volume   1260.11977785
_cell_formula_units_Z   4
loop_
 _symmetry_equiv_pos_site_id
 _symmetry_equiv_pos_as_xyz
  1  'x, y, z'
loop_
 _atom_site_type_symbol
 _atom_site_label
 _atom_site_symmetry_multiplicity
 _atom_site_fract_x
 _atom_site_fract_y
 _atom_site_fract_z
 _atom_site_occupancy
 _atom_site_charge
  Mg  Mg1  1  0.860260  0.029820  0.789260  1.0  1.4922
  Mg  Mg2  1  0.139740  0.970180  0.289260  1.0  1.4945
  Mg  Mg3  1  0.360260  0.470180  0.789260  1.0  1.4938
  Mg  Mg4  1  0.639740  0.529820  0.289260  1.0  1.4929
  H  H5  1  0.910400  0.451200  0.598400  1.0  0.3235
  H  H6  1  0.149600  0.254000  0.372500  1.0  0.0802
  H  H7  1  0.054400  0.914400  0.474000  1.0  0.0886
  H  H8  1  0.046300  0.360700  0.489100  1.0  0.1286
  H  H9  1  0.941800  0.011100  0.591400  1.0  0.1299
  H  H10  1  0.089600  0.548800  0.098400  1.0  0.3244
  H  H11  1  0.850400  0.746000  0.872500  1.0  0.0804
  H  H12  1  0.945600  0.085600  0.974000  1.0  0.089
  H  H13  1  0.953700  0.639300  0.989100  1.0  0.1293
  H  H14  1  0.058200  0.988900  0.091400  1.0  0.1291
  H  H15  1  0.410400  0.048800  0.598400  1.0  0.3243
  H  H16  1  0.649600  0.246000  0.372500  1.0  0.0804
  H  H17  1  0.554400  0.585600  0.474000  1.0  0.089
  H  H18  1  0.546300  0.139300  0.489100  1.0  0.1296
  H  H19  1  0.441800  0.488900  0.591400  1.0  0.1293
  H  H20  1  0.589600  0.951200  0.098400  1.0  0.3244
  H  H21  1  0.350400  0.754000  0.872500  1.0  0.0802
  H  H22  1  0.445600  0.414400  0.974000  1.0  0.0887
  H  H23  1  0.453700  0.860700  0.989100  1.0  0.1285
  H  H24  1  0.558200  0.511100  0.091400  1.0  0.1296
  C  C25  1  0.893400  0.261000  0.625000  1.0  0.3275
  C  C26  1  0.766000  0.415200  0.699700  1.0  -0.0078
  C  C27  1  0.735500  0.292700  0.734300  1.0  0.0013
  C  C28  1  0.977500  0.198600  0.552800  1.0  0.0354
  C  C29  1  0.107000  0.204300  0.416800  1.0  0.2076
  C  C30  1  0.049900  0.005600  0.476400  1.0  0.1962
  C  C31  1  0.043800  0.269400  0.486800  1.0  -0.2064
  C  C32  1  0.714200  0.553000  0.722200  1.0  0.6868
  C  C33  1  0.982800  0.062800  0.547600  1.0  -0.1903
  C  C34  1  0.633000  0.252700  0.809200  1.0  0.7133
  C  C35  1  0.106600  0.739000  0.125000  1.0  0.3282
  C  C36  1  0.234000  0.584800  0.199700  1.0  -0.0075
  C  C37  1  0.264500  0.707300  0.234300  1.0  0.0009
  C  C38  1  0.022500  0.801400  0.052800  1.0  0.0349
  C  C39  1  0.893000  0.795700  0.916800  1.0  0.2079
  C  C40  1  0.950100  0.994400  0.976400  1.0  0.1955
  C  C41  1  0.956200  0.730600  0.986800  1.0  -0.2055
  C  C42  1  0.285800  0.447000  0.222200  1.0  0.6857
  C  C43  1  0.017200  0.937200  0.047600  1.0  -0.1923
  C  C44  1  0.367000  0.747300  0.309200  1.0  0.7129
  C  C45  1  0.393400  0.239000  0.625000  1.0  0.3283
  C  C46  1  0.266000  0.084800  0.699700  1.0  -0.0076
  C  C47  1  0.235500  0.207300  0.734300  1.0  0.0014
  C  C48  1  0.477500  0.301400  0.552800  1.0  0.0351
  C  C49  1  0.607000  0.295700  0.416800  1.0  0.2078
  C  C50  1  0.549900  0.494400  0.476400  1.0  0.1957
  C  C51  1  0.543800  0.230600  0.486800  1.0  -0.2056
  C  C52  1  0.214200  0.947000  0.722200  1.0  0.6887
  C  C53  1  0.482800  0.437200  0.547600  1.0  -0.1928
  C  C54  1  0.133000  0.247300  0.809200  1.0  0.7128
  C  C55  1  0.606600  0.761000  0.125000  1.0  0.3275
  C  C56  1  0.734000  0.915200  0.199700  1.0  -0.0078
  C  C57  1  0.764500  0.792700  0.234300  1.0  0.0007
  C  C58  1  0.522500  0.698600  0.052800  1.0  0.0352
  C  C59  1  0.393000  0.704300  0.916800  1.0  0.2078
  C  C60  1  0.450100  0.505600  0.976400  1.0  0.1958
  C  C61  1  0.456200  0.769400  0.986800  1.0  -0.2062
  C  C62  1  0.785800  0.053000  0.222200  1.0  0.6903
  C  C63  1  0.517200  0.562800  0.047600  1.0  -0.1914
  C  C64  1  0.867000  0.752700  0.309200  1.0  0.713
  N  N65  1  0.109400  0.074200  0.410170  1.0  -0.4663
  N  N66  1  0.818100  0.198300  0.688300  1.0  -0.5726
  N  N67  1  0.868800  0.392400  0.631430  1.0  -0.2699
  N  N68  1  0.890600  0.925800  0.910170  1.0  -0.4655
  N  N69  1  0.181900  0.801700  0.188300  1.0  -0.5755
  N  N70  1  0.131200  0.607600  0.131430  1.0  -0.2691
  N  N71  1  0.609400  0.425800  0.410170  1.0  -0.4604
  N  N72  1  0.318100  0.301700  0.688300  1.0  -0.5743
  N  N73  1  0.368800  0.107600  0.631430  1.0  -0.2709
  N  N74  1  0.390600  0.574200  0.910170  1.0  -0.4708
  N  N75  1  0.681900  0.698300  0.188300  1.0  -0.5735
  N  N76  1  0.631200  0.892400  0.131430  1.0  -0.2687
  O  O77  1  0.660600  0.138500  0.836760  1.0  -0.7053
  O  O78  1  0.528100  0.331800  0.839170  1.0  -0.6745
  O  O79  1  0.561200  0.573400  0.743320  1.0  -0.7209
  O  O80  1  0.829100  0.638300  0.716200  1.0  -0.5991
  O  O81  1  0.339400  0.861500  0.336760  1.0  -0.7046
  O  O82  1  0.471900  0.668200  0.339170  1.0  -0.674
  O  O83  1  0.438800  0.426600  0.243320  1.0  -0.7219
  O  O84  1  0.170900  0.361700  0.216200  1.0  -0.5978
  O  O85  1  0.160600  0.361500  0.836760  1.0  -0.7042
  O  O86  1  0.028100  0.168200  0.839170  1.0  -0.674
  O  O87  1  0.061200  0.926600  0.743320  1.0  -0.7254
  O  O88  1  0.329100  0.861700  0.716200  1.0  -0.5989
  O  O89  1  0.839400  0.638500  0.336760  1.0  -0.706
  O  O90  1  0.971900  0.831800  0.339170  1.0  -0.6749
  O  O91  1  0.938800  0.073400  0.243320  1.0  -0.7171
  O  O92  1  0.670900  0.138300  0.216200  1.0  -0.5975
