# generated using pymatgen
data_NdH8C17O8
_symmetry_space_group_name_H-M   'P 1'
_cell_length_a   9.23070000
_cell_length_b   13.62220000
_cell_length_c   14.70720000
_cell_angle_alpha   90.00000000
_cell_angle_beta   90.27100000
_cell_angle_gamma   90.00000000
_symmetry_Int_Tables_number   1
_chemical_formula_structural   NdH8C17O8
_chemical_formula_sum   'Nd4 H32 C68 O32'
_cell_volume   1849.29855032
_cell_formula_units_Z   4
loop_
 _symmetry_equiv_pos_site_id
 _symmetry_equiv_pos_as_xyz
  1  'x, y, z'
loop_
 _atom_site_type_symbol
 _atom_site_label
 _atom_site_symmetry_multiplicity
 _atom_site_fract_x
 _atom_site_fract_y
 _atom_site_fract_z
 _atom_site_occupancy
 _atom_site_charge
  Nd  Nd1  1  0.250850  0.502450  0.093120  1.0  2.3232
  Nd  Nd2  1  0.249150  0.002450  0.406870  1.0  2.3225
  Nd  Nd3  1  0.749150  0.497550  0.906870  1.0  2.3224
  Nd  Nd4  1  0.750850  0.997550  0.593120  1.0  2.3231
  H  H5  1  0.091600  0.747900  0.336700  1.0  0.13
  H  H6  1  0.815000  0.685600  0.541800  1.0  0.1345
  H  H7  1  0.893800  0.482800  0.348700  1.0  0.1366
  H  H8  1  0.827500  0.458600  0.546600  1.0  0.1481
  H  H9  1  0.696200  0.534400  0.552500  1.0  0.1473
  H  H10  1  0.696900  0.311200  0.541100  1.0  0.1344
  H  H11  1  0.398300  0.258900  0.343900  1.0  0.1416
  H  H12  1  0.607200  0.520500  0.355100  1.0  0.1388
  H  H13  1  0.408400  0.247900  0.163300  1.0  0.1299
  H  H14  1  0.685000  0.185600  0.958200  1.0  0.1338
  H  H15  1  0.606200  0.982800  0.151300  1.0  0.1369
  H  H16  1  0.672500  0.958600  0.953400  1.0  0.1486
  H  H17  1  0.803800  0.034400  0.947500  1.0  0.1487
  H  H18  1  0.803100  0.811200  0.958900  1.0  0.1337
  H  H19  1  0.101700  0.758900  0.156100  1.0  0.1423
  H  H20  1  0.892800  0.020500  0.144900  1.0  0.1387
  H  H21  1  0.908400  0.252100  0.663300  1.0  0.1299
  H  H22  1  0.185000  0.314400  0.458200  1.0  0.1339
  H  H23  1  0.106200  0.517200  0.651300  1.0  0.1361
  H  H24  1  0.172500  0.541400  0.453400  1.0  0.1489
  H  H25  1  0.303800  0.465600  0.447500  1.0  0.1484
  H  H26  1  0.303100  0.688800  0.458900  1.0  0.1349
  H  H27  1  0.601700  0.741100  0.656100  1.0  0.1421
  H  H28  1  0.392800  0.479500  0.644900  1.0  0.1391
  H  H29  1  0.591600  0.752100  0.836700  1.0  0.13
  H  H30  1  0.315000  0.814400  0.041800  1.0  0.1345
  H  H31  1  0.393800  0.017200  0.848700  1.0  0.1363
  H  H32  1  0.327500  0.041400  0.046600  1.0  0.1473
  H  H33  1  0.196200  0.965600  0.052500  1.0  0.1475
  H  H34  1  0.196900  0.188800  0.041100  1.0  0.1346
  H  H35  1  0.898300  0.241100  0.843900  1.0  0.1421
  H  H36  1  0.107200  0.979500  0.855100  1.0  0.1388
  C  C37  1  0.002400  0.610400  0.329500  1.0  -0.0726
  C  C38  1  0.026600  0.704000  0.365800  1.0  -0.0702
  C  C39  1  0.954600  0.732700  0.445100  1.0  -0.1226
  C  C40  1  0.864300  0.666000  0.488300  1.0  -0.0952
  C  C41  1  0.843900  0.570900  0.455100  1.0  0.1413
  C  C42  1  0.910900  0.545900  0.374200  1.0  -0.1115
  C  C43  1  0.758400  0.497600  0.509700  1.0  -0.2746
  C  C44  1  0.664200  0.427800  0.457200  1.0  0.1353
  C  C45  1  0.643400  0.333000  0.489600  1.0  -0.0864
  C  C46  1  0.545100  0.269300  0.447600  1.0  -0.1336
  C  C47  1  0.468000  0.300700  0.371600  1.0  -0.0663
  C  C48  1  0.493700  0.394200  0.336300  1.0  -0.0806
  C  C49  1  0.590800  0.456800  0.379300  1.0  -0.092
  C  C50  1  0.080900  0.575200  0.246100  1.0  0.709
  C  C51  1  0.973900  0.833300  0.485000  1.0  0.72
  C  C52  1  0.525700  0.166700  0.486700  1.0  0.6907
  C  C53  1  0.414200  0.432000  0.253400  1.0  0.7138
  C  C54  1  0.497600  0.110400  0.170500  1.0  -0.0715
  C  C55  1  0.473400  0.204000  0.134200  1.0  -0.0695
  C  C56  1  0.545400  0.232700  0.054900  1.0  -0.1219
  C  C57  1  0.635700  0.166000  0.011700  1.0  -0.0941
  C  C58  1  0.656100  0.070900  0.044900  1.0  0.1429
  C  C59  1  0.589100  0.045900  0.125800  1.0  -0.1099
  C  C60  1  0.741600  0.997600  0.990300  1.0  -0.2751
  C  C61  1  0.835800  0.927800  0.042800  1.0  0.1356
  C  C62  1  0.856600  0.833000  0.010400  1.0  -0.0872
  C  C63  1  0.954900  0.769300  0.052400  1.0  -0.134
  C  C64  1  0.032000  0.800700  0.128400  1.0  -0.0672
  C  C65  1  0.006300  0.894200  0.163700  1.0  -0.0811
  C  C66  1  0.909200  0.956800  0.120700  1.0  -0.0913
  C  C67  1  0.419100  0.075200  0.253900  1.0  0.7086
  C  C68  1  0.526100  0.333333  0.015000  1.0  0.722
  C  C69  1  0.974300  0.666667  0.013300  1.0  0.6894
  C  C70  1  0.085800  0.932000  0.246600  1.0  0.7153
  C  C71  1  0.997600  0.389600  0.670500  1.0  -0.0715
  C  C72  1  0.973400  0.296000  0.634200  1.0  -0.0696
  C  C73  1  0.045400  0.267300  0.554900  1.0  -0.1238
  C  C74  1  0.135700  0.334000  0.511700  1.0  -0.0955
  C  C75  1  0.156100  0.429100  0.544900  1.0  0.1428
  C  C76  1  0.089100  0.454100  0.625800  1.0  -0.1102
  C  C77  1  0.241600  0.502400  0.490300  1.0  -0.2752
  C  C78  1  0.335800  0.572200  0.542800  1.0  0.1362
  C  C79  1  0.356600  0.667000  0.510400  1.0  -0.0869
  C  C80  1  0.454900  0.730700  0.552400  1.0  -0.1335
  C  C81  1  0.532000  0.699300  0.628400  1.0  -0.0674
  C  C82  1  0.506300  0.605800  0.663700  1.0  -0.081
  C  C83  1  0.409200  0.543200  0.620700  1.0  -0.0912
  C  C84  1  0.919100  0.424800  0.753900  1.0  0.7088
  C  C85  1  0.026100  0.166700  0.515000  1.0  0.7198
  C  C86  1  0.474300  0.833300  0.513300  1.0  0.6908
  C  C87  1  0.585800  0.568000  0.746600  1.0  0.7142
  C  C88  1  0.502400  0.889600  0.829500  1.0  -0.0727
  C  C89  1  0.526600  0.796000  0.865800  1.0  -0.0707
  C  C90  1  0.454600  0.767300  0.945100  1.0  -0.1236
  C  C91  1  0.364300  0.834000  0.988300  1.0  -0.0953
  C  C92  1  0.343900  0.929100  0.955100  1.0  0.1411
  C  C93  1  0.410900  0.954100  0.874200  1.0  -0.1112
  C  C94  1  0.258400  0.002400  0.009700  1.0  -0.2747
  C  C95  1  0.164200  0.072200  0.957200  1.0  0.1359
  C  C96  1  0.143400  0.167000  0.989600  1.0  -0.0859
  C  C97  1  0.045100  0.230700  0.947600  1.0  -0.1337
  C  C98  1  0.968000  0.199300  0.871600  1.0  -0.0663
  C  C99  1  0.993700  0.105800  0.836300  1.0  -0.0805
  C  C100  1  0.090800  0.043200  0.879300  1.0  -0.0926
  C  C101  1  0.580900  0.924800  0.746100  1.0  0.7097
  C  C102  1  0.473900  0.666667  0.985000  1.0  0.7211
  C  C103  1  0.025700  0.333333  0.986700  1.0  0.6894
  C  C104  1  0.914200  0.068000  0.753400  1.0  0.7149
  O  O105  1  0.024900  0.507700  0.199400  1.0  -0.6102
  O  O106  1  0.202700  0.612500  0.228100  1.0  -0.64
  O  O107  1  0.061200  0.890400  0.448700  1.0  -0.7305
  O  O108  1  0.899600  0.855200  0.553800  1.0  -0.6864
  O  O109  1  0.617800  0.138900  0.543800  1.0  -0.6785
  O  O110  1  0.422200  0.118300  0.459400  1.0  -0.7229
  O  O111  1  0.294900  0.394300  0.232400  1.0  -0.6463
  O  O112  1  0.471300  0.501600  0.207700  1.0  -0.6287
  O  O113  1  0.475100  0.007700  0.300600  1.0  -0.6086
  O  O114  1  0.297300  0.112500  0.271900  1.0  -0.6391
  O  O115  1  0.438800  0.390400  0.051300  1.0  -0.7302
  O  O116  1  0.600400  0.355200  0.946200  1.0  -0.6863
  O  O117  1  0.882200  0.638900  0.956200  1.0  -0.6793
  O  O118  1  0.077800  0.618300  0.040600  1.0  -0.7224
  O  O119  1  0.205100  0.894300  0.267600  1.0  -0.6457
  O  O120  1  0.028700  0.001600  0.292300  1.0  -0.6283
  O  O121  1  0.975100  0.492300  0.800600  1.0  -0.6097
  O  O122  1  0.797300  0.387500  0.771900  1.0  -0.6399
  O  O123  1  0.938800  0.109600  0.551300  1.0  -0.7303
  O  O124  1  0.100400  0.144800  0.446200  1.0  -0.6865
  O  O125  1  0.382200  0.861100  0.456200  1.0  -0.6793
  O  O126  1  0.577800  0.881700  0.540600  1.0  -0.7228
  O  O127  1  0.705100  0.605700  0.767600  1.0  -0.6448
  O  O128  1  0.528700  0.498400  0.792300  1.0  -0.627
  O  O129  1  0.524900  0.992300  0.699400  1.0  -0.6093
  O  O130  1  0.702700  0.887500  0.728100  1.0  -0.64
  O  O131  1  0.561200  0.609600  0.948700  1.0  -0.7305
  O  O132  1  0.399600  0.644800  0.053800  1.0  -0.6858
  O  O133  1  0.117800  0.361100  0.043800  1.0  -0.6791
  O  O134  1  0.922200  0.381700  0.959400  1.0  -0.7232
  O  O135  1  0.794900  0.105700  0.732400  1.0  -0.6452
  O  O136  1  0.971300  0.998400  0.707700  1.0  -0.6302
