# generated using pymatgen
data_PrH8C17O8
_symmetry_space_group_name_H-M   'P 1'
_cell_length_a   9.27700000
_cell_length_b   13.61930000
_cell_length_c   14.72880000
_cell_angle_alpha   90.00000000
_cell_angle_beta   90.27400000
_cell_angle_gamma   90.00000000
_symmetry_Int_Tables_number   1
_chemical_formula_structural   PrH8C17O8
_chemical_formula_sum   'Pr4 H32 C68 O32'
_cell_volume   1860.90731038
_cell_formula_units_Z   4
loop_
 _symmetry_equiv_pos_site_id
 _symmetry_equiv_pos_as_xyz
  1  'x, y, z'
loop_
 _atom_site_type_symbol
 _atom_site_label
 _atom_site_symmetry_multiplicity
 _atom_site_fract_x
 _atom_site_fract_y
 _atom_site_fract_z
 _atom_site_occupancy
 _atom_site_charge
  Pr  Pr1  1  0.251160  0.996850  0.092630  1.0  2.2427
  Pr  Pr2  1  0.248840  0.496850  0.407370  1.0  2.2425
  Pr  Pr3  1  0.748840  0.003150  0.907370  1.0  2.2425
  Pr  Pr4  1  0.751160  0.503150  0.592630  1.0  2.2426
  H  H5  1  0.397000  0.239100  0.345200  1.0  0.1356
  H  H6  1  0.696600  0.188200  0.541400  1.0  0.1358
  H  H7  1  0.609400  0.979900  0.355400  1.0  0.1303
  H  H8  1  0.697000  0.971000  0.549000  1.0  0.1652
  H  H9  1  0.823000  0.040000  0.549000  1.0  0.1352
  H  H10  1  0.894000  0.017900  0.348500  1.0  0.1281
  H  H11  1  0.091100  0.752800  0.336600  1.0  0.1287
  H  H12  1  0.816200  0.815400  0.542000  1.0  0.1355
  H  H13  1  0.103000  0.739100  0.154800  1.0  0.1352
  H  H14  1  0.803400  0.688200  0.958600  1.0  0.1355
  H  H15  1  0.890600  0.479900  0.144600  1.0  0.1308
  H  H16  1  0.803000  0.471000  0.951000  1.0  0.1655
  H  H17  1  0.677000  0.540000  0.951000  1.0  0.1355
  H  H18  1  0.606000  0.517900  0.151500  1.0  0.1274
  H  H19  1  0.408900  0.252800  0.163400  1.0  0.1286
  H  H20  1  0.683800  0.315400  0.958000  1.0  0.1352
  H  H21  1  0.603000  0.760900  0.654800  1.0  0.1357
  H  H22  1  0.303400  0.811800  0.458600  1.0  0.135
  H  H23  1  0.390600  0.020100  0.644600  1.0  0.1307
  H  H24  1  0.303000  0.029000  0.451000  1.0  0.1655
  H  H25  1  0.177000  0.960000  0.451000  1.0  0.1359
  H  H26  1  0.106000  0.982100  0.651500  1.0  0.1279
  H  H27  1  0.908900  0.247200  0.663400  1.0  0.1284
  H  H28  1  0.183800  0.184600  0.458000  1.0  0.1355
  H  H29  1  0.897000  0.260900  0.845200  1.0  0.1356
  H  H30  1  0.196600  0.311800  0.041400  1.0  0.1355
  H  H31  1  0.109400  0.520100  0.855400  1.0  0.1305
  H  H32  1  0.197000  0.529000  0.049000  1.0  0.1649
  H  H33  1  0.323000  0.460000  0.049000  1.0  0.137
  H  H34  1  0.394000  0.482100  0.848500  1.0  0.1279
  H  H35  1  0.591100  0.747200  0.836600  1.0  0.1286
  H  H36  1  0.316200  0.684600  0.042000  1.0  0.1359
  C  C37  1  0.493500  0.104700  0.336600  1.0  -0.0984
  C  C38  1  0.467400  0.197600  0.372400  1.0  -0.0655
  C  C39  1  0.544600  0.229500  0.447900  1.0  -0.135
  C  C40  1  0.643400  0.166300  0.490000  1.0  -0.1001
  C  C41  1  0.664300  0.072200  0.457300  1.0  0.0991
  C  C42  1  0.591800  0.043400  0.379900  1.0  -0.112
  C  C43  1  0.759200  0.003100  0.509800  1.0  -0.2025
  C  C44  1  0.843800  0.929600  0.454800  1.0  0.1397
  C  C45  1  0.911000  0.954800  0.373900  1.0  -0.0948
  C  C46  1  0.002100  0.890200  0.329100  1.0  -0.0817
  C  C47  1  0.026300  0.796700  0.365500  1.0  -0.0303
  C  C48  1  0.954800  0.768000  0.444600  1.0  -0.1287
  C  C49  1  0.864600  0.834900  0.488200  1.0  -0.1036
  C  C50  1  0.414800  0.067400  0.254200  1.0  0.7181
  C  C51  1  0.525300  0.331900  0.486700  1.0  0.7507
  C  C52  1  0.080600  0.924900  0.246300  1.0  0.7123
  C  C53  1  0.973900  0.667500  0.485100  1.0  0.7361
  C  C54  1  0.006500  0.604700  0.163400  1.0  -0.0983
  C  C55  1  0.032600  0.697600  0.127600  1.0  -0.0655
  C  C56  1  0.955400  0.729500  0.052100  1.0  -0.1352
  C  C57  1  0.856600  0.666300  0.010000  1.0  -0.102
  C  C58  1  0.835700  0.572200  0.042700  1.0  0.099
  C  C59  1  0.908200  0.543400  0.120100  1.0  -0.1114
  C  C60  1  0.740800  0.503100  0.990200  1.0  -0.2012
  C  C61  1  0.656200  0.429600  0.045200  1.0  0.1409
  C  C62  1  0.589000  0.454800  0.126100  1.0  -0.0937
  C  C63  1  0.497900  0.390200  0.170900  1.0  -0.0814
  C  C64  1  0.473700  0.296700  0.134500  1.0  -0.0295
  C  C65  1  0.545200  0.268000  0.055400  1.0  -0.1292
  C  C66  1  0.635400  0.334900  0.011800  1.0  -0.103
  C  C67  1  0.085200  0.567400  0.245800  1.0  0.7173
  C  C68  1  0.974700  0.831900  0.013300  1.0  0.7521
  C  C69  1  0.419400  0.424900  0.253700  1.0  0.7108
  C  C70  1  0.526100  0.167500  0.014900  1.0  0.736
  C  C71  1  0.506500  0.895300  0.663400  1.0  -0.0986
  C  C72  1  0.532600  0.802400  0.627600  1.0  -0.0659
  C  C73  1  0.455400  0.770500  0.552100  1.0  -0.1358
  C  C74  1  0.356600  0.833700  0.510000  1.0  -0.103
  C  C75  1  0.335700  0.927800  0.542700  1.0  0.0988
  C  C76  1  0.408200  0.956600  0.620100  1.0  -0.1119
  C  C77  1  0.240800  0.996900  0.490200  1.0  -0.2011
  C  C78  1  0.156200  0.070400  0.545200  1.0  0.1408
  C  C79  1  0.089000  0.045200  0.626100  1.0  -0.0937
  C  C80  1  0.997900  0.109800  0.670900  1.0  -0.0815
  C  C81  1  0.973700  0.203300  0.634500  1.0  -0.0296
  C  C82  1  0.045200  0.232000  0.555400  1.0  -0.1264
  C  C83  1  0.135400  0.165100  0.511800  1.0  -0.1023
  C  C84  1  0.585200  0.932600  0.745800  1.0  0.717
  C  C85  1  0.474700  0.668100  0.513300  1.0  0.75
  C  C86  1  0.919400  0.075100  0.753700  1.0  0.7109
  C  C87  1  0.026100  0.332500  0.514900  1.0  0.7376
  C  C88  1  0.993500  0.395300  0.836600  1.0  -0.0983
  C  C89  1  0.967400  0.302400  0.872400  1.0  -0.0659
  C  C90  1  0.044600  0.270500  0.947900  1.0  -0.1354
  C  C91  1  0.143400  0.333700  0.990000  1.0  -0.1014
  C  C92  1  0.164300  0.427800  0.957300  1.0  0.0987
  C  C93  1  0.091800  0.456600  0.879900  1.0  -0.1113
  C  C94  1  0.259200  0.496900  0.009800  1.0  -0.2025
  C  C95  1  0.343800  0.570400  0.954800  1.0  0.1398
  C  C96  1  0.411000  0.545200  0.873900  1.0  -0.0953
  C  C97  1  0.502100  0.609800  0.829100  1.0  -0.0816
  C  C98  1  0.526300  0.703300  0.865500  1.0  -0.0291
  C  C99  1  0.454800  0.732000  0.944600  1.0  -0.1261
  C  C100  1  0.364600  0.665100  0.988200  1.0  -0.1032
  C  C101  1  0.914800  0.432600  0.754200  1.0  0.7182
  C  C102  1  0.025300  0.168100  0.986700  1.0  0.7506
  C  C103  1  0.580600  0.575100  0.746300  1.0  0.7118
  C  C104  1  0.473900  0.832500  0.985100  1.0  0.7359
  O  O105  1  0.471200  0.997500  0.208300  1.0  -0.6305
  O  O106  1  0.295700  0.104900  0.232800  1.0  -0.6458
  O  O107  1  0.419700  0.379900  0.460700  1.0  -0.7266
  O  O108  1  0.618300  0.361500  0.541500  1.0  -0.6899
  O  O109  1  0.024000  0.991100  0.198300  1.0  -0.6146
  O  O110  1  0.201400  0.887100  0.228600  1.0  -0.6269
  O  O111  1  0.061300  0.610200  0.448900  1.0  -0.7284
  O  O112  1  0.902300  0.646000  0.553900  1.0  -0.6774
  O  O113  1  0.028800  0.497500  0.291700  1.0  -0.6284
  O  O114  1  0.204300  0.604900  0.267200  1.0  -0.6469
  O  O115  1  0.080300  0.879900  0.039300  1.0  -0.7266
  O  O116  1  0.881700  0.861500  0.958500  1.0  -0.6895
  O  O117  1  0.476000  0.491100  0.301700  1.0  -0.6146
  O  O118  1  0.298600  0.387100  0.271400  1.0  -0.6279
  O  O119  1  0.438700  0.110200  0.051100  1.0  -0.7296
  O  O120  1  0.597700  0.146000  0.946100  1.0  -0.6786
  O  O121  1  0.528800  0.002500  0.791700  1.0  -0.6293
  O  O122  1  0.704300  0.895100  0.767200  1.0  -0.6473
  O  O123  1  0.580300  0.620100  0.539300  1.0  -0.7264
  O  O124  1  0.381700  0.638500  0.458500  1.0  -0.6899
  O  O125  1  0.976000  0.008900  0.801700  1.0  -0.6148
  O  O126  1  0.798600  0.112900  0.771400  1.0  -0.6275
  O  O127  1  0.938700  0.389800  0.551100  1.0  -0.7293
  O  O128  1  0.097700  0.354000  0.446100  1.0  -0.6786
  O  O129  1  0.971200  0.502500  0.708300  1.0  -0.6313
  O  O130  1  0.795700  0.395100  0.732800  1.0  -0.6465
  O  O131  1  0.919700  0.120100  0.960700  1.0  -0.7258
  O  O132  1  0.118300  0.138500  0.041500  1.0  -0.6888
  O  O133  1  0.524000  0.508900  0.698300  1.0  -0.6163
  O  O134  1  0.701400  0.612900  0.728600  1.0  -0.6267
  O  O135  1  0.561300  0.889800  0.948900  1.0  -0.7292
  O  O136  1  0.402300  0.854000  0.053900  1.0  -0.6781
