# generated using pymatgen
data_TbH8C17O8
_symmetry_space_group_name_H-M   'P 1'
_cell_length_a   9.21410000
_cell_length_b   13.46950000
_cell_length_c   14.59180000
_cell_angle_alpha   90.00000000
_cell_angle_beta   90.35600000
_cell_angle_gamma   90.00000000
_symmetry_Int_Tables_number   1
_chemical_formula_structural   TbH8C17O8
_chemical_formula_sum   'Tb4 H32 C68 O32'
_cell_volume   1810.94341765
_cell_formula_units_Z   4
loop_
 _symmetry_equiv_pos_site_id
 _symmetry_equiv_pos_as_xyz
  1  'x, y, z'
loop_
 _atom_site_type_symbol
 _atom_site_label
 _atom_site_symmetry_multiplicity
 _atom_site_fract_x
 _atom_site_fract_y
 _atom_site_fract_z
 _atom_site_occupancy
 _atom_site_charge
  Tb  Tb1  1  0.251100  0.002980  0.092370  1.0  2.2863
  Tb  Tb2  1  0.248900  0.502980  0.407630  1.0  2.2849
  Tb  Tb3  1  0.748900  0.997020  0.907630  1.0  2.2848
  Tb  Tb4  1  0.751100  0.497020  0.592370  1.0  2.2862
  H  H5  1  0.095500  0.249100  0.336100  1.0  0.1293
  H  H6  1  0.815500  0.187000  0.541300  1.0  0.1355
  H  H7  1  0.894500  0.981800  0.346200  1.0  0.1364
  H  H8  1  0.703000  0.031000  0.556000  1.0  0.1444
  H  H9  1  0.829000  0.953000  0.546000  1.0  0.1479
  H  H10  1  0.607000  0.020800  0.353900  1.0  0.1346
  H  H11  1  0.392100  0.758700  0.344400  1.0  0.1391
  H  H12  1  0.697500  0.808600  0.540200  1.0  0.1299
  H  H13  1  0.404500  0.749100  0.163900  1.0  0.1289
  H  H14  1  0.684500  0.687000  0.958700  1.0  0.1351
  H  H15  1  0.605500  0.481800  0.153800  1.0  0.1368
  H  H16  1  0.797000  0.531000  0.944000  1.0  0.1452
  H  H17  1  0.671000  0.453000  0.954000  1.0  0.1471
  H  H18  1  0.893000  0.520800  0.146100  1.0  0.1343
  H  H19  1  0.107900  0.258700  0.155600  1.0  0.1393
  H  H20  1  0.802500  0.308600  0.959800  1.0  0.1291
  H  H21  1  0.904500  0.750900  0.663900  1.0  0.1291
  H  H22  1  0.184500  0.813000  0.458700  1.0  0.1349
  H  H23  1  0.105500  0.018200  0.653800  1.0  0.1363
  H  H24  1  0.297000  0.969000  0.444000  1.0  0.1447
  H  H25  1  0.171000  0.047000  0.454000  1.0  0.1472
  H  H26  1  0.393000  0.979200  0.646100  1.0  0.1348
  H  H27  1  0.607900  0.241300  0.655600  1.0  0.1391
  H  H28  1  0.302500  0.191400  0.459800  1.0  0.1299
  H  H29  1  0.595500  0.250900  0.836100  1.0  0.1293
  H  H30  1  0.315500  0.313000  0.041300  1.0  0.1353
  H  H31  1  0.394500  0.518200  0.846200  1.0  0.1362
  H  H32  1  0.203000  0.469000  0.056000  1.0  0.1443
  H  H33  1  0.329000  0.547000  0.046000  1.0  0.1472
  H  H34  1  0.107000  0.479200  0.853900  1.0  0.1349
  H  H35  1  0.892100  0.741300  0.844400  1.0  0.1394
  H  H36  1  0.197500  0.691400  0.040200  1.0  0.13
  C  C37  1  0.004300  0.111300  0.327400  1.0  -0.0696
  C  C38  1  0.029200  0.205000  0.364600  1.0  -0.0336
  C  C39  1  0.956800  0.234100  0.443900  1.0  -0.1206
  C  C40  1  0.865200  0.167100  0.487500  1.0  -0.0931
  C  C41  1  0.845200  0.071400  0.453800  1.0  0.1382
  C  C42  1  0.912000  0.045400  0.372000  1.0  -0.0926
  C  C43  1  0.761100  0.997100  0.509600  1.0  -0.2813
  C  C44  1  0.663800  0.927300  0.457200  1.0  0.1287
  C  C45  1  0.589700  0.956600  0.378600  1.0  -0.093
  C  C46  1  0.490900  0.894300  0.335400  1.0  -0.0851
  C  C47  1  0.463800  0.800200  0.371500  1.0  -0.0675
  C  C48  1  0.542700  0.767400  0.447700  1.0  -0.1399
  C  C49  1  0.642600  0.831300  0.489000  1.0  -0.115
  C  C50  1  0.083600  0.074800  0.243700  1.0  0.7084
  C  C51  1  0.976300  0.336500  0.484100  1.0  0.7149
  C  C52  1  0.411900  0.932400  0.252100  1.0  0.6935
  C  C53  1  0.523800  0.664000  0.486200  1.0  0.7575
  C  C54  1  0.495700  0.611300  0.172600  1.0  -0.0692
  C  C55  1  0.470800  0.705000  0.135400  1.0  -0.0347
  C  C56  1  0.543200  0.734100  0.056100  1.0  -0.1197
  C  C57  1  0.634800  0.667100  0.012500  1.0  -0.0922
  C  C58  1  0.654800  0.571400  0.046200  1.0  0.1384
  C  C59  1  0.588000  0.545400  0.128000  1.0  -0.0921
  C  C60  1  0.738900  0.497100  0.990400  1.0  -0.2812
  C  C61  1  0.836200  0.427300  0.042800  1.0  0.1292
  C  C62  1  0.910300  0.456600  0.121400  1.0  -0.0923
  C  C63  1  0.009100  0.394300  0.164600  1.0  -0.086
  C  C64  1  0.036200  0.300200  0.128500  1.0  -0.0671
  C  C65  1  0.957300  0.267400  0.052300  1.0  -0.1397
  C  C66  1  0.857400  0.331300  0.011000  1.0  -0.1156
  C  C67  1  0.416400  0.574800  0.256300  1.0  0.7059
  C  C68  1  0.523700  0.836500  0.015900  1.0  0.7166
  C  C69  1  0.088100  0.432400  0.247900  1.0  0.6909
  C  C70  1  0.976200  0.164000  0.013800  1.0  0.7566
  C  C71  1  0.995700  0.888700  0.672600  1.0  -0.0693
  C  C72  1  0.970800  0.795000  0.635400  1.0  -0.0338
  C  C73  1  0.043200  0.765900  0.556100  1.0  -0.1208
  C  C74  1  0.134800  0.832900  0.512500  1.0  -0.093
  C  C75  1  0.154800  0.928600  0.546200  1.0  0.1383
  C  C76  1  0.088000  0.954600  0.628000  1.0  -0.0917
  C  C77  1  0.238900  0.002900  0.490400  1.0  -0.2815
  C  C78  1  0.336200  0.072700  0.542800  1.0  0.1293
  C  C79  1  0.410300  0.043400  0.621400  1.0  -0.0922
  C  C80  1  0.509100  0.105700  0.664600  1.0  -0.0859
  C  C81  1  0.536200  0.199800  0.628500  1.0  -0.0671
  C  C82  1  0.457300  0.232600  0.552300  1.0  -0.1392
  C  C83  1  0.357400  0.168700  0.511000  1.0  -0.116
  C  C84  1  0.916400  0.925200  0.756300  1.0  0.708
  C  C85  1  0.023700  0.663500  0.515900  1.0  0.715
  C  C86  1  0.588100  0.067600  0.747900  1.0  0.6932
  C  C87  1  0.476200  0.336000  0.513800  1.0  0.7586
  C  C88  1  0.504300  0.388700  0.827400  1.0  -0.0696
  C  C89  1  0.529200  0.295000  0.864600  1.0  -0.0343
  C  C90  1  0.456800  0.265900  0.943900  1.0  -0.1212
  C  C91  1  0.365200  0.332900  0.987500  1.0  -0.0932
  C  C92  1  0.345200  0.428600  0.953800  1.0  0.138
  C  C93  1  0.412000  0.454600  0.872000  1.0  -0.0919
  C  C94  1  0.261100  0.502900  0.009600  1.0  -0.2815
  C  C95  1  0.163800  0.572700  0.957200  1.0  0.129
  C  C96  1  0.089700  0.543400  0.878600  1.0  -0.0935
  C  C97  1  0.990900  0.605700  0.835400  1.0  -0.0851
  C  C98  1  0.963800  0.699800  0.871500  1.0  -0.0675
  C  C99  1  0.042700  0.732600  0.947700  1.0  -0.1393
  C  C100  1  0.142600  0.668700  0.989000  1.0  -0.1151
  C  C101  1  0.583600  0.425200  0.743700  1.0  0.7072
  C  C102  1  0.476300  0.163500  0.984100  1.0  0.7159
  C  C103  1  0.911900  0.567600  0.752100  1.0  0.6912
  C  C104  1  0.023800  0.836000  0.986200  1.0  0.757
  O  O105  1  0.026700  0.007370  0.195560  1.0  -0.6034
  O  O106  1  0.205800  0.112110  0.225160  1.0  -0.6354
  O  O107  1  0.067000  0.392860  0.449400  1.0  -0.7135
  O  O108  1  0.899300  0.359020  0.553000  1.0  -0.6944
  O  O109  1  0.470300  0.002360  0.206020  1.0  -0.6341
  O  O110  1  0.292100  0.895640  0.229570  1.0  -0.6234
  O  O111  1  0.415400  0.615690  0.461850  1.0  -0.73
  O  O112  1  0.619800  0.633300  0.540710  1.0  -0.6973
  O  O113  1  0.473300  0.507370  0.304440  1.0  -0.6027
  O  O114  1  0.294200  0.612110  0.274840  1.0  -0.6347
  O  O115  1  0.433000  0.892860  0.050600  1.0  -0.7123
  O  O116  1  0.600700  0.859020  0.947000  1.0  -0.6953
  O  O117  1  0.029700  0.502360  0.293980  1.0  -0.6339
  O  O118  1  0.207900  0.395640  0.270430  1.0  -0.6229
  O  O119  1  0.084600  0.115690  0.038150  1.0  -0.7304
  O  O120  1  0.880200  0.133300  0.959290  1.0  -0.6971
  O  O121  1  0.973300  0.992630  0.804440  1.0  -0.6028
  O  O122  1  0.794200  0.887890  0.774840  1.0  -0.635
  O  O123  1  0.933000  0.607140  0.550600  1.0  -0.713
  O  O124  1  0.100700  0.640980  0.447000  1.0  -0.6953
  O  O125  1  0.529700  0.997640  0.793980  1.0  -0.6336
  O  O126  1  0.707900  0.104360  0.770430  1.0  -0.6227
  O  O127  1  0.584600  0.384310  0.538150  1.0  -0.7314
  O  O128  1  0.380200  0.366700  0.459290  1.0  -0.6971
  O  O129  1  0.526700  0.492630  0.695560  1.0  -0.6024
  O  O130  1  0.705800  0.387890  0.725160  1.0  -0.6355
  O  O131  1  0.567000  0.107140  0.949400  1.0  -0.7122
  O  O132  1  0.399300  0.140980  0.053000  1.0  -0.6939
  O  O133  1  0.970300  0.497640  0.706020  1.0  -0.6347
  O  O134  1  0.792100  0.604360  0.729570  1.0  -0.623
  O  O135  1  0.915400  0.884310  0.961850  1.0  -0.7313
  O  O136  1  0.119800  0.866700  0.040710  1.0  -0.6984
