# generated using pymatgen
data_GdH8C17O8
_symmetry_space_group_name_H-M   'P 1'
_cell_length_a   9.22750000
_cell_length_b   13.50560000
_cell_length_c   14.61220000
_cell_angle_alpha   90.00000000
_cell_angle_beta   90.32800000
_cell_angle_gamma   90.00000000
_symmetry_Int_Tables_number   1
_chemical_formula_structural   GdH8C17O8
_chemical_formula_sum   'Gd4 H32 C68 O32'
_cell_volume   1820.98525104
_cell_formula_units_Z   4
loop_
 _symmetry_equiv_pos_site_id
 _symmetry_equiv_pos_as_xyz
  1  'x, y, z'
loop_
 _atom_site_type_symbol
 _atom_site_label
 _atom_site_symmetry_multiplicity
 _atom_site_fract_x
 _atom_site_fract_y
 _atom_site_fract_z
 _atom_site_occupancy
 _atom_site_charge
  Gd  Gd1  1  0.251080  0.002900  0.092750  1.0  2.2122
  Gd  Gd2  1  0.248920  0.502900  0.407250  1.0  2.2108
  Gd  Gd3  1  0.748920  0.997100  0.907250  1.0  2.2108
  Gd  Gd4  1  0.751080  0.497100  0.592750  1.0  2.2123
  H  H5  1  0.094800  0.248700  0.336100  1.0  0.1347
  H  H6  1  0.816400  0.186400  0.542000  1.0  0.1388
  H  H7  1  0.894900  0.981700  0.346700  1.0  0.1414
  H  H8  1  0.830000  0.957200  0.545800  1.0  0.1469
  H  H9  1  0.699400  0.033900  0.553800  1.0  0.1505
  H  H10  1  0.607700  0.020100  0.353900  1.0  0.1355
  H  H11  1  0.394600  0.758400  0.343700  1.0  0.143
  H  H12  1  0.697000  0.809300  0.540200  1.0  0.1329
  H  H13  1  0.405200  0.748700  0.163900  1.0  0.1341
  H  H14  1  0.683600  0.686400  0.958000  1.0  0.1384
  H  H15  1  0.605100  0.481700  0.153300  1.0  0.1416
  H  H16  1  0.670000  0.457200  0.954200  1.0  0.1475
  H  H17  1  0.800600  0.533900  0.946200  1.0  0.1515
  H  H18  1  0.892300  0.520100  0.146100  1.0  0.1352
  H  H19  1  0.105400  0.258400  0.156300  1.0  0.143
  H  H20  1  0.803000  0.309300  0.959800  1.0  0.1321
  H  H21  1  0.905200  0.751300  0.663900  1.0  0.1341
  H  H22  1  0.183600  0.813600  0.458000  1.0  0.1383
  H  H23  1  0.105100  0.018300  0.653300  1.0  0.1411
  H  H24  1  0.170000  0.042800  0.454200  1.0  0.1477
  H  H25  1  0.300600  0.966100  0.446200  1.0  0.152
  H  H26  1  0.392300  0.979900  0.646100  1.0  0.1356
  H  H27  1  0.605400  0.241600  0.656300  1.0  0.143
  H  H28  1  0.303000  0.190700  0.459800  1.0  0.1331
  H  H29  1  0.594800  0.251300  0.836100  1.0  0.1346
  H  H30  1  0.316400  0.313600  0.042000  1.0  0.1384
  H  H31  1  0.394900  0.518300  0.846700  1.0  0.1411
  H  H32  1  0.330000  0.542800  0.045800  1.0  0.1466
  H  H33  1  0.199400  0.466100  0.053800  1.0  0.1515
  H  H34  1  0.107700  0.479900  0.853900  1.0  0.1352
  H  H35  1  0.894600  0.741600  0.843700  1.0  0.1434
  H  H36  1  0.197000  0.690700  0.040200  1.0  0.1331
  C  C37  1  0.003700  0.110700  0.328300  1.0  -0.0603
  C  C38  1  0.028800  0.204800  0.364900  1.0  -0.0233
  C  C39  1  0.955900  0.233800  0.444300  1.0  -0.1125
  C  C40  1  0.865300  0.166700  0.488000  1.0  -0.0935
  C  C41  1  0.844600  0.071300  0.454400  1.0  0.1317
  C  C42  1  0.912100  0.045200  0.372400  1.0  -0.0951
  C  C43  1  0.760200  0.997100  0.509700  1.0  -0.2869
  C  C44  1  0.664000  0.927400  0.457100  1.0  0.1465
  C  C45  1  0.590200  0.956200  0.378700  1.0  -0.0922
  C  C46  1  0.491600  0.894300  0.335800  1.0  -0.0717
  C  C47  1  0.465200  0.800100  0.371300  1.0  -0.0642
  C  C48  1  0.543000  0.767700  0.447700  1.0  -0.1388
  C  C49  1  0.642500  0.831800  0.488900  1.0  -0.1057
  C  C50  1  0.083100  0.074400  0.244900  1.0  0.7012
  C  C51  1  0.976100  0.335700  0.485000  1.0  0.7099
  C  C52  1  0.412100  0.932400  0.252200  1.0  0.6936
  C  C53  1  0.524500  0.664500  0.486300  1.0  0.7344
  C  C54  1  0.496300  0.610700  0.171700  1.0  -0.0599
  C  C55  1  0.471200  0.704800  0.135100  1.0  -0.0238
  C  C56  1  0.544100  0.733800  0.055700  1.0  -0.1121
  C  C57  1  0.634700  0.666667  0.012000  1.0  -0.0905
  C  C58  1  0.655400  0.571300  0.045600  1.0  0.1322
  C  C59  1  0.587900  0.545200  0.127600  1.0  -0.0939
  C  C60  1  0.739800  0.497100  0.990300  1.0  -0.2871
  C  C61  1  0.836000  0.427400  0.042900  1.0  0.1475
  C  C62  1  0.909800  0.456200  0.121300  1.0  -0.0916
  C  C63  1  0.008400  0.394300  0.164200  1.0  -0.0723
  C  C64  1  0.034800  0.300100  0.128700  1.0  -0.0638
  C  C65  1  0.957000  0.267700  0.052300  1.0  -0.1385
  C  C66  1  0.857500  0.331800  0.011100  1.0  -0.1062
  C  C67  1  0.416900  0.574400  0.255100  1.0  0.7004
  C  C68  1  0.523900  0.835700  0.015000  1.0  0.7106
  C  C69  1  0.087900  0.432400  0.247800  1.0  0.6922
  C  C70  1  0.975500  0.164500  0.013700  1.0  0.7329
  C  C71  1  0.996300  0.889300  0.671700  1.0  -0.0599
  C  C72  1  0.971200  0.795200  0.635100  1.0  -0.0235
  C  C73  1  0.044100  0.766200  0.555700  1.0  -0.1126
  C  C74  1  0.134700  0.833300  0.512000  1.0  -0.0936
  C  C75  1  0.155400  0.928700  0.545600  1.0  0.1319
  C  C76  1  0.087900  0.954800  0.627600  1.0  -0.0939
  C  C77  1  0.239800  0.002900  0.490300  1.0  -0.2872
  C  C78  1  0.336000  0.072600  0.542900  1.0  0.1474
  C  C79  1  0.409800  0.043800  0.621300  1.0  -0.0916
  C  C80  1  0.508400  0.105700  0.664200  1.0  -0.0721
  C  C81  1  0.534800  0.199900  0.628700  1.0  -0.0636
  C  C82  1  0.457000  0.232300  0.552300  1.0  -0.1377
  C  C83  1  0.357500  0.168200  0.511100  1.0  -0.1057
  C  C84  1  0.916900  0.925600  0.755100  1.0  0.7013
  C  C85  1  0.023900  0.664300  0.515000  1.0  0.7093
  C  C86  1  0.587900  0.067600  0.747800  1.0  0.6932
  C  C87  1  0.475500  0.335500  0.513700  1.0  0.7359
  C  C88  1  0.503700  0.389300  0.828300  1.0  -0.0606
  C  C89  1  0.528800  0.295200  0.864900  1.0  -0.0229
  C  C90  1  0.455900  0.266200  0.944300  1.0  -0.1125
  C  C91  1  0.365300  0.333333  0.988000  1.0  -0.0923
  C  C92  1  0.344600  0.428700  0.954400  1.0  0.1311
  C  C93  1  0.412100  0.454800  0.872400  1.0  -0.0949
  C  C94  1  0.260200  0.502900  0.009700  1.0  -0.2868
  C  C95  1  0.164000  0.572600  0.957100  1.0  0.1464
  C  C96  1  0.090200  0.543800  0.878700  1.0  -0.0931
  C  C97  1  0.991600  0.605700  0.835800  1.0  -0.0717
  C  C98  1  0.965200  0.699900  0.871300  1.0  -0.0641
  C  C99  1  0.043000  0.732300  0.947700  1.0  -0.1381
  C  C100  1  0.142500  0.668200  0.988900  1.0  -0.1051
  C  C101  1  0.583100  0.425600  0.744900  1.0  0.7016
  C  C102  1  0.476100  0.164300  0.985000  1.0  0.71
  C  C103  1  0.912100  0.567600  0.752200  1.0  0.6924
  C  C104  1  0.024500  0.835500  0.986300  1.0  0.7357
  O  O105  1  0.026800  0.007300  0.196800  1.0  -0.5989
  O  O106  1  0.205300  0.111900  0.226010  1.0  -0.6374
  O  O107  1  0.066000  0.392500  0.449400  1.0  -0.7227
  O  O108  1  0.898800  0.358100  0.553220  1.0  -0.6935
  O  O109  1  0.470200  0.002400  0.206280  1.0  -0.6226
  O  O110  1  0.292400  0.895300  0.230140  1.0  -0.6218
  O  O111  1  0.417100  0.616200  0.461500  1.0  -0.7155
  O  O112  1  0.619800  0.634500  0.541800  1.0  -0.6984
  O  O113  1  0.473200  0.507300  0.303200  1.0  -0.5987
  O  O114  1  0.294700  0.611900  0.273990  1.0  -0.6364
  O  O115  1  0.434000  0.892500  0.050600  1.0  -0.722
  O  O116  1  0.601200  0.858100  0.946780  1.0  -0.6945
  O  O117  1  0.029800  0.502400  0.293720  1.0  -0.6218
  O  O118  1  0.207600  0.395300  0.269860  1.0  -0.6226
  O  O119  1  0.082900  0.116200  0.038500  1.0  -0.7156
  O  O120  1  0.880200  0.134500  0.958200  1.0  -0.6993
  O  O121  1  0.973200  0.992700  0.803200  1.0  -0.5989
  O  O122  1  0.794700  0.888100  0.773990  1.0  -0.6364
  O  O123  1  0.934000  0.607500  0.550600  1.0  -0.7231
  O  O124  1  0.101200  0.641900  0.446780  1.0  -0.6951
  O  O125  1  0.529800  0.997600  0.793720  1.0  -0.6212
  O  O126  1  0.707600  0.104700  0.769860  1.0  -0.622
  O  O127  1  0.582900  0.383800  0.538500  1.0  -0.7164
  O  O128  1  0.380200  0.365500  0.458200  1.0  -0.6988
  O  O129  1  0.526800  0.492700  0.696800  1.0  -0.5976
  O  O130  1  0.705300  0.388100  0.726010  1.0  -0.637
  O  O131  1  0.566000  0.107500  0.949400  1.0  -0.7218
  O  O132  1  0.398800  0.141900  0.053220  1.0  -0.6933
  O  O133  1  0.970200  0.497600  0.706280  1.0  -0.6237
  O  O134  1  0.792400  0.604700  0.730140  1.0  -0.6211
  O  O135  1  0.917100  0.883800  0.961500  1.0  -0.7165
  O  O136  1  0.119800  0.865500  0.041800  1.0  -0.6993
