# generated using pymatgen
data_DyH8C17O8
_symmetry_space_group_name_H-M   'P 1'
_cell_length_a   9.20060000
_cell_length_b   13.43780000
_cell_length_c   14.56360000
_cell_angle_alpha   90.00000000
_cell_angle_beta   90.35600000
_cell_angle_gamma   90.00000000
_symmetry_Int_Tables_number   1
_chemical_formula_structural   DyH8C17O8
_chemical_formula_sum   'Dy4 H32 C68 O32'
_cell_volume   1800.54791065
_cell_formula_units_Z   4
loop_
 _symmetry_equiv_pos_site_id
 _symmetry_equiv_pos_as_xyz
  1  'x, y, z'
loop_
 _atom_site_type_symbol
 _atom_site_label
 _atom_site_symmetry_multiplicity
 _atom_site_fract_x
 _atom_site_fract_y
 _atom_site_fract_z
 _atom_site_occupancy
 _atom_site_charge
  Dy  Dy1  1  0.251100  0.496980  0.592140  1.0  2.3054
  Dy  Dy2  1  0.248900  0.996980  0.907860  1.0  2.3041
  Dy  Dy3  1  0.748900  0.503020  0.407860  1.0  2.3041
  Dy  Dy4  1  0.751100  0.003020  0.092140  1.0  2.3054
  H  H5  1  0.095600  0.250200  0.835400  1.0  0.1327
  H  H6  1  0.814700  0.312900  0.041100  1.0  0.1366
  H  H7  1  0.894100  0.517700  0.845400  1.0  0.1361
  H  H8  1  0.699700  0.465800  0.053500  1.0  0.15
  H  H9  1  0.830500  0.543200  0.045700  1.0  0.1391
  H  H10  1  0.607000  0.479100  0.854100  1.0  0.1367
  H  H11  1  0.391600  0.741600  0.844300  1.0  0.1391
  H  H12  1  0.697000  0.691200  0.041100  1.0  0.1325
  H  H13  1  0.404400  0.750200  0.664600  1.0  0.1326
  H  H14  1  0.685300  0.812900  0.458900  1.0  0.1362
  H  H15  1  0.605900  0.017700  0.654600  1.0  0.1365
  H  H16  1  0.800300  0.965800  0.446500  1.0  0.1504
  H  H17  1  0.669500  0.043200  0.454300  1.0  0.1401
  H  H18  1  0.893000  0.979100  0.645900  1.0  0.1364
  H  H19  1  0.108400  0.241600  0.655700  1.0  0.1382
  H  H20  1  0.803000  0.191200  0.458900  1.0  0.1324
  H  H21  1  0.904400  0.749800  0.164600  1.0  0.1324
  H  H22  1  0.185300  0.687100  0.958900  1.0  0.1364
  H  H23  1  0.105900  0.482300  0.154600  1.0  0.1367
  H  H24  1  0.300300  0.534200  0.946500  1.0  0.1502
  H  H25  1  0.169500  0.456800  0.954300  1.0  0.1397
  H  H26  1  0.393000  0.520900  0.145900  1.0  0.1361
  H  H27  1  0.608400  0.258400  0.155700  1.0  0.1394
  H  H28  1  0.303000  0.308800  0.958900  1.0  0.1316
  H  H29  1  0.595600  0.249800  0.335400  1.0  0.1327
  H  H30  1  0.314700  0.187100  0.541100  1.0  0.1369
  H  H31  1  0.394100  0.982300  0.345400  1.0  0.1359
  H  H32  1  0.199700  0.034200  0.553500  1.0  0.1494
  H  H33  1  0.330500  0.956800  0.545700  1.0  0.1399
  H  H34  1  0.107000  0.020900  0.354100  1.0  0.1364
  H  H35  1  0.891600  0.758400  0.344300  1.0  0.1389
  H  H36  1  0.197000  0.808800  0.541100  1.0  0.1322
  C  C37  1  0.004700  0.388900  0.827300  1.0  -0.0688
  C  C38  1  0.029600  0.294400  0.864300  1.0  -0.061
  C  C39  1  0.957100  0.265200  0.943900  1.0  -0.1295
  C  C40  1  0.865000  0.332800  0.987400  1.0  -0.0949
  C  C41  1  0.845400  0.428800  0.953600  1.0  0.1352
  C  C42  1  0.912200  0.454100  0.871700  1.0  -0.1026
  C  C43  1  0.760600  0.503000  0.009400  1.0  -0.2705
  C  C44  1  0.664000  0.573000  0.956900  1.0  0.1402
  C  C45  1  0.589800  0.543500  0.878600  1.0  -0.0979
  C  C46  1  0.490800  0.605900  0.835100  1.0  -0.079
  C  C47  1  0.463500  0.700100  0.871400  1.0  -0.0668
  C  C48  1  0.542100  0.733000  0.947500  1.0  -0.14
  C  C49  1  0.642600  0.668700  0.989500  1.0  -0.0822
  C  C50  1  0.083800  0.425300  0.743300  1.0  0.6981
  C  C51  1  0.976600  0.162800  0.984300  1.0  0.7138
  C  C52  1  0.411500  0.567400  0.751500  1.0  0.6963
  C  C53  1  0.523700  0.836600  0.986200  1.0  0.7564
  C  C54  1  0.495300  0.888900  0.672700  1.0  -0.0682
  C  C55  1  0.470400  0.794400  0.635700  1.0  -0.0599
  C  C56  1  0.542900  0.765200  0.556100  1.0  -0.1296
  C  C57  1  0.635000  0.832800  0.512600  1.0  -0.0949
  C  C58  1  0.654600  0.928800  0.546400  1.0  0.1359
  C  C59  1  0.587800  0.954100  0.628300  1.0  -0.1019
  C  C60  1  0.739400  0.003000  0.490600  1.0  -0.2716
  C  C61  1  0.836000  0.073000  0.543100  1.0  0.1408
  C  C62  1  0.910200  0.043500  0.621400  1.0  -0.0972
  C  C63  1  0.009200  0.105900  0.664900  1.0  -0.0796
  C  C64  1  0.036500  0.200100  0.628600  1.0  -0.0665
  C  C65  1  0.957900  0.233000  0.552500  1.0  -0.1396
  C  C66  1  0.857400  0.168700  0.510500  1.0  -0.0829
  C  C67  1  0.416200  0.925300  0.756700  1.0  0.696
  C  C68  1  0.523400  0.662800  0.515700  1.0  0.7135
  C  C69  1  0.088500  0.067400  0.748500  1.0  0.6927
  C  C70  1  0.976300  0.336600  0.513800  1.0  0.7578
  C  C71  1  0.995300  0.611100  0.172700  1.0  -0.0682
  C  C72  1  0.970400  0.705600  0.135700  1.0  -0.0605
  C  C73  1  0.042900  0.734800  0.056100  1.0  -0.1295
  C  C74  1  0.135000  0.667200  0.012600  1.0  -0.0934
  C  C75  1  0.154600  0.571200  0.046400  1.0  0.1362
  C  C76  1  0.087800  0.545900  0.128300  1.0  -0.1027
  C  C77  1  0.239400  0.497000  0.990600  1.0  -0.2716
  C  C78  1  0.336000  0.427000  0.043100  1.0  0.1406
  C  C79  1  0.410200  0.456500  0.121400  1.0  -0.0975
  C  C80  1  0.509200  0.394100  0.164900  1.0  -0.0799
  C  C81  1  0.536500  0.299900  0.128600  1.0  -0.0665
  C  C82  1  0.457900  0.267000  0.052500  1.0  -0.1402
  C  C83  1  0.357400  0.331300  0.010500  1.0  -0.0824
  C  C84  1  0.916200  0.574700  0.256700  1.0  0.6972
  C  C85  1  0.023400  0.837200  0.015700  1.0  0.7157
  C  C86  1  0.588500  0.432600  0.248500  1.0  0.6957
  C  C87  1  0.476300  0.163400  0.013800  1.0  0.7556
  C  C88  1  0.504700  0.111100  0.327300  1.0  -0.0687
  C  C89  1  0.529600  0.205600  0.364300  1.0  -0.0602
  C  C90  1  0.457100  0.234800  0.443900  1.0  -0.1296
  C  C91  1  0.365000  0.167200  0.487400  1.0  -0.0943
  C  C92  1  0.345400  0.071200  0.453600  1.0  0.1356
  C  C93  1  0.412200  0.045900  0.371700  1.0  -0.1034
  C  C94  1  0.260600  0.997000  0.509400  1.0  -0.2706
  C  C95  1  0.164000  0.927000  0.456900  1.0  0.14
  C  C96  1  0.089800  0.956500  0.378600  1.0  -0.0976
  C  C97  1  0.990800  0.894100  0.335100  1.0  -0.079
  C  C98  1  0.963500  0.799900  0.371400  1.0  -0.0668
  C  C99  1  0.042100  0.767000  0.447500  1.0  -0.1407
  C  C100  1  0.142600  0.831300  0.489500  1.0  -0.0821
  C  C101  1  0.583800  0.074700  0.243300  1.0  0.696
  C  C102  1  0.476600  0.337200  0.484300  1.0  0.7142
  C  C103  1  0.911500  0.932600  0.251500  1.0  0.6938
  C  C104  1  0.023700  0.663400  0.486200  1.0  0.7569
  O  O105  1  0.026800  0.492600  0.695110  1.0  -0.6144
  O  O106  1  0.206700  0.388500  0.724790  1.0  -0.6337
  O  O107  1  0.068300  0.106800  0.949910  1.0  -0.7068
  O  O108  1  0.898500  0.140300  0.052700  1.0  -0.6975
  O  O109  1  0.470300  0.497600  0.705250  1.0  -0.6484
  O  O110  1  0.291200  0.604300  0.728910  1.0  -0.6294
  O  O111  1  0.414700  0.884900  0.961790  1.0  -0.7215
  O  O112  1  0.619700  0.867300  0.040340  1.0  -0.7034
  O  O113  1  0.473200  0.992600  0.804890  1.0  -0.6134
  O  O114  1  0.293300  0.888500  0.775210  1.0  -0.6335
  O  O115  1  0.431700  0.606800  0.550090  1.0  -0.7077
  O  O116  1  0.601500  0.640300  0.447300  1.0  -0.6981
  O  O117  1  0.029700  0.997600  0.794750  1.0  -0.6464
  O  O118  1  0.208800  0.104300  0.771090  1.0  -0.6297
  O  O119  1  0.085300  0.384900  0.538210  1.0  -0.721
  O  O120  1  0.880300  0.367300  0.459660  1.0  -0.7028
  O  O121  1  0.973200  0.507400  0.304890  1.0  -0.6128
  O  O122  1  0.793300  0.611500  0.275210  1.0  -0.6333
  O  O123  1  0.931700  0.893200  0.050090  1.0  -0.7063
  O  O124  1  0.101500  0.859700  0.947300  1.0  -0.6978
  O  O125  1  0.529700  0.502400  0.294750  1.0  -0.6477
  O  O126  1  0.708800  0.395700  0.271090  1.0  -0.63
  O  O127  1  0.585300  0.115100  0.038210  1.0  -0.7204
  O  O128  1  0.380300  0.132700  0.959660  1.0  -0.7031
  O  O129  1  0.526800  0.007400  0.195110  1.0  -0.6142
  O  O130  1  0.706700  0.111500  0.224790  1.0  -0.6337
  O  O131  1  0.568300  0.393200  0.449910  1.0  -0.7077
  O  O132  1  0.398500  0.359700  0.552700  1.0  -0.6978
  O  O133  1  0.970300  0.002400  0.205250  1.0  -0.648
  O  O134  1  0.791200  0.895700  0.228910  1.0  -0.6299
  O  O135  1  0.914700  0.615100  0.461790  1.0  -0.7203
  O  O136  1  0.119700  0.632700  0.540340  1.0  -0.7025
