# generated using pymatgen
data_EuH8C17O8
_symmetry_space_group_name_H-M   'P 1'
_cell_length_a   9.23900000
_cell_length_b   13.52780000
_cell_length_c   14.63790000
_cell_angle_alpha   90.00000000
_cell_angle_beta   90.35400000
_cell_angle_gamma   90.00000000
_symmetry_Int_Tables_number   1
_chemical_formula_structural   EuH8C17O8
_chemical_formula_sum   'Eu4 H32 C68 O32'
_cell_volume   1829.45877515
_cell_formula_units_Z   4
loop_
 _symmetry_equiv_pos_site_id
 _symmetry_equiv_pos_as_xyz
  1  'x, y, z'
loop_
 _atom_site_type_symbol
 _atom_site_label
 _atom_site_symmetry_multiplicity
 _atom_site_fract_x
 _atom_site_fract_y
 _atom_site_fract_z
 _atom_site_occupancy
 _atom_site_charge
  Eu  Eu1  1  0.751170  0.503100  0.592650  1.0  2.1709
  Eu  Eu2  1  0.748830  0.003100  0.907350  1.0  2.1702
  Eu  Eu3  1  0.248830  0.496900  0.407350  1.0  2.1703
  Eu  Eu4  1  0.251170  0.996900  0.092650  1.0  2.1709
  H  H5  1  0.892300  0.259400  0.844400  1.0  0.1473
  H  H6  1  0.199200  0.309600  0.039900  1.0  0.1297
  H  H7  1  0.109100  0.520400  0.853900  1.0  0.1326
  H  H8  1  0.316900  0.686100  0.041400  1.0  0.1352
  H  H9  1  0.592200  0.748900  0.835600  1.0  0.1303
  H  H10  1  0.392400  0.482400  0.846700  1.0  0.1386
  H  H11  1  0.210000  0.533000  0.055000  1.0  0.1447
  H  H12  1  0.326000  0.456000  0.045000  1.0  0.1396
  H  H13  1  0.607700  0.759400  0.655600  1.0  0.1475
  H  H14  1  0.300800  0.809600  0.460100  1.0  0.1288
  H  H15  1  0.390900  0.020400  0.646100  1.0  0.1319
  H  H16  1  0.183100  0.186100  0.458600  1.0  0.1351
  H  H17  1  0.907800  0.248900  0.664400  1.0  0.1301
  H  H18  1  0.107600  0.982400  0.653300  1.0  0.1387
  H  H19  1  0.290000  0.033000  0.445000  1.0  0.1455
  H  H20  1  0.174000  0.956000  0.455000  1.0  0.1387
  H  H21  1  0.107700  0.740600  0.155600  1.0  0.1473
  H  H22  1  0.800800  0.690400  0.960100  1.0  0.1297
  H  H23  1  0.890900  0.479600  0.146100  1.0  0.1321
  H  H24  1  0.683100  0.313900  0.958600  1.0  0.1347
  H  H25  1  0.407800  0.251100  0.164400  1.0  0.1302
  H  H26  1  0.607600  0.517600  0.153300  1.0  0.1382
  H  H27  1  0.790000  0.467000  0.945000  1.0  0.1452
  H  H28  1  0.674000  0.544000  0.955000  1.0  0.1387
  H  H29  1  0.392300  0.240600  0.344400  1.0  0.1476
  H  H30  1  0.699200  0.190400  0.539900  1.0  0.1297
  H  H31  1  0.609100  0.979600  0.353900  1.0  0.1322
  H  H32  1  0.816900  0.813900  0.541400  1.0  0.1354
  H  H33  1  0.092200  0.751100  0.335600  1.0  0.1304
  H  H34  1  0.892400  0.017600  0.346700  1.0  0.1382
  H  H35  1  0.710000  0.967000  0.555000  1.0  0.1452
  H  H36  1  0.826000  0.044000  0.545000  1.0  0.1383
  C  C37  1  0.991700  0.394600  0.836100  1.0  -0.0792
  C  C38  1  0.964000  0.300600  0.871500  1.0  -0.0641
  C  C39  1  0.043600  0.267800  0.947800  1.0  -0.1415
  C  C40  1  0.144000  0.332100  0.989000  1.0  -0.1034
  C  C41  1  0.164500  0.427700  0.957300  1.0  0.1363
  C  C42  1  0.091100  0.456800  0.878900  1.0  -0.0761
  C  C43  1  0.261800  0.496800  0.008700  1.0  -0.1752
  C  C44  1  0.345500  0.571400  0.954300  1.0  0.1229
  C  C45  1  0.365800  0.666500  0.987500  1.0  -0.0997
  C  C46  1  0.455700  0.733800  0.944100  1.0  -0.1265
  C  C47  1  0.527100  0.704700  0.864600  1.0  -0.0677
  C  C48  1  0.503300  0.610900  0.827800  1.0  -0.0742
  C  C49  1  0.410900  0.545600  0.872600  1.0  -0.0998
  C  C50  1  0.912800  0.432500  0.752600  1.0  0.6987
  C  C51  1  0.023500  0.165300  0.986200  1.0  0.7714
  C  C52  1  0.475200  0.834600  0.984200  1.0  0.743
  C  C53  1  0.582900  0.574800  0.744500  1.0  0.7128
  C  C54  1  0.508300  0.894600  0.663900  1.0  -0.0798
  C  C55  1  0.536000  0.800600  0.628500  1.0  -0.0633
  C  C56  1  0.456400  0.767800  0.552200  1.0  -0.1414
  C  C57  1  0.356000  0.832100  0.511000  1.0  -0.1038
  C  C58  1  0.335500  0.927700  0.542700  1.0  0.1368
  C  C59  1  0.408900  0.956800  0.621100  1.0  -0.0776
  C  C60  1  0.238200  0.996800  0.491300  1.0  -0.1733
  C  C61  1  0.154500  0.071400  0.545700  1.0  0.123
  C  C62  1  0.134200  0.166500  0.512500  1.0  -0.099
  C  C63  1  0.044300  0.233800  0.555900  1.0  -0.1258
  C  C64  1  0.972900  0.204700  0.635400  1.0  -0.0667
  C  C65  1  0.996700  0.110900  0.672200  1.0  -0.0721
  C  C66  1  0.089100  0.045600  0.627400  1.0  -0.0985
  C  C67  1  0.587200  0.932500  0.747400  1.0  0.6977
  C  C68  1  0.476500  0.665300  0.513800  1.0  0.7714
  C  C69  1  0.024800  0.334600  0.515800  1.0  0.7447
  C  C70  1  0.917100  0.074800  0.755500  1.0  0.7111
  C  C71  1  0.008300  0.605400  0.163900  1.0  -0.0796
  C  C72  1  0.036000  0.699400  0.128500  1.0  -0.0631
  C  C73  1  0.956400  0.732200  0.052200  1.0  -0.1405
  C  C74  1  0.856000  0.667900  0.011000  1.0  -0.1036
  C  C75  1  0.835500  0.572300  0.042700  1.0  0.1369
  C  C76  1  0.908900  0.543200  0.121100  1.0  -0.0774
  C  C77  1  0.738200  0.503200  0.991300  1.0  -0.1735
  C  C78  1  0.654500  0.428600  0.045700  1.0  0.1231
  C  C79  1  0.634200  0.333500  0.012500  1.0  -0.1001
  C  C80  1  0.544300  0.266200  0.055900  1.0  -0.1275
  C  C81  1  0.472900  0.295300  0.135400  1.0  -0.0655
  C  C82  1  0.496700  0.389100  0.172200  1.0  -0.0723
  C  C83  1  0.589100  0.454400  0.127400  1.0  -0.0981
  C  C84  1  0.087200  0.567500  0.247400  1.0  0.6991
  C  C85  1  0.976500  0.834700  0.013800  1.0  0.7756
  C  C86  1  0.524800  0.165400  0.015800  1.0  0.7446
  C  C87  1  0.417100  0.425200  0.255500  1.0  0.7122
  C  C88  1  0.491700  0.105400  0.336100  1.0  -0.0792
  C  C89  1  0.464000  0.199400  0.371500  1.0  -0.064
  C  C90  1  0.543600  0.232200  0.447800  1.0  -0.1407
  C  C91  1  0.644000  0.167900  0.489000  1.0  -0.1031
  C  C92  1  0.664500  0.072300  0.457300  1.0  0.1365
  C  C93  1  0.591100  0.043200  0.378900  1.0  -0.0759
  C  C94  1  0.761800  0.003200  0.508700  1.0  -0.1752
  C  C95  1  0.845500  0.928600  0.454300  1.0  0.1228
  C  C96  1  0.865800  0.833500  0.487500  1.0  -0.1004
  C  C97  1  0.955700  0.766200  0.444100  1.0  -0.1276
  C  C98  1  0.027100  0.795300  0.364600  1.0  -0.0682
  C  C99  1  0.003300  0.889100  0.327800  1.0  -0.0741
  C  C100  1  0.910900  0.954400  0.372600  1.0  -0.099
  C  C101  1  0.412800  0.067500  0.252600  1.0  0.6977
  C  C102  1  0.523500  0.334700  0.486200  1.0  0.7732
  C  C103  1  0.975200  0.665400  0.484200  1.0  0.7448
  C  C104  1  0.082900  0.925200  0.244500  1.0  0.7121
  O  O105  1  0.970600  0.502400  0.707300  1.0  -0.6196
  O  O106  1  0.793100  0.395600  0.730600  1.0  -0.6173
  O  O107  1  0.916500  0.117100  0.962100  1.0  -0.7181
  O  O108  1  0.119100  0.134800  0.040200  1.0  -0.6956
  O  O109  1  0.400600  0.857100  0.053900  1.0  -0.7047
  O  O110  1  0.564000  0.892300  0.948800  1.0  -0.7448
  O  O111  1  0.705100  0.612700  0.726300  1.0  -0.6422
  O  O112  1  0.525600  0.508000  0.695900  1.0  -0.6116
  O  O113  1  0.529400  0.002400  0.792700  1.0  -0.62
  O  O114  1  0.706900  0.895600  0.769400  1.0  -0.6165
  O  O115  1  0.583500  0.617100  0.537900  1.0  -0.7186
  O  O116  1  0.380900  0.634800  0.459800  1.0  -0.6964
  O  O117  1  0.099400  0.357100  0.446100  1.0  -0.7036
  O  O118  1  0.936000  0.392300  0.551200  1.0  -0.743
  O  O119  1  0.794900  0.112700  0.773700  1.0  -0.6398
  O  O120  1  0.974400  0.008000  0.804100  1.0  -0.6103
  O  O121  1  0.029400  0.497600  0.292700  1.0  -0.6173
  O  O122  1  0.206900  0.604400  0.269400  1.0  -0.6158
  O  O123  1  0.083500  0.882900  0.037900  1.0  -0.7189
  O  O124  1  0.880900  0.865200  0.959800  1.0  -0.6959
  O  O125  1  0.599400  0.142900  0.946100  1.0  -0.7039
  O  O126  1  0.436000  0.107700  0.051200  1.0  -0.7439
  O  O127  1  0.294900  0.387300  0.273700  1.0  -0.6403
  O  O128  1  0.474400  0.492000  0.304100  1.0  -0.6099
  O  O129  1  0.470600  0.997600  0.207300  1.0  -0.6212
  O  O130  1  0.293100  0.104400  0.230600  1.0  -0.6164
  O  O131  1  0.416500  0.382900  0.462100  1.0  -0.719
  O  O132  1  0.619100  0.365200  0.540200  1.0  -0.6966
  O  O133  1  0.900600  0.642900  0.553900  1.0  -0.7043
  O  O134  1  0.064000  0.607700  0.448800  1.0  -0.7432
  O  O135  1  0.205100  0.887300  0.226300  1.0  -0.6418
  O  O136  1  0.025600  0.992000  0.195900  1.0  -0.6108
