# generated using pymatgen
data_SmH8C17O8
_symmetry_space_group_name_H-M   'P 1'
_cell_length_a   9.21610000
_cell_length_b   13.56180000
_cell_length_c   14.66230000
_cell_angle_alpha   90.00000000
_cell_angle_beta   90.20900000
_cell_angle_gamma   90.00000000
_symmetry_Int_Tables_number   1
_chemical_formula_structural   SmH8C17O8
_chemical_formula_sum   'Sm4 H32 C68 O32'
_cell_volume   1832.58330465
_cell_formula_units_Z   4
loop_
 _symmetry_equiv_pos_site_id
 _symmetry_equiv_pos_as_xyz
  1  'x, y, z'
loop_
 _atom_site_type_symbol
 _atom_site_label
 _atom_site_symmetry_multiplicity
 _atom_site_fract_x
 _atom_site_fract_y
 _atom_site_fract_z
 _atom_site_occupancy
 _atom_site_charge
  Sm  Sm1  1  0.750750  0.997730  0.593060  1.0  2.3252
  Sm  Sm2  1  0.749250  0.497730  0.906940  1.0  2.3243
  Sm  Sm3  1  0.249250  0.002270  0.406940  1.0  2.3245
  Sm  Sm4  1  0.250750  0.502270  0.093060  1.0  2.3253
  H  H5  1  0.595100  0.752200  0.837600  1.0  0.1285
  H  H6  1  0.315100  0.813700  0.042700  1.0  0.1347
  H  H7  1  0.395400  0.018500  0.848400  1.0  0.135
  H  H8  1  0.195500  0.965700  0.053400  1.0  0.1456
  H  H9  1  0.326900  0.041900  0.046400  1.0  0.1442
  H  H10  1  0.196800  0.188700  0.041200  1.0  0.1309
  H  H11  1  0.896200  0.241600  0.843300  1.0  0.1399
  H  H12  1  0.107300  0.979200  0.854100  1.0  0.1413
  H  H13  1  0.904900  0.252200  0.662400  1.0  0.1283
  H  H14  1  0.184900  0.313700  0.457300  1.0  0.1346
  H  H15  1  0.104600  0.518500  0.651600  1.0  0.1349
  H  H16  1  0.304500  0.465700  0.446600  1.0  0.1464
  H  H17  1  0.173100  0.541900  0.453600  1.0  0.145
  H  H18  1  0.303200  0.688700  0.458800  1.0  0.131
  H  H19  1  0.603800  0.741600  0.656700  1.0  0.1396
  H  H20  1  0.392700  0.479200  0.645900  1.0  0.1414
  H  H21  1  0.404900  0.247800  0.162400  1.0  0.1282
  H  H22  1  0.684900  0.186300  0.957300  1.0  0.1346
  H  H23  1  0.604600  0.981500  0.151600  1.0  0.1356
  H  H24  1  0.804500  0.034300  0.946600  1.0  0.1463
  H  H25  1  0.673100  0.958100  0.953600  1.0  0.1449
  H  H26  1  0.803200  0.811300  0.958800  1.0  0.1301
  H  H27  1  0.103800  0.758400  0.156700  1.0  0.1398
  H  H28  1  0.892700  0.020800  0.145900  1.0  0.141
  H  H29  1  0.095100  0.747800  0.337600  1.0  0.1286
  H  H30  1  0.815100  0.686300  0.542700  1.0  0.1349
  H  H31  1  0.895400  0.481500  0.348400  1.0  0.1354
  H  H32  1  0.695500  0.534300  0.553400  1.0  0.1451
  H  H33  1  0.826900  0.458100  0.546400  1.0  0.1452
  H  H34  1  0.696800  0.311300  0.541200  1.0  0.1308
  H  H35  1  0.396200  0.258400  0.343300  1.0  0.1395
  H  H36  1  0.607300  0.520800  0.354100  1.0  0.1409
  C  C37  1  0.503800  0.889100  0.829400  1.0  -0.075
  C  C38  1  0.528400  0.795800  0.866000  1.0  -0.0755
  C  C39  1  0.454800  0.766400  0.944700  1.0  -0.1287
  C  C40  1  0.363700  0.833400  0.988600  1.0  -0.0926
  C  C41  1  0.342300  0.928600  0.955000  1.0  0.1271
  C  C42  1  0.411500  0.954900  0.873800  1.0  -0.09
  C  C43  1  0.257400  0.002400  0.010000  1.0  -0.2668
  C  C44  1  0.162300  0.072400  0.957000  1.0  0.1434
  C  C45  1  0.142600  0.167100  0.989700  1.0  -0.0846
  C  C46  1  0.043400  0.231900  0.947700  1.0  -0.1495
  C  C47  1  0.966700  0.200000  0.870900  1.0  -0.0651
  C  C48  1  0.993900  0.106700  0.834900  1.0  -0.0747
  C  C49  1  0.090600  0.043100  0.878500  1.0  -0.0895
  C  C50  1  0.583000  0.925400  0.746000  1.0  0.7155
  C  C51  1  0.474600  0.665400  0.985700  1.0  0.7252
  C  C52  1  0.025500  0.334700  0.986000  1.0  0.7147
  C  C53  1  0.913900  0.068400  0.752100  1.0  0.6935
  C  C54  1  0.996200  0.389100  0.670600  1.0  -0.0745
  C  C55  1  0.971600  0.295800  0.634000  1.0  -0.0743
  C  C56  1  0.045200  0.266400  0.555300  1.0  -0.1289
  C  C57  1  0.136300  0.333400  0.511400  1.0  -0.0926
  C  C58  1  0.157700  0.428600  0.545000  1.0  0.1278
  C  C59  1  0.088500  0.454900  0.626200  1.0  -0.0895
  C  C60  1  0.242600  0.502400  0.490000  1.0  -0.2667
  C  C61  1  0.337700  0.572400  0.543000  1.0  0.1437
  C  C62  1  0.357400  0.667100  0.510300  1.0  -0.0852
  C  C63  1  0.456600  0.731900  0.552300  1.0  -0.1497
  C  C64  1  0.533300  0.700000  0.629100  1.0  -0.0655
  C  C65  1  0.506100  0.606700  0.665100  1.0  -0.0738
  C  C66  1  0.409400  0.543100  0.621500  1.0  -0.0884
  C  C67  1  0.917000  0.425400  0.754000  1.0  0.7126
  C  C68  1  0.025400  0.165400  0.514300  1.0  0.7245
  C  C69  1  0.474500  0.834700  0.514000  1.0  0.7156
  C  C70  1  0.586100  0.568400  0.747900  1.0  0.6907
  C  C71  1  0.496200  0.110900  0.170600  1.0  -0.0742
  C  C72  1  0.471600  0.204200  0.134000  1.0  -0.0746
  C  C73  1  0.545200  0.233600  0.055300  1.0  -0.1278
  C  C74  1  0.636300  0.166600  0.011400  1.0  -0.0914
  C  C75  1  0.657700  0.071400  0.045000  1.0  0.128
  C  C76  1  0.588500  0.045100  0.126200  1.0  -0.0896
  C  C77  1  0.742600  0.997600  0.990000  1.0  -0.2667
  C  C78  1  0.837700  0.927600  0.043000  1.0  0.1438
  C  C79  1  0.857400  0.832900  0.010300  1.0  -0.0858
  C  C80  1  0.956600  0.768100  0.052300  1.0  -0.1512
  C  C81  1  0.033300  0.800000  0.129100  1.0  -0.0654
  C  C82  1  0.006100  0.893300  0.165100  1.0  -0.0739
  C  C83  1  0.909400  0.956900  0.121500  1.0  -0.088
  C  C84  1  0.417000  0.074600  0.254000  1.0  0.7145
  C  C85  1  0.525400  0.334600  0.014300  1.0  0.7265
  C  C86  1  0.974500  0.665300  0.014000  1.0  0.7148
  C  C87  1  0.086100  0.931600  0.247900  1.0  0.6938
  C  C88  1  0.003800  0.610900  0.329400  1.0  -0.0748
  C  C89  1  0.028400  0.704200  0.366000  1.0  -0.0743
  C  C90  1  0.954800  0.733600  0.444700  1.0  -0.128
  C  C91  1  0.863700  0.666667  0.488600  1.0  -0.0916
  C  C92  1  0.842300  0.571400  0.455000  1.0  0.1274
  C  C93  1  0.911500  0.545100  0.373800  1.0  -0.0903
  C  C94  1  0.757400  0.497600  0.510000  1.0  -0.2669
  C  C95  1  0.662300  0.427600  0.457000  1.0  0.1434
  C  C96  1  0.642600  0.332900  0.489700  1.0  -0.0854
  C  C97  1  0.543400  0.268100  0.447700  1.0  -0.1509
  C  C98  1  0.466700  0.300000  0.370900  1.0  -0.0653
  C  C99  1  0.493900  0.393300  0.334900  1.0  -0.0749
  C  C100  1  0.590600  0.456900  0.378500  1.0  -0.0885
  C  C101  1  0.083000  0.574600  0.246000  1.0  0.7132
  C  C102  1  0.974600  0.834600  0.485700  1.0  0.7247
  C  C103  1  0.525500  0.165300  0.486000  1.0  0.7157
  C  C104  1  0.413900  0.431600  0.252100  1.0  0.6908
  O  O105  1  0.526300  0.992800  0.699300  1.0  -0.6065
  O  O106  1  0.704100  0.888200  0.727800  1.0  -0.6326
  O  O107  1  0.565400  0.608700  0.950300  1.0  -0.7368
  O  O108  1  0.398000  0.642900  0.053200  1.0  -0.7044
  O  O109  1  0.117200  0.362900  0.043200  1.0  -0.6836
  O  O110  1  0.921500  0.383700  0.958800  1.0  -0.7275
  O  O111  1  0.793700  0.106000  0.731000  1.0  -0.6322
  O  O112  1  0.971000  0.999400  0.705800  1.0  -0.6301
  O  O113  1  0.973700  0.492800  0.800700  1.0  -0.6051
  O  O114  1  0.795900  0.388200  0.772200  1.0  -0.6323
  O  O115  1  0.934600  0.108700  0.549700  1.0  -0.738
  O  O116  1  0.102000  0.142900  0.446800  1.0  -0.7046
  O  O117  1  0.382800  0.862900  0.456800  1.0  -0.6832
  O  O118  1  0.578500  0.883700  0.541200  1.0  -0.7272
  O  O119  1  0.706300  0.606000  0.769000  1.0  -0.6319
  O  O120  1  0.529000  0.499400  0.794200  1.0  -0.6287
  O  O121  1  0.473700  0.007200  0.300700  1.0  -0.606
  O  O122  1  0.295900  0.111800  0.272200  1.0  -0.6319
  O  O123  1  0.434600  0.391300  0.049700  1.0  -0.737
  O  O124  1  0.602000  0.357100  0.946800  1.0  -0.7045
  O  O125  1  0.882800  0.637100  0.956800  1.0  -0.6841
  O  O126  1  0.078500  0.616300  0.041200  1.0  -0.7273
  O  O127  1  0.206300  0.894000  0.269000  1.0  -0.6327
  O  O128  1  0.029000  0.000600  0.294200  1.0  -0.6283
  O  O129  1  0.026300  0.507200  0.199300  1.0  -0.6065
  O  O130  1  0.204100  0.611800  0.227800  1.0  -0.6326
  O  O131  1  0.065400  0.891300  0.450300  1.0  -0.7382
  O  O132  1  0.898000  0.857100  0.553200  1.0  -0.7054
  O  O133  1  0.617200  0.137100  0.543200  1.0  -0.6827
  O  O134  1  0.421500  0.116300  0.458800  1.0  -0.7273
  O  O135  1  0.293700  0.394000  0.231000  1.0  -0.633
  O  O136  1  0.471000  0.500600  0.205800  1.0  -0.63
