# generated using pymatgen
data_YbH8C17O8
_symmetry_space_group_name_H-M   'P 1'
_cell_length_a   15.67330000
_cell_length_b   10.70280000
_cell_length_c   23.26310000
_cell_angle_alpha   90.00000000
_cell_angle_beta   90.00000000
_cell_angle_gamma   90.00000000
_symmetry_Int_Tables_number   1
_chemical_formula_structural   YbH8C17O8
_chemical_formula_sum   'Yb8 H64 C136 O64'
_cell_volume   3902.34304069
_cell_formula_units_Z   8
loop_
 _symmetry_equiv_pos_site_id
 _symmetry_equiv_pos_as_xyz
  1  'x, y, z'
loop_
 _atom_site_type_symbol
 _atom_site_label
 _atom_site_symmetry_multiplicity
 _atom_site_fract_x
 _atom_site_fract_y
 _atom_site_fract_z
 _atom_site_occupancy
 _atom_site_charge
  Yb  Yb1  1  0.951890  0.030480  0.084340  1.0  1.542
  Yb  Yb2  1  0.548110  0.469520  0.584340  1.0  1.5416
  Yb  Yb3  1  0.048110  0.030480  0.415660  1.0  1.5424
  Yb  Yb4  1  0.451890  0.469520  0.915660  1.0  1.5417
  Yb  Yb5  1  0.048110  0.969520  0.915660  1.0  1.5422
  Yb  Yb6  1  0.451890  0.530480  0.415660  1.0  1.5421
  Yb  Yb7  1  0.951890  0.969520  0.584340  1.0  1.541
  Yb  Yb8  1  0.548110  0.530480  0.084340  1.0  1.5421
  H  H9  1  0.099400  0.120600  0.267000  1.0  0.1392
  H  H10  1  0.228100  0.441300  0.300800  1.0  0.1388
  H  H11  1  0.098900  0.404400  0.151600  1.0  0.1377
  H  H12  1  0.147300  0.633800  0.227700  1.0  0.1722
  H  H13  1  0.245900  0.596900  0.226600  1.0  0.1622
  H  H14  1  0.308700  0.526900  0.130200  1.0  0.1312
  H  H15  1  0.206000  0.689800  0.989200  1.0  0.1379
  H  H16  1  0.083300  0.708600  0.142000  1.0  0.1396
  H  H17  1  0.400600  0.379400  0.767000  1.0  0.138
  H  H18  1  0.271900  0.058700  0.800800  1.0  0.1385
  H  H19  1  0.401100  0.095600  0.651600  1.0  0.138
  H  H20  1  0.352700  0.866200  0.727700  1.0  0.1721
  H  H21  1  0.254100  0.903100  0.726600  1.0  0.1616
  H  H22  1  0.191300  0.973100  0.630200  1.0  0.1312
  H  H23  1  0.294000  0.810200  0.489200  1.0  0.1385
  H  H24  1  0.416700  0.791400  0.642000  1.0  0.1403
  H  H25  1  0.900600  0.120600  0.233000  1.0  0.1387
  H  H26  1  0.771900  0.441300  0.199200  1.0  0.139
  H  H27  1  0.901100  0.404400  0.348400  1.0  0.1369
  H  H28  1  0.852700  0.633800  0.272300  1.0  0.1729
  H  H29  1  0.754100  0.596900  0.273400  1.0  0.162
  H  H30  1  0.691300  0.526900  0.369800  1.0  0.1311
  H  H31  1  0.794000  0.689800  0.510800  1.0  0.139
  H  H32  1  0.916700  0.708600  0.358000  1.0  0.1409
  H  H33  1  0.599400  0.379400  0.733000  1.0  0.1383
  H  H34  1  0.728100  0.058700  0.699200  1.0  0.1389
  H  H35  1  0.598900  0.095600  0.848400  1.0  0.1376
  H  H36  1  0.647300  0.866200  0.772300  1.0  0.1722
  H  H37  1  0.745900  0.903100  0.773400  1.0  0.1619
  H  H38  1  0.808700  0.973100  0.869800  1.0  0.131
  H  H39  1  0.706000  0.810200  0.010800  1.0  0.1388
  H  H40  1  0.583300  0.791400  0.858000  1.0  0.14
  H  H41  1  0.900600  0.879400  0.733000  1.0  0.138
  H  H42  1  0.771900  0.558700  0.699200  1.0  0.1387
  H  H43  1  0.901100  0.595600  0.848400  1.0  0.137
  H  H44  1  0.852700  0.366200  0.772300  1.0  0.1727
  H  H45  1  0.754100  0.403100  0.773400  1.0  0.1618
  H  H46  1  0.691300  0.473100  0.869800  1.0  0.1313
  H  H47  1  0.794000  0.310200  0.010800  1.0  0.1392
  H  H48  1  0.916700  0.291400  0.858000  1.0  0.1406
  H  H49  1  0.599400  0.620600  0.233000  1.0  0.1387
  H  H50  1  0.728100  0.941300  0.199200  1.0  0.1391
  H  H51  1  0.598900  0.904400  0.348400  1.0  0.1374
  H  H52  1  0.647300  0.133800  0.272300  1.0  0.1723
  H  H53  1  0.745900  0.096900  0.273400  1.0  0.1619
  H  H54  1  0.808700  0.026900  0.369800  1.0  0.1308
  H  H55  1  0.706000  0.189800  0.510800  1.0  0.1388
  H  H56  1  0.583300  0.208600  0.358000  1.0  0.1401
  H  H57  1  0.099400  0.879400  0.767000  1.0  0.1382
  H  H58  1  0.228100  0.558700  0.800800  1.0  0.1391
  H  H59  1  0.098900  0.595600  0.651600  1.0  0.1379
  H  H60  1  0.147300  0.366200  0.727700  1.0  0.1727
  H  H61  1  0.245900  0.403100  0.726600  1.0  0.1622
  H  H62  1  0.308700  0.473100  0.630200  1.0  0.131
  H  H63  1  0.206000  0.310200  0.489200  1.0  0.1381
  H  H64  1  0.083300  0.291400  0.642000  1.0  0.1397
  H  H65  1  0.400600  0.620600  0.267000  1.0  0.1391
  H  H66  1  0.271900  0.941300  0.300800  1.0  0.1386
  H  H67  1  0.401100  0.904400  0.151600  1.0  0.1377
  H  H68  1  0.352700  0.133800  0.227700  1.0  0.1719
  H  H69  1  0.254100  0.096900  0.226600  1.0  0.1617
  H  H70  1  0.191300  0.026900  0.130200  1.0  0.1314
  H  H71  1  0.294000  0.189800  0.989200  1.0  0.1384
  H  H72  1  0.416700  0.208600  0.142000  1.0  0.1405
  C  C73  1  0.093560  0.249800  0.202810  1.0  -0.1082
  C  C74  1  0.116920  0.202200  0.255980  1.0  -0.0555
  C  C75  1  0.166230  0.274400  0.293400  1.0  -0.0598
  C  C76  1  0.192270  0.393700  0.276240  1.0  -0.062
  C  C77  1  0.166600  0.444000  0.223740  1.0  0.1301
  C  C78  1  0.117070  0.371300  0.187400  1.0  -0.0619
  C  C79  1  0.189600  0.578100  0.209250  1.0  -0.2728
  C  C80  1  0.193610  0.610000  0.145930  1.0  0.1377
  C  C81  1  0.263930  0.573200  0.112800  1.0  -0.063
  C  C82  1  0.269020  0.603300  0.054810  1.0  -0.0864
  C  C83  1  0.203600  0.671300  0.029140  1.0  0.0091
  C  C84  1  0.134640  0.712400  0.061860  1.0  -0.1173
  C  C85  1  0.130530  0.680900  0.119790  1.0  -0.0771
  C  C86  1  0.042490  0.174100  0.161490  1.0  0.6936
  C  C87  1  0.192540  0.221700  0.350980  1.0  0.7587
  C  C88  1  0.345280  0.567500  0.019360  1.0  0.7637
  C  C89  1  0.069240  0.796300  0.034680  1.0  0.7632
  C  C90  1  0.406440  0.250200  0.702810  1.0  -0.1084
  C  C91  1  0.383080  0.297800  0.755980  1.0  -0.0553
  C  C92  1  0.333770  0.225600  0.793400  1.0  -0.0601
  C  C93  1  0.307730  0.106300  0.776240  1.0  -0.0622
  C  C94  1  0.333400  0.056000  0.723740  1.0  0.1299
  C  C95  1  0.382930  0.128700  0.687400  1.0  -0.0618
  C  C96  1  0.310400  0.921900  0.709250  1.0  -0.2735
  C  C97  1  0.306390  0.890000  0.645930  1.0  0.1382
  C  C98  1  0.236070  0.926800  0.612800  1.0  -0.0615
  C  C99  1  0.230980  0.896700  0.554810  1.0  -0.0865
  C  C100  1  0.296400  0.828700  0.529140  1.0  0.008
  C  C101  1  0.365360  0.787600  0.561860  1.0  -0.1168
  C  C102  1  0.369470  0.819100  0.619790  1.0  -0.0766
  C  C103  1  0.457510  0.325900  0.661490  1.0  0.6939
  C  C104  1  0.307460  0.278300  0.850980  1.0  0.7579
  C  C105  1  0.154720  0.932500  0.519360  1.0  0.7639
  C  C106  1  0.430760  0.703700  0.534680  1.0  0.7614
  C  C107  1  0.906440  0.249800  0.297190  1.0  -0.1081
  C  C108  1  0.883080  0.202200  0.244020  1.0  -0.0547
  C  C109  1  0.833770  0.274400  0.206600  1.0  -0.0601
  C  C110  1  0.807730  0.393700  0.223760  1.0  -0.0612
  C  C111  1  0.833400  0.444000  0.276260  1.0  0.1297
  C  C112  1  0.882930  0.371300  0.312600  1.0  -0.0619
  C  C113  1  0.810400  0.578100  0.290750  1.0  -0.2748
  C  C114  1  0.806390  0.610000  0.354070  1.0  0.1387
  C  C115  1  0.736070  0.573200  0.387200  1.0  -0.0625
  C  C116  1  0.730980  0.603300  0.445190  1.0  -0.0875
  C  C117  1  0.796400  0.671300  0.470860  1.0  0.0072
  C  C118  1  0.865360  0.712400  0.438140  1.0  -0.1177
  C  C119  1  0.869470  0.680900  0.380210  1.0  -0.0778
  C  C120  1  0.957510  0.174100  0.338510  1.0  0.6931
  C  C121  1  0.807460  0.221700  0.149020  1.0  0.7614
  C  C122  1  0.654720  0.567500  0.480640  1.0  0.7633
  C  C123  1  0.930760  0.796300  0.465320  1.0  0.7616
  C  C124  1  0.593560  0.250200  0.797190  1.0  -0.1082
  C  C125  1  0.616920  0.297800  0.744020  1.0  -0.0551
  C  C126  1  0.666230  0.225600  0.706600  1.0  -0.0585
  C  C127  1  0.692270  0.106300  0.723760  1.0  -0.0628
  C  C128  1  0.666667  0.056000  0.776260  1.0  0.13
  C  C129  1  0.617070  0.128700  0.812600  1.0  -0.0619
  C  C130  1  0.689600  0.921900  0.790750  1.0  -0.2723
  C  C131  1  0.693610  0.890000  0.854070  1.0  0.1381
  C  C132  1  0.763930  0.926800  0.887200  1.0  -0.0617
  C  C133  1  0.769020  0.896700  0.945190  1.0  -0.0874
  C  C134  1  0.703600  0.828700  0.970860  1.0  0.0069
  C  C135  1  0.634640  0.787600  0.938140  1.0  -0.1158
  C  C136  1  0.630530  0.819100  0.880210  1.0  -0.0765
  C  C137  1  0.542490  0.325900  0.838510  1.0  0.6926
  C  C138  1  0.692540  0.278300  0.649020  1.0  0.7595
  C  C139  1  0.845280  0.932500  0.980640  1.0  0.7643
  C  C140  1  0.569240  0.703700  0.965320  1.0  0.7631
  C  C141  1  0.906440  0.750200  0.797190  1.0  -0.1083
  C  C142  1  0.883080  0.797800  0.744020  1.0  -0.0554
  C  C143  1  0.833770  0.725600  0.706600  1.0  -0.0599
  C  C144  1  0.807730  0.606300  0.723760  1.0  -0.0609
  C  C145  1  0.833400  0.556000  0.776260  1.0  0.1296
  C  C146  1  0.882930  0.628700  0.812600  1.0  -0.0627
  C  C147  1  0.810400  0.421900  0.790750  1.0  -0.2729
  C  C148  1  0.806390  0.390000  0.854070  1.0  0.1386
  C  C149  1  0.736070  0.426800  0.887200  1.0  -0.0616
  C  C150  1  0.730980  0.396700  0.945190  1.0  -0.0879
  C  C151  1  0.796400  0.328700  0.970860  1.0  0.0065
  C  C152  1  0.865360  0.287600  0.938140  1.0  -0.1171
  C  C153  1  0.869470  0.319100  0.880210  1.0  -0.0777
  C  C154  1  0.957510  0.825900  0.838510  1.0  0.6934
  C  C155  1  0.807460  0.778300  0.649020  1.0  0.7612
  C  C156  1  0.654720  0.432500  0.980640  1.0  0.7466
  C  C157  1  0.930760  0.203700  0.965320  1.0  0.7615
  C  C158  1  0.593560  0.749800  0.297190  1.0  -0.1078
  C  C159  1  0.616920  0.702200  0.244020  1.0  -0.0551
  C  C160  1  0.666230  0.774400  0.206600  1.0  -0.0589
  C  C161  1  0.692270  0.893700  0.223760  1.0  -0.0631
  C  C162  1  0.666667  0.944000  0.276260  1.0  0.13
  C  C163  1  0.617070  0.871300  0.312600  1.0  -0.0611
  C  C164  1  0.689600  0.078100  0.290750  1.0  -0.2734
  C  C165  1  0.693610  0.110000  0.354070  1.0  0.1381
  C  C166  1  0.763930  0.073200  0.387200  1.0  -0.0629
  C  C167  1  0.769020  0.103300  0.445190  1.0  -0.0869
  C  C168  1  0.703600  0.171300  0.470860  1.0  0.0075
  C  C169  1  0.634640  0.212400  0.438140  1.0  -0.1166
  C  C170  1  0.630530  0.180900  0.380210  1.0  -0.077
  C  C171  1  0.542490  0.674100  0.338510  1.0  0.6926
  C  C172  1  0.692540  0.721700  0.149020  1.0  0.7598
  C  C173  1  0.845280  0.067500  0.480640  1.0  0.747
  C  C174  1  0.569240  0.296300  0.465320  1.0  0.7631
  C  C175  1  0.093560  0.750200  0.702810  1.0  -0.1083
  C  C176  1  0.116920  0.797800  0.755980  1.0  -0.0553
  C  C177  1  0.166230  0.725600  0.793400  1.0  -0.0596
  C  C178  1  0.192270  0.606300  0.776240  1.0  -0.0623
  C  C179  1  0.166600  0.556000  0.723740  1.0  0.13
  C  C180  1  0.117070  0.628700  0.687400  1.0  -0.0621
  C  C181  1  0.189600  0.421900  0.709250  1.0  -0.2723
  C  C182  1  0.193610  0.390000  0.645930  1.0  0.1376
  C  C183  1  0.263930  0.426800  0.612800  1.0  -0.0618
  C  C184  1  0.269020  0.396700  0.554810  1.0  -0.086
  C  C185  1  0.203600  0.328700  0.529140  1.0  0.0093
  C  C186  1  0.134640  0.287600  0.561860  1.0  -0.1168
  C  C187  1  0.130530  0.319100  0.619790  1.0  -0.0765
  C  C188  1  0.042490  0.825900  0.661490  1.0  0.6937
  C  C189  1  0.192540  0.778300  0.850980  1.0  0.7591
  C  C190  1  0.345280  0.432500  0.519360  1.0  0.747
  C  C191  1  0.069240  0.203700  0.534680  1.0  0.763
  C  C192  1  0.406440  0.749800  0.202810  1.0  -0.1084
  C  C193  1  0.383080  0.702200  0.255980  1.0  -0.0549
  C  C194  1  0.333770  0.774400  0.293400  1.0  -0.0602
  C  C195  1  0.307730  0.893700  0.276240  1.0  -0.0622
  C  C196  1  0.333400  0.944000  0.223740  1.0  0.1302
  C  C197  1  0.382930  0.871300  0.187400  1.0  -0.0619
  C  C198  1  0.310400  0.078100  0.209250  1.0  -0.2748
  C  C199  1  0.306390  0.110000  0.145930  1.0  0.1383
  C  C200  1  0.236070  0.073200  0.112800  1.0  -0.0624
  C  C201  1  0.230980  0.103300  0.054810  1.0  -0.087
  C  C202  1  0.296400  0.171300  0.029140  1.0  0.0079
  C  C203  1  0.365360  0.212400  0.061860  1.0  -0.1173
  C  C204  1  0.369470  0.180900  0.119790  1.0  -0.0768
  C  C205  1  0.457510  0.674100  0.161490  1.0  0.6936
  C  C206  1  0.307460  0.721700  0.350980  1.0  0.7572
  C  C207  1  0.154720  0.067500  0.019360  1.0  0.7465
  C  C208  1  0.430760  0.296300  0.034680  1.0  0.7615
  O  O209  1  0.008030  0.226550  0.119440  1.0  -0.5753
  O  O210  1  0.034220  0.056080  0.169000  1.0  -0.5967
  O  O211  1  0.157720  0.122100  0.367450  1.0  -0.7018
  O  O212  1  0.248350  0.277100  0.379660  1.0  -0.5115
  O  O213  1  0.416120  0.554810  0.043360  1.0  -0.7101
  O  O214  1  0.333940  0.552040  0.965760  1.0  -0.6118
  O  O215  1  0.080140  0.822050  0.982440  1.0  -0.6223
  O  O216  1  0.009140  0.835220  0.065700  1.0  -0.6498
  O  O217  1  0.491970  0.273450  0.619440  1.0  -0.5762
  O  O218  1  0.465780  0.443920  0.669000  1.0  -0.5956
  O  O219  1  0.342280  0.377900  0.867450  1.0  -0.7022
  O  O220  1  0.251650  0.222900  0.879660  1.0  -0.5111
  O  O221  1  0.083880  0.945190  0.543360  1.0  -0.7114
  O  O222  1  0.166060  0.947960  0.465760  1.0  -0.6136
  O  O223  1  0.419860  0.677950  0.482440  1.0  -0.621
  O  O224  1  0.490860  0.664780  0.565700  1.0  -0.6497
  O  O225  1  0.991970  0.226550  0.380560  1.0  -0.5768
  O  O226  1  0.965780  0.056080  0.331000  1.0  -0.5973
  O  O227  1  0.842280  0.122100  0.132550  1.0  -0.702
  O  O228  1  0.751650  0.277100  0.120340  1.0  -0.5119
  O  O229  1  0.583880  0.554810  0.456640  1.0  -0.7111
  O  O230  1  0.666060  0.552040  0.534240  1.0  -0.6159
  O  O231  1  0.919860  0.822050  0.517560  1.0  -0.6209
  O  O232  1  0.990860  0.835220  0.434300  1.0  -0.6504
  O  O233  1  0.508030  0.273450  0.880560  1.0  -0.5781
  O  O234  1  0.534220  0.443920  0.831000  1.0  -0.5957
  O  O235  1  0.657720  0.377900  0.632550  1.0  -0.7011
  O  O236  1  0.748350  0.222900  0.620340  1.0  -0.5112
  O  O237  1  0.916120  0.945190  0.956640  1.0  -0.7099
  O  O238  1  0.833940  0.947960  0.034240  1.0  -0.6193
  O  O239  1  0.580140  0.677950  0.017560  1.0  -0.6216
  O  O240  1  0.509140  0.664780  0.934300  1.0  -0.6512
  O  O241  1  0.991970  0.773450  0.880560  1.0  -0.5772
  O  O242  1  0.965780  0.943920  0.831000  1.0  -0.5954
  O  O243  1  0.842280  0.877900  0.632550  1.0  -0.7021
  O  O244  1  0.751650  0.722900  0.620340  1.0  -0.5121
  O  O245  1  0.583880  0.445190  0.956640  1.0  -0.7111
  O  O246  1  0.666060  0.447960  0.034240  1.0  -0.6157
  O  O247  1  0.919860  0.177950  0.017560  1.0  -0.6208
  O  O248  1  0.990860  0.164780  0.934300  1.0  -0.6502
  O  O249  1  0.508030  0.726550  0.380560  1.0  -0.5777
  O  O250  1  0.534220  0.556080  0.331000  1.0  -0.5968
  O  O251  1  0.657720  0.622100  0.132550  1.0  -0.702
  O  O252  1  0.748350  0.777100  0.120340  1.0  -0.511
  O  O253  1  0.916120  0.054810  0.456640  1.0  -0.7099
  O  O254  1  0.833940  0.052040  0.534240  1.0  -0.6197
  O  O255  1  0.580140  0.322050  0.517560  1.0  -0.6212
  O  O256  1  0.509140  0.335220  0.434300  1.0  -0.6508
  O  O257  1  0.008030  0.773450  0.619440  1.0  -0.577
  O  O258  1  0.034220  0.943920  0.669000  1.0  -0.5961
  O  O259  1  0.157720  0.877900  0.867450  1.0  -0.7016
  O  O260  1  0.248350  0.722900  0.879660  1.0  -0.5118
  O  O261  1  0.416120  0.445190  0.543360  1.0  -0.7099
  O  O262  1  0.333940  0.447960  0.465760  1.0  -0.6111
  O  O263  1  0.080140  0.177950  0.482440  1.0  -0.6219
  O  O264  1  0.009140  0.164780  0.565700  1.0  -0.6509
  O  O265  1  0.491970  0.726550  0.119440  1.0  -0.5748
  O  O266  1  0.465780  0.556080  0.169000  1.0  -0.5974
  O  O267  1  0.342280  0.622100  0.367450  1.0  -0.7011
  O  O268  1  0.251650  0.777100  0.379660  1.0  -0.5108
  O  O269  1  0.083880  0.054810  0.043360  1.0  -0.7114
  O  O270  1  0.166060  0.052040  0.965760  1.0  -0.6146
  O  O271  1  0.419860  0.322050  0.982440  1.0  -0.6221
  O  O272  1  0.490860  0.335220  0.065700  1.0  -0.6493
