# generated using pymatgen
data_TmH8C17O8
_symmetry_space_group_name_H-M   'P 1'
_cell_length_a   15.69580000
_cell_length_b   10.69840000
_cell_length_c   23.26440000
_cell_angle_alpha   90.00000000
_cell_angle_beta   90.00000000
_cell_angle_gamma   90.00000000
_symmetry_Int_Tables_number   1
_chemical_formula_structural   TmH8C17O8
_chemical_formula_sum   'Tm8 H64 C136 O64'
_cell_volume   3906.55680847
_cell_formula_units_Z   8
loop_
 _symmetry_equiv_pos_site_id
 _symmetry_equiv_pos_as_xyz
  1  'x, y, z'
loop_
 _atom_site_type_symbol
 _atom_site_label
 _atom_site_symmetry_multiplicity
 _atom_site_fract_x
 _atom_site_fract_y
 _atom_site_fract_z
 _atom_site_occupancy
 _atom_site_charge
  Tm  Tm1  1  0.547840  0.030630  0.084130  1.0  2.1748
  Tm  Tm2  1  0.952160  0.469370  0.584130  1.0  2.1743
  Tm  Tm3  1  0.452160  0.030630  0.415870  1.0  2.1756
  Tm  Tm4  1  0.047840  0.469370  0.915870  1.0  2.1753
  Tm  Tm5  1  0.452160  0.969370  0.915870  1.0  2.1753
  Tm  Tm6  1  0.047840  0.530630  0.415870  1.0  2.1758
  Tm  Tm7  1  0.547840  0.969370  0.584130  1.0  2.1739
  Tm  Tm8  1  0.952160  0.530630  0.084130  1.0  2.1748
  H  H9  1  0.400300  0.121400  0.267000  1.0  0.1207
  H  H10  1  0.271500  0.440200  0.300800  1.0  0.1208
  H  H11  1  0.400000  0.404100  0.151300  1.0  0.1196
  H  H12  1  0.253400  0.596500  0.226500  1.0  0.1436
  H  H13  1  0.351800  0.633900  0.227400  1.0  0.152
  H  H14  1  0.190800  0.526400  0.130200  1.0  0.1141
  H  H15  1  0.294500  0.689900  0.989300  1.0  0.1197
  H  H16  1  0.416400  0.707900  0.142300  1.0  0.1228
  H  H17  1  0.099700  0.378600  0.767000  1.0  0.1199
  H  H18  1  0.228500  0.059800  0.800800  1.0  0.1214
  H  H19  1  0.100000  0.095900  0.651300  1.0  0.1197
  H  H20  1  0.246600  0.903500  0.726500  1.0  0.1439
  H  H21  1  0.148200  0.866100  0.727400  1.0  0.1532
  H  H22  1  0.309200  0.973600  0.630200  1.0  0.1138
  H  H23  1  0.205500  0.810100  0.489300  1.0  0.1193
  H  H24  1  0.083600  0.792100  0.642300  1.0  0.1217
  H  H25  1  0.599700  0.121400  0.233000  1.0  0.12
  H  H26  1  0.728500  0.440200  0.199200  1.0  0.1214
  H  H27  1  0.600000  0.404100  0.348700  1.0  0.1197
  H  H28  1  0.746600  0.596500  0.273500  1.0  0.1438
  H  H29  1  0.648200  0.633900  0.272600  1.0  0.1531
  H  H30  1  0.809200  0.526400  0.369800  1.0  0.1134
  H  H31  1  0.705500  0.689900  0.510700  1.0  0.1201
  H  H32  1  0.583600  0.707900  0.357700  1.0  0.1221
  H  H33  1  0.900300  0.378600  0.733000  1.0  0.1198
  H  H34  1  0.771500  0.059800  0.699200  1.0  0.1211
  H  H35  1  0.900000  0.095900  0.848700  1.0  0.1194
  H  H36  1  0.753400  0.903500  0.773500  1.0  0.1438
  H  H37  1  0.851800  0.866100  0.772600  1.0  0.1526
  H  H38  1  0.690800  0.973600  0.869800  1.0  0.1141
  H  H39  1  0.794500  0.810100  0.010700  1.0  0.1203
  H  H40  1  0.916400  0.792100  0.857700  1.0  0.1228
  H  H41  1  0.599700  0.878600  0.733000  1.0  0.1198
  H  H42  1  0.728500  0.559800  0.699200  1.0  0.1213
  H  H43  1  0.600000  0.595900  0.848700  1.0  0.1199
  H  H44  1  0.746600  0.403500  0.773500  1.0  0.1438
  H  H45  1  0.648200  0.366100  0.772600  1.0  0.1532
  H  H46  1  0.809200  0.473600  0.869800  1.0  0.1137
  H  H47  1  0.705500  0.310100  0.010700  1.0  0.1203
  H  H48  1  0.583600  0.292100  0.857700  1.0  0.1219
  H  H49  1  0.900300  0.621400  0.233000  1.0  0.1202
  H  H50  1  0.771500  0.940200  0.199200  1.0  0.1213
  H  H51  1  0.900000  0.904100  0.348700  1.0  0.1194
  H  H52  1  0.753400  0.096500  0.273500  1.0  0.144
  H  H53  1  0.851800  0.133900  0.272600  1.0  0.1528
  H  H54  1  0.690800  0.026400  0.369800  1.0  0.1137
  H  H55  1  0.794500  0.189900  0.510700  1.0  0.1207
  H  H56  1  0.916400  0.207900  0.357700  1.0  0.1232
  H  H57  1  0.400300  0.878600  0.767000  1.0  0.12
  H  H58  1  0.271500  0.559800  0.800800  1.0  0.1209
  H  H59  1  0.400000  0.595900  0.651300  1.0  0.1199
  H  H60  1  0.253400  0.403500  0.726500  1.0  0.1435
  H  H61  1  0.351800  0.366100  0.727400  1.0  0.1521
  H  H62  1  0.190800  0.473600  0.630200  1.0  0.114
  H  H63  1  0.294500  0.310100  0.489300  1.0  0.1198
  H  H64  1  0.416400  0.292100  0.642300  1.0  0.1226
  H  H65  1  0.099700  0.621400  0.267000  1.0  0.1205
  H  H66  1  0.228500  0.940200  0.300800  1.0  0.1211
  H  H67  1  0.100000  0.904100  0.151300  1.0  0.1193
  H  H68  1  0.246600  0.096500  0.226500  1.0  0.1439
  H  H69  1  0.148200  0.133900  0.227400  1.0  0.1528
  H  H70  1  0.309200  0.026400  0.130200  1.0  0.1139
  H  H71  1  0.205500  0.189900  0.989300  1.0  0.1191
  H  H72  1  0.083600  0.207900  0.142300  1.0  0.1217
  C  C73  1  0.405970  0.250100  0.203080  1.0  -0.1217
  C  C74  1  0.382750  0.202900  0.256000  1.0  -0.0686
  C  C75  1  0.333620  0.274900  0.293250  1.0  -0.0834
  C  C76  1  0.307540  0.392900  0.276200  1.0  -0.095
  C  C77  1  0.332990  0.443800  0.223710  1.0  0.0876
  C  C78  1  0.382200  0.371300  0.187310  1.0  -0.0864
  C  C79  1  0.309600  0.577900  0.209100  1.0  -0.2966
  C  C80  1  0.305290  0.609800  0.145900  1.0  0.1221
  C  C81  1  0.235500  0.572900  0.112810  1.0  -0.0819
  C  C82  1  0.230470  0.603100  0.054570  1.0  -0.108
  C  C83  1  0.296500  0.671300  0.029190  1.0  -0.0109
  C  C84  1  0.364950  0.711700  0.062010  1.0  -0.1329
  C  C85  1  0.369220  0.680600  0.120030  1.0  -0.0737
  C  C86  1  0.457150  0.174200  0.161400  1.0  0.6896
  C  C87  1  0.307700  0.221900  0.350730  1.0  0.737
  C  C88  1  0.155020  0.566700  0.018860  1.0  0.7471
  C  C89  1  0.430580  0.795300  0.034760  1.0  0.7502
  C  C90  1  0.094030  0.249900  0.703080  1.0  -0.1217
  C  C91  1  0.117250  0.297100  0.756000  1.0  -0.0689
  C  C92  1  0.166380  0.225100  0.793250  1.0  -0.0824
  C  C93  1  0.192460  0.107100  0.776200  1.0  -0.0945
  C  C94  1  0.167010  0.056200  0.723710  1.0  0.0876
  C  C95  1  0.117800  0.128700  0.687310  1.0  -0.0869
  C  C96  1  0.190400  0.922100  0.709100  1.0  -0.2933
  C  C97  1  0.194710  0.890200  0.645900  1.0  0.1215
  C  C98  1  0.264500  0.927100  0.612810  1.0  -0.082
  C  C99  1  0.269530  0.896900  0.554570  1.0  -0.107
  C  C100  1  0.203500  0.828700  0.529190  1.0  -0.0093
  C  C101  1  0.135050  0.788300  0.562010  1.0  -0.1326
  C  C102  1  0.130780  0.819400  0.620030  1.0  -0.0739
  C  C103  1  0.042850  0.325800  0.661400  1.0  0.6902
  C  C104  1  0.192300  0.278100  0.850730  1.0  0.739
  C  C105  1  0.344980  0.933300  0.518860  1.0  0.7475
  C  C106  1  0.069420  0.704700  0.534760  1.0  0.751
  C  C107  1  0.594030  0.250100  0.296920  1.0  -0.1223
  C  C108  1  0.617250  0.202900  0.244000  1.0  -0.0688
  C  C109  1  0.666380  0.274900  0.206750  1.0  -0.0828
  C  C110  1  0.692460  0.392900  0.223800  1.0  -0.0954
  C  C111  1  0.667010  0.443800  0.276290  1.0  0.087
  C  C112  1  0.617800  0.371300  0.312690  1.0  -0.0857
  C  C113  1  0.690400  0.577900  0.290900  1.0  -0.2928
  C  C114  1  0.694710  0.609800  0.354100  1.0  0.122
  C  C115  1  0.764500  0.572900  0.387190  1.0  -0.0829
  C  C116  1  0.769530  0.603100  0.445430  1.0  -0.1082
  C  C117  1  0.703500  0.671300  0.470810  1.0  -0.0124
  C  C118  1  0.635050  0.711700  0.437990  1.0  -0.1329
  C  C119  1  0.630780  0.680600  0.379970  1.0  -0.074
  C  C120  1  0.542850  0.174200  0.338600  1.0  0.6888
  C  C121  1  0.692300  0.221900  0.149270  1.0  0.7394
  C  C122  1  0.844980  0.566700  0.481140  1.0  0.7481
  C  C123  1  0.569420  0.795300  0.465240  1.0  0.7507
  C  C124  1  0.905970  0.249900  0.796920  1.0  -0.1224
  C  C125  1  0.882750  0.297100  0.744000  1.0  -0.0692
  C  C126  1  0.833620  0.225100  0.706750  1.0  -0.0843
  C  C127  1  0.807540  0.107100  0.723800  1.0  -0.094
  C  C128  1  0.832990  0.056200  0.776290  1.0  0.0874
  C  C129  1  0.882200  0.128700  0.812690  1.0  -0.0871
  C  C130  1  0.809600  0.922100  0.790900  1.0  -0.2923
  C  C131  1  0.805290  0.890200  0.854100  1.0  0.1222
  C  C132  1  0.735500  0.927100  0.887190  1.0  -0.0818
  C  C133  1  0.730470  0.896900  0.945430  1.0  -0.1087
  C  C134  1  0.796500  0.828700  0.970810  1.0  -0.0134
  C  C135  1  0.864950  0.788300  0.937990  1.0  -0.1337
  C  C136  1  0.869220  0.819400  0.879970  1.0  -0.0744
  C  C137  1  0.957150  0.325800  0.838600  1.0  0.6897
  C  C138  1  0.807700  0.278100  0.649270  1.0  0.7413
  C  C139  1  0.655020  0.933300  0.981140  1.0  0.7478
  C  C140  1  0.930580  0.704700  0.965240  1.0  0.7498
  C  C141  1  0.594030  0.749900  0.796920  1.0  -0.1223
  C  C142  1  0.617250  0.797100  0.744000  1.0  -0.0689
  C  C143  1  0.666380  0.725100  0.706750  1.0  -0.0825
  C  C144  1  0.692460  0.607100  0.723800  1.0  -0.0951
  C  C145  1  0.667010  0.556200  0.776290  1.0  0.0872
  C  C146  1  0.617800  0.628700  0.812690  1.0  -0.087
  C  C147  1  0.690400  0.422100  0.790900  1.0  -0.291
  C  C148  1  0.694710  0.390200  0.854100  1.0  0.1219
  C  C149  1  0.764500  0.427100  0.887190  1.0  -0.0819
  C  C150  1  0.769530  0.396900  0.945430  1.0  -0.1083
  C  C151  1  0.703500  0.328700  0.970810  1.0  -0.013
  C  C152  1  0.635050  0.288300  0.937990  1.0  -0.1324
  C  C153  1  0.630780  0.319400  0.879970  1.0  -0.0739
  C  C154  1  0.542850  0.825800  0.838600  1.0  0.6892
  C  C155  1  0.692300  0.778100  0.649270  1.0  0.7391
  C  C156  1  0.844980  0.433300  0.981140  1.0  0.7492
  C  C157  1  0.569420  0.204700  0.965240  1.0  0.7509
  C  C158  1  0.905970  0.750100  0.296920  1.0  -0.1225
  C  C159  1  0.882750  0.702900  0.244000  1.0  -0.0685
  C  C160  1  0.833620  0.774900  0.206750  1.0  -0.0845
  C  C161  1  0.807540  0.892900  0.223800  1.0  -0.0944
  C  C162  1  0.832990  0.943800  0.276290  1.0  0.0872
  C  C163  1  0.882200  0.871300  0.312690  1.0  -0.086
  C  C164  1  0.809600  0.077900  0.290900  1.0  -0.2945
  C  C165  1  0.805290  0.109800  0.354100  1.0  0.1223
  C  C166  1  0.735500  0.072900  0.387190  1.0  -0.0826
  C  C167  1  0.730470  0.103100  0.445430  1.0  -0.1086
  C  C168  1  0.796500  0.171300  0.470810  1.0  -0.0127
  C  C169  1  0.864950  0.211700  0.437990  1.0  -0.1341
  C  C170  1  0.869220  0.180600  0.379970  1.0  -0.0743
  C  C171  1  0.957150  0.674200  0.338600  1.0  0.6891
  C  C172  1  0.807700  0.721900  0.149270  1.0  0.7414
  C  C173  1  0.655020  0.066700  0.481140  1.0  0.7482
  C  C174  1  0.930580  0.295300  0.465240  1.0  0.7502
  C  C175  1  0.405970  0.749900  0.703080  1.0  -0.1216
  C  C176  1  0.382750  0.797100  0.756000  1.0  -0.0691
  C  C177  1  0.333620  0.725100  0.793250  1.0  -0.0832
  C  C178  1  0.307540  0.607100  0.776200  1.0  -0.0949
  C  C179  1  0.332990  0.556200  0.723710  1.0  0.0876
  C  C180  1  0.382200  0.628700  0.687310  1.0  -0.0868
  C  C181  1  0.309600  0.422100  0.709100  1.0  -0.2946
  C  C182  1  0.305290  0.390200  0.645900  1.0  0.1219
  C  C183  1  0.235500  0.427100  0.612810  1.0  -0.0817
  C  C184  1  0.230470  0.396900  0.554570  1.0  -0.1075
  C  C185  1  0.296500  0.328700  0.529190  1.0  -0.0107
  C  C186  1  0.364950  0.288300  0.562010  1.0  -0.1327
  C  C187  1  0.369220  0.319400  0.620030  1.0  -0.0737
  C  C188  1  0.457150  0.825800  0.661400  1.0  0.6902
  C  C189  1  0.307700  0.778100  0.850730  1.0  0.7378
  C  C190  1  0.155020  0.433300  0.518860  1.0  0.7483
  C  C191  1  0.430580  0.204700  0.534760  1.0  0.7497
  C  C192  1  0.094030  0.750100  0.203080  1.0  -0.1219
  C  C193  1  0.117250  0.702900  0.256000  1.0  -0.069
  C  C194  1  0.166380  0.774900  0.293250  1.0  -0.0825
  C  C195  1  0.192460  0.892900  0.276200  1.0  -0.0942
  C  C196  1  0.167010  0.943800  0.223710  1.0  0.0877
  C  C197  1  0.117800  0.871300  0.187310  1.0  -0.0863
  C  C198  1  0.190400  0.077900  0.209100  1.0  -0.2947
  C  C199  1  0.194710  0.109800  0.145900  1.0  0.1216
  C  C200  1  0.264500  0.072900  0.112810  1.0  -0.0824
  C  C201  1  0.269530  0.103100  0.054570  1.0  -0.1075
  C  C202  1  0.203500  0.171300  0.029190  1.0  -0.0096
  C  C203  1  0.135050  0.211700  0.062010  1.0  -0.133
  C  C204  1  0.130780  0.180600  0.120030  1.0  -0.0742
  C  C205  1  0.042850  0.674200  0.161400  1.0  0.6897
  C  C206  1  0.192300  0.721900  0.350730  1.0  0.7382
  C  C207  1  0.344980  0.066700  0.018860  1.0  0.7482
  C  C208  1  0.069420  0.295300  0.034760  1.0  0.7511
  O  O209  1  0.491120  0.226200  0.119400  1.0  -0.616
  O  O210  1  0.464950  0.056300  0.169000  1.0  -0.6111
  O  O211  1  0.657830  0.122700  0.132570  1.0  -0.7174
  O  O212  1  0.251380  0.277000  0.379200  1.0  -0.5256
  O  O213  1  0.415930  0.054200  0.042740  1.0  -0.7262
  O  O214  1  0.666830  0.948600  0.034480  1.0  -0.6391
  O  O215  1  0.579710  0.179000  0.017350  1.0  -0.6561
  O  O216  1  0.490580  0.834300  0.065980  1.0  -0.6755
  O  O217  1  0.008880  0.273800  0.619400  1.0  -0.618
  O  O218  1  0.035050  0.443700  0.669000  1.0  -0.6091
  O  O219  1  0.842170  0.377300  0.632570  1.0  -0.7183
  O  O220  1  0.248620  0.223000  0.879200  1.0  -0.5269
  O  O221  1  0.084070  0.445800  0.542740  1.0  -0.727
  O  O222  1  0.833170  0.551400  0.534480  1.0  -0.6406
  O  O223  1  0.920290  0.321000  0.517350  1.0  -0.6559
  O  O224  1  0.009420  0.665700  0.565980  1.0  -0.6776
  O  O225  1  0.508880  0.226200  0.380600  1.0  -0.6176
  O  O226  1  0.535050  0.056300  0.331000  1.0  -0.6107
  O  O227  1  0.342170  0.122700  0.367430  1.0  -0.7183
  O  O228  1  0.748620  0.277000  0.120800  1.0  -0.526
  O  O229  1  0.584070  0.054200  0.457260  1.0  -0.727
  O  O230  1  0.333170  0.948600  0.465520  1.0  -0.6355
  O  O231  1  0.420290  0.179000  0.482650  1.0  -0.6551
  O  O232  1  0.509420  0.834300  0.434020  1.0  -0.6773
  O  O233  1  0.991120  0.273800  0.880600  1.0  -0.6185
  O  O234  1  0.964950  0.443700  0.831000  1.0  -0.609
  O  O235  1  0.157830  0.377300  0.867430  1.0  -0.7178
  O  O236  1  0.751380  0.223000  0.620800  1.0  -0.5271
  O  O237  1  0.915930  0.445800  0.957260  1.0  -0.7263
  O  O238  1  0.166830  0.551400  0.965520  1.0  -0.6357
  O  O239  1  0.079710  0.321000  0.982650  1.0  -0.6565
  O  O240  1  0.990580  0.665700  0.934020  1.0  -0.6765
  O  O241  1  0.508880  0.773800  0.880600  1.0  -0.6187
  O  O242  1  0.535050  0.943700  0.831000  1.0  -0.6089
  O  O243  1  0.342170  0.877300  0.867430  1.0  -0.7189
  O  O244  1  0.748620  0.723000  0.620800  1.0  -0.5265
  O  O245  1  0.584070  0.945800  0.957260  1.0  -0.7271
  O  O246  1  0.333170  0.051400  0.965520  1.0  -0.6337
  O  O247  1  0.420290  0.821000  0.982650  1.0  -0.6564
  O  O248  1  0.509420  0.165700  0.934020  1.0  -0.6781
  O  O249  1  0.991120  0.726200  0.380600  1.0  -0.6173
  O  O250  1  0.964950  0.556300  0.331000  1.0  -0.6113
  O  O251  1  0.157830  0.622700  0.367430  1.0  -0.7176
  O  O252  1  0.751380  0.777000  0.120800  1.0  -0.5267
  O  O253  1  0.915930  0.554200  0.457260  1.0  -0.7264
  O  O254  1  0.166830  0.448600  0.465520  1.0  -0.6326
  O  O255  1  0.079710  0.679000  0.482650  1.0  -0.6554
  O  O256  1  0.990580  0.334300  0.434020  1.0  -0.6768
  O  O257  1  0.491120  0.773800  0.619400  1.0  -0.6179
  O  O258  1  0.464950  0.943700  0.669000  1.0  -0.6092
  O  O259  1  0.657830  0.877300  0.632570  1.0  -0.7169
  O  O260  1  0.251380  0.723000  0.879200  1.0  -0.5259
  O  O261  1  0.415930  0.945800  0.542740  1.0  -0.7261
  O  O262  1  0.666830  0.051400  0.534480  1.0  -0.6365
  O  O263  1  0.579710  0.821000  0.517350  1.0  -0.6562
  O  O264  1  0.490580  0.165700  0.565980  1.0  -0.6756
  O  O265  1  0.008880  0.726200  0.119400  1.0  -0.616
  O  O266  1  0.035050  0.556300  0.169000  1.0  -0.6104
  O  O267  1  0.842170  0.622700  0.132570  1.0  -0.7187
  O  O268  1  0.248620  0.777000  0.379200  1.0  -0.5264
  O  O269  1  0.084070  0.554200  0.042740  1.0  -0.7269
  O  O270  1  0.833170  0.448600  0.034480  1.0  -0.637
  O  O271  1  0.920290  0.679000  0.017350  1.0  -0.6556
  O  O272  1  0.009420  0.334300  0.065980  1.0  -0.6759
