# generated using pymatgen
data_ErH8C17O8
_symmetry_space_group_name_H-M   'P 1'
_cell_length_a   15.73400000
_cell_length_b   10.69140000
_cell_length_c   23.32600000
_cell_angle_alpha   90.00000000
_cell_angle_beta   90.00000000
_cell_angle_gamma   90.00000000
_symmetry_Int_Tables_number   1
_chemical_formula_structural   ErH8C17O8
_chemical_formula_sum   'Er8 H64 C136 O64'
_cell_volume   3923.86444176
_cell_formula_units_Z   8
loop_
 _symmetry_equiv_pos_site_id
 _symmetry_equiv_pos_as_xyz
  1  'x, y, z'
loop_
 _atom_site_type_symbol
 _atom_site_label
 _atom_site_symmetry_multiplicity
 _atom_site_fract_x
 _atom_site_fract_y
 _atom_site_fract_z
 _atom_site_occupancy
 _atom_site_charge
  Er  Er1  1  0.547640  0.969120  0.915940  1.0  1.5388
  Er  Er2  1  0.952360  0.530880  0.415940  1.0  1.5382
  Er  Er3  1  0.452360  0.969120  0.584060  1.0  1.5379
  Er  Er4  1  0.047640  0.530880  0.084060  1.0  1.538
  Er  Er5  1  0.452360  0.030880  0.084060  1.0  1.5379
  Er  Er6  1  0.047640  0.469120  0.584060  1.0  1.5382
  Er  Er7  1  0.547640  0.030880  0.415940  1.0  1.538
  Er  Er8  1  0.952360  0.469120  0.915940  1.0  1.5382
  H  H9  1  0.399000  0.595500  0.848700  1.0  0.1369
  H  H10  1  0.271500  0.557600  0.699600  1.0  0.1415
  H  H11  1  0.401700  0.877500  0.732700  1.0  0.1447
  H  H12  1  0.251300  0.404600  0.774300  1.0  0.1616
  H  H13  1  0.349100  0.364800  0.772700  1.0  0.1718
  H  H14  1  0.189300  0.472300  0.870300  1.0  0.1331
  H  H15  1  0.294600  0.310900  0.010700  1.0  0.1426
  H  H16  1  0.415200  0.293000  0.858000  1.0  0.1423
  H  H17  1  0.101000  0.904500  0.348700  1.0  0.1377
  H  H18  1  0.228500  0.942400  0.199600  1.0  0.1419
  H  H19  1  0.098300  0.622500  0.232700  1.0  0.1452
  H  H20  1  0.248700  0.095400  0.274300  1.0  0.1626
  H  H21  1  0.150900  0.135200  0.272700  1.0  0.1727
  H  H22  1  0.310700  0.027700  0.370300  1.0  0.133
  H  H23  1  0.205400  0.189100  0.510700  1.0  0.1424
  H  H24  1  0.084800  0.207000  0.358000  1.0  0.1415
  H  H25  1  0.601000  0.595500  0.651300  1.0  0.1377
  H  H26  1  0.728500  0.557600  0.800400  1.0  0.1419
  H  H27  1  0.598300  0.877500  0.767300  1.0  0.1446
  H  H28  1  0.748700  0.404600  0.725700  1.0  0.1628
  H  H29  1  0.650900  0.364800  0.727300  1.0  0.1729
  H  H30  1  0.810700  0.472300  0.629700  1.0  0.1328
  H  H31  1  0.705400  0.310900  0.489300  1.0  0.1416
  H  H32  1  0.584800  0.293000  0.642000  1.0  0.1411
  H  H33  1  0.899000  0.904500  0.151300  1.0  0.1375
  H  H34  1  0.771500  0.942400  0.300400  1.0  0.1413
  H  H35  1  0.901700  0.622500  0.267300  1.0  0.1455
  H  H36  1  0.751300  0.095400  0.225700  1.0  0.1614
  H  H37  1  0.849100  0.135200  0.227300  1.0  0.1715
  H  H38  1  0.689300  0.027700  0.129700  1.0  0.1333
  H  H39  1  0.794600  0.189100  0.989300  1.0  0.142
  H  H40  1  0.915200  0.207000  0.142000  1.0  0.1422
  H  H41  1  0.601000  0.404500  0.151300  1.0  0.1375
  H  H42  1  0.728500  0.442400  0.300400  1.0  0.1416
  H  H43  1  0.598300  0.122500  0.267300  1.0  0.1456
  H  H44  1  0.748700  0.595400  0.225700  1.0  0.1628
  H  H45  1  0.650900  0.635200  0.227300  1.0  0.1725
  H  H46  1  0.810700  0.527700  0.129700  1.0  0.1333
  H  H47  1  0.705400  0.689100  0.989300  1.0  0.1416
  H  H48  1  0.584800  0.707000  0.142000  1.0  0.141
  H  H49  1  0.899000  0.095500  0.651300  1.0  0.1378
  H  H50  1  0.771500  0.057600  0.800400  1.0  0.1417
  H  H51  1  0.901700  0.377500  0.767300  1.0  0.1445
  H  H52  1  0.751300  0.904600  0.725700  1.0  0.1613
  H  H53  1  0.849100  0.864800  0.727300  1.0  0.1716
  H  H54  1  0.689300  0.972300  0.629700  1.0  0.1329
  H  H55  1  0.794600  0.810900  0.489300  1.0  0.142
  H  H56  1  0.915200  0.793000  0.642000  1.0  0.1421
  H  H57  1  0.399000  0.404500  0.348700  1.0  0.1369
  H  H58  1  0.271500  0.442400  0.199600  1.0  0.1417
  H  H59  1  0.401700  0.122500  0.232700  1.0  0.1451
  H  H60  1  0.251300  0.595400  0.274300  1.0  0.1616
  H  H61  1  0.349100  0.635200  0.272700  1.0  0.1724
  H  H62  1  0.189300  0.527700  0.370300  1.0  0.1332
  H  H63  1  0.294600  0.689100  0.510700  1.0  0.1426
  H  H64  1  0.415200  0.707000  0.358000  1.0  0.1427
  H  H65  1  0.101000  0.095500  0.848700  1.0  0.1379
  H  H66  1  0.228500  0.057600  0.699600  1.0  0.1421
  H  H67  1  0.098300  0.377500  0.732700  1.0  0.1449
  H  H68  1  0.248700  0.904600  0.774300  1.0  0.1626
  H  H69  1  0.150900  0.864800  0.772700  1.0  0.1725
  H  H70  1  0.310700  0.972300  0.870300  1.0  0.1328
  H  H71  1  0.205400  0.810900  0.010700  1.0  0.1424
  H  H72  1  0.084800  0.793000  0.858000  1.0  0.1413
  C  C73  1  0.405800  0.749200  0.797190  1.0  -0.1124
  C  C74  1  0.381500  0.628300  0.812680  1.0  -0.0503
  C  C75  1  0.332400  0.555200  0.776580  1.0  0.1374
  C  C76  1  0.307300  0.605100  0.724100  1.0  -0.0762
  C  C77  1  0.334000  0.723800  0.706850  1.0  -0.0499
  C  C78  1  0.383500  0.796400  0.743920  1.0  -0.0542
  C  C79  1  0.307800  0.421900  0.791250  1.0  -0.2756
  C  C80  1  0.304100  0.390400  0.854270  1.0  0.1652
  C  C81  1  0.234500  0.426800  0.887570  1.0  -0.0562
  C  C82  1  0.230300  0.397500  0.945480  1.0  -0.082
  C  C83  1  0.296400  0.329300  0.970910  1.0  0.0078
  C  C84  1  0.364300  0.288700  0.937890  1.0  -0.1155
  C  C85  1  0.368100  0.320000  0.880240  1.0  -0.077
  C  C86  1  0.456800  0.825000  0.838850  1.0  0.6989
  C  C87  1  0.308600  0.776800  0.649520  1.0  0.7605
  C  C88  1  0.155400  0.433300  0.981450  1.0  0.7733
  C  C89  1  0.430500  0.205900  0.965190  1.0  0.7659
  C  C90  1  0.094200  0.750800  0.297190  1.0  -0.1114
  C  C91  1  0.118500  0.871700  0.312680  1.0  -0.0506
  C  C92  1  0.167600  0.944800  0.276580  1.0  0.1372
  C  C93  1  0.192700  0.894900  0.224100  1.0  -0.0777
  C  C94  1  0.166000  0.776200  0.206850  1.0  -0.0477
  C  C95  1  0.116500  0.703600  0.243920  1.0  -0.0544
  C  C96  1  0.192200  0.078100  0.291250  1.0  -0.2763
  C  C97  1  0.195900  0.109600  0.354270  1.0  0.1644
  C  C98  1  0.265500  0.073200  0.387570  1.0  -0.0574
  C  C99  1  0.269700  0.102500  0.445480  1.0  -0.0815
  C  C100  1  0.203600  0.170700  0.470910  1.0  0.0083
  C  C101  1  0.135700  0.211300  0.437890  1.0  -0.1158
  C  C102  1  0.131900  0.180000  0.380240  1.0  -0.076
  C  C103  1  0.043200  0.675000  0.338850  1.0  0.6983
  C  C104  1  0.191400  0.723200  0.149520  1.0  0.7585
  C  C105  1  0.344600  0.066700  0.481450  1.0  0.7734
  C  C106  1  0.069500  0.294100  0.465190  1.0  0.7667
  C  C107  1  0.594200  0.749200  0.702810  1.0  -0.1111
  C  C108  1  0.618500  0.628300  0.687320  1.0  -0.0495
  C  C109  1  0.667600  0.555200  0.723420  1.0  0.138
  C  C110  1  0.692700  0.605100  0.775900  1.0  -0.077
  C  C111  1  0.666000  0.723800  0.793150  1.0  -0.0484
  C  C112  1  0.616500  0.796400  0.756080  1.0  -0.0543
  C  C113  1  0.692200  0.421900  0.708750  1.0  -0.2763
  C  C114  1  0.695900  0.390400  0.645730  1.0  0.1647
  C  C115  1  0.765500  0.426800  0.612430  1.0  -0.0567
  C  C116  1  0.769700  0.397500  0.554520  1.0  -0.0803
  C  C117  1  0.703600  0.329300  0.529090  1.0  0.0099
  C  C118  1  0.635700  0.288700  0.562110  1.0  -0.1149
  C  C119  1  0.631900  0.320000  0.619760  1.0  -0.0754
  C  C120  1  0.543200  0.825000  0.661150  1.0  0.6988
  C  C121  1  0.691400  0.776800  0.850480  1.0  0.7589
  C  C122  1  0.844600  0.433300  0.518550  1.0  0.7733
  C  C123  1  0.569500  0.205900  0.534810  1.0  0.7673
  C  C124  1  0.905800  0.750800  0.202810  1.0  -0.1116
  C  C125  1  0.881500  0.871700  0.187320  1.0  -0.049
  C  C126  1  0.832400  0.944800  0.223420  1.0  0.1381
  C  C127  1  0.807300  0.894900  0.275900  1.0  -0.0771
  C  C128  1  0.834000  0.776200  0.293150  1.0  -0.05
  C  C129  1  0.883500  0.703600  0.256080  1.0  -0.0547
  C  C130  1  0.807800  0.078100  0.208750  1.0  -0.2797
  C  C131  1  0.804100  0.109600  0.145730  1.0  0.1656
  C  C132  1  0.734500  0.073200  0.112430  1.0  -0.0565
  C  C133  1  0.730300  0.102500  0.054520  1.0  -0.0811
  C  C134  1  0.796400  0.170700  0.029090  1.0  0.0089
  C  C135  1  0.864300  0.211300  0.062110  1.0  -0.1145
  C  C136  1  0.868100  0.180000  0.119760  1.0  -0.0763
  C  C137  1  0.956800  0.675000  0.161150  1.0  0.6982
  C  C138  1  0.808600  0.723200  0.350480  1.0  0.7576
  C  C139  1  0.655400  0.066700  0.018550  1.0  0.773
  C  C140  1  0.930500  0.294100  0.034810  1.0  0.766
  C  C141  1  0.594200  0.250800  0.202810  1.0  -0.1109
  C  C142  1  0.618500  0.371700  0.187320  1.0  -0.0492
  C  C143  1  0.667600  0.444800  0.223420  1.0  0.138
  C  C144  1  0.692700  0.394900  0.275900  1.0  -0.0768
  C  C145  1  0.666000  0.276200  0.293150  1.0  -0.0482
  C  C146  1  0.616500  0.203600  0.256080  1.0  -0.055
  C  C147  1  0.692200  0.578100  0.208750  1.0  -0.2779
  C  C148  1  0.695900  0.609600  0.145730  1.0  0.1647
  C  C149  1  0.765500  0.573200  0.112430  1.0  -0.0572
  C  C150  1  0.769700  0.602500  0.054520  1.0  -0.0807
  C  C151  1  0.703600  0.670700  0.029090  1.0  0.0098
  C  C152  1  0.635700  0.711300  0.062110  1.0  -0.1152
  C  C153  1  0.631900  0.680000  0.119760  1.0  -0.0759
  C  C154  1  0.543200  0.175000  0.161150  1.0  0.6984
  C  C155  1  0.691400  0.223200  0.350480  1.0  0.758
  C  C156  1  0.844600  0.566700  0.018550  1.0  0.7557
  C  C157  1  0.569500  0.794100  0.034810  1.0  0.7673
  C  C158  1  0.905800  0.249200  0.702810  1.0  -0.1114
  C  C159  1  0.881500  0.128300  0.687320  1.0  -0.0489
  C  C160  1  0.832400  0.055200  0.723420  1.0  0.1379
  C  C161  1  0.807300  0.105100  0.775900  1.0  -0.077
  C  C162  1  0.834000  0.223800  0.793150  1.0  -0.0502
  C  C163  1  0.883500  0.296400  0.756080  1.0  -0.0545
  C  C164  1  0.807800  0.921900  0.708750  1.0  -0.2776
  C  C165  1  0.804100  0.890400  0.645730  1.0  0.1654
  C  C166  1  0.734500  0.926800  0.612430  1.0  -0.0563
  C  C167  1  0.730300  0.897500  0.554520  1.0  -0.0807
  C  C168  1  0.796400  0.829300  0.529090  1.0  0.0089
  C  C169  1  0.864300  0.788700  0.562110  1.0  -0.1143
  C  C170  1  0.868100  0.820000  0.619760  1.0  -0.0761
  C  C171  1  0.956800  0.325000  0.661150  1.0  0.6987
  C  C172  1  0.808600  0.276800  0.850480  1.0  0.7579
  C  C173  1  0.655400  0.933300  0.518550  1.0  0.756
  C  C174  1  0.930500  0.705900  0.534810  1.0  0.7655
  C  C175  1  0.405800  0.250800  0.297190  1.0  -0.1121
  C  C176  1  0.381500  0.371700  0.312680  1.0  -0.0501
  C  C177  1  0.332400  0.444800  0.276580  1.0  0.1374
  C  C178  1  0.307300  0.394900  0.224100  1.0  -0.0767
  C  C179  1  0.334000  0.276200  0.206850  1.0  -0.0501
  C  C180  1  0.383500  0.203600  0.243920  1.0  -0.0543
  C  C181  1  0.307800  0.578100  0.291250  1.0  -0.2783
  C  C182  1  0.304100  0.609600  0.354270  1.0  0.1653
  C  C183  1  0.234500  0.573200  0.387570  1.0  -0.0567
  C  C184  1  0.230300  0.602500  0.445480  1.0  -0.0818
  C  C185  1  0.296400  0.670700  0.470910  1.0  0.0085
  C  C186  1  0.364300  0.711300  0.437890  1.0  -0.1161
  C  C187  1  0.368100  0.680000  0.380240  1.0  -0.0771
  C  C188  1  0.456800  0.175000  0.338850  1.0  0.6983
  C  C189  1  0.308600  0.223200  0.149520  1.0  0.761
  C  C190  1  0.155400  0.566700  0.481450  1.0  0.7555
  C  C191  1  0.430500  0.794100  0.465190  1.0  0.7661
  C  C192  1  0.094200  0.249200  0.797190  1.0  -0.1118
  C  C193  1  0.118500  0.128300  0.812680  1.0  -0.051
  C  C194  1  0.167600  0.055200  0.776580  1.0  0.1373
  C  C195  1  0.192700  0.105100  0.724100  1.0  -0.0772
  C  C196  1  0.166000  0.223800  0.706850  1.0  -0.0476
  C  C197  1  0.116500  0.296400  0.743920  1.0  -0.054
  C  C198  1  0.192200  0.921900  0.791250  1.0  -0.2742
  C  C199  1  0.195900  0.890400  0.854270  1.0  0.1643
  C  C200  1  0.265500  0.926800  0.887570  1.0  -0.0564
  C  C201  1  0.269700  0.897500  0.945480  1.0  -0.0817
  C  C202  1  0.203600  0.829300  0.970910  1.0  0.0077
  C  C203  1  0.135700  0.788700  0.937890  1.0  -0.1151
  C  C204  1  0.131900  0.820000  0.880240  1.0  -0.0756
  C  C205  1  0.043200  0.325000  0.838850  1.0  0.6987
  C  C206  1  0.191400  0.276800  0.649520  1.0  0.7583
  C  C207  1  0.344600  0.933300  0.981450  1.0  0.7564
  C  C208  1  0.069500  0.705900  0.965190  1.0  0.7667
  O  O209  1  0.465420  0.942200  0.830830  1.0  -0.5874
  O  O210  1  0.490340  0.772400  0.880620  1.0  -0.5998
  O  O211  1  0.342840  0.876300  0.632980  1.0  -0.697
  O  O212  1  0.253100  0.721700  0.620690  1.0  -0.4861
  O  O213  1  0.167390  0.448700  0.034810  1.0  -0.6266
  O  O214  1  0.084310  0.446200  0.958250  1.0  -0.7528
  O  O215  1  0.420420  0.180700  0.017340  1.0  -0.6166
  O  O216  1  0.490100  0.166600  0.933760  1.0  -0.6992
  O  O217  1  0.034580  0.557800  0.330830  1.0  -0.5888
  O  O218  1  0.009660  0.727600  0.380620  1.0  -0.599
  O  O219  1  0.157160  0.623700  0.132980  1.0  -0.6958
  O  O220  1  0.246900  0.778300  0.120690  1.0  -0.4852
  O  O221  1  0.332610  0.051300  0.534810  1.0  -0.6305
  O  O222  1  0.415690  0.053800  0.458250  1.0  -0.7517
  O  O223  1  0.079580  0.319300  0.517340  1.0  -0.6172
  O  O224  1  0.009900  0.333400  0.433760  1.0  -0.6999
  O  O225  1  0.534580  0.942200  0.669170  1.0  -0.5875
  O  O226  1  0.509660  0.772400  0.619380  1.0  -0.6009
  O  O227  1  0.657160  0.876300  0.867020  1.0  -0.6955
  O  O228  1  0.746900  0.721700  0.879310  1.0  -0.4856
  O  O229  1  0.832610  0.448700  0.465190  1.0  -0.6243
  O  O230  1  0.915690  0.446200  0.541750  1.0  -0.7518
  O  O231  1  0.579580  0.180700  0.482660  1.0  -0.6172
  O  O232  1  0.509900  0.166600  0.566240  1.0  -0.7003
  O  O233  1  0.965420  0.557800  0.169170  1.0  -0.5895
  O  O234  1  0.990340  0.727600  0.119380  1.0  -0.5992
  O  O235  1  0.842840  0.623700  0.367020  1.0  -0.6961
  O  O236  1  0.753100  0.778300  0.379310  1.0  -0.4844
  O  O237  1  0.667390  0.051300  0.965190  1.0  -0.6262
  O  O238  1  0.584310  0.053800  0.041750  1.0  -0.7529
  O  O239  1  0.920420  0.319300  0.982660  1.0  -0.618
  O  O240  1  0.990100  0.333400  0.066240  1.0  -0.6983
  O  O241  1  0.534580  0.057800  0.169170  1.0  -0.5886
  O  O242  1  0.509660  0.227600  0.119380  1.0  -0.5991
  O  O243  1  0.657160  0.123700  0.367020  1.0  -0.6957
  O  O244  1  0.746900  0.278300  0.379310  1.0  -0.485
  O  O245  1  0.832610  0.551300  0.965190  1.0  -0.6243
  O  O246  1  0.915690  0.553800  0.041750  1.0  -0.752
  O  O247  1  0.579580  0.819300  0.982660  1.0  -0.6181
  O  O248  1  0.509900  0.833400  0.066240  1.0  -0.6989
  O  O249  1  0.965420  0.442200  0.669170  1.0  -0.5878
  O  O250  1  0.990340  0.272400  0.619380  1.0  -0.6008
  O  O251  1  0.842840  0.376300  0.867020  1.0  -0.6969
  O  O252  1  0.753100  0.221700  0.879310  1.0  -0.4848
  O  O253  1  0.667390  0.948700  0.465190  1.0  -0.6262
  O  O254  1  0.584310  0.946200  0.541750  1.0  -0.7532
  O  O255  1  0.920420  0.680700  0.482660  1.0  -0.617
  O  O256  1  0.990100  0.666667  0.566240  1.0  -0.6984
  O  O257  1  0.465420  0.057800  0.330830  1.0  -0.5895
  O  O258  1  0.490340  0.227600  0.380620  1.0  -0.5988
  O  O259  1  0.342840  0.123700  0.132980  1.0  -0.6969
  O  O260  1  0.253100  0.278300  0.120690  1.0  -0.4857
  O  O261  1  0.167390  0.551300  0.534810  1.0  -0.6268
  O  O262  1  0.084310  0.553800  0.458250  1.0  -0.7527
  O  O263  1  0.420420  0.819300  0.517340  1.0  -0.6169
  O  O264  1  0.490100  0.833400  0.433760  1.0  -0.6999
  O  O265  1  0.034580  0.442200  0.830830  1.0  -0.5871
  O  O266  1  0.009660  0.272400  0.880620  1.0  -0.6
  O  O267  1  0.157160  0.376300  0.632980  1.0  -0.6951
  O  O268  1  0.246900  0.221700  0.620690  1.0  -0.4856
  O  O269  1  0.332610  0.948700  0.034810  1.0  -0.6304
  O  O270  1  0.415690  0.946200  0.958250  1.0  -0.7515
  O  O271  1  0.079580  0.680700  0.017340  1.0  -0.6171
  O  O272  1  0.009900  0.666667  0.933760  1.0  -0.7001
