# generated using pymatgen
data_Cd7H32C60(NO4)6
_symmetry_space_group_name_H-M   'P 1'
_cell_length_a   18.80420000
_cell_length_b   22.23400000
_cell_length_c   25.96450000
_cell_angle_alpha   90.00000000
_cell_angle_beta   92.09800000
_cell_angle_gamma   90.00000000
_symmetry_Int_Tables_number   1
_chemical_formula_structural   Cd7H32C60(NO4)6
_chemical_formula_sum   'Cd28 H128 C240 N24 O96'
_cell_volume   10848.28808003
_cell_formula_units_Z   4
loop_
 _symmetry_equiv_pos_site_id
 _symmetry_equiv_pos_as_xyz
  1  'x, y, z'
loop_
 _atom_site_type_symbol
 _atom_site_label
 _atom_site_symmetry_multiplicity
 _atom_site_fract_x
 _atom_site_fract_y
 _atom_site_fract_z
 _atom_site_occupancy
 _atom_site_charge
  Cd  Cd1  1  0.643590  0.553860  0.404400  1.0  1.0583
  Cd  Cd2  1  0.744960  0.646040  0.496140  1.0  1.0379
  Cd  Cd3  1  0.846190  0.567990  0.598660  1.0  1.0926
  Cd  Cd4  1  0.493230  0.876890  0.745490  1.0  0.7708
  Cd  Cd5  1  0.855180  0.312370  0.098510  1.0  1.081
  Cd  Cd6  1  0.748070  0.396650  0.002630  1.0  1.08
  Cd  Cd7  1  0.847230  0.809430  0.095810  1.0  1.0617
  Cd  Cd8  1  0.856410  0.053860  0.595600  1.0  1.0584
  Cd  Cd9  1  0.755040  0.146040  0.503860  1.0  1.0379
  Cd  Cd10  1  0.653810  0.067990  0.401340  1.0  1.0915
  Cd  Cd11  1  0.006770  0.376890  0.254510  1.0  0.7711
  Cd  Cd12  1  0.644820  0.812370  0.901490  1.0  1.08
  Cd  Cd13  1  0.751930  0.896650  0.997370  1.0  1.0803
  Cd  Cd14  1  0.652770  0.309430  0.904190  1.0  1.0604
  Cd  Cd15  1  0.356410  0.446140  0.595600  1.0  1.058
  Cd  Cd16  1  0.255040  0.353960  0.503860  1.0  1.038
  Cd  Cd17  1  0.153810  0.432010  0.401340  1.0  1.089
  Cd  Cd18  1  0.506770  0.123110  0.254510  1.0  0.7711
  Cd  Cd19  1  0.144820  0.687630  0.901490  1.0  1.0806
  Cd  Cd20  1  0.251930  0.603350  0.997370  1.0  1.0807
  Cd  Cd21  1  0.152770  0.190570  0.904190  1.0  1.0605
  Cd  Cd22  1  0.143590  0.946140  0.404400  1.0  1.0578
  Cd  Cd23  1  0.244960  0.853960  0.496140  1.0  1.038
  Cd  Cd24  1  0.346190  0.932010  0.598660  1.0  1.089
  Cd  Cd25  1  0.993230  0.623110  0.745490  1.0  0.7708
  Cd  Cd26  1  0.355180  0.187630  0.098510  1.0  1.0803
  Cd  Cd27  1  0.248070  0.103350  0.002630  1.0  1.0805
  Cd  Cd28  1  0.347230  0.690570  0.095810  1.0  1.0622
  H  H29  1  0.645300  0.560400  0.216500  1.0  0.1096
  H  H30  1  0.672900  0.527300  0.135700  1.0  0.1266
  H  H31  1  0.751900  0.374900  0.199700  1.0  0.0984
  H  H32  1  0.721600  0.408200  0.279300  1.0  0.115
  H  H33  1  0.748100  0.619400  0.297300  1.0  0.1062
  H  H34  1  0.773500  0.656600  0.218200  1.0  0.1117
  H  H35  1  0.840600  0.810300  0.282700  1.0  0.1134
  H  H36  1  0.815800  0.773900  0.362800  1.0  0.1151
  H  H37  1  0.461000  0.704400  0.418700  1.0  0.12
  H  H38  1  0.392200  0.778900  0.454400  1.0  0.1038
  H  H39  1  0.520200  0.779000  0.581000  1.0  0.1193
  H  H40  1  0.589900  0.706600  0.544300  1.0  0.102
  H  H41  1  0.682700  0.795700  0.616000  1.0  0.1086
  H  H42  1  0.648300  0.840700  0.691300  1.0  0.1204
  H  H43  1  0.690800  0.687900  0.768100  1.0  0.116
  H  H44  1  0.726400  0.642800  0.693200  1.0  0.1071
  H  H45  1  0.031900  0.464000  0.081700  1.0  0.1172
  H  H46  1  0.898000  0.464100  0.957500  1.0  0.0995
  H  H47  1  0.800800  0.432100  0.728500  1.0  0.1172
  H  H48  1  0.771400  0.386300  0.804400  1.0  0.1157
  H  H49  1  0.801600  0.543100  0.879200  1.0  0.1068
  H  H50  1  0.837500  0.587400  0.803300  1.0  0.1174
  H  H51  1  0.459100  0.451100  0.925800  1.0  0.1292
  H  H52  1  0.607500  0.473700  0.038900  1.0  0.1034
  H  H53  1  0.662600  0.393800  0.442000  1.0  0.1257
  H  H54  1  0.699300  0.308500  0.485300  1.0  0.1007
  H  H55  1  0.777000  0.313500  0.556200  1.0  0.1083
  H  H56  1  0.821200  0.404300  0.585700  1.0  0.1308
  H  H57  1  0.689600  0.148800  0.923700  1.0  0.132
  H  H58  1  0.737400  0.061500  0.956500  1.0  0.1001
  H  H59  1  0.810400  0.060700  0.029800  1.0  0.1086
  H  H60  1  0.841900  0.148700  0.071200  1.0  0.1273
  H  H61  1  0.854700  0.060400  0.783500  1.0  0.1097
  H  H62  1  0.827100  0.027300  0.864300  1.0  0.1264
  H  H63  1  0.748100  0.874900  0.800300  1.0  0.0984
  H  H64  1  0.778400  0.908200  0.720700  1.0  0.1146
  H  H65  1  0.751900  0.119400  0.702700  1.0  0.1064
  H  H66  1  0.726500  0.156600  0.781800  1.0  0.1122
  H  H67  1  0.659400  0.310300  0.717300  1.0  0.1133
  H  H68  1  0.684200  0.273900  0.637200  1.0  0.1152
  H  H69  1  0.039000  0.204400  0.581300  1.0  0.1203
  H  H70  1  0.107800  0.278900  0.545600  1.0  0.104
  H  H71  1  0.979800  0.279000  0.419000  1.0  0.1193
  H  H72  1  0.910100  0.206600  0.455700  1.0  0.101
  H  H73  1  0.817300  0.295700  0.384000  1.0  0.1087
  H  H74  1  0.851700  0.340700  0.308700  1.0  0.1198
  H  H75  1  0.809200  0.187900  0.231900  1.0  0.1156
  H  H76  1  0.773600  0.142800  0.306800  1.0  0.1069
  H  H77  1  0.468100  0.964000  0.918300  1.0  0.1169
  H  H78  1  0.602000  0.964100  0.042500  1.0  0.0996
  H  H79  1  0.699200  0.932100  0.271500  1.0  0.1169
  H  H80  1  0.728600  0.886300  0.195600  1.0  0.116
  H  H81  1  0.698400  0.043100  0.120800  1.0  0.1068
  H  H82  1  0.662500  0.087400  0.196700  1.0  0.118
  H  H83  1  0.040900  0.951100  0.074200  1.0  0.1296
  H  H84  1  0.892500  0.973700  0.961100  1.0  0.1025
  H  H85  1  0.837400  0.893800  0.558000  1.0  0.1259
  H  H86  1  0.800700  0.808500  0.514700  1.0  0.1003
  H  H87  1  0.723000  0.813500  0.443800  1.0  0.1079
  H  H88  1  0.678800  0.904300  0.414300  1.0  0.1298
  H  H89  1  0.810400  0.648800  0.076300  1.0  0.1324
  H  H90  1  0.762600  0.561500  0.043500  1.0  0.1001
  H  H91  1  0.689600  0.560700  0.970200  1.0  0.1079
  H  H92  1  0.658100  0.648700  0.928800  1.0  0.1273
  H  H93  1  0.354700  0.439600  0.783500  1.0  0.1098
  H  H94  1  0.327100  0.472700  0.864300  1.0  0.1268
  H  H95  1  0.248100  0.625100  0.800300  1.0  0.0984
  H  H96  1  0.278400  0.591800  0.720700  1.0  0.1146
  H  H97  1  0.251900  0.380600  0.702700  1.0  0.106
  H  H98  1  0.226500  0.343400  0.781800  1.0  0.1121
  H  H99  1  0.159400  0.189700  0.717300  1.0  0.1129
  H  H100  1  0.184200  0.226100  0.637200  1.0  0.115
  H  H101  1  0.539000  0.295600  0.581300  1.0  0.12
  H  H102  1  0.607800  0.221100  0.545600  1.0  0.1044
  H  H103  1  0.479800  0.221000  0.419000  1.0  0.1191
  H  H104  1  0.410100  0.293400  0.455700  1.0  0.1012
  H  H105  1  0.317300  0.204300  0.384000  1.0  0.1085
  H  H106  1  0.351700  0.159300  0.308700  1.0  0.12
  H  H107  1  0.309200  0.312100  0.231900  1.0  0.1156
  H  H108  1  0.273600  0.357200  0.306800  1.0  0.1074
  H  H109  1  0.968100  0.536000  0.918300  1.0  0.1171
  H  H110  1  0.102000  0.535900  0.042500  1.0  0.0993
  H  H111  1  0.199200  0.567900  0.271500  1.0  0.1168
  H  H112  1  0.228600  0.613700  0.195600  1.0  0.1159
  H  H113  1  0.198400  0.456900  0.120800  1.0  0.1066
  H  H114  1  0.162500  0.412600  0.196700  1.0  0.1182
  H  H115  1  0.540900  0.548900  0.074200  1.0  0.1296
  H  H116  1  0.392500  0.526300  0.961100  1.0  0.1026
  H  H117  1  0.337400  0.606200  0.558000  1.0  0.1259
  H  H118  1  0.300700  0.691500  0.514700  1.0  0.1002
  H  H119  1  0.223000  0.686500  0.443800  1.0  0.1081
  H  H120  1  0.178800  0.595700  0.414300  1.0  0.1299
  H  H121  1  0.310400  0.851200  0.076300  1.0  0.1323
  H  H122  1  0.262600  0.938500  0.043500  1.0  0.1005
  H  H123  1  0.189600  0.939300  0.970200  1.0  0.1084
  H  H124  1  0.158100  0.851300  0.928800  1.0  0.1274
  H  H125  1  0.145300  0.939600  0.216500  1.0  0.1093
  H  H126  1  0.172900  0.972700  0.135700  1.0  0.1268
  H  H127  1  0.251900  0.125100  0.199700  1.0  0.0981
  H  H128  1  0.221600  0.091800  0.279300  1.0  0.1149
  H  H129  1  0.248100  0.880600  0.297300  1.0  0.1061
  H  H130  1  0.273500  0.843400  0.218200  1.0  0.1116
  H  H131  1  0.340600  0.689700  0.282700  1.0  0.1137
  H  H132  1  0.315800  0.726100  0.362800  1.0  0.1152
  H  H133  1  0.961000  0.795600  0.418700  1.0  0.1199
  H  H134  1  0.892200  0.721100  0.454400  1.0  0.1039
  H  H135  1  0.020200  0.721000  0.581000  1.0  0.1193
  H  H136  1  0.089900  0.793400  0.544300  1.0  0.1017
  H  H137  1  0.182700  0.704300  0.616000  1.0  0.1083
  H  H138  1  0.148300  0.659300  0.691300  1.0  0.1204
  H  H139  1  0.190800  0.812100  0.768100  1.0  0.116
  H  H140  1  0.226400  0.857200  0.693200  1.0  0.1074
  H  H141  1  0.531900  0.036000  0.081700  1.0  0.1172
  H  H142  1  0.398000  0.035900  0.957500  1.0  0.0997
  H  H143  1  0.300800  0.067900  0.728500  1.0  0.1172
  H  H144  1  0.271400  0.113700  0.804400  1.0  0.1161
  H  H145  1  0.301600  0.956900  0.879200  1.0  0.1065
  H  H146  1  0.337500  0.912600  0.803300  1.0  0.1176
  H  H147  1  0.959100  0.048900  0.925800  1.0  0.1293
  H  H148  1  0.107500  0.026300  0.038900  1.0  0.1029
  H  H149  1  0.162600  0.106200  0.442000  1.0  0.1256
  H  H150  1  0.199300  0.191500  0.485300  1.0  0.1005
  H  H151  1  0.277000  0.186500  0.556200  1.0  0.108
  H  H152  1  0.321200  0.095700  0.585700  1.0  0.1308
  H  H153  1  0.189600  0.351200  0.923700  1.0  0.132
  H  H154  1  0.237400  0.438500  0.956500  1.0  0.1003
  H  H155  1  0.310400  0.439300  0.029800  1.0  0.1085
  H  H156  1  0.341900  0.351300  0.071200  1.0  0.1272
  C  C157  1  0.659600  0.509000  0.309200  1.0  0.6723
  C  C158  1  0.678700  0.487000  0.256200  1.0  -0.1318
  C  C159  1  0.665900  0.522700  0.212700  1.0  -0.0221
  C  C160  1  0.683000  0.503500  0.164500  1.0  -0.0665
  C  C161  1  0.716000  0.447100  0.159400  1.0  -0.12
  C  C162  1  0.730000  0.412200  0.202900  1.0  -0.0143
  C  C163  1  0.711700  0.432000  0.250400  1.0  -0.0305
  C  C164  1  0.735500  0.424400  0.107200  1.0  0.7216
  C  C165  1  0.759100  0.669300  0.390900  1.0  0.7273
  C  C166  1  0.776500  0.692800  0.339000  1.0  -0.0873
  C  C167  1  0.766100  0.658200  0.294700  1.0  -0.0347
  C  C168  1  0.781900  0.680300  0.247300  1.0  -0.0453
  C  C169  1  0.810100  0.737300  0.241800  1.0  -0.1283
  C  C170  1  0.821800  0.771800  0.285700  1.0  -0.0441
  C  C171  1  0.806400  0.750300  0.333700  1.0  -0.0646
  C  C172  1  0.826200  0.761700  0.189200  1.0  0.6732
  C  C173  1  0.578700  0.651100  0.453700  1.0  0.7176
  C  C174  1  0.533300  0.699100  0.477300  1.0  -0.1195
  C  C175  1  0.473600  0.720000  0.451000  1.0  -0.0471
  C  C176  1  0.432000  0.764200  0.472600  1.0  -0.0311
  C  C177  1  0.449500  0.786600  0.521000  1.0  -0.1218
  C  C178  1  0.508500  0.764600  0.548100  1.0  -0.0469
  C  C179  1  0.550100  0.721300  0.526100  1.0  -0.0321
  C  C180  1  0.406400  0.837400  0.542900  1.0  0.7067
  C  C181  1  0.730800  0.685000  0.598100  1.0  0.6899
  C  C182  1  0.709200  0.714200  0.646700  1.0  -0.1135
  C  C183  1  0.684700  0.774000  0.646600  1.0  -0.0301
  C  C184  1  0.663400  0.800900  0.691600  1.0  -0.0374
  C  C185  1  0.664800  0.768600  0.736900  1.0  -0.1373
  C  C186  1  0.689100  0.709400  0.737400  1.0  -0.0319
  C  C187  1  0.710700  0.682500  0.692500  1.0  -0.0465
  C  C188  1  0.640600  0.797100  0.786700  1.0  0.7225
  C  C189  1  0.915800  0.407900  0.046400  1.0  0.7041
  C  C190  1  0.958400  0.456200  0.022900  1.0  -0.1215
  C  C191  1  0.019200  0.478200  0.048900  1.0  -0.0613
  C  C192  1  0.939000  0.478300  0.974600  1.0  -0.027
  C  C193  1  0.842400  0.543800  0.708100  1.0  0.7214
  C  C194  1  0.822400  0.514500  0.758400  1.0  -0.1033
  C  C195  1  0.802000  0.454200  0.759000  1.0  -0.0453
  C  C196  1  0.783500  0.426800  0.804300  1.0  -0.051
  C  C197  1  0.783000  0.459800  0.850000  1.0  -0.1064
  C  C198  1  0.802500  0.520400  0.849200  1.0  -0.0271
  C  C199  1  0.823200  0.547300  0.803400  1.0  -0.0482
  C  C200  1  0.763300  0.430600  0.899800  1.0  0.6959
  C  C201  1  0.584900  0.405800  0.955700  1.0  0.7314
  C  C202  1  0.542000  0.455400  0.978200  1.0  -0.1383
  C  C203  1  0.475800  0.470800  0.955400  1.0  -0.0815
  C  C204  1  0.564300  0.484500  0.022900  1.0  -0.0389
  C  C205  1  0.720000  0.451300  0.487400  1.0  0.1157
  C  C206  1  0.694100  0.396400  0.470400  1.0  -0.1172
  C  C207  1  0.716100  0.345800  0.496400  1.0  -0.0854
  C  C208  1  0.763300  0.348900  0.539500  1.0  -0.0846
  C  C209  1  0.789700  0.402400  0.557300  1.0  -0.1235
  C  C210  1  0.767300  0.454600  0.531000  1.0  0.1053
  C  C211  1  0.738900  0.203400  0.976900  1.0  0.1095
  C  C212  1  0.720200  0.149500  0.952600  1.0  -0.1285
  C  C213  1  0.748400  0.097800  0.972800  1.0  -0.0741
  C  C214  1  0.793300  0.097200  0.017100  1.0  -0.08
  C  C215  1  0.812200  0.149100  0.041700  1.0  -0.1078
  C  C216  1  0.785500  0.203000  0.021300  1.0  0.0784
  C  C217  1  0.840400  0.009000  0.690800  1.0  0.6736
  C  C218  1  0.821300  0.987000  0.743800  1.0  -0.1303
  C  C219  1  0.834100  0.022700  0.787300  1.0  -0.0237
  C  C220  1  0.817000  0.003500  0.835500  1.0  -0.067
  C  C221  1  0.784000  0.947100  0.840600  1.0  -0.1197
  C  C222  1  0.770000  0.912200  0.797100  1.0  -0.015
  C  C223  1  0.788300  0.932000  0.749600  1.0  -0.0305
  C  C224  1  0.764500  0.924400  0.892800  1.0  0.7201
  C  C225  1  0.740900  0.169300  0.609100  1.0  0.7272
  C  C226  1  0.723500  0.192800  0.661000  1.0  -0.0871
  C  C227  1  0.733900  0.158200  0.705300  1.0  -0.0342
  C  C228  1  0.718100  0.180300  0.752700  1.0  -0.045
  C  C229  1  0.689900  0.237300  0.758200  1.0  -0.1309
  C  C230  1  0.678200  0.271800  0.714300  1.0  -0.0422
  C  C231  1  0.693600  0.250300  0.666300  1.0  -0.0643
  C  C232  1  0.673800  0.261700  0.810800  1.0  0.6723
  C  C233  1  0.921300  0.151100  0.546300  1.0  0.719
  C  C234  1  0.966700  0.199100  0.522700  1.0  -0.1198
  C  C235  1  0.026400  0.220000  0.549000  1.0  -0.0475
  C  C236  1  0.068000  0.264200  0.527400  1.0  -0.0303
  C  C237  1  0.050500  0.286600  0.479000  1.0  -0.1218
  C  C238  1  0.991500  0.264600  0.451900  1.0  -0.0477
  C  C239  1  0.949900  0.221300  0.473900  1.0  -0.0311
  C  C240  1  0.093600  0.337400  0.457100  1.0  0.7074
  C  C241  1  0.769200  0.185000  0.401900  1.0  0.6908
  C  C242  1  0.790800  0.214200  0.353300  1.0  -0.1121
  C  C243  1  0.815300  0.274000  0.353400  1.0  -0.0317
  C  C244  1  0.836600  0.300900  0.308400  1.0  -0.0383
  C  C245  1  0.835200  0.268600  0.263100  1.0  -0.1374
  C  C246  1  0.810900  0.209400  0.262600  1.0  -0.0325
  C  C247  1  0.789300  0.182500  0.307500  1.0  -0.0475
  C  C248  1  0.859400  0.297100  0.213300  1.0  0.7244
  C  C249  1  0.584200  0.907900  0.953600  1.0  0.7044
  C  C250  1  0.541600  0.956200  0.977100  1.0  -0.1216
  C  C251  1  0.480800  0.978200  0.951100  1.0  -0.0613
  C  C252  1  0.561000  0.978300  0.025400  1.0  -0.0274
  C  C253  1  0.657600  0.043800  0.291900  1.0  0.72
  C  C254  1  0.677600  0.014500  0.241600  1.0  -0.1033
  C  C255  1  0.698000  0.954200  0.241000  1.0  -0.0441
  C  C256  1  0.716500  0.926800  0.195700  1.0  -0.0504
  C  C257  1  0.717000  0.959800  0.150000  1.0  -0.1061
  C  C258  1  0.697500  0.020400  0.150800  1.0  -0.0258
  C  C259  1  0.676800  0.047300  0.196600  1.0  -0.0488
  C  C260  1  0.736700  0.930600  0.100200  1.0  0.6951
  C  C261  1  0.915100  0.905800  0.044300  1.0  0.7338
  C  C262  1  0.958000  0.955400  0.021800  1.0  -0.1391
  C  C263  1  0.024200  0.970800  0.044600  1.0  -0.0811
  C  C264  1  0.935700  0.984500  0.977100  1.0  -0.0385
  C  C265  1  0.780000  0.951300  0.512600  1.0  0.1138
  C  C266  1  0.805900  0.896400  0.529600  1.0  -0.1155
  C  C267  1  0.783900  0.845800  0.503600  1.0  -0.0852
  C  C268  1  0.736700  0.848900  0.460500  1.0  -0.0847
  C  C269  1  0.710300  0.902400  0.442700  1.0  -0.1228
  C  C270  1  0.732700  0.954600  0.469000  1.0  0.106
  C  C271  1  0.761100  0.703400  0.023100  1.0  0.1087
  C  C272  1  0.779800  0.649500  0.047400  1.0  -0.1276
  C  C273  1  0.751600  0.597800  0.027200  1.0  -0.0745
  C  C274  1  0.706700  0.597200  0.982900  1.0  -0.0789
  C  C275  1  0.687800  0.649100  0.958300  1.0  -0.1077
  C  C276  1  0.714500  0.703000  0.978700  1.0  0.0805
  C  C277  1  0.340400  0.491000  0.690800  1.0  0.6737
  C  C278  1  0.321300  0.513000  0.743800  1.0  -0.1303
  C  C279  1  0.334100  0.477300  0.787300  1.0  -0.0222
  C  C280  1  0.317000  0.496500  0.835500  1.0  -0.066
  C  C281  1  0.284000  0.552900  0.840600  1.0  -0.1198
  C  C282  1  0.270000  0.587800  0.797100  1.0  -0.0144
  C  C283  1  0.288300  0.568000  0.749600  1.0  -0.0309
  C  C284  1  0.264500  0.575600  0.892800  1.0  0.7204
  C  C285  1  0.240900  0.330700  0.609100  1.0  0.7273
  C  C286  1  0.223500  0.307200  0.661000  1.0  -0.087
  C  C287  1  0.233900  0.341800  0.705300  1.0  -0.035
  C  C288  1  0.218100  0.319700  0.752700  1.0  -0.0454
  C  C289  1  0.189900  0.262700  0.758200  1.0  -0.131
  C  C290  1  0.178200  0.228200  0.714300  1.0  -0.0398
  C  C291  1  0.193600  0.249700  0.666300  1.0  -0.0644
  C  C292  1  0.173800  0.238300  0.810800  1.0  0.6718
  C  C293  1  0.421300  0.348900  0.546300  1.0  0.7185
  C  C294  1  0.466700  0.300900  0.522700  1.0  -0.1186
  C  C295  1  0.526400  0.280000  0.549000  1.0  -0.0474
  C  C296  1  0.568000  0.235800  0.527400  1.0  -0.0301
  C  C297  1  0.550500  0.213400  0.479000  1.0  -0.1214
  C  C298  1  0.491500  0.235400  0.451900  1.0  -0.0476
  C  C299  1  0.449900  0.278700  0.473900  1.0  -0.0314
  C  C300  1  0.593600  0.162600  0.457100  1.0  0.7085
  C  C301  1  0.269200  0.315000  0.401900  1.0  0.6908
  C  C302  1  0.290800  0.285800  0.353300  1.0  -0.1124
  C  C303  1  0.315300  0.226000  0.353400  1.0  -0.0303
  C  C304  1  0.336600  0.199100  0.308400  1.0  -0.0378
  C  C305  1  0.335200  0.231400  0.263100  1.0  -0.1374
  C  C306  1  0.310900  0.290600  0.262600  1.0  -0.0323
  C  C307  1  0.289300  0.317500  0.307500  1.0  -0.0475
  C  C308  1  0.359400  0.202900  0.213300  1.0  0.7244
  C  C309  1  0.084200  0.592100  0.953600  1.0  0.7049
  C  C310  1  0.041600  0.543800  0.977100  1.0  -0.1207
  C  C311  1  0.980800  0.521800  0.951100  1.0  -0.0584
  C  C312  1  0.061000  0.521700  0.025400  1.0  -0.0279
  C  C313  1  0.157600  0.456200  0.291900  1.0  0.7198
  C  C314  1  0.177600  0.485500  0.241600  1.0  -0.1034
  C  C315  1  0.198000  0.545800  0.241000  1.0  -0.0447
  C  C316  1  0.216500  0.573200  0.195700  1.0  -0.0508
  C  C317  1  0.217000  0.540200  0.150000  1.0  -0.1064
  C  C318  1  0.197500  0.479600  0.150800  1.0  -0.0263
  C  C319  1  0.176800  0.452700  0.196600  1.0  -0.0476
  C  C320  1  0.236700  0.569400  0.100200  1.0  0.6946
  C  C321  1  0.415100  0.594200  0.044300  1.0  0.7311
  C  C322  1  0.458000  0.544600  0.021800  1.0  -0.1391
  C  C323  1  0.524200  0.529200  0.044600  1.0  -0.0792
  C  C324  1  0.435700  0.515500  0.977100  1.0  -0.0387
  C  C325  1  0.280000  0.548700  0.512600  1.0  0.1139
  C  C326  1  0.305900  0.603600  0.529600  1.0  -0.1153
  C  C327  1  0.283900  0.654200  0.503600  1.0  -0.0858
  C  C328  1  0.236700  0.651100  0.460500  1.0  -0.0867
  C  C329  1  0.210300  0.597600  0.442700  1.0  -0.1227
  C  C330  1  0.232700  0.545400  0.469000  1.0  0.1056
  C  C331  1  0.261100  0.796600  0.023100  1.0  0.1087
  C  C332  1  0.279800  0.850500  0.047400  1.0  -0.1277
  C  C333  1  0.251600  0.902200  0.027200  1.0  -0.0748
  C  C334  1  0.206700  0.902800  0.982900  1.0  -0.0807
  C  C335  1  0.187800  0.850900  0.958300  1.0  -0.1075
  C  C336  1  0.214500  0.797000  0.978700  1.0  0.0801
  C  C337  1  0.159600  0.991000  0.309200  1.0  0.6721
  C  C338  1  0.178700  0.013000  0.256200  1.0  -0.1313
  C  C339  1  0.165900  0.977300  0.212700  1.0  -0.0222
  C  C340  1  0.183000  0.996500  0.164500  1.0  -0.0662
  C  C341  1  0.216000  0.052900  0.159400  1.0  -0.1199
  C  C342  1  0.230000  0.087800  0.202900  1.0  -0.0144
  C  C343  1  0.211700  0.068000  0.250400  1.0  -0.0305
  C  C344  1  0.235500  0.075600  0.107200  1.0  0.7217
  C  C345  1  0.259100  0.830700  0.390900  1.0  0.727
  C  C346  1  0.276500  0.807200  0.339000  1.0  -0.0874
  C  C347  1  0.266100  0.841800  0.294700  1.0  -0.0355
  C  C348  1  0.281900  0.819700  0.247300  1.0  -0.046
  C  C349  1  0.310100  0.762700  0.241800  1.0  -0.129
  C  C350  1  0.321800  0.728200  0.285700  1.0  -0.041
  C  C351  1  0.306400  0.749700  0.333700  1.0  -0.0639
  C  C352  1  0.326200  0.738300  0.189200  1.0  0.6726
  C  C353  1  0.078700  0.848900  0.453700  1.0  0.7176
  C  C354  1  0.033300  0.800900  0.477300  1.0  -0.1187
  C  C355  1  0.973600  0.780000  0.451000  1.0  -0.0477
  C  C356  1  0.932000  0.735800  0.472600  1.0  -0.0307
  C  C357  1  0.949500  0.713400  0.521000  1.0  -0.1214
  C  C358  1  0.008500  0.735400  0.548100  1.0  -0.0472
  C  C359  1  0.050100  0.778700  0.526100  1.0  -0.033
  C  C360  1  0.906400  0.662600  0.542900  1.0  0.7088
  C  C361  1  0.230800  0.815000  0.598100  1.0  0.6901
  C  C362  1  0.209200  0.785800  0.646700  1.0  -0.1137
  C  C363  1  0.184700  0.726000  0.646600  1.0  -0.0301
  C  C364  1  0.163400  0.699100  0.691600  1.0  -0.0377
  C  C365  1  0.164800  0.731400  0.736900  1.0  -0.1376
  C  C366  1  0.189100  0.790600  0.737400  1.0  -0.0325
  C  C367  1  0.210700  0.817500  0.692500  1.0  -0.0462
  C  C368  1  0.140600  0.702900  0.786700  1.0  0.722
  C  C369  1  0.415800  0.092100  0.046400  1.0  0.7033
  C  C370  1  0.458400  0.043800  0.022900  1.0  -0.1211
  C  C371  1  0.519200  0.021800  0.048900  1.0  -0.0584
  C  C372  1  0.439000  0.021700  0.974600  1.0  -0.0274
  C  C373  1  0.342400  0.956200  0.708100  1.0  0.7208
  C  C374  1  0.322400  0.985500  0.758400  1.0  -0.1037
  C  C375  1  0.302000  0.045800  0.759000  1.0  -0.0461
  C  C376  1  0.283500  0.073200  0.804300  1.0  -0.0515
  C  C377  1  0.283000  0.040200  0.850000  1.0  -0.1061
  C  C378  1  0.302500  0.979600  0.849200  1.0  -0.026
  C  C379  1  0.323200  0.952700  0.803400  1.0  -0.047
  C  C380  1  0.263300  0.069400  0.899800  1.0  0.6955
  C  C381  1  0.084900  0.094200  0.955700  1.0  0.7302
  C  C382  1  0.042000  0.044600  0.978200  1.0  -0.1385
  C  C383  1  0.975800  0.029200  0.955400  1.0  -0.0787
  C  C384  1  0.064300  0.015500  0.022900  1.0  -0.0395
  C  C385  1  0.220000  0.048700  0.487400  1.0  0.1152
  C  C386  1  0.194100  0.103600  0.470400  1.0  -0.117
  C  C387  1  0.216100  0.154200  0.496400  1.0  -0.0857
  C  C388  1  0.263300  0.151100  0.539500  1.0  -0.085
  C  C389  1  0.289700  0.097600  0.557300  1.0  -0.1233
  C  C390  1  0.267300  0.045400  0.531000  1.0  0.1053
  C  C391  1  0.238900  0.296600  0.976900  1.0  0.1094
  C  C392  1  0.220200  0.350500  0.952600  1.0  -0.1285
  C  C393  1  0.248400  0.402200  0.972800  1.0  -0.0748
  C  C394  1  0.293300  0.402800  0.017100  1.0  -0.0811
  C  C395  1  0.312200  0.350900  0.041700  1.0  -0.1078
  C  C396  1  0.285500  0.297000  0.021300  1.0  0.0787
  N  N397  1  0.709500  0.508300  0.470380  1.0  -0.2816
  N  N398  1  0.748200  0.544500  0.501480  1.0  -0.0287
  N  N399  1  0.782900  0.513370  0.538350  1.0  -0.2594
  N  N400  1  0.719700  0.260800  0.967540  1.0  -0.2438
  N  N401  1  0.752000  0.294800  0.003370  1.0  -0.0264
  N  N402  1  0.791400  0.261570  0.036670  1.0  -0.268
  N  N403  1  0.790500  0.008300  0.529620  1.0  -0.282
  N  N404  1  0.751800  0.044500  0.498520  1.0  -0.0283
  N  N405  1  0.717100  0.013370  0.461650  1.0  -0.259
  N  N406  1  0.780300  0.760800  0.032460  1.0  -0.2447
  N  N407  1  0.748000  0.794800  0.996630  1.0  -0.0262
  N  N408  1  0.708600  0.761570  0.963330  1.0  -0.269
  N  N409  1  0.290500  0.491700  0.529620  1.0  -0.2819
  N  N410  1  0.251800  0.455500  0.498520  1.0  -0.0269
  N  N411  1  0.217100  0.486630  0.461650  1.0  -0.2593
  N  N412  1  0.280300  0.739200  0.032460  1.0  -0.2445
  N  N413  1  0.248000  0.705200  0.996630  1.0  -0.0246
  N  N414  1  0.208600  0.738430  0.963330  1.0  -0.2695
  N  N415  1  0.209500  0.991700  0.470380  1.0  -0.2823
  N  N416  1  0.248200  0.955500  0.501480  1.0  -0.0278
  N  N417  1  0.282900  0.986630  0.538350  1.0  -0.2595
  N  N418  1  0.219700  0.239200  0.967540  1.0  -0.2443
  N  N419  1  0.252000  0.205200  0.003370  1.0  -0.0248
  N  N420  1  0.291400  0.238430  0.036670  1.0  -0.2675
  O  O421  1  0.626900  0.558400  0.313300  1.0  -0.5791
  O  O422  1  0.677100  0.477200  0.347420  1.0  -0.598
  O  O423  1  0.732000  0.459880  0.069210  1.0  -0.5982
  O  O424  1  0.750900  0.369620  0.103090  1.0  -0.6947
  O  O425  1  0.745900  0.614050  0.395630  1.0  -0.6908
  O  O426  1  0.760800  0.705420  0.428540  1.0  -0.5777
  O  O427  1  0.804700  0.732700  0.150640  1.0  -0.6046
  O  O428  1  0.860500  0.810600  0.186080  1.0  -0.6033
  O  O429  1  0.626400  0.626950  0.481280  1.0  -0.6784
  O  O430  1  0.567300  0.636500  0.407450  1.0  -0.6567
  O  O431  1  0.415100  0.849960  0.590640  1.0  -0.6231
  O  O432  1  0.364900  0.866140  0.513990  1.0  -0.7173
  O  O433  1  0.745300  0.629590  0.598420  1.0  -0.7053
  O  O434  1  0.730500  0.716040  0.557200  1.0  -0.5588
  O  O435  1  0.668600  0.773900  0.826700  1.0  -0.5707
  O  O436  1  0.598000  0.839710  0.786170  1.0  -0.6836
  O  O437  1  0.868600  0.382250  0.019340  1.0  -0.721
  O  O438  1  0.928700  0.392900  0.093060  1.0  -0.618
  O  O439  1  0.812100  0.521600  0.668320  1.0  -0.5672
  O  O440  1  0.886600  0.585860  0.706740  1.0  -0.7252
  O  O441  1  0.752100  0.374570  0.900200  1.0  -0.716
  O  O442  1  0.762200  0.462990  0.939300  1.0  -0.5605
  O  O443  1  0.630700  0.379380  0.983720  1.0  -0.6872
  O  O444  1  0.574100  0.391100  0.909360  1.0  -0.6296
  O  O445  1  0.873100  0.058400  0.686700  1.0  -0.5806
  O  O446  1  0.822900  0.977200  0.652580  1.0  -0.5998
  O  O447  1  0.768000  0.959880  0.930790  1.0  -0.5979
  O  O448  1  0.749100  0.869620  0.896910  1.0  -0.6943
  O  O449  1  0.754100  0.114050  0.604370  1.0  -0.6908
  O  O450  1  0.739200  0.205420  0.571460  1.0  -0.577
  O  O451  1  0.695300  0.232700  0.849360  1.0  -0.6019
  O  O452  1  0.639500  0.310600  0.813920  1.0  -0.5999
  O  O453  1  0.873600  0.126950  0.518720  1.0  -0.68
  O  O454  1  0.932700  0.136500  0.592550  1.0  -0.6557
  O  O455  1  0.084900  0.349960  0.409360  1.0  -0.6221
  O  O456  1  0.135100  0.366140  0.486010  1.0  -0.7186
  O  O457  1  0.754700  0.129590  0.401580  1.0  -0.7051
  O  O458  1  0.769500  0.216040  0.442800  1.0  -0.5592
  O  O459  1  0.831400  0.273900  0.173300  1.0  -0.5709
  O  O460  1  0.902000  0.339710  0.213830  1.0  -0.683
  O  O461  1  0.631400  0.882250  0.980660  1.0  -0.7204
  O  O462  1  0.571300  0.892900  0.906940  1.0  -0.6161
  O  O463  1  0.687900  0.021600  0.331680  1.0  -0.5693
  O  O464  1  0.613400  0.085860  0.293260  1.0  -0.7255
  O  O465  1  0.747900  0.874570  0.099800  1.0  -0.7159
  O  O466  1  0.737800  0.962990  0.060700  1.0  -0.5625
  O  O467  1  0.869300  0.879380  0.016280  1.0  -0.6883
  O  O468  1  0.925900  0.891100  0.090640  1.0  -0.6332
  O  O469  1  0.373100  0.441600  0.686700  1.0  -0.5822
  O  O470  1  0.322900  0.522800  0.652580  1.0  -0.6007
  O  O471  1  0.268000  0.540120  0.930790  1.0  -0.5981
  O  O472  1  0.249100  0.630380  0.896910  1.0  -0.6963
  O  O473  1  0.254100  0.385950  0.604370  1.0  -0.6909
  O  O474  1  0.239200  0.294580  0.571460  1.0  -0.5775
  O  O475  1  0.195300  0.267300  0.849360  1.0  -0.6039
  O  O476  1  0.139500  0.189400  0.813920  1.0  -0.5986
  O  O477  1  0.373600  0.373050  0.518720  1.0  -0.6792
  O  O478  1  0.432700  0.363500  0.592550  1.0  -0.6556
  O  O479  1  0.584900  0.150040  0.409360  1.0  -0.6224
  O  O480  1  0.635100  0.133860  0.486010  1.0  -0.7175
  O  O481  1  0.254700  0.370410  0.401580  1.0  -0.7046
  O  O482  1  0.269500  0.283960  0.442800  1.0  -0.5598
  O  O483  1  0.331400  0.226100  0.173300  1.0  -0.5706
  O  O484  1  0.402000  0.160290  0.213830  1.0  -0.684
  O  O485  1  0.131400  0.617750  0.980660  1.0  -0.7203
  O  O486  1  0.071300  0.607100  0.906940  1.0  -0.6159
  O  O487  1  0.187900  0.478400  0.331680  1.0  -0.5693
  O  O488  1  0.113400  0.414140  0.293260  1.0  -0.7227
  O  O489  1  0.247900  0.625430  0.099800  1.0  -0.7166
  O  O490  1  0.237800  0.537010  0.060700  1.0  -0.56
  O  O491  1  0.369300  0.620620  0.016280  1.0  -0.6879
  O  O492  1  0.425900  0.608900  0.090640  1.0  -0.6335
  O  O493  1  0.126900  0.941600  0.313300  1.0  -0.5794
  O  O494  1  0.177100  0.022800  0.347420  1.0  -0.5986
  O  O495  1  0.232000  0.040120  0.069210  1.0  -0.5982
  O  O496  1  0.250900  0.130380  0.103090  1.0  -0.6973
  O  O497  1  0.245900  0.885950  0.395630  1.0  -0.6902
  O  O498  1  0.260800  0.794580  0.428540  1.0  -0.5778
  O  O499  1  0.304700  0.767300  0.150640  1.0  -0.6041
  O  O500  1  0.360500  0.689400  0.186080  1.0  -0.6036
  O  O501  1  0.126400  0.873050  0.481280  1.0  -0.6787
  O  O502  1  0.067300  0.863500  0.407450  1.0  -0.6561
  O  O503  1  0.915100  0.650040  0.590640  1.0  -0.6234
  O  O504  1  0.864900  0.633860  0.513990  1.0  -0.7176
  O  O505  1  0.245300  0.870410  0.598420  1.0  -0.7055
  O  O506  1  0.230500  0.783960  0.557200  1.0  -0.5586
  O  O507  1  0.168600  0.726100  0.826700  1.0  -0.5707
  O  O508  1  0.098000  0.660290  0.786170  1.0  -0.6819
  O  O509  1  0.368600  0.117750  0.019340  1.0  -0.7192
  O  O510  1  0.428700  0.107100  0.093060  1.0  -0.6175
  O  O511  1  0.312100  0.978400  0.668320  1.0  -0.5669
  O  O512  1  0.386600  0.914140  0.706740  1.0  -0.7251
  O  O513  1  0.252100  0.125430  0.900200  1.0  -0.7154
  O  O514  1  0.262200  0.037010  0.939300  1.0  -0.5606
  O  O515  1  0.130700  0.120620  0.983720  1.0  -0.6879
  O  O516  1  0.074100  0.108900  0.909360  1.0  -0.6291
