# generated using pymatgen
data_CoH2(CO2)2
_symmetry_space_group_name_H-M   'P 1'
_cell_length_a   9.83210000
_cell_length_b   11.25390000
_cell_length_c   14.42250000
_cell_angle_alpha   91.19300000
_cell_angle_beta   90.00000000
_cell_angle_gamma   90.00000000
_symmetry_Int_Tables_number   1
_chemical_formula_structural   CoH2(CO2)2
_chemical_formula_sum   'Co12 H24 C24 O48'
_cell_volume   1595.49606051
_cell_formula_units_Z   12
loop_
 _symmetry_equiv_pos_site_id
 _symmetry_equiv_pos_as_xyz
  1  'x, y, z'
loop_
 _atom_site_type_symbol
 _atom_site_label
 _atom_site_symmetry_multiplicity
 _atom_site_fract_x
 _atom_site_fract_y
 _atom_site_fract_z
 _atom_site_occupancy
 _atom_site_charge
  Co  Co1  1  0.420560  0.744860  0.366930  1.0  1.1189
  Co  Co2  1  0.110280  0.740210  0.310900  1.0  1.0975
  Co  Co3  1  0.920560  0.755140  0.133070  1.0  1.1186
  Co  Co4  1  0.610280  0.759790  0.189100  1.0  1.0974
  Co  Co5  1  0.579440  0.255140  0.633070  1.0  1.1184
  Co  Co6  1  0.889720  0.259790  0.689100  1.0  1.0972
  Co  Co7  1  0.079440  0.244860  0.866930  1.0  1.1176
  Co  Co8  1  0.389720  0.240210  0.810900  1.0  1.0973
  Co  Co9  1  0.500000  0.000000  0.500000  1.0  1.1253
  Co  Co10  1  0.000000  0.500000  0.000000  1.0  1.1253
  Co  Co11  1  0.500000  0.500000  0.500000  1.0  1.1448
  Co  Co12  1  0.000000  0.000000  0.000000  1.0  1.1448
  H  H13  1  0.758000  0.861000  0.369000  1.0  -0.0002
  H  H14  1  0.038000  0.475000  0.261000  1.0  0.0163
  H  H15  1  0.879000  0.055000  0.536000  1.0  0.0241
  H  H16  1  0.212000  0.509000  0.491000  1.0  0.0079
  H  H17  1  0.342000  0.201000  0.429000  1.0  0.0056
  H  H18  1  0.698000  0.516000  0.267000  1.0  0.0138
  H  H19  1  0.258000  0.639000  0.131000  1.0  -0.0006
  H  H20  1  0.538000  0.025000  0.239000  1.0  0.0168
  H  H21  1  0.379000  0.445000  0.964000  1.0  0.0242
  H  H22  1  0.712000  0.991000  0.009000  1.0  0.008
  H  H23  1  0.842000  0.299000  0.071000  1.0  0.0053
  H  H24  1  0.198000  0.984000  0.233000  1.0  0.0143
  H  H25  1  0.242000  0.139000  0.631000  1.0  -0.0006
  H  H26  1  0.962000  0.525000  0.739000  1.0  0.0173
  H  H27  1  0.121000  0.945000  0.464000  1.0  0.0224
  H  H28  1  0.788000  0.491000  0.509000  1.0  0.0083
  H  H29  1  0.658000  0.799000  0.571000  1.0  0.0051
  H  H30  1  0.302000  0.484000  0.733000  1.0  0.0137
  H  H31  1  0.742000  0.361000  0.869000  1.0  -0.0003
  H  H32  1  0.462000  0.975000  0.761000  1.0  0.0163
  H  H33  1  0.621000  0.555000  0.036000  1.0  0.0224
  H  H34  1  0.288000  0.009000  0.991000  1.0  0.0079
  H  H35  1  0.158000  0.701000  0.929000  1.0  0.0055
  H  H36  1  0.802000  0.016000  0.767000  1.0  0.013
  C  C37  1  0.828400  0.830800  0.330100  1.0  0.7006
  C  C38  1  0.013500  0.517000  0.212000  1.0  0.6957
  C  C39  1  0.788100  0.075800  0.547200  1.0  0.6804
  C  C40  1  0.628600  0.544800  0.312600  1.0  0.6667
  C  C41  1  0.393100  0.243500  0.469900  1.0  0.7124
  C  C42  1  0.221200  0.572000  0.450500  1.0  0.6979
  C  C43  1  0.328400  0.669200  0.169900  1.0  0.701
  C  C44  1  0.513500  0.983000  0.288000  1.0  0.6949
  C  C45  1  0.288100  0.424200  0.952800  1.0  0.6792
  C  C46  1  0.128600  0.955200  0.187400  1.0  0.6662
  C  C47  1  0.893100  0.256500  0.030100  1.0  0.7112
  C  C48  1  0.721200  0.928000  0.049500  1.0  0.6971
  C  C49  1  0.171600  0.169200  0.669900  1.0  0.7005
  C  C50  1  0.986500  0.483000  0.788000  1.0  0.6956
  C  C51  1  0.211900  0.924200  0.452800  1.0  0.6792
  C  C52  1  0.371400  0.455200  0.687400  1.0  0.6662
  C  C53  1  0.606900  0.756500  0.530100  1.0  0.7109
  C  C54  1  0.778800  0.428000  0.549500  1.0  0.6961
  C  C55  1  0.671600  0.330800  0.830100  1.0  0.7004
  C  C56  1  0.486500  0.017000  0.712000  1.0  0.6959
  C  C57  1  0.711900  0.575800  0.047200  1.0  0.6802
  C  C58  1  0.871400  0.044800  0.812600  1.0  0.6673
  C  C59  1  0.106900  0.743500  0.969900  1.0  0.7118
  C  C60  1  0.278800  0.072000  0.950500  1.0  0.6969
  O  O61  1  0.800170  0.808670  0.245470  1.0  -0.6694
  O  O62  1  0.939700  0.816170  0.368270  1.0  -0.583
  O  O63  1  0.004850  0.628740  0.219540  1.0  -0.6768
  O  O64  1  0.995600  0.456970  0.140470  1.0  -0.6003
  O  O65  1  0.242870  0.847000  0.391500  1.0  -0.6749
  O  O66  1  0.708900  0.017820  0.497720  1.0  -0.5857
  O  O67  1  0.583560  0.649680  0.304780  1.0  -0.6592
  O  O68  1  0.604300  0.476670  0.376170  1.0  -0.5757
  O  O69  1  0.472600  0.184530  0.523430  1.0  -0.6944
  O  O70  1  0.384700  0.351150  0.466650  1.0  -0.593
  O  O71  1  0.345200  0.602740  0.439940  1.0  -0.6728
  O  O72  1  0.122080  0.613310  0.409610  1.0  -0.5852
  O  O73  1  0.300170  0.691330  0.254530  1.0  -0.6688
  O  O74  1  0.439700  0.683830  0.131730  1.0  -0.5832
  O  O75  1  0.504850  0.871260  0.280460  1.0  -0.6768
  O  O76  1  0.495600  0.043030  0.359530  1.0  -0.6002
  O  O77  1  0.742870  0.653000  0.108500  1.0  -0.6748
  O  O78  1  0.208900  0.482180  0.002280  1.0  -0.5855
  O  O79  1  0.083560  0.850320  0.195220  1.0  -0.6592
  O  O80  1  0.104300  0.023330  0.123830  1.0  -0.5752
  O  O81  1  0.972600  0.315470  0.976570  1.0  -0.6945
  O  O82  1  0.884700  0.148850  0.033350  1.0  -0.5918
  O  O83  1  0.845200  0.897260  0.060060  1.0  -0.6704
  O  O84  1  0.622080  0.886690  0.090390  1.0  -0.5848
  O  O85  1  0.199830  0.191330  0.754530  1.0  -0.669
  O  O86  1  0.060300  0.183830  0.631730  1.0  -0.5843
  O  O87  1  0.995150  0.371260  0.780460  1.0  -0.6765
  O  O88  1  0.004400  0.543030  0.859530  1.0  -0.6005
  O  O89  1  0.757130  0.153000  0.608500  1.0  -0.6744
  O  O90  1  0.291100  0.982180  0.502280  1.0  -0.5847
  O  O91  1  0.416440  0.350320  0.695220  1.0  -0.6594
  O  O92  1  0.395700  0.523330  0.623830  1.0  -0.5758
  O  O93  1  0.527400  0.815470  0.476570  1.0  -0.695
  O  O94  1  0.615300  0.648850  0.533350  1.0  -0.5918
  O  O95  1  0.654800  0.397260  0.560060  1.0  -0.6706
  O  O96  1  0.877920  0.386690  0.590390  1.0  -0.5853
  O  O97  1  0.699830  0.308670  0.745470  1.0  -0.6697
  O  O98  1  0.560300  0.316170  0.868270  1.0  -0.5842
  O  O99  1  0.495150  0.128740  0.719540  1.0  -0.6763
  O  O100  1  0.504400  0.956970  0.640470  1.0  -0.6007
  O  O101  1  0.257130  0.347000  0.891500  1.0  -0.6747
  O  O102  1  0.791100  0.517820  0.997720  1.0  -0.5853
  O  O103  1  0.916440  0.149680  0.804780  1.0  -0.6592
  O  O104  1  0.895700  0.976670  0.876170  1.0  -0.5761
  O  O105  1  0.027400  0.684530  0.023430  1.0  -0.6948
  O  O106  1  0.115300  0.851150  0.966650  1.0  -0.5933
  O  O107  1  0.154800  0.102740  0.939940  1.0  -0.6712
  O  O108  1  0.377920  0.113310  0.909610  1.0  -0.5857
