# generated using pymatgen
data_CoH2(CO2)2
_symmetry_space_group_name_H-M   'P 1'
_cell_length_a   9.81190000
_cell_length_b   11.24700000
_cell_length_c   14.41390000
_cell_angle_alpha   91.15530000
_cell_angle_beta   90.00000000
_cell_angle_gamma   90.00000000
_symmetry_Int_Tables_number   1
_chemical_formula_structural   CoH2(CO2)2
_chemical_formula_sum   'Co12 H24 C24 O48'
_cell_volume   1590.31450410
_cell_formula_units_Z   12
loop_
 _symmetry_equiv_pos_site_id
 _symmetry_equiv_pos_as_xyz
  1  'x, y, z'
loop_
 _atom_site_type_symbol
 _atom_site_label
 _atom_site_symmetry_multiplicity
 _atom_site_fract_x
 _atom_site_fract_y
 _atom_site_fract_z
 _atom_site_occupancy
 _atom_site_charge
  Co  Co1  1  0.920270  0.755110  0.133040  1.0  1.1152
  Co  Co2  1  0.890380  0.259780  0.688860  1.0  1.0906
  Co  Co3  1  0.420270  0.744890  0.366960  1.0  1.1155
  Co  Co4  1  0.390380  0.240220  0.811140  1.0  1.0907
  Co  Co5  1  0.079730  0.244890  0.866960  1.0  1.1151
  Co  Co6  1  0.109620  0.740220  0.311140  1.0  1.0911
  Co  Co7  1  0.579730  0.255110  0.633040  1.0  1.1148
  Co  Co8  1  0.609620  0.759780  0.188860  1.0  1.0909
  Co  Co9  1  0.000000  0.500000  0.000000  1.0  1.1465
  Co  Co10  1  0.500000  0.000000  0.500000  1.0  1.1465
  Co  Co11  1  0.000000  0.000000  0.000000  1.0  1.094
  Co  Co12  1  0.500000  0.500000  0.500000  1.0  1.094
  H  H13  1  0.756000  0.865000  0.368000  1.0  0.0016
  H  H14  1  0.035000  0.477000  0.266000  1.0  0.0115
  H  H15  1  0.617000  0.555000  0.038000  1.0  0.0323
  H  H16  1  0.705000  0.989000  0.007000  1.0  0.0049
  H  H17  1  0.161000  0.695000  0.929000  1.0  0.0169
  H  H18  1  0.193000  0.988000  0.238000  1.0  0.0308
  H  H19  1  0.256000  0.635000  0.132000  1.0  0.0017
  H  H20  1  0.535000  0.023000  0.234000  1.0  0.0111
  H  H21  1  0.117000  0.945000  0.462000  1.0  0.0321
  H  H22  1  0.205000  0.511000  0.493000  1.0  0.0045
  H  H23  1  0.661000  0.805000  0.571000  1.0  0.0179
  H  H24  1  0.693000  0.512000  0.262000  1.0  0.0302
  H  H25  1  0.244000  0.135000  0.632000  1.0  0.0012
  H  H26  1  0.965000  0.523000  0.734000  1.0  0.0115
  H  H27  1  0.383000  0.445000  0.962000  1.0  0.0327
  H  H28  1  0.295000  0.011000  0.993000  1.0  0.0051
  H  H29  1  0.839000  0.305000  0.071000  1.0  0.0174
  H  H30  1  0.807000  0.012000  0.762000  1.0  0.03
  H  H31  1  0.744000  0.365000  0.868000  1.0  0.001
  H  H32  1  0.465000  0.977000  0.766000  1.0  0.0116
  H  H33  1  0.883000  0.055000  0.538000  1.0  0.033
  H  H34  1  0.795000  0.489000  0.507000  1.0  0.0054
  H  H35  1  0.339000  0.195000  0.429000  1.0  0.0164
  H  H36  1  0.307000  0.488000  0.738000  1.0  0.0307
  C  C37  1  0.826900  0.831600  0.330100  1.0  0.7048
  C  C38  1  0.012100  0.516200  0.212400  1.0  0.7065
  C  C39  1  0.710700  0.576100  0.046500  1.0  0.6969
  C  C40  1  0.128900  0.955100  0.187700  1.0  0.6537
  C  C41  1  0.107900  0.743000  0.969900  1.0  0.6911
  C  C42  1  0.721200  0.927800  0.048900  1.0  0.7117
  C  C43  1  0.326900  0.668400  0.169900  1.0  0.7051
  C  C44  1  0.512100  0.983800  0.287600  1.0  0.7064
  C  C45  1  0.210700  0.923900  0.453500  1.0  0.6971
  C  C46  1  0.628900  0.544900  0.312300  1.0  0.6539
  C  C47  1  0.607900  0.757000  0.530100  1.0  0.6907
  C  C48  1  0.221200  0.572200  0.451100  1.0  0.713
  C  C49  1  0.173100  0.168400  0.669900  1.0  0.7047
  C  C50  1  0.987900  0.483800  0.787600  1.0  0.7069
  C  C51  1  0.289300  0.423900  0.953500  1.0  0.6962
  C  C52  1  0.871100  0.044900  0.812300  1.0  0.6545
  C  C53  1  0.892100  0.257000  0.030100  1.0  0.6898
  C  C54  1  0.278800  0.072200  0.951100  1.0  0.7124
  C  C55  1  0.673100  0.331600  0.830100  1.0  0.7047
  C  C56  1  0.487900  0.016200  0.712400  1.0  0.7068
  C  C57  1  0.789300  0.076100  0.546500  1.0  0.6962
  C  C58  1  0.371100  0.455100  0.687700  1.0  0.6537
  C  C59  1  0.392100  0.243000  0.469900  1.0  0.6911
  C  C60  1  0.778800  0.427800  0.548900  1.0  0.7109
  O  O61  1  0.799020  0.809290  0.244990  1.0  -0.6685
  O  O62  1  0.939300  0.816900  0.368100  1.0  -0.5853
  O  O63  1  0.003940  0.628610  0.219810  1.0  -0.6703
  O  O64  1  0.994700  0.456800  0.140600  1.0  -0.5967
  O  O65  1  0.742200  0.652900  0.108400  1.0  -0.677
  O  O66  1  0.790700  0.517890  0.997090  1.0  -0.5825
  O  O67  1  0.083700  0.850110  0.195310  1.0  -0.6643
  O  O68  1  0.104200  0.023970  0.124170  1.0  -0.5758
  O  O69  1  0.027700  0.684440  0.023440  1.0  -0.6988
  O  O70  1  0.116400  0.851400  0.966700  1.0  -0.5947
  O  O71  1  0.845000  0.897080  0.059880  1.0  -0.681
  O  O72  1  0.620900  0.886710  0.089910  1.0  -0.5929
  O  O73  1  0.299020  0.690710  0.255010  1.0  -0.6678
  O  O74  1  0.439300  0.683100  0.131900  1.0  -0.585
  O  O75  1  0.503940  0.871390  0.280190  1.0  -0.6706
  O  O76  1  0.494700  0.043200  0.359400  1.0  -0.5976
  O  O77  1  0.242200  0.847100  0.391600  1.0  -0.6769
  O  O78  1  0.290700  0.982110  0.502910  1.0  -0.5823
  O  O79  1  0.583700  0.649890  0.304690  1.0  -0.6642
  O  O80  1  0.604200  0.476030  0.375830  1.0  -0.576
  O  O81  1  0.527700  0.815560  0.476560  1.0  -0.6991
  O  O82  1  0.616400  0.648600  0.533300  1.0  -0.5937
  O  O83  1  0.345000  0.602920  0.440120  1.0  -0.6815
  O  O84  1  0.120900  0.613290  0.410090  1.0  -0.5935
  O  O85  1  0.200980  0.190710  0.755010  1.0  -0.6675
  O  O86  1  0.060700  0.183100  0.631900  1.0  -0.5858
  O  O87  1  0.996060  0.371390  0.780190  1.0  -0.6705
  O  O88  1  0.005300  0.543200  0.859400  1.0  -0.598
  O  O89  1  0.257800  0.347100  0.891600  1.0  -0.677
  O  O90  1  0.209300  0.482110  0.002910  1.0  -0.5832
  O  O91  1  0.916300  0.149890  0.804690  1.0  -0.6646
  O  O92  1  0.895800  0.976030  0.875830  1.0  -0.5763
  O  O93  1  0.972300  0.315560  0.976560  1.0  -0.6988
  O  O94  1  0.883600  0.148600  0.033300  1.0  -0.5933
  O  O95  1  0.155000  0.102920  0.940120  1.0  -0.6813
  O  O96  1  0.379100  0.113290  0.910090  1.0  -0.5934
  O  O97  1  0.700980  0.309290  0.744990  1.0  -0.6684
  O  O98  1  0.560700  0.316900  0.868100  1.0  -0.5862
  O  O99  1  0.496060  0.128610  0.719810  1.0  -0.67
  O  O100  1  0.505300  0.956800  0.640600  1.0  -0.5971
  O  O101  1  0.757800  0.152900  0.608400  1.0  -0.6771
  O  O102  1  0.709300  0.017890  0.497090  1.0  -0.5829
  O  O103  1  0.416300  0.350110  0.695310  1.0  -0.6648
  O  O104  1  0.395800  0.523970  0.624170  1.0  -0.5765
  O  O105  1  0.472300  0.184440  0.523440  1.0  -0.6986
  O  O106  1  0.383600  0.351400  0.466700  1.0  -0.5941
  O  O107  1  0.655000  0.397080  0.559880  1.0  -0.6808
  O  O108  1  0.879100  0.386710  0.589910  1.0  -0.5931
