# generated using pymatgen
data_MgH3C7O3
_symmetry_space_group_name_H-M   'P 1'
_cell_length_a   6.84830000
_cell_length_b   21.05610000
_cell_length_c   21.05610000
_cell_angle_alpha   61.15970000
_cell_angle_beta   83.77620000
_cell_angle_gamma   96.22380000
_symmetry_Int_Tables_number   1
_chemical_formula_structural   MgH3C7O3
_chemical_formula_sum   'Mg6 H18 C42 O18'
_cell_volume   2598.57198324
_cell_formula_units_Z   6
loop_
 _symmetry_equiv_pos_site_id
 _symmetry_equiv_pos_as_xyz
  1  'x, y, z'
loop_
 _atom_site_type_symbol
 _atom_site_label
 _atom_site_symmetry_multiplicity
 _atom_site_fract_x
 _atom_site_fract_y
 _atom_site_fract_z
 _atom_site_occupancy
 _atom_site_charge
  Mg  Mg1  1  0.178280  0.696360  0.618690  1.0  1.3531
  Mg  Mg2  1  0.796970  0.618690  0.684950  1.0  1.3403
  Mg  Mg3  1  0.481920  0.684950  0.696360  1.0  1.3671
  Mg  Mg4  1  0.821720  0.303640  0.381310  1.0  1.3427
  Mg  Mg5  1  0.203030  0.381310  0.315050  1.0  1.3594
  Mg  Mg6  1  0.518080  0.315050  0.303640  1.0  1.3743
  H  H7  1  0.267480  0.885740  0.576380  1.0  0.0907
  H  H8  1  0.988570  0.907800  0.498240  1.0  0.1158
  H  H9  1  0.847010  0.016720  0.447170  1.0  0.0921
  H  H10  1  0.843860  0.576380  0.537880  1.0  0.0902
  H  H11  1  0.486810  0.498240  0.593960  1.0  0.1159
  H  H12  1  0.294180  0.447170  0.536110  1.0  0.0924
  H  H13  1  0.381740  0.537880  0.885740  1.0  0.0905
  H  H14  1  0.080770  0.593960  0.907800  1.0  0.1167
  H  H15  1  0.830290  0.536110  0.016720  1.0  0.0946
  H  H16  1  0.732520  0.114260  0.423620  1.0  0.091
  H  H17  1  0.011430  0.092200  0.501760  1.0  0.1161
  H  H18  1  0.152990  0.983280  0.552830  1.0  0.095
  H  H19  1  0.156140  0.423620  0.462120  1.0  0.0909
  H  H20  1  0.513190  0.501760  0.406040  1.0  0.1154
  H  H21  1  0.705820  0.552830  0.463890  1.0  0.0935
  H  H22  1  0.618260  0.462120  0.114260  1.0  0.0905
  H  H23  1  0.919230  0.406040  0.092200  1.0  0.1163
  H  H24  1  0.169710  0.463890  0.983280  1.0  0.0966
  C  C25  1  0.814120  0.758510  0.609290  1.0  0.6264
  C  C26  1  0.712370  0.823600  0.578980  1.0  -0.1776
  C  C27  1  0.501960  0.818780  0.596930  1.0  0.1307
  C  C28  1  0.425820  0.893090  0.558530  1.0  0.0119
  C  C29  1  0.542820  0.964410  0.509760  1.0  -0.0393
  C  C30  1  0.746530  0.966220  0.487780  1.0  -0.1124
  C  C31  1  0.830050  0.902360  0.517340  1.0  -0.099
  C  C32  1  0.423410  0.609290  0.632200  1.0  0.6318
  C  C33  1  0.291350  0.578980  0.597420  1.0  -0.1774
  C  C34  1  0.098890  0.596930  0.584290  1.0  0.1319
  C  C35  1  0.984350  0.558530  0.548380  1.0  0.0121
  C  C36  1  0.052580  0.509760  0.525830  1.0  -0.0397
  C  C37  1  0.234310  0.487780  0.546000  1.0  -0.1123
  C  C38  1  0.347390  0.517340  0.580300  1.0  -0.0969
  C  C39  1  0.055610  0.632200  0.758510  1.0  0.6357
  C  C40  1  0.888770  0.597420  0.823600  1.0  -0.1761
  C  C41  1  0.683180  0.584290  0.818780  1.0  0.1298
  C  C42  1  0.532730  0.548380  0.893090  1.0  0.0121
  C  C43  1  0.578410  0.525830  0.964410  1.0  -0.0393
  C  C44  1  0.780310  0.546000  0.966220  1.0  -0.1123
  C  C45  1  0.927690  0.580300  0.902360  1.0  -0.0976
  C  C46  1  0.185880  0.241490  0.390710  1.0  0.6271
  C  C47  1  0.287630  0.176400  0.421020  1.0  -0.1786
  C  C48  1  0.498040  0.181220  0.403070  1.0  0.131
  C  C49  1  0.574180  0.106910  0.441470  1.0  0.0121
  C  C50  1  0.457180  0.035590  0.490240  1.0  -0.0395
  C  C51  1  0.253470  0.033780  0.512220  1.0  -0.1138
  C  C52  1  0.169950  0.097640  0.482660  1.0  -0.0975
  C  C53  1  0.576590  0.390710  0.367800  1.0  0.6325
  C  C54  1  0.708650  0.421020  0.402580  1.0  -0.1771
  C  C55  1  0.901110  0.403070  0.415710  1.0  0.1316
  C  C56  1  0.015650  0.441470  0.451620  1.0  0.012
  C  C57  1  0.947420  0.490240  0.474170  1.0  -0.0386
  C  C58  1  0.765690  0.512220  0.454000  1.0  -0.1154
  C  C59  1  0.652610  0.482660  0.419700  1.0  -0.0983
  C  C60  1  0.944390  0.367800  0.241490  1.0  0.6343
  C  C61  1  0.111230  0.402580  0.176400  1.0  -0.1774
  C  C62  1  0.316820  0.415710  0.181220  1.0  0.1305
  C  C63  1  0.467270  0.451620  0.106910  1.0  0.0123
  C  C64  1  0.421590  0.474170  0.035590  1.0  -0.0398
  C  C65  1  0.219690  0.454000  0.033780  1.0  -0.115
  C  C66  1  0.072310  0.419700  0.097640  1.0  -0.0984
  O  O67  1  0.005760  0.769050  0.589290  1.0  -0.6371
  O  O68  1  0.716340  0.694050  0.652830  1.0  -0.6363
  O  O69  1  0.367430  0.752960  0.647870  1.0  -0.7306
  O  O70  1  0.595050  0.589290  0.641660  1.0  -0.6366
  O  O71  1  0.369170  0.652830  0.653120  1.0  -0.6382
  O  O72  1  0.015300  0.647870  0.599170  1.0  -0.7284
  O  O73  1  0.236710  0.641660  0.769050  1.0  -0.6347
  O  O74  1  0.022290  0.653120  0.694050  1.0  -0.6369
  O  O75  1  0.614470  0.599170  0.752960  1.0  -0.7306
  O  O76  1  0.994240  0.230950  0.410710  1.0  -0.6371
  O  O77  1  0.283660  0.305950  0.347170  1.0  -0.637
  O  O78  1  0.632570  0.247040  0.352130  1.0  -0.7303
  O  O79  1  0.404950  0.410710  0.358340  1.0  -0.6359
  O  O80  1  0.630830  0.347170  0.346880  1.0  -0.6364
  O  O81  1  0.984700  0.352130  0.400830  1.0  -0.729
  O  O82  1  0.763290  0.358340  0.230950  1.0  -0.6328
  O  O83  1  0.977710  0.346880  0.305950  1.0  -0.6372
  O  O84  1  0.385530  0.400830  0.247040  1.0  -0.7327
