# generated using pymatgen
data_MgH17(C7O)3
_symmetry_space_group_name_H-M   'P 1'
_cell_length_a   6.46180000
_cell_length_b   39.87150000
_cell_length_c   39.87150000
_cell_angle_alpha   60.28920000
_cell_angle_beta   86.90320000
_cell_angle_gamma   93.09680000
_symmetry_Int_Tables_number   1
_chemical_formula_structural   MgH17(C7O)3
_chemical_formula_sum   'Mg6 H102 C126 O18'
_cell_volume   8870.33289738
_cell_formula_units_Z   6
loop_
 _symmetry_equiv_pos_site_id
 _symmetry_equiv_pos_as_xyz
  1  'x, y, z'
loop_
 _atom_site_type_symbol
 _atom_site_label
 _atom_site_symmetry_multiplicity
 _atom_site_fract_x
 _atom_site_fract_y
 _atom_site_fract_z
 _atom_site_occupancy
 _atom_site_charge
  Mg  Mg1  1  0.869310  0.638190  0.672900  1.0  1.4565
  Mg  Mg2  1  0.542210  0.672900  0.688910  1.0  1.4761
  Mg  Mg3  1  0.231120  0.688910  0.638190  1.0  1.4791
  Mg  Mg4  1  0.130690  0.361810  0.327100  1.0  1.4758
  Mg  Mg5  1  0.457790  0.327100  0.311090  1.0  1.4751
  Mg  Mg6  1  0.768880  0.311090  0.361810  1.0  1.4772
  H  H7  1  0.861800  0.625520  0.592310  1.0  0.0796
  H  H8  1  0.559580  0.578980  0.624010  1.0  0.0833
  H  H9  1  0.336360  0.553880  0.592370  1.0  0.0792
  H  H10  1  0.939180  0.513620  0.622070  1.0  0.0892
  H  H11  1  0.707020  0.592910  0.490550  1.0  0.0898
  H  H12  1  0.334740  0.495490  0.560050  1.0  0.0784
  H  H13  1  0.890030  0.649330  0.481330  1.0  0.1573
  H  H14  1  0.859310  0.652260  0.524820  1.0  0.139
  H  H15  1  0.661130  0.455830  0.584890  1.0  0.072
  H  H16  1  0.874780  0.455490  0.611640  1.0  0.0708
  H  H17  1  0.617310  0.461640  0.626730  1.0  0.0821
  H  H18  1  0.005250  0.522070  0.459640  1.0  0.0591
  H  H19  1  0.998190  0.549450  0.483720  1.0  0.0787
  H  H20  1  0.237870  0.620270  0.366920  1.0  0.082
  H  H21  1  0.154930  0.578880  0.393420  1.0  0.0972
  H  H22  1  0.154980  0.558420  0.458520  1.0  0.0655
  H  H23  1  0.147610  0.605310  0.436020  1.0  0.1866
  H  H24  1  0.454110  0.592310  0.782170  1.0  0.0797
  H  H25  1  0.183590  0.624010  0.797010  1.0  0.0834
  H  H26  1  0.928730  0.592370  0.853750  1.0  0.0799
  H  H27  1  0.561250  0.622070  0.864310  1.0  0.0885
  H  H28  1  0.197570  0.490550  0.916540  1.0  0.09
  H  H29  1  0.894790  0.560050  0.944460  1.0  0.0806
  H  H30  1  0.371360  0.481330  0.869340  1.0  0.1587
  H  H31  1  0.384130  0.524820  0.822920  1.0  0.1408
  H  H32  1  0.246020  0.584890  0.959280  1.0  0.0727
  H  H33  1  0.486420  0.611640  0.932870  1.0  0.0714
  H  H34  1  0.244040  0.626730  0.911630  1.0  0.0828
  H  H35  1  0.464890  0.459640  0.018290  1.0  0.0566
  H  H36  1  0.481910  0.483720  0.966830  1.0  0.0777
  H  H37  1  0.604790  0.366920  0.012810  1.0  0.0852
  H  H38  1  0.548350  0.393420  0.027700  1.0  0.0986
  H  H39  1  0.613500  0.458520  0.983060  1.0  0.0673
  H  H40  1  0.583630  0.436020  0.958670  1.0  0.188
  H  H41  1  0.236280  0.782170  0.625520  1.0  0.079
  H  H42  1  0.980600  0.797010  0.578980  1.0  0.082
  H  H43  1  0.782480  0.853750  0.553880  1.0  0.0803
  H  H44  1  0.425560  0.864310  0.513620  1.0  0.0892
  H  H45  1  0.114110  0.916540  0.592910  1.0  0.09
  H  H46  1  0.839250  0.944460  0.495490  1.0  0.0789
  H  H47  1  0.240700  0.869340  0.649330  1.0  0.1573
  H  H48  1  0.207050  0.822920  0.652260  1.0  0.1393
  H  H49  1  0.205300  0.959280  0.455830  1.0  0.0718
  H  H50  1  0.419290  0.932870  0.455490  1.0  0.0682
  H  H51  1  0.155670  0.911630  0.461640  1.0  0.0816
  H  H52  1  0.483180  0.018290  0.522070  1.0  0.0585
  H  H53  1  0.448740  0.966830  0.549450  1.0  0.079
  H  H54  1  0.617600  0.012810  0.620270  1.0  0.0786
  H  H55  1  0.576050  0.027700  0.578880  1.0  0.0986
  H  H56  1  0.596560  0.983060  0.558420  1.0  0.0663
  H  H57  1  0.542300  0.958670  0.605310  1.0  0.1847
  H  H58  1  0.138200  0.374480  0.407690  1.0  0.0791
  H  H59  1  0.440420  0.421020  0.375990  1.0  0.0833
  H  H60  1  0.663640  0.446120  0.407630  1.0  0.0792
  H  H61  1  0.060820  0.486380  0.377930  1.0  0.0897
  H  H62  1  0.292980  0.407090  0.509450  1.0  0.0889
  H  H63  1  0.665260  0.504510  0.439950  1.0  0.0791
  H  H64  1  0.109970  0.350670  0.518670  1.0  0.1565
  H  H65  1  0.140690  0.347740  0.475180  1.0  0.1376
  H  H66  1  0.338870  0.544170  0.415110  1.0  0.0728
  H  H67  1  0.125220  0.544510  0.388360  1.0  0.0717
  H  H68  1  0.382690  0.538360  0.373270  1.0  0.0817
  H  H69  1  0.994750  0.477930  0.540360  1.0  0.0584
  H  H70  1  0.001810  0.450550  0.516280  1.0  0.0793
  H  H71  1  0.762130  0.379730  0.633080  1.0  0.0781
  H  H72  1  0.845070  0.421120  0.606580  1.0  0.0981
  H  H73  1  0.845020  0.441580  0.541480  1.0  0.0548
  H  H74  1  0.852390  0.394690  0.563980  1.0  0.19
  H  H75  1  0.545890  0.407690  0.217830  1.0  0.0793
  H  H76  1  0.816410  0.375990  0.202990  1.0  0.0833
  H  H77  1  0.071270  0.407630  0.146250  1.0  0.079
  H  H78  1  0.438750  0.377930  0.135690  1.0  0.0891
  H  H79  1  0.802430  0.509450  0.083460  1.0  0.0909
  H  H80  1  0.105210  0.439950  0.055540  1.0  0.0791
  H  H81  1  0.628640  0.518670  0.130660  1.0  0.1612
  H  H82  1  0.615870  0.475180  0.177080  1.0  0.1404
  H  H83  1  0.753980  0.415110  0.040720  1.0  0.0739
  H  H84  1  0.513580  0.388360  0.067130  1.0  0.0691
  H  H85  1  0.755960  0.373270  0.088370  1.0  0.0821
  H  H86  1  0.535110  0.540360  0.981710  1.0  0.0573
  H  H87  1  0.518090  0.516280  0.033170  1.0  0.074
  H  H88  1  0.395210  0.633080  0.987190  1.0  0.0826
  H  H89  1  0.451650  0.606580  0.972300  1.0  0.101
  H  H90  1  0.386500  0.541480  0.016940  1.0  0.0588
  H  H91  1  0.416370  0.563980  0.041330  1.0  0.1838
  H  H92  1  0.763720  0.217830  0.374480  1.0  0.0789
  H  H93  1  0.019400  0.202990  0.421020  1.0  0.0832
  H  H94  1  0.217520  0.146250  0.446120  1.0  0.0809
  H  H95  1  0.574440  0.135690  0.486380  1.0  0.0898
  H  H96  1  0.885890  0.083460  0.407090  1.0  0.09
  H  H97  1  0.160750  0.055540  0.504510  1.0  0.0797
  H  H98  1  0.759300  0.130660  0.350670  1.0  0.157
  H  H99  1  0.792950  0.177080  0.347740  1.0  0.1421
  H  H100  1  0.794700  0.040720  0.544170  1.0  0.0735
  H  H101  1  0.580710  0.067130  0.544510  1.0  0.0724
  H  H102  1  0.844330  0.088370  0.538360  1.0  0.0845
  H  H103  1  0.516820  0.981710  0.477930  1.0  0.0605
  H  H104  1  0.551260  0.033170  0.450550  1.0  0.0798
  H  H105  1  0.382400  0.987190  0.379730  1.0  0.0782
  H  H106  1  0.423950  0.972300  0.421120  1.0  0.0986
  H  H107  1  0.403440  0.016940  0.441580  1.0  0.0585
  H  H108  1  0.457700  0.041330  0.394690  1.0  0.1861
  C  C109  1  0.483130  0.631770  0.646200  1.0  0.6556
  C  C110  1  0.340890  0.617860  0.626470  1.0  -0.2329
  C  C111  1  0.138310  0.630100  0.617710  1.0  0.2755
  C  C112  1  0.014130  0.615400  0.599320  1.0  -0.1271
  C  C113  1  0.082660  0.587930  0.590180  1.0  -0.026
  C  C114  1  0.280540  0.575220  0.599250  1.0  -0.1546
  C  C115  1  0.408110  0.589950  0.617070  1.0  -0.1199
  C  C116  1  0.944920  0.571110  0.572610  1.0  -0.0351
  C  C117  1  0.876350  0.593910  0.535320  1.0  -0.0867
  C  C118  1  0.757680  0.575690  0.519320  1.0  -0.1259
  C  C119  1  0.711560  0.535150  0.539080  1.0  -0.0193
  C  C120  1  0.773410  0.512580  0.577110  1.0  -0.005
  C  C121  1  0.888530  0.530930  0.593300  1.0  -0.1483
  C  C122  1  0.605670  0.517340  0.518630  1.0  -0.0422
  C  C123  1  0.407300  0.497340  0.533880  1.0  -0.1372
  C  C124  1  0.698450  0.520370  0.483980  1.0  -0.0593
  C  C125  1  0.936850  0.637030  0.511360  1.0  0.2599
  C  C126  1  0.728080  0.469030  0.601180  1.0  -0.311
  C  C127  1  0.910000  0.541370  0.465230  1.0  -0.1953
  C  C128  1  0.046180  0.579670  0.438460  1.0  -0.0544
  C  C129  1  0.138950  0.605930  0.396020  1.0  -0.0859
  C  C130  1  0.129330  0.646200  0.722030  1.0  0.6555
  C  C131  1  0.967360  0.626470  0.755670  1.0  -0.2334
  C  C132  1  0.756020  0.617710  0.752190  1.0  0.2792
  C  C133  1  0.613450  0.599320  0.785280  1.0  -0.1264
  C  C134  1  0.672840  0.590180  0.821890  1.0  -0.0266
  C  C135  1  0.879790  0.599250  0.825530  1.0  -0.152
  C  C136  1  0.025180  0.617070  0.792980  1.0  -0.1203
  C  C137  1  0.517530  0.572610  0.856280  1.0  -0.0364
  C  C138  1  0.411670  0.535320  0.870770  1.0  -0.0907
  C  C139  1  0.277000  0.519320  0.904990  1.0  -0.1271
  C  C140  1  0.250640  0.539080  0.925770  1.0  -0.0229
  C  C141  1  0.350520  0.577110  0.910310  1.0  -0.005
  C  C142  1  0.481830  0.593300  0.875770  1.0  -0.1534
  C  C143  1  0.124300  0.518630  0.964030  1.0  -0.0418
  C  C144  1  0.941180  0.533880  0.968780  1.0  -0.1363
  C  C145  1  0.182430  0.483980  0.995650  1.0  -0.059
  C  C146  1  0.448210  0.511360  0.851610  1.0  0.2585
  C  C147  1  0.329260  0.601180  0.929790  1.0  -0.3092
  C  C148  1  0.375230  0.465230  0.993400  1.0  -0.1946
  C  C149  1  0.484640  0.438460  0.981870  1.0  -0.0641
  C  C150  1  0.534970  0.396020  0.998050  1.0  -0.088
  C  C151  1  0.851360  0.722030  0.631770  1.0  0.6542
  C  C152  1  0.723030  0.755670  0.617860  1.0  -0.2321
  C  C153  1  0.508210  0.752190  0.630100  1.0  0.2751
  C  C154  1  0.398730  0.785280  0.615400  1.0  -0.1268
  C  C155  1  0.494730  0.821890  0.587930  1.0  -0.0259
  C  C156  1  0.705320  0.825530  0.575220  1.0  -0.1526
  C  C157  1  0.818160  0.792980  0.589950  1.0  -0.1206
  C  C158  1  0.373810  0.856280  0.571110  1.0  -0.0359
  C  C159  1  0.282440  0.870770  0.593910  1.0  -0.0861
  C  C160  1  0.181990  0.904990  0.575690  1.0  -0.1282
  C  C161  1  0.176410  0.925770  0.535150  1.0  -0.021
  C  C162  1  0.260830  0.910310  0.512580  1.0  -0.0062
  C  C163  1  0.357600  0.875770  0.530930  1.0  -0.1534
  C  C164  1  0.088330  0.964030  0.517340  1.0  -0.0425
  C  C165  1  0.909960  0.968780  0.497340  1.0  -0.1375
  C  C166  1  0.178080  0.995650  0.520370  1.0  -0.0595
  C  C167  1  0.299820  0.851610  0.637030  1.0  0.2574
  C  C168  1  0.259050  0.929790  0.469030  1.0  -0.312
  C  C169  1  0.368630  0.993400  0.541370  1.0  -0.1967
  C  C170  1  0.466510  0.981870  0.579670  1.0  -0.064
  C  C171  1  0.533020  0.998050  0.605930  1.0  -0.0932
  C  C172  1  0.516870  0.368230  0.353800  1.0  0.6559
  C  C173  1  0.659110  0.382140  0.373530  1.0  -0.2328
  C  C174  1  0.861690  0.369900  0.382290  1.0  0.2752
  C  C175  1  0.985870  0.384600  0.400680  1.0  -0.1241
  C  C176  1  0.917340  0.412070  0.409820  1.0  -0.0267
  C  C177  1  0.719460  0.424780  0.400750  1.0  -0.1552
  C  C178  1  0.591890  0.410050  0.382930  1.0  -0.119
  C  C179  1  0.055080  0.428890  0.427390  1.0  -0.0373
  C  C180  1  0.123650  0.406090  0.464680  1.0  -0.0873
  C  C181  1  0.242320  0.424310  0.480680  1.0  -0.1251
  C  C182  1  0.288440  0.464850  0.460920  1.0  -0.0164
  C  C183  1  0.226590  0.487420  0.422890  1.0  -0.008
  C  C184  1  0.111470  0.469070  0.406700  1.0  -0.1507
  C  C185  1  0.394330  0.482660  0.481370  1.0  -0.041
  C  C186  1  0.592700  0.502660  0.466120  1.0  -0.1325
  C  C187  1  0.301550  0.479630  0.516020  1.0  -0.0614
  C  C188  1  0.063150  0.362970  0.488640  1.0  0.2561
  C  C189  1  0.271920  0.530970  0.398820  1.0  -0.312
  C  C190  1  0.090000  0.458630  0.534770  1.0  -0.1854
  C  C191  1  0.953820  0.420330  0.561540  1.0  -0.0599
  C  C192  1  0.861050  0.394070  0.603980  1.0  -0.0854
  C  C193  1  0.870670  0.353800  0.277970  1.0  0.6554
  C  C194  1  0.032640  0.373530  0.244330  1.0  -0.2329
  C  C195  1  0.243980  0.382290  0.247810  1.0  0.2786
  C  C196  1  0.386550  0.400680  0.214720  1.0  -0.1248
  C  C197  1  0.327160  0.409820  0.178110  1.0  -0.0264
  C  C198  1  0.120210  0.400750  0.174470  1.0  -0.1512
  C  C199  1  0.974820  0.382930  0.207020  1.0  -0.1202
  C  C200  1  0.482470  0.427390  0.143720  1.0  -0.0349
  C  C201  1  0.588330  0.464680  0.129230  1.0  -0.0881
  C  C202  1  0.723000  0.480680  0.095010  1.0  -0.1259
  C  C203  1  0.749360  0.460920  0.074230  1.0  -0.0199
  C  C204  1  0.649480  0.422890  0.089690  1.0  -0.0048
  C  C205  1  0.518170  0.406700  0.124230  1.0  -0.1561
  C  C206  1  0.875700  0.481370  0.035970  1.0  -0.0418
  C  C207  1  0.058820  0.466120  0.031220  1.0  -0.133
  C  C208  1  0.817570  0.516020  0.004350  1.0  -0.0599
  C  C209  1  0.551790  0.488640  0.148390  1.0  0.2528
  C  C210  1  0.670740  0.398820  0.070210  1.0  -0.307
  C  C211  1  0.624770  0.534770  0.006600  1.0  -0.1858
  C  C212  1  0.515360  0.561540  0.018130  1.0  -0.0665
  C  C213  1  0.465030  0.603980  0.001950  1.0  -0.0896
  C  C214  1  0.148640  0.277970  0.368230  1.0  0.6546
  C  C215  1  0.276970  0.244330  0.382140  1.0  -0.2324
  C  C216  1  0.491790  0.247810  0.369900  1.0  0.2756
  C  C217  1  0.601270  0.214720  0.384600  1.0  -0.1239
  C  C218  1  0.505270  0.178110  0.412070  1.0  -0.0267
  C  C219  1  0.294680  0.174470  0.424780  1.0  -0.1539
  C  C220  1  0.181840  0.207020  0.410050  1.0  -0.119
  C  C221  1  0.626190  0.143720  0.428890  1.0  -0.037
  C  C222  1  0.717560  0.129230  0.406090  1.0  -0.0891
  C  C223  1  0.818010  0.095010  0.424310  1.0  -0.1259
  C  C224  1  0.823590  0.074230  0.464850  1.0  -0.0184
  C  C225  1  0.739170  0.089690  0.487420  1.0  -0.0055
  C  C226  1  0.642400  0.124230  0.469070  1.0  -0.1572
  C  C227  1  0.911670  0.035970  0.482660  1.0  -0.0406
  C  C228  1  0.090040  0.031220  0.502660  1.0  -0.1351
  C  C229  1  0.821920  0.004350  0.479630  1.0  -0.0598
  C  C230  1  0.700180  0.148390  0.362970  1.0  0.2585
  C  C231  1  0.740950  0.070210  0.530970  1.0  -0.3115
  C  C232  1  0.631370  0.006600  0.458630  1.0  -0.1888
  C  C233  1  0.533490  0.018130  0.420330  1.0  -0.0735
  C  C234  1  0.466980  0.001950  0.394070  1.0  -0.0908
  O  O235  1  0.663200  0.619790  0.651950  1.0  -0.6305
  O  O236  1  0.429130  0.655010  0.657080  1.0  -0.8354
  O  O237  1  0.054000  0.657490  0.625030  1.0  -0.8077
  O  O238  1  0.315150  0.651950  0.728260  1.0  -0.6307
  O  O239  1  0.086210  0.657080  0.687910  1.0  -0.8353
  O  O240  1  0.679030  0.625030  0.717480  1.0  -0.8084
  O  O241  1  0.043410  0.728260  0.619790  1.0  -0.6307
  O  O242  1  0.774120  0.687910  0.655010  1.0  -0.8357
  O  O243  1  0.396510  0.717480  0.657490  1.0  -0.8074
  O  O244  1  0.336800  0.380210  0.348050  1.0  -0.6305
  O  O245  1  0.570870  0.344990  0.342920  1.0  -0.8354
  O  O246  1  0.946000  0.342510  0.374970  1.0  -0.8081
  O  O247  1  0.684850  0.348050  0.271740  1.0  -0.6298
  O  O248  1  0.913790  0.342920  0.312090  1.0  -0.8353
  O  O249  1  0.320970  0.374970  0.282520  1.0  -0.8084
  O  O250  1  0.956590  0.271740  0.380210  1.0  -0.6296
  O  O251  1  0.225880  0.312090  0.344990  1.0  -0.8351
  O  O252  1  0.603490  0.282520  0.342510  1.0  -0.8051
