# generated using pymatgen
data_MgH15C19O3
_symmetry_space_group_name_H-M   'P 1'
_cell_length_a   6.81810000
_cell_length_b   38.41220000
_cell_length_c   38.41220000
_cell_angle_alpha   60.34680000
_cell_angle_beta   86.60800000
_cell_angle_gamma   93.39200000
_symmetry_Int_Tables_number   1
_chemical_formula_structural   MgH15C19O3
_chemical_formula_sum   'Mg6 H90 C114 O18'
_cell_volume   8681.79082621
_cell_formula_units_Z   6
loop_
 _symmetry_equiv_pos_site_id
 _symmetry_equiv_pos_as_xyz
  1  'x, y, z'
loop_
 _atom_site_type_symbol
 _atom_site_label
 _atom_site_symmetry_multiplicity
 _atom_site_fract_x
 _atom_site_fract_y
 _atom_site_fract_z
 _atom_site_occupancy
 _atom_site_charge
  Mg  Mg1  1  0.165800  0.363390  0.328280  1.0  1.5013
  Mg  Mg2  1  0.837650  0.637240  0.671850  1.0  1.4314
  Mg  Mg3  1  0.494080  0.328280  0.308330  1.0  1.5056
  Mg  Mg4  1  0.509500  0.671850  0.690910  1.0  1.4549
  Mg  Mg5  1  0.802410  0.308330  0.363390  1.0  1.5048
  Mg  Mg6  1  0.200410  0.690910  0.637240  1.0  1.4548
  H  H7  1  0.018970  0.450870  0.520760  1.0  0.0988
  H  H8  1  0.115570  0.434620  0.567330  1.0  0.0717
  H  H9  1  0.017760  0.481400  0.542020  1.0  0.0846
  H  H10  1  0.372320  0.538540  0.377040  1.0  0.0954
  H  H11  1  0.126990  0.544290  0.391880  1.0  0.0868
  H  H12  1  0.325660  0.543850  0.419490  1.0  0.0716
  H  H13  1  0.141340  0.346580  0.477310  1.0  0.0916
  H  H14  1  0.123210  0.348410  0.521830  1.0  0.0974
  H  H15  1  0.909270  0.354720  0.495560  1.0  0.088
  H  H16  1  0.645500  0.501900  0.442190  1.0  0.0842
  H  H17  1  0.289680  0.405880  0.513150  1.0  0.0918
  H  H18  1  0.061350  0.485690  0.381760  1.0  0.0922
  H  H19  1  0.321870  0.560230  0.584640  1.0  0.0894
  H  H20  1  0.538350  0.586970  0.613930  1.0  0.074
  H  H21  1  0.850480  0.621080  0.598060  1.0  0.0803
  H  H22  1  0.150750  0.376530  0.407540  1.0  0.0881
  H  H23  1  0.469960  0.413820  0.385820  1.0  0.0861
  H  H24  1  0.681280  0.440490  0.416000  1.0  0.0873
  H  H25  1  0.939570  0.513080  0.622360  1.0  0.0907
  H  H26  1  0.702780  0.592700  0.491740  1.0  0.0938
  H  H27  1  0.349720  0.496610  0.562660  1.0  0.0826
  H  H28  1  0.084320  0.644260  0.508290  1.0  0.0915
  H  H29  1  0.866560  0.650410  0.483060  1.0  0.0962
  H  H30  1  0.854570  0.651880  0.527790  1.0  0.0895
  H  H31  1  0.669670  0.454770  0.585410  1.0  0.0681
  H  H32  1  0.870300  0.454370  0.612610  1.0  0.0896
  H  H33  1  0.626050  0.460190  0.627850  1.0  0.0969
  H  H34  1  0.977430  0.517230  0.462680  1.0  0.0905
  H  H35  1  0.879190  0.563980  0.437490  1.0  0.0711
  H  H36  1  0.976110  0.547700  0.484030  1.0  0.1011
  H  H37  1  0.539730  0.520760  0.028370  1.0  0.0967
  H  H38  1  0.682900  0.567330  0.998050  1.0  0.0727
  H  H39  1  0.559780  0.542020  0.976580  1.0  0.0834
  H  H40  1  0.749360  0.377040  0.084420  1.0  0.0947
  H  H41  1  0.518870  0.391880  0.063830  1.0  0.0858
  H  H42  1  0.745150  0.419490  0.036660  1.0  0.0703
  H  H43  1  0.618650  0.477310  0.176110  1.0  0.0941
  H  H44  1  0.645040  0.521830  0.129760  1.0  0.0987
  H  H45  1  0.404830  0.495560  0.149720  1.0  0.0878
  H  H46  1  0.087690  0.442190  0.055910  1.0  0.0843
  H  H47  1  0.802830  0.513150  0.080970  1.0  0.0947
  H  H48  1  0.443110  0.381760  0.132550  1.0  0.0908
  H  H49  1  0.906510  0.584640  0.855130  1.0  0.0901
  H  H50  1  0.152280  0.613930  0.799100  1.0  0.0725
  H  H51  1  0.448540  0.598060  0.780860  1.0  0.0803
  H  H52  1  0.558290  0.407540  0.215930  1.0  0.0884
  H  H53  1  0.855780  0.385820  0.200360  1.0  0.0856
  H  H54  1  0.097280  0.416000  0.143510  1.0  0.0875
  H  H55  1  0.561930  0.622360  0.864560  1.0  0.0901
  H  H56  1  0.194520  0.491740  0.915560  1.0  0.0921
  H  H57  1  0.912380  0.562660  0.940730  1.0  0.0865
  H  H58  1  0.592610  0.508290  0.847450  1.0  0.0901
  H  H59  1  0.349620  0.483060  0.866530  1.0  0.0966
  H  H60  1  0.382360  0.527790  0.820330  1.0  0.0923
  H  H61  1  0.255080  0.585410  0.959820  1.0  0.0714
  H  H62  1  0.482910  0.612610  0.933020  1.0  0.0857
  H  H63  1  0.253900  0.627850  0.911960  1.0  0.0973
  H  H64  1  0.440110  0.462680  0.020090  1.0  0.0884
  H  H65  1  0.316680  0.437490  0.998530  1.0  0.0706
  H  H66  1  0.460140  0.484030  0.968270  1.0  0.0992
  H  H67  1  0.568100  0.028370  0.450870  1.0  0.1009
  H  H68  1  0.680950  0.998050  0.434620  1.0  0.0744
  H  H69  1  0.536360  0.976580  0.481400  1.0  0.0862
  H  H70  1  0.833780  0.084420  0.538540  1.0  0.0978
  H  H71  1  0.582700  0.063830  0.544290  1.0  0.0901
  H  H72  1  0.781810  0.036660  0.543850  1.0  0.0776
  H  H73  1  0.794760  0.176110  0.346580  1.0  0.0956
  H  H74  1  0.774800  0.129760  0.348410  1.0  0.0953
  H  H75  1  0.554550  0.149720  0.354720  1.0  0.0953
  H  H76  1  0.143600  0.055910  0.501900  1.0  0.0856
  H  H77  1  0.883800  0.080970  0.405880  1.0  0.0936
  H  H78  1  0.575660  0.132550  0.485690  1.0  0.0923
  H  H79  1  0.761640  0.855130  0.560230  1.0  0.0903
  H  H80  1  0.951380  0.799100  0.586970  1.0  0.0738
  H  H81  1  0.229400  0.780860  0.621080  1.0  0.0799
  H  H82  1  0.774220  0.215930  0.376530  1.0  0.0879
  H  H83  1  0.056140  0.200360  0.413820  1.0  0.0868
  H  H84  1  0.240790  0.143510  0.440490  1.0  0.0905
  H  H85  1  0.426490  0.864560  0.513080  1.0  0.0899
  H  H86  1  0.110080  0.915560  0.592700  1.0  0.0917
  H  H87  1  0.853110  0.940730  0.496610  1.0  0.0849
  H  H88  1  0.440060  0.847450  0.644260  1.0  0.0997
  H  H89  1  0.216150  0.866530  0.650410  1.0  0.0962
  H  H90  1  0.202690  0.820330  0.651880  1.0  0.0946
  H  H91  1  0.214900  0.959820  0.454770  1.0  0.0723
  H  H92  1  0.415930  0.933020  0.454370  1.0  0.0897
  H  H93  1  0.165860  0.911960  0.460190  1.0  0.1016
  H  H94  1  0.460200  0.020090  0.517230  1.0  0.088
  H  H95  1  0.315210  0.998530  0.563980  1.0  0.0714
  H  H96  1  0.428410  0.968270  0.547700  1.0  0.1021
  C  C97  1  0.103640  0.460450  0.538140  1.0  -0.3072
  C  C98  1  0.265230  0.530770  0.402660  1.0  -0.23
  C  C99  1  0.072190  0.361170  0.492110  1.0  -0.3803
  C  C100  1  0.688400  0.518400  0.485870  1.0  0.0783
  C  C101  1  0.580590  0.500860  0.468450  1.0  -0.1894
  C  C102  1  0.390270  0.481980  0.484340  1.0  -0.0279
  C  C103  1  0.111440  0.468270  0.410480  1.0  -0.1434
  C  C104  1  0.222140  0.486840  0.426560  1.0  0.0638
  C  C105  1  0.283500  0.464080  0.464460  1.0  0.0634
  C  C106  1  0.239820  0.423230  0.484390  1.0  -0.1249
  C  C107  1  0.126940  0.404760  0.468440  1.0  0.0749
  C  C108  1  0.060340  0.427690  0.431190  1.0  0.0538
  C  C109  1  0.389850  0.595600  0.610500  1.0  -0.1308
  C  C110  1  0.265450  0.579650  0.594070  1.0  -0.1761
  C  C111  1  0.069790  0.588440  0.589990  1.0  0.0679
  C  C112  1  0.999640  0.613320  0.602510  1.0  -0.1351
  C  C113  1  0.883960  0.368790  0.384800  1.0  0.3086
  C  C114  1  0.685570  0.378620  0.378640  1.0  -0.1998
  C  C115  1  0.548550  0.365360  0.358240  1.0  0.6747
  C  C116  1  0.449450  0.632990  0.643510  1.0  0.6475
  C  C117  1  0.322220  0.620820  0.623540  1.0  -0.1291
  C  C118  1  0.122400  0.629960  0.618760  1.0  0.3671
  C  C119  1  0.002260  0.384690  0.402320  1.0  -0.1618
  C  C120  1  0.931400  0.410400  0.413690  1.0  0.0666
  C  C121  1  0.738450  0.420430  0.407520  1.0  -0.1631
  C  C122  1  0.617420  0.404720  0.390400  1.0  -0.1088
  C  C123  1  0.938040  0.571040  0.573010  1.0  0.0625
  C  C124  1  0.868520  0.593920  0.536070  1.0  0.082
  C  C125  1  0.754320  0.575400  0.520340  1.0  -0.1234
  C  C126  1  0.711650  0.534520  0.540300  1.0  0.0603
  C  C127  1  0.774840  0.511830  0.578030  1.0  0.0637
  C  C128  1  0.887450  0.530460  0.593810  1.0  -0.1443
  C  C129  1  0.604890  0.516540  0.520490  1.0  -0.0294
  C  C130  1  0.414630  0.497660  0.536380  1.0  -0.1913
  C  C131  1  0.306770  0.480120  0.518960  1.0  0.0806
  C  C132  1  0.921400  0.637590  0.512450  1.0  -0.3795
  C  C133  1  0.731780  0.467910  0.602060  1.0  -0.228
  C  C134  1  0.891410  0.538120  0.466650  1.0  -0.3088
  C  C135  1  0.641780  0.538140  0.001410  1.0  -0.3088
  C  C136  1  0.667890  0.402660  0.066570  1.0  -0.23
  C  C137  1  0.564300  0.492110  0.146720  1.0  -0.3828
  C  C138  1  0.174270  0.485870  0.995730  1.0  0.0775
  C  C139  1  0.049040  0.468450  0.030690  1.0  -0.1879
  C  C140  1  0.874610  0.484340  0.033680  1.0  -0.0266
  C  C141  1  0.521920  0.410480  0.121250  1.0  -0.1482
  C  C142  1  0.648700  0.426560  0.086600  1.0  0.0668
  C  C143  1  0.747960  0.464460  0.071460  1.0  0.0627
  C  C144  1  0.724210  0.484390  0.092380  1.0  -0.1271
  C  C145  1  0.595380  0.468440  0.126800  1.0  0.0758
  C  C146  1  0.491530  0.431190  0.141120  1.0  0.0535
  C  C147  1  0.000350  0.610500  0.793900  1.0  -0.1316
  C  C148  1  0.859520  0.594070  0.826280  1.0  -0.176
  C  C149  1  0.659780  0.589990  0.821570  1.0  0.069
  C  C150  1  0.602150  0.602510  0.784170  1.0  -0.1343
  C  C151  1  0.268760  0.384800  0.246410  1.0  0.3087
  C  C152  1  0.064210  0.378640  0.242740  1.0  -0.1989
  C  C153  1  0.906790  0.358240  0.276400  1.0  0.6752
  C  C154  1  0.092960  0.643510  0.723500  1.0  0.6474
  C  C155  1  0.945760  0.623540  0.755640  1.0  -0.1278
  C  C156  1  0.741160  0.618760  0.751280  1.0  0.3702
  C  C157  1  0.404580  0.402320  0.212990  1.0  -0.1626
  C  C158  1  0.345090  0.413690  0.175910  1.0  0.0659
  C  C159  1  0.145970  0.407520  0.172050  1.0  -0.1646
  C  C160  1  0.007820  0.390400  0.204880  1.0  -0.1109
  C  C161  1  0.511050  0.573010  0.855950  1.0  0.0605
  C  C162  1  0.404590  0.536070  0.870010  1.0  0.0822
  C  C163  1  0.274660  0.520340  0.904260  1.0  -0.1267
  C  C164  1  0.251950  0.540300  0.925180  1.0  0.0609
  C  C165  1  0.352870  0.578030  0.910140  1.0  0.0661
  C  C166  1  0.481260  0.593810  0.875730  1.0  -0.1505
  C  C167  1  0.125380  0.520490  0.962970  1.0  -0.0295
  C  C168  1  0.951010  0.536380  0.965960  1.0  -0.1898
  C  C169  1  0.825730  0.518960  0.000920  1.0  0.0787
  C  C170  1  0.433850  0.512450  0.849960  1.0  -0.3801
  C  C171  1  0.333840  0.602060  0.930030  1.0  -0.23
  C  C172  1  0.358060  0.466650  0.995230  1.0  -0.3107
  C  C173  1  0.643190  0.001410  0.460450  1.0  -0.3135
  C  C174  1  0.734460  0.066570  0.530770  1.0  -0.2309
  C  C175  1  0.711020  0.146720  0.361170  1.0  -0.3849
  C  C176  1  0.170000  0.995730  0.518400  1.0  0.0798
  C  C177  1  0.079730  0.030690  0.500860  1.0  -0.194
  C  C178  1  0.908290  0.033680  0.481980  1.0  -0.0273
  C  C179  1  0.643170  0.121250  0.468270  1.0  -0.1475
  C  C180  1  0.735300  0.086600  0.486840  1.0  0.0646
  C  C181  1  0.819420  0.071460  0.464080  1.0  0.0623
  C  C182  1  0.816590  0.092380  0.423230  1.0  -0.1273
  C  C183  1  0.722180  0.126800  0.404760  1.0  0.074
  C  C184  1  0.632650  0.141120  0.427690  1.0  0.0534
  C  C185  1  0.794250  0.793900  0.595600  1.0  -0.1319
  C  C186  1  0.685800  0.826280  0.579650  1.0  -0.1777
  C  C187  1  0.481350  0.821570  0.588440  1.0  0.0693
  C  C188  1  0.386320  0.784170  0.613320  1.0  -0.1319
  C  C189  1  0.515170  0.246410  0.368790  1.0  0.305
  C  C190  1  0.306950  0.242740  0.378620  1.0  -0.1997
  C  C191  1  0.183190  0.276400  0.365360  1.0  0.6742
  C  C192  1  0.816460  0.723500  0.632990  1.0  0.647
  C  C193  1  0.701400  0.755640  0.620820  1.0  -0.1267
  C  C194  1  0.492440  0.751280  0.629960  1.0  0.367
  C  C195  1  0.617570  0.212990  0.384690  1.0  -0.1614
  C  C196  1  0.521000  0.175910  0.410400  1.0  0.0663
  C  C197  1  0.318020  0.172050  0.420430  1.0  -0.1608
  C  C198  1  0.212700  0.204880  0.404720  1.0  -0.1082
  C  C199  1  0.367000  0.855950  0.571040  1.0  0.0605
  C  C200  1  0.274600  0.870010  0.593920  1.0  0.0804
  C  C201  1  0.178920  0.904260  0.575400  1.0  -0.1262
  C  C202  1  0.177130  0.925180  0.534520  1.0  0.0591
  C  C203  1  0.263010  0.910140  0.511830  1.0  0.0624
  C  C204  1  0.356990  0.875730  0.530460  1.0  -0.1484
  C  C205  1  0.088350  0.962970  0.516540  1.0  -0.0289
  C  C206  1  0.916970  0.965960  0.497660  1.0  -0.1903
  C  C207  1  0.826650  0.000920  0.480120  1.0  0.0788
  C  C208  1  0.283810  0.849960  0.637590  1.0  -0.3818
  C  C209  1  0.263870  0.930030  0.467910  1.0  -0.2341
  C  C210  1  0.353290  0.995230  0.538120  1.0  -0.3157
  O  O211  1  0.968640  0.342140  0.376270  1.0  -0.7491
  O  O212  1  0.602110  0.343270  0.345120  1.0  -0.8223
  O  O213  1  0.375130  0.376710  0.353930  1.0  -0.6406
  O  O214  1  0.625490  0.623050  0.647130  1.0  -0.6443
  O  O215  1  0.389650  0.653340  0.658220  1.0  -0.7968
  O  O216  1  0.049850  0.653510  0.628270  1.0  -0.7206
  O  O217  1  0.344910  0.376270  0.281590  1.0  -0.7501
  O  O218  1  0.947230  0.345120  0.311610  1.0  -0.8219
  O  O219  1  0.729060  0.353930  0.269360  1.0  -0.6379
  O  O220  1  0.272620  0.647130  0.729820  1.0  -0.6439
  O  O221  1  0.047870  0.658220  0.688440  1.0  -0.7975
  O  O222  1  0.678120  0.628270  0.718220  1.0  -0.7196
  O  O223  1  0.626500  0.281590  0.342140  1.0  -0.7478
  O  O224  1  0.258840  0.311610  0.343270  1.0  -0.8205
  O  O225  1  0.998420  0.269360  0.376710  1.0  -0.639
  O  O226  1  0.002440  0.729820  0.623050  1.0  -0.6434
  O  O227  1  0.736310  0.688440  0.653340  1.0  -0.7979
  O  O228  1  0.396340  0.718220  0.653510  1.0  -0.719
