# generated using pymatgen
data_MgH11(C5O)3
_symmetry_space_group_name_H-M   'P 1'
_cell_length_a   6.69400000
_cell_length_b   32.19670000
_cell_length_c   32.19670000
_cell_angle_alpha   60.47550000
_cell_angle_beta   86.02610000
_cell_angle_gamma   93.97390000
_symmetry_Int_Tables_number   1
_chemical_formula_structural   MgH11(C5O)3
_chemical_formula_sum   'Mg6 H66 C90 O18'
_cell_volume   5980.64830130
_cell_formula_units_Z   6
loop_
 _symmetry_equiv_pos_site_id
 _symmetry_equiv_pos_as_xyz
  1  'x, y, z'
loop_
 _atom_site_type_symbol
 _atom_site_label
 _atom_site_symmetry_multiplicity
 _atom_site_fract_x
 _atom_site_fract_y
 _atom_site_fract_z
 _atom_site_occupancy
 _atom_site_charge
  Mg  Mg1  1  0.283740  0.370300  0.326280  1.0  1.5214
  Mg  Mg2  1  0.714950  0.630180  0.672530  1.0  1.5046
  Mg  Mg3  1  0.610020  0.326280  0.303420  1.0  1.5272
  Mg  Mg4  1  0.387480  0.672530  0.697290  1.0  1.5126
  Mg  Mg5  1  0.913440  0.303420  0.370300  1.0  1.5264
  Mg  Mg6  1  0.084770  0.697290  0.630180  1.0  1.5143
  H  H7  1  0.627650  0.519360  0.422810  1.0  0.1042
  H  H8  1  0.967580  0.425300  0.512920  1.0  0.0855
  H  H9  1  0.202830  0.537310  0.563250  1.0  0.2394
  H  H10  1  0.423090  0.572140  0.600600  1.0  0.0825
  H  H11  1  0.728140  0.615260  0.576580  1.0  0.0805
  H  H12  1  0.272700  0.390300  0.420080  1.0  0.0806
  H  H13  1  0.572380  0.429400  0.397050  1.0  0.1556
  H  H14  1  0.789920  0.465580  0.433530  1.0  0.0657
  H  H15  1  0.736200  0.621490  0.496260  1.0  0.0993
  H  H16  1  0.645920  0.443900  0.559420  1.0  0.0888
  H  H17  1  0.299570  0.471920  0.361840  1.0  0.0692
  H  H18  1  0.558750  0.468470  0.375280  1.0  0.2066
  H  H19  1  0.459140  0.526480  0.348510  1.0  0.0894
  H  H20  1  0.270750  0.436050  0.587690  1.0  0.0859
  H  H21  1  0.013110  0.438780  0.573140  1.0  0.0719
  H  H22  1  0.169580  0.493860  0.559490  1.0  0.1921
  H  H23  1  0.571660  0.628660  0.426450  1.0  0.1004
  H  H24  1  0.348920  0.607510  0.470640  1.0  0.0874
  H  H25  1  0.398800  0.577520  0.435850  1.0  0.0731
  H  H26  1  0.791930  0.466150  0.642630  1.0  0.1008
  H  H27  1  0.035230  0.480800  0.606640  1.0  0.0822
  H  H28  1  0.857600  0.431520  0.613520  1.0  0.0554
  H  H29  1  0.050460  0.422810  0.057830  1.0  0.1056
  H  H30  1  0.480500  0.512920  0.061780  1.0  0.0863
  H  H31  1  0.766080  0.563250  0.899440  1.0  0.2384
  H  H32  1  0.023690  0.600600  0.827260  1.0  0.0817
  H  H33  1  0.304720  0.576580  0.808160  1.0  0.0795
  H  H34  1  0.692780  0.420080  0.189620  1.0  0.0792
  H  H35  1  0.969430  0.397050  0.173550  1.0  0.1557
  H  H36  1  0.223450  0.433530  0.100890  1.0  0.0665
  H  H37  1  0.232460  0.496260  0.882250  1.0  0.098
  H  H38  1  0.205340  0.559420  0.996680  1.0  0.0839
  H  H39  1  0.661410  0.361840  0.166240  1.0  0.0705
  H  H40  1  0.934030  0.375280  0.156250  1.0  0.2095
  H  H41  1  0.807650  0.348510  0.125010  1.0  0.0912
  H  H42  1  0.858440  0.587690  0.976260  1.0  0.0861
  H  H43  1  0.586250  0.573140  0.988080  1.0  0.0738
  H  H44  1  0.729070  0.559490  0.946650  1.0  0.1934
  H  H45  1  0.998110  0.426450  0.944890  1.0  0.1038
  H  H46  1  0.819560  0.470640  0.921850  1.0  0.0908
  H  H47  1  0.834650  0.435850  0.986630  1.0  0.0722
  H  H48  1  0.434560  0.642630  0.891220  1.0  0.1004
  H  H49  1  0.641870  0.606640  0.912560  1.0  0.0793
  H  H50  1  0.471120  0.613520  0.954960  1.0  0.0557
  H  H51  1  0.108290  0.057830  0.519360  1.0  0.1065
  H  H52  1  0.542280  0.061780  0.425300  1.0  0.0863
  H  H53  1  0.665520  0.899440  0.537310  1.0  0.2371
  H  H54  1  0.850950  0.827260  0.572140  1.0  0.0814
  H  H55  1  0.112880  0.808160  0.615260  1.0  0.0804
  H  H56  1  0.882400  0.189620  0.390300  1.0  0.0795
  H  H57  1  0.142980  0.173550  0.429400  1.0  0.1521
  H  H58  1  0.324340  0.100890  0.465580  1.0  0.0679
  H  H59  1  0.114710  0.882250  0.621490  1.0  0.0991
  H  H60  1  0.202020  0.996680  0.443900  1.0  0.0863
  H  H61  1  0.827650  0.166240  0.471920  1.0  0.0722
  H  H62  1  0.090280  0.156250  0.468470  1.0  0.2052
  H  H63  1  0.932660  0.125010  0.526480  1.0  0.0894
  H  H64  1  0.834700  0.976260  0.436050  1.0  0.084
  H  H65  1  0.574330  0.988080  0.438780  1.0  0.0763
  H  H66  1  0.675720  0.946650  0.493860  1.0  0.1874
  H  H67  1  0.943000  0.944890  0.628660  1.0  0.0983
  H  H68  1  0.741410  0.921850  0.607510  1.0  0.091
  H  H69  1  0.821280  0.986630  0.577520  1.0  0.0764
  H  H70  1  0.325780  0.891220  0.466150  1.0  0.1018
  H  H71  1  0.554430  0.912560  0.480800  1.0  0.0799
  H  H72  1  0.426080  0.954960  0.431520  1.0  0.0682
  C  C73  1  0.357290  0.478540  0.422790  1.0  0.0569
  C  C74  1  0.479970  0.498220  0.442950  1.0  -0.1366
  C  C75  1  0.422800  0.492160  0.488160  1.0  -0.0576
  C  C76  1  0.238820  0.465660  0.513260  1.0  0.0625
  C  C77  1  0.116050  0.446120  0.492970  1.0  -0.1534
  C  C78  1  0.174620  0.451980  0.448070  1.0  0.0043
  C  C79  1  0.266270  0.581370  0.595640  1.0  -0.107
  C  C80  1  0.144560  0.562050  0.575150  1.0  -0.1295
  C  C81  1  0.950460  0.572970  0.569180  1.0  0.0533
  C  C82  1  0.882750  0.604710  0.582620  1.0  -0.1536
  C  C83  1  0.997630  0.378570  0.394040  1.0  0.2993
  C  C84  1  0.799300  0.389500  0.387270  1.0  -0.2199
  C  C85  1  0.663730  0.372920  0.362710  1.0  0.6712
  C  C86  1  0.334580  0.628320  0.635810  1.0  0.6837
  C  C87  1  0.198830  0.612540  0.610640  1.0  -0.1892
  C  C88  1  0.001570  0.624190  0.603600  1.0  0.2881
  C  C89  1  0.115830  0.399140  0.414220  1.0  -0.0769
  C  C90  1  0.044590  0.430650  0.427490  1.0  0.0666
  C  C91  1  0.850380  0.440880  0.421850  1.0  -0.1568
  C  C92  1  0.729990  0.420770  0.401890  1.0  -0.1268
  C  C93  1  0.817480  0.551750  0.548530  1.0  -0.0135
  C  C94  1  0.714290  0.581600  0.511060  1.0  -0.1789
  C  C95  1  0.583710  0.562840  0.491490  1.0  0.0598
  C  C96  1  0.557980  0.513380  0.508540  1.0  -0.0245
  C  C97  1  0.662070  0.483600  0.545810  1.0  -0.1129
  C  C98  1  0.786440  0.502160  0.566650  1.0  0.041
  C  C99  1  0.422640  0.486850  0.374160  1.0  -0.2438
  C  C100  1  0.168860  0.458140  0.561270  1.0  -0.2941
  C  C101  1  0.468830  0.596150  0.453820  1.0  -0.4164
  C  C102  1  0.873030  0.468110  0.609970  1.0  -0.3
  C  C103  1  0.780080  0.422790  0.098670  1.0  0.0562
  C  C104  1  0.922920  0.442950  0.058830  1.0  -0.1386
  C  C105  1  0.910960  0.488160  0.019680  1.0  -0.0573
  C  C106  1  0.752080  0.513260  0.021080  1.0  0.0573
  C  C107  1  0.609020  0.492970  0.060910  1.0  -0.1527
  C  C108  1  0.622690  0.448070  0.099950  1.0  0.0052
  C  C109  1  0.861910  0.595640  0.822990  1.0  -0.1073
  C  C110  1  0.719710  0.575150  0.862800  1.0  -0.1287
  C  C111  1  0.519640  0.569180  0.857850  1.0  0.0538
  C  C112  1  0.465370  0.582620  0.812670  1.0  -0.1532
  C  C113  1  0.391670  0.394040  0.227390  1.0  0.3007
  C  C114  1  0.186570  0.387270  0.223230  1.0  -0.2168
  C  C115  1  0.026440  0.362710  0.264370  1.0  0.6692
  C  C116  1  0.970390  0.635810  0.735870  1.0  0.6839
  C  C117  1  0.809470  0.610640  0.776820  1.0  -0.1879
  C  C118  1  0.605170  0.603600  0.772210  1.0  0.2914
  C  C119  1  0.530050  0.414220  0.186640  1.0  -0.0745
  C  C120  1  0.472080  0.427490  0.141860  1.0  0.0659
  C  C121  1  0.272230  0.421850  0.137270  1.0  -0.1532
  C  C122  1  0.131880  0.401890  0.177340  1.0  -0.1291
  C  C123  1  0.366010  0.548530  0.899720  1.0  -0.0117
  C  C124  1  0.225350  0.511060  0.907340  1.0  -0.1764
  C  C125  1  0.075200  0.491490  0.945670  1.0  0.0606
  C  C126  1  0.066520  0.508540  0.978080  1.0  -0.0256
  C  C127  1  0.207880  0.545810  0.970590  1.0  -0.1123
  C  C128  1  0.353090  0.566650  0.931190  1.0  0.0423
  C  C129  1  0.796800  0.374160  0.138990  1.0  -0.2438
  C  C130  1  0.730130  0.561270  0.980590  1.0  -0.2948
  C  C131  1  0.922650  0.453820  0.950030  1.0  -0.4142
  C  C132  1  0.483000  0.609970  0.921920  1.0  -0.2991
  C  C133  1  0.878750  0.098670  0.478540  1.0  0.056
  C  C134  1  0.981750  0.058830  0.498220  1.0  -0.1365
  C  C135  1  0.930640  0.019680  0.492160  1.0  -0.0582
  C  C136  1  0.773160  0.021080  0.465660  1.0  0.0606
  C  C137  1  0.669930  0.060910  0.446120  1.0  -0.1522
  C  C138  1  0.722640  0.099950  0.451980  1.0  0.0055
  C  C139  1  0.684900  0.822990  0.581370  1.0  -0.1075
  C  C140  1  0.582510  0.862800  0.562050  1.0  -0.1328
  C  C141  1  0.377490  0.857850  0.572970  1.0  0.0527
  C  C142  1  0.278040  0.812670  0.604710  1.0  -0.1546
  C  C143  1  0.619060  0.227390  0.378570  1.0  0.2986
  C  C144  1  0.409800  0.223230  0.389500  1.0  -0.2188
  C  C145  1  0.290810  0.264370  0.372920  1.0  0.6702
  C  C146  1  0.706260  0.735870  0.628320  1.0  0.6821
  C  C147  1  0.586290  0.776820  0.612540  1.0  -0.1893
  C  C148  1  0.377380  0.772210  0.624190  1.0  0.287
  C  C149  1  0.716690  0.186640  0.399140  1.0  -0.0736
  C  C150  1  0.613940  0.141860  0.430650  1.0  0.0669
  C  C151  1  0.409500  0.137270  0.440880  1.0  -0.1554
  C  C152  1  0.309220  0.177340  0.420770  1.0  -0.1275
  C  C153  1  0.265730  0.899720  0.551750  1.0  -0.0126
  C  C154  1  0.132690  0.907340  0.581600  1.0  -0.17
  C  C155  1  0.020870  0.945670  0.562840  1.0  0.0558
  C  C156  1  0.044600  0.978080  0.513380  1.0  -0.0247
  C  C157  1  0.178470  0.970590  0.483600  1.0  -0.1109
  C  C158  1  0.284280  0.931190  0.502160  1.0  0.0429
  C  C159  1  0.935790  0.138990  0.486850  1.0  -0.2462
  C  C160  1  0.710720  0.980590  0.458140  1.0  -0.297
  C  C161  1  0.872680  0.950030  0.596150  1.0  -0.4161
  C  C162  1  0.404920  0.921920  0.468110  1.0  -0.3006
  O  O163  1  0.081330  0.345800  0.384340  1.0  -0.8322
  O  O164  1  0.717330  0.345840  0.347120  1.0  -0.8419
  O  O165  1  0.491620  0.386620  0.357300  1.0  -0.6227
  O  O166  1  0.507040  0.614760  0.640760  1.0  -0.6221
  O  O167  1  0.280610  0.654580  0.652410  1.0  -0.838
  O  O168  1  0.918090  0.656250  0.614390  1.0  -0.782
  O  O169  1  0.465670  0.384340  0.269860  1.0  -0.8331
  O  O170  1  0.064450  0.347120  0.307040  1.0  -0.8416
  O  O171  1  0.848920  0.357300  0.256080  1.0  -0.6222
  O  O172  1  0.147800  0.640760  0.744480  1.0  -0.6215
  O  O173  1  0.933020  0.652410  0.693010  1.0  -0.8362
  O  O174  1  0.532480  0.614390  0.729360  1.0  -0.7825
  O  O175  1  0.735530  0.269860  0.345800  1.0  -0.8301
  O  O176  1  0.371490  0.307040  0.345840  1.0  -0.8409
  O  O177  1  0.105000  0.256080  0.386620  1.0  -0.6226
  O  O178  1  0.892280  0.744480  0.614760  1.0  -0.6206
  O  O179  1  0.626030  0.693010  0.654580  1.0  -0.8376
  O  O180  1  0.261840  0.729360  0.656250  1.0  -0.781
