# generated using pymatgen
data_ZnH19C23O3
_symmetry_space_group_name_H-M   'P 1'
_cell_length_a   6.81520000
_cell_length_b   45.46150000
_cell_length_c   45.46150000
_cell_angle_alpha   60.24750000
_cell_angle_beta   87.13570000
_cell_angle_gamma   92.86430000
_symmetry_Int_Tables_number   1
_chemical_formula_structural   ZnH19C23O3
_chemical_formula_sum   'Zn6 H114 C138 O18'
_cell_volume   12167.76871331
_cell_formula_units_Z   6
loop_
 _symmetry_equiv_pos_site_id
 _symmetry_equiv_pos_as_xyz
  1  'x, y, z'
loop_
 _atom_site_type_symbol
 _atom_site_label
 _atom_site_symmetry_multiplicity
 _atom_site_fract_x
 _atom_site_fract_y
 _atom_site_fract_z
 _atom_site_occupancy
 _atom_site_charge
  Zn  Zn1  1  0.055710  0.360190  0.325320  1.0  0.9132
  Zn  Zn2  1  0.989060  0.641560  0.669000  1.0  0.9588
  Zn  Zn3  1  0.381030  0.325320  0.314490  1.0  0.9169
  Zn  Zn4  1  0.658060  0.669000  0.689440  1.0  0.9652
  Zn  Zn5  1  0.695520  0.314490  0.360190  1.0  0.9189
  Zn  Zn6  1  0.347500  0.689440  0.641560  1.0  0.9666
  H  H7  1  0.943640  0.505670  0.500290  1.0  0.105
  H  H8  1  0.137600  0.500190  0.526610  1.0  0.0907
  H  H9  1  0.117150  0.540540  0.490280  1.0  0.1129
  H  H10  1  0.592700  0.452840  0.427510  1.0  0.1028
  H  H11  1  0.557670  0.492540  0.391040  1.0  0.1069
  H  H12  1  0.759460  0.488980  0.415620  1.0  0.1311
  H  H13  1  0.166150  0.383220  0.492470  1.0  0.1124
  H  H14  1  0.203530  0.419950  0.495690  1.0  0.0982
  H  H15  1  0.956760  0.401640  0.500180  1.0  0.1002
  H  H16  1  0.871320  0.485370  0.338120  1.0  0.1077
  H  H17  1  0.113750  0.506020  0.330990  1.0  0.1145
  H  H18  1  0.085170  0.466790  0.331870  1.0  0.1123
  H  H19  1  0.710650  0.513420  0.448550  1.0  0.2234
  H  H20  1  0.944370  0.579150  0.482990  1.0  0.1435
  H  H21  1  0.218240  0.502830  0.379940  1.0  0.111
  H  H22  1  0.908490  0.387300  0.449990  1.0  0.1154
  H  H23  1  0.497990  0.592720  0.578790  1.0  0.0954
  H  H24  1  0.700220  0.610410  0.609170  1.0  0.0883
  H  H25  1  0.005980  0.636840  0.597800  1.0  0.0933
  H  H26  1  0.045510  0.381020  0.387820  1.0  0.1081
  H  H27  1  0.368740  0.414320  0.362110  1.0  0.1094
  H  H28  1  0.580690  0.442020  0.382850  1.0  0.0951
  H  H29  1  0.170840  0.632820  0.533690  1.0  0.1096
  H  H30  1  0.738940  0.528190  0.591750  1.0  0.0999
  H  H31  1  0.995990  0.478290  0.470090  1.0  0.1098
  H  H32  1  0.331480  0.506360  0.532990  1.0  0.13
  H  H33  1  0.828560  0.564960  0.641840  1.0  0.1142
  H  H34  1  0.739780  0.527650  0.642540  1.0  0.1105
  H  H35  1  0.988250  0.532010  0.650470  1.0  0.1285
  H  H36  1  0.063310  0.614720  0.476590  1.0  0.1241
  H  H37  1  0.819650  0.626350  0.480630  1.0  0.0955
  H  H38  1  0.028460  0.649670  0.482410  1.0  0.0961
  H  H39  1  0.291310  0.532670  0.569110  1.0  0.1178
  H  H40  1  0.471090  0.503330  0.590920  1.0  0.1011
  H  H41  1  0.506710  0.546450  0.580580  1.0  0.1118
  H  H42  1  0.848830  0.539960  0.440350  1.0  0.1051
  H  H43  1  0.675590  0.571910  0.422590  1.0  0.0978
  H  H44  1  0.914060  0.581590  0.431700  1.0  0.1067
  H  H45  1  0.443930  0.500290  0.994040  1.0  0.1047
  H  H46  1  0.664210  0.526610  0.973200  1.0  0.09
  H  H47  1  0.607430  0.490280  0.969180  1.0  0.1121
  H  H48  1  0.020210  0.427510  0.119650  1.0  0.0977
  H  H49  1  0.948710  0.391040  0.116420  1.0  0.1083
  H  H50  1  0.175080  0.415620  0.095400  1.0  0.1314
  H  H51  1  0.658620  0.492470  0.124310  1.0  0.1093
  H  H52  1  0.699220  0.495690  0.084360  1.0  0.0988
  H  H53  1  0.456940  0.500180  0.098180  1.0  0.0983
  H  H54  1  0.209440  0.338120  0.176510  1.0  0.1075
  H  H55  1  0.444740  0.330990  0.162990  1.0  0.1154
  H  H56  1  0.417040  0.331870  0.201340  1.0  0.1118
  H  H57  1  0.159200  0.448550  0.038030  1.0  0.2207
  H  H58  1  0.427360  0.482990  0.937860  1.0  0.1414
  H  H59  1  0.598180  0.379940  0.117230  1.0  0.1114
  H  H60  1  0.358480  0.449990  0.162710  1.0  0.1174
  H  H61  1  0.076780  0.578790  0.828490  1.0  0.0949
  H  H62  1  0.309390  0.609170  0.780420  1.0  0.0881
  H  H63  1  0.603780  0.597800  0.765360  1.0  0.0933
  H  H64  1  0.433330  0.387820  0.231160  1.0  0.1083
  H  H65  1  0.730850  0.362110  0.223570  1.0  0.1096
  H  H66  1  0.963540  0.382850  0.175130  1.0  0.0954
  H  H67  1  0.704530  0.533690  0.833490  1.0  0.1094
  H  H68  1  0.330690  0.591750  0.880060  1.0  0.1005
  H  H69  1  0.466080  0.470090  0.051620  1.0  0.1088
  H  H70  1  0.864470  0.532990  0.960650  1.0  0.1331
  H  H71  1  0.470400  0.641840  0.793200  1.0  0.1153
  H  H72  1  0.382320  0.642540  0.829810  1.0  0.1099
  H  H73  1  0.638720  0.650470  0.817520  1.0  0.1272
  H  H74  1  0.539900  0.476590  0.908690  1.0  0.1238
  H  H75  1  0.300280  0.480630  0.893020  1.0  0.0961
  H  H76  1  0.510870  0.482410  0.867920  1.0  0.0957
  H  H77  1  0.860420  0.569110  0.898220  1.0  0.1173
  H  H78  1  0.062010  0.590920  0.905750  1.0  0.1028
  H  H79  1  0.087290  0.580580  0.872970  1.0  0.1131
  H  H80  1  0.289180  0.440350  0.019690  1.0  0.1078
  H  H81  1  0.098180  0.422590  0.005500  1.0  0.0965
  H  H82  1  0.345760  0.431700  0.986710  1.0  0.1054
  H  H83  1  0.437970  0.994040  0.505670  1.0  0.1042
  H  H84  1  0.637410  0.973200  0.500190  1.0  0.0937
  H  H85  1  0.576610  0.969180  0.540540  1.0  0.1132
  H  H86  1  0.139860  0.119650  0.452840  1.0  0.0971
  H  H87  1  0.065130  0.116420  0.492540  1.0  0.1079
  H  H88  1  0.270480  0.095400  0.488980  1.0  0.1295
  H  H89  1  0.782930  0.124310  0.383220  1.0  0.1091
  H  H90  1  0.783580  0.084360  0.419950  1.0  0.1014
  H  H91  1  0.555120  0.098180  0.401640  1.0  0.1036
  H  H92  1  0.385950  0.176510  0.485370  1.0  0.1084
  H  H93  1  0.607730  0.162990  0.506020  1.0  0.1151
  H  H94  1  0.618380  0.201340  0.466790  1.0  0.114
  H  H95  1  0.197230  0.038030  0.513420  1.0  0.2231
  H  H96  1  0.365220  0.937860  0.579150  1.0  0.1475
  H  H97  1  0.715410  0.117230  0.502830  1.0  0.1097
  H  H98  1  0.521190  0.162710  0.387300  1.0  0.1152
  H  H99  1  0.905270  0.828490  0.592720  1.0  0.0955
  H  H100  1  0.089810  0.780420  0.610410  1.0  0.0879
  H  H101  1  0.369140  0.765360  0.636840  1.0  0.0939
  H  H102  1  0.664490  0.231160  0.381020  1.0  0.1074
  H  H103  1  0.954420  0.223570  0.414320  1.0  0.1096
  H  H104  1  0.138670  0.175130  0.442020  1.0  0.0972
  H  H105  1  0.538020  0.833490  0.632820  1.0  0.1099
  H  H106  1  0.210750  0.880060  0.528190  1.0  0.1008
  H  H107  1  0.517700  0.051620  0.478290  1.0  0.109
  H  H108  1  0.825120  0.960650  0.506360  1.0  0.1485
  H  H109  1  0.263600  0.793200  0.564960  1.0  0.1183
  H  H110  1  0.212130  0.829810  0.527650  1.0  0.1111
  H  H111  1  0.456240  0.817520  0.532010  1.0  0.1273
  H  H112  1  0.448590  0.908690  0.614720  1.0  0.13
  H  H113  1  0.193300  0.893020  0.626350  1.0  0.0981
  H  H114  1  0.378790  0.867920  0.649670  1.0  0.0974
  H  H115  1  0.758640  0.898220  0.532670  1.0  0.1166
  H  H116  1  0.967760  0.905750  0.503330  1.0  0.1034
  H  H117  1  0.960260  0.872970  0.546450  1.0  0.1111
  H  H118  1  0.308870  0.019690  0.539960  1.0  0.1068
  H  H119  1  0.103680  0.005500  0.571910  1.0  0.0973
  H  H120  1  0.332470  0.986710  0.581590  1.0  0.1062
  C  C121  1  0.100670  0.513160  0.500340  1.0  -0.2718
  C  C122  1  0.602960  0.480310  0.416850  1.0  -0.3013
  C  C123  1  0.104570  0.407140  0.486510  1.0  -0.2951
  C  C124  1  0.027990  0.481270  0.343200  1.0  -0.3677
  C  C125  1  0.554140  0.506160  0.452840  1.0  -0.0928
  C  C126  1  0.437850  0.514060  0.473370  1.0  0.0064
  C  C127  1  0.233380  0.504290  0.479440  1.0  0.0626
  C  C128  1  0.805160  0.564710  0.493240  1.0  -0.1015
  C  C129  1  0.471650  0.488810  0.438130  1.0  0.0836
  C  C130  1  0.267950  0.478850  0.444370  1.0  0.0345
  C  C131  1  0.045050  0.462390  0.380270  1.0  0.0725
  C  C132  1  0.152710  0.477430  0.395100  1.0  -0.109
  C  C133  1  0.171590  0.460460  0.429580  1.0  0.0087
  C  C134  1  0.085730  0.427360  0.449520  1.0  0.0881
  C  C135  1  0.977590  0.412460  0.434650  1.0  -0.1218
  C  C136  1  0.953860  0.429810  0.400400  1.0  0.0321
  C  C137  1  0.549510  0.616870  0.607050  1.0  -0.1176
  C  C138  1  0.431970  0.605810  0.590170  1.0  -0.1076
  C  C139  1  0.232090  0.611270  0.588190  1.0  -0.0292
  C  C140  1  0.156570  0.630550  0.601020  1.0  -0.1056
  C  C141  1  0.780200  0.372260  0.369010  1.0  0.3154
  C  C142  1  0.582290  0.380770  0.362220  1.0  -0.1757
  C  C143  1  0.443120  0.365950  0.348120  1.0  0.7221
  C  C144  1  0.608320  0.643460  0.641440  1.0  0.7237
  C  C145  1  0.474180  0.635080  0.621480  1.0  -0.1758
  C  C146  1  0.272810  0.642370  0.617700  1.0  0.3236
  C  C147  1  0.898450  0.388460  0.381490  1.0  -0.1639
  C  C148  1  0.828720  0.413610  0.386480  1.0  0.0662
  C  C149  1  0.637190  0.422540  0.379240  1.0  -0.1421
  C  C150  1  0.515780  0.406340  0.367450  1.0  -0.0632
  C  C151  1  0.058660  0.591450  0.581750  1.0  -0.0894
  C  C152  1  0.073640  0.610260  0.546410  1.0  -0.1124
  C  C153  1  0.962780  0.600760  0.527190  1.0  0.0734
  C  C154  1  0.843430  0.570340  0.543660  1.0  -0.0066
  C  C155  1  0.831000  0.551370  0.578990  1.0  -0.107
  C  C156  1  0.926010  0.562700  0.598150  1.0  0.0429
  C  C157  1  0.728260  0.557870  0.524860  1.0  0.015
  C  C158  1  0.550790  0.537400  0.538770  1.0  0.0844
  C  C159  1  0.151420  0.486530  0.465040  1.0  -0.15
  C  C160  1  0.708780  0.552180  0.475130  1.0  0.0447
  C  C161  1  0.536420  0.530760  0.489710  1.0  0.0323
  C  C162  1  0.461420  0.523370  0.521470  1.0  -0.158
  C  C163  1  0.868340  0.545840  0.635290  1.0  -0.3741
  C  C164  1  0.968850  0.624070  0.489600  1.0  -0.3122
  C  C165  1  0.450840  0.529630  0.571740  1.0  -0.2254
  C  C166  1  0.791550  0.561910  0.440520  1.0  -0.274
  C  C167  1  0.601010  0.500340  0.986500  1.0  -0.2709
  C  C168  1  0.019810  0.416850  0.102840  1.0  -0.3005
  C  C169  1  0.591080  0.486510  0.106350  1.0  -0.301
  C  C170  1  0.371190  0.343200  0.175530  1.0  -0.3695
  C  C171  1  0.006980  0.452840  0.041000  1.0  -0.0935
  C  C172  1  0.911220  0.473370  0.012570  1.0  0.006
  C  C173  1  0.712820  0.479440  0.016270  1.0  0.0614
  C  C174  1  0.298400  0.493240  0.942050  1.0  -0.101
  C  C175  1  0.909780  0.438130  0.073060  1.0  0.0835
  C  C176  1  0.712320  0.444370  0.076780  1.0  0.0346
  C  C177  1  0.425320  0.380270  0.157340  1.0  0.0703
  C  C178  1  0.547810  0.395100  0.127470  1.0  -0.1075
  C  C179  1  0.601170  0.429580  0.109960  1.0  0.0081
  C  C180  1  0.535250  0.449520  0.123120  1.0  0.087
  C  C181  1  0.412240  0.434650  0.152890  1.0  -0.1219
  C  C182  1  0.354260  0.400400  0.169790  1.0  0.0329
  C  C183  1  0.156560  0.607050  0.776080  1.0  -0.1177
  C  C184  1  0.022140  0.590170  0.804020  1.0  -0.1082
  C  C185  1  0.820280  0.588190  0.800540  1.0  -0.0292
  C  C186  1  0.757590  0.601020  0.768430  1.0  -0.1046
  C  C187  1  0.149210  0.369010  0.258730  1.0  0.3183
  C  C188  1  0.944510  0.362220  0.257010  1.0  -0.174
  C  C189  1  0.791240  0.348120  0.285930  1.0  0.7212
  C  C190  1  0.249760  0.641440  0.715100  1.0  0.7241
  C  C191  1  0.095660  0.621480  0.743440  1.0  -0.1729
  C  C192  1  0.890510  0.617700  0.739930  1.0  0.3248
  C  C193  1  0.279940  0.381490  0.230050  1.0  -0.1623
  C  C194  1  0.215200  0.386480  0.199910  1.0  0.0657
  C  C195  1  0.016430  0.379240  0.198220  1.0  -0.1407
  C  C196  1  0.883230  0.367450  0.226210  1.0  -0.0632
  C  C197  1  0.640410  0.581750  0.826800  1.0  -0.0879
  C  C198  1  0.620050  0.546410  0.843330  1.0  -0.1076
  C  C199  1  0.489970  0.527190  0.872050  1.0  0.0698
  C  C200  1  0.387090  0.543660  0.886000  1.0  -0.0071
  C  C201  1  0.409990  0.578990  0.869640  1.0  -0.1059
  C  C202  1  0.524160  0.598150  0.839150  1.0  0.0428
  C  C203  1  0.253120  0.524860  0.917270  1.0  0.0146
  C  C204  1  0.089560  0.538770  0.923830  1.0  0.0831
  C  C205  1  0.616460  0.465040  0.048430  1.0  -0.1502
  C  C206  1  0.183910  0.475130  0.972690  1.0  0.0452
  C  C207  1  0.026130  0.489710  0.979530  1.0  0.0324
  C  C208  1  0.982890  0.521470  0.955160  1.0  -0.1581
  C  C209  1  0.503630  0.635290  0.818870  1.0  -0.3718
  C  C210  1  0.458450  0.489600  0.886330  1.0  -0.3123
  C  C211  1  0.022580  0.571740  0.898630  1.0  -0.2294
  C  C212  1  0.232070  0.440520  0.997570  1.0  -0.2772
  C  C213  1  0.587510  0.986500  0.513160  1.0  -0.2741
  C  C214  1  0.122650  0.102840  0.480310  1.0  -0.301
  C  C215  1  0.697430  0.106350  0.407140  1.0  -0.3027
  C  C216  1  0.546720  0.175530  0.481270  1.0  -0.3705
  C  C217  1  0.047980  0.041000  0.506160  1.0  -0.0932
  C  C218  1  0.923790  0.012570  0.514060  1.0  0.0067
  C  C219  1  0.729090  0.016270  0.504290  1.0  0.0613
  C  C220  1  0.240450  0.942050  0.564710  1.0  -0.1001
  C  C221  1  0.982840  0.073060  0.488810  1.0  0.0834
  C  C222  1  0.789100  0.076780  0.478850  1.0  0.0349
  C  C223  1  0.582660  0.157340  0.462390  1.0  0.0696
  C  C224  1  0.675280  0.127470  0.477430  1.0  -0.1054
  C  C225  1  0.711130  0.109960  0.460460  1.0  0.0077
  C  C226  1  0.658370  0.123120  0.427360  1.0  0.0873
  C  C227  1  0.565130  0.152890  0.412460  1.0  -0.1178
  C  C228  1  0.524050  0.169790  0.429810  1.0  0.0336
  C  C229  1  0.932640  0.776080  0.616870  1.0  -0.1173
  C  C230  1  0.826160  0.804020  0.605810  1.0  -0.1083
  C  C231  1  0.620820  0.800540  0.611270  1.0  -0.0265
  C  C232  1  0.526020  0.768430  0.630550  1.0  -0.1027
  C  C233  1  0.407940  0.258730  0.372260  1.0  0.3162
  C  C234  1  0.201520  0.257010  0.380770  1.0  -0.1756
  C  C235  1  0.077170  0.285930  0.365950  1.0  0.721
  C  C236  1  0.964860  0.715100  0.643460  1.0  0.7231
  C  C237  1  0.839100  0.743440  0.635080  1.0  -0.1756
  C  C238  1  0.630440  0.739930  0.642370  1.0  0.3214
  C  C239  1  0.509990  0.230050  0.388460  1.0  -0.1623
  C  C240  1  0.415110  0.199910  0.413610  1.0  0.0662
  C  C241  1  0.214650  0.198220  0.422540  1.0  -0.1432
  C  C242  1  0.109440  0.226210  0.406340  1.0  -0.0635
  C  C243  1  0.467210  0.826800  0.591450  1.0  -0.0887
  C  C244  1  0.463380  0.843330  0.610260  1.0  -0.1069
  C  C245  1  0.362020  0.872050  0.600760  1.0  0.0707
  C  C246  1  0.273090  0.886000  0.570340  1.0  -0.0067
  C  C247  1  0.279630  0.869640  0.551370  1.0  -0.1061
  C  C248  1  0.363310  0.839150  0.562700  1.0  0.042
  C  C249  1  0.170390  0.917270  0.557870  1.0  0.0144
  C  C250  1  0.013390  0.923830  0.537400  1.0  0.0843
  C  C251  1  0.664890  0.048430  0.486530  1.0  -0.1498
  C  C252  1  0.156600  0.972690  0.552180  1.0  0.0449
  C  C253  1  0.005660  0.979530  0.530760  1.0  0.0326
  C  C254  1  0.938050  0.955160  0.523370  1.0  -0.1557
  C  C255  1  0.322500  0.818870  0.545840  1.0  -0.3758
  C  C256  1  0.344780  0.886330  0.624070  1.0  -0.3126
  C  C257  1  0.921210  0.898630  0.529630  1.0  -0.2293
  C  C258  1  0.229640  0.997570  0.561910  1.0  -0.2811
  O  O259  1  0.864140  0.347110  0.365580  1.0  -0.7881
  O  O260  1  0.495400  0.344220  0.340700  1.0  -0.7949
  O  O261  1  0.268740  0.375500  0.343540  1.0  -0.6094
  O  O262  1  0.781840  0.633560  0.644650  1.0  -0.6162
  O  O263  1  0.552510  0.660050  0.655120  1.0  -0.798
  O  O264  1  0.183410  0.662630  0.628000  1.0  -0.7997
  O  O265  1  0.229720  0.365580  0.287310  1.0  -0.7875
  O  O266  1  0.836100  0.340700  0.315080  1.0  -0.7955
  O  O267  1  0.612280  0.343540  0.280960  1.0  -0.6078
  O  O268  1  0.426490  0.644650  0.721790  1.0  -0.6155
  O  O269  1  0.207630  0.655120  0.684830  1.0  -0.7965
  O  O270  1  0.811410  0.628000  0.709370  1.0  -0.8013
  O  O271  1  0.517030  0.287310  0.347110  1.0  -0.7851
  O  O272  1  0.151180  0.315080  0.344220  1.0  -0.7941
  O  O273  1  0.893240  0.280960  0.375500  1.0  -0.6083
  O  O274  1  0.148280  0.721790  0.633560  1.0  -0.6152
  O  O275  1  0.892460  0.684830  0.660050  1.0  -0.7979
  O  O276  1  0.520780  0.709370  0.662630  1.0  -0.7995
