# generated using pymatgen
data_MgH7C11O3
_symmetry_space_group_name_H-M   'P 1'
_cell_length_a   6.47390000
_cell_length_b   26.55330000
_cell_length_c   26.55330000
_cell_angle_alpha   60.65330000
_cell_angle_beta   85.33850000
_cell_angle_gamma   94.66150000
_symmetry_Int_Tables_number   1
_chemical_formula_structural   MgH7C11O3
_chemical_formula_sum   'Mg6 H42 C66 O18'
_cell_volume   3926.95347804
_cell_formula_units_Z   6
loop_
 _symmetry_equiv_pos_site_id
 _symmetry_equiv_pos_as_xyz
  1  'x, y, z'
loop_
 _atom_site_type_symbol
 _atom_site_label
 _atom_site_symmetry_multiplicity
 _atom_site_fract_x
 _atom_site_fract_y
 _atom_site_fract_z
 _atom_site_occupancy
 _atom_site_charge
  Mg  Mg1  1  0.914500  0.698760  0.623730  1.0  1.6433
  Mg  Mg2  1  0.538230  0.623730  0.677510  1.0  1.6188
  Mg  Mg3  1  0.215740  0.677510  0.698760  1.0  1.6375
  Mg  Mg4  1  0.085500  0.301240  0.376270  1.0  1.6376
  Mg  Mg5  1  0.461770  0.376270  0.322490  1.0  1.6363
  Mg  Mg6  1  0.784260  0.322490  0.301240  1.0  1.641
  H  H7  1  0.940960  0.840850  0.602950  1.0  0.1404
  H  H8  1  0.696330  0.859630  0.532870  1.0  0.105
  H  H9  1  0.514280  0.944730  0.494670  1.0  0.111
  H  H10  1  0.082770  0.952470  0.600690  1.0  0.1178
  H  H11  1  0.035770  0.907100  0.446180  1.0  0.1198
  H  H12  1  0.052310  0.977210  0.382940  1.0  0.1172
  H  H13  1  0.283970  0.954930  0.417150  1.0  0.1168
  H  H14  1  0.543910  0.602950  0.556200  1.0  0.1407
  H  H15  1  0.229200  0.532870  0.607500  1.0  0.1051
  H  H16  1  0.008950  0.494670  0.560600  1.0  0.1109
  H  H17  1  0.683460  0.600690  0.446840  1.0  0.1178
  H  H18  1  0.481950  0.446180  0.646720  1.0  0.1204
  H  H19  1  0.435250  0.382940  0.639850  1.0  0.1186
  H  H20  1  0.701120  0.417150  0.627920  1.0  0.1159
  H  H21  1  0.100110  0.556200  0.840850  1.0  0.1405
  H  H22  1  0.836700  0.607500  0.859630  1.0  0.1046
  H  H23  1  0.569550  0.560600  0.944730  1.0  0.111
  H  H24  1  0.130300  0.446840  0.952470  1.0  0.1176
  H  H25  1  0.128670  0.646720  0.907100  1.0  0.1183
  H  H26  1  0.075100  0.639850  0.977210  1.0  0.1179
  H  H27  1  0.329040  0.627920  0.954930  1.0  0.1164
  H  H28  1  0.059040  0.159150  0.397050  1.0  0.14
  H  H29  1  0.303670  0.140370  0.467130  1.0  0.1054
  H  H30  1  0.485720  0.055270  0.505330  1.0  0.1109
  H  H31  1  0.917230  0.047530  0.399310  1.0  0.1199
  H  H32  1  0.964230  0.092900  0.553820  1.0  0.1206
  H  H33  1  0.947690  0.022790  0.617060  1.0  0.118
  H  H34  1  0.716030  0.045070  0.582850  1.0  0.1144
  H  H35  1  0.456090  0.397050  0.443800  1.0  0.1408
  H  H36  1  0.770800  0.467130  0.392500  1.0  0.1047
  H  H37  1  0.991050  0.505330  0.439400  1.0  0.1102
  H  H38  1  0.316540  0.399310  0.553160  1.0  0.117
  H  H39  1  0.518050  0.553820  0.353280  1.0  0.119
  H  H40  1  0.564750  0.617060  0.360150  1.0  0.118
  H  H41  1  0.298880  0.582850  0.372080  1.0  0.1149
  H  H42  1  0.899890  0.443800  0.159150  1.0  0.1417
  H  H43  1  0.163300  0.392500  0.140370  1.0  0.1044
  H  H44  1  0.430450  0.439400  0.055270  1.0  0.1108
  H  H45  1  0.869700  0.553160  0.047530  1.0  0.1183
  H  H46  1  0.871330  0.353280  0.092900  1.0  0.1187
  H  H47  1  0.924900  0.360150  0.022790  1.0  0.1184
  H  H48  1  0.670960  0.372080  0.045070  1.0  0.1152
  C  C49  1  0.544370  0.748940  0.613130  1.0  0.8373
  C  C50  1  0.423440  0.799200  0.591180  1.0  -0.3871
  C  C51  1  0.205300  0.794750  0.609410  1.0  0.4332
  C  C52  1  0.105270  0.844550  0.587180  1.0  -0.2959
  C  C53  1  0.213550  0.898530  0.545280  1.0  0.1212
  C  C54  1  0.427250  0.903080  0.526550  1.0  -0.2101
  C  C55  1  0.530790  0.854250  0.548970  1.0  0.0163
  C  C56  1  0.103510  0.950360  0.521420  1.0  -0.0049
  C  C57  1  0.056820  0.977220  0.464040  1.0  0.113
  C  C58  1  0.045510  0.973250  0.556790  1.0  -0.1886
  C  C59  1  0.110220  0.952790  0.425330  1.0  -0.3749
  C  C60  1  0.157500  0.613130  0.637930  1.0  0.8402
  C  C61  1  0.014620  0.591180  0.609620  1.0  -0.3871
  C  C62  1  0.814710  0.609410  0.595840  1.0  0.4346
  C  C63  1  0.692450  0.587180  0.568270  1.0  -0.2992
  C  C64  1  0.758830  0.545280  0.556190  1.0  0.1214
  C  C65  1  0.953800  0.526550  0.570370  1.0  -0.2106
  C  C66  1  0.079760  0.548970  0.596780  1.0  0.0178
  C  C67  1  0.624930  0.521420  0.528220  1.0  -0.0045
  C  C68  1  0.520860  0.464040  0.558740  1.0  0.1129
  C  C69  1  0.602300  0.556790  0.469960  1.0  -0.1938
  C  C70  1  0.535550  0.425330  0.621880  1.0  -0.3699
  C  C71  1  0.795430  0.637930  0.748940  1.0  0.8385
  C  C72  1  0.624240  0.609620  0.799200  1.0  -0.3872
  C  C73  1  0.410550  0.595840  0.794750  1.0  0.438
  C  C74  1  0.260720  0.568270  0.844550  1.0  -0.2972
  C  C75  1  0.315020  0.556190  0.898530  1.0  0.1203
  C  C76  1  0.524170  0.570370  0.903080  1.0  -0.2091
  C  C77  1  0.676540  0.596780  0.854250  1.0  0.0157
  C  C78  1  0.153150  0.528220  0.950360  1.0  -0.0049
  C  C79  1  0.079600  0.558740  0.977220  1.0  0.1129
  C  C80  1  0.072260  0.469960  0.973250  1.0  -0.1894
  C  C81  1  0.157430  0.621880  0.952790  1.0  -0.3712
  C  C82  1  0.455630  0.251060  0.386870  1.0  0.8368
  C  C83  1  0.576560  0.200800  0.408820  1.0  -0.3863
  C  C84  1  0.794700  0.205250  0.390590  1.0  0.4345
  C  C85  1  0.894730  0.155450  0.412820  1.0  -0.2942
  C  C86  1  0.786450  0.101470  0.454720  1.0  0.1212
  C  C87  1  0.572750  0.096920  0.473450  1.0  -0.2092
  C  C88  1  0.469210  0.145750  0.451030  1.0  0.021
  C  C89  1  0.896490  0.049640  0.478580  1.0  -0.0046
  C  C90  1  0.943180  0.022780  0.535960  1.0  0.1127
  C  C91  1  0.954490  0.026750  0.443210  1.0  -0.1924
  C  C92  1  0.889780  0.047210  0.574670  1.0  -0.3718
  C  C93  1  0.842500  0.386870  0.362070  1.0  0.8389
  C  C94  1  0.985380  0.408820  0.390380  1.0  -0.3869
  C  C95  1  0.185290  0.390590  0.404160  1.0  0.434
  C  C96  1  0.307550  0.412820  0.431730  1.0  -0.2949
  C  C97  1  0.241170  0.454720  0.443810  1.0  0.1209
  C  C98  1  0.046200  0.473450  0.429630  1.0  -0.2107
  C  C99  1  0.920240  0.451030  0.403220  1.0  0.0204
  C  C100  1  0.375070  0.478580  0.471780  1.0  -0.0048
  C  C101  1  0.479140  0.535960  0.441260  1.0  0.1125
  C  C102  1  0.397700  0.443210  0.530040  1.0  -0.1978
  C  C103  1  0.464450  0.574670  0.378120  1.0  -0.3687
  C  C104  1  0.204570  0.362070  0.251060  1.0  0.839
  C  C105  1  0.375760  0.390380  0.200800  1.0  -0.3872
  C  C106  1  0.589450  0.404160  0.205250  1.0  0.4376
  C  C107  1  0.739280  0.431730  0.155450  1.0  -0.2933
  C  C108  1  0.684980  0.443810  0.101470  1.0  0.1187
  C  C109  1  0.475830  0.429630  0.096920  1.0  -0.2123
  C  C110  1  0.323460  0.403220  0.145750  1.0  0.0197
  C  C111  1  0.846850  0.471780  0.049640  1.0  -0.0056
  C  C112  1  0.920400  0.441260  0.022780  1.0  0.1113
  C  C113  1  0.927740  0.530040  0.026750  1.0  -0.1968
  C  C114  1  0.842570  0.378120  0.047210  1.0  -0.3682
  O  O115  1  0.738930  0.757640  0.593990  1.0  -0.723
  O  O116  1  0.459490  0.698640  0.650190  1.0  -0.9104
  O  O117  1  0.081680  0.743360  0.650420  1.0  -0.8922
  O  O118  1  0.332920  0.593990  0.648370  1.0  -0.7247
  O  O119  1  0.109680  0.650190  0.651170  1.0  -0.9108
  O  O120  1  0.732100  0.650420  0.606220  1.0  -0.8936
  O  O121  1  0.981290  0.648370  0.757640  1.0  -0.726
  O  O122  1  0.760850  0.651170  0.698640  1.0  -0.9091
  O  O123  1  0.338320  0.606220  0.743360  1.0  -0.8937
  O  O124  1  0.261070  0.242360  0.406010  1.0  -0.7236
  O  O125  1  0.540510  0.301360  0.349810  1.0  -0.9099
  O  O126  1  0.918320  0.256640  0.349580  1.0  -0.8899
  O  O127  1  0.667080  0.406010  0.351630  1.0  -0.7251
  O  O128  1  0.890320  0.349810  0.348830  1.0  -0.9112
  O  O129  1  0.267900  0.349580  0.393780  1.0  -0.8922
  O  O130  1  0.018710  0.351630  0.242360  1.0  -0.7229
  O  O131  1  0.239150  0.348830  0.301360  1.0  -0.9097
  O  O132  1  0.661680  0.393780  0.256640  1.0  -0.8931
