# generated using pymatgen
data_MgH33C32O3
_symmetry_space_group_name_H-M   'P 1'
_cell_length_a   6.98860000
_cell_length_b   53.14420000
_cell_length_c   53.14420000
_cell_angle_alpha   60.19050000
_cell_angle_beta   87.48770000
_cell_angle_gamma   92.51230000
_symmetry_Int_Tables_number   1
_chemical_formula_structural   MgH33C32O3
_chemical_formula_sum   'Mg6 H198 C192 O18'
_cell_volume   17060.71860142
_cell_formula_units_Z   6
loop_
 _symmetry_equiv_pos_site_id
 _symmetry_equiv_pos_as_xyz
  1  'x, y, z'
loop_
 _atom_site_type_symbol
 _atom_site_label
 _atom_site_symmetry_multiplicity
 _atom_site_fract_x
 _atom_site_fract_y
 _atom_site_fract_z
 _atom_site_occupancy
 _atom_site_charge
  Mg  Mg1  1  0.905510  0.352720  0.335850  1.0  1.5399
  Mg  Mg2  1  0.884990  0.643540  0.673110  1.0  1.5447
  Mg  Mg3  1  0.241360  0.335850  0.311430  1.0  1.5433
  Mg  Mg4  1  0.558100  0.673110  0.683350  1.0  1.5518
  Mg  Mg5  1  0.552790  0.311430  0.352720  1.0  1.5368
  Mg  Mg6  1  0.241450  0.683350  0.643540  1.0  1.5556
  H  H7  1  0.859250  0.514620  0.357230  1.0  0.1074
  H  H8  1  0.029120  0.520920  0.378050  1.0  0.0948
  H  H9  1  0.884700  0.486800  0.394000  1.0  0.0947
  H  H10  1  0.595630  0.512830  0.390990  1.0  0.0793
  H  H11  1  0.735080  0.546900  0.373400  1.0  0.0839
  H  H12  1  0.672930  0.534480  0.422720  1.0  0.0713
  H  H13  1  0.917680  0.529740  0.418670  1.0  0.0806
  H  H14  1  0.870090  0.477570  0.445940  1.0  0.0812
  H  H15  1  0.621650  0.477770  0.441100  1.0  0.077
  H  H16  1  0.589540  0.503130  0.471140  1.0  0.1016
  H  H17  1  0.830520  0.497010  0.479090  1.0  0.0903
  H  H18  1  0.765410  0.447390  0.511280  1.0  0.1086
  H  H19  1  0.588360  0.443000  0.491350  1.0  0.0974
  H  H20  1  0.050960  0.367320  0.560030  1.0  0.1136
  H  H21  1  0.247690  0.388690  0.561480  1.0  0.1071
  H  H22  1  0.009330  0.398860  0.562770  1.0  0.0968
  H  H23  1  0.168220  0.446090  0.415120  1.0  0.1006
  H  H24  1  0.170280  0.478860  0.417440  1.0  0.1124
  H  H25  1  0.379240  0.459830  0.422530  1.0  0.0985
  H  H26  1  0.082050  0.345190  0.502920  1.0  0.0942
  H  H27  1  0.162290  0.336810  0.475670  1.0  0.111
  H  H28  1  0.269630  0.367970  0.475780  1.0  0.101
  H  H29  1  0.637510  0.452280  0.394640  1.0  0.1105
  H  H30  1  0.637980  0.429850  0.378300  1.0  0.1125
  H  H31  1  0.457040  0.423370  0.406380  1.0  0.0977
  H  H32  1  0.173900  0.589310  0.578230  1.0  0.112
  H  H33  1  0.604740  0.529010  0.639580  1.0  0.1041
  H  H34  1  0.699070  0.479870  0.533830  1.0  0.0944
  H  H35  1  0.317060  0.473390  0.464410  1.0  0.1079
  H  H36  1  0.952300  0.377610  0.514670  1.0  0.106
  H  H37  1  0.380950  0.573310  0.622620  1.0  0.1029
  H  H38  1  0.588110  0.603120  0.633770  1.0  0.087
  H  H39  1  0.909290  0.618080  0.628210  1.0  0.1083
  H  H40  1  0.865840  0.355590  0.395090  1.0  0.0878
  H  H41  1  0.175260  0.359510  0.401890  1.0  0.0861
  H  H42  1  0.368480  0.375120  0.428330  1.0  0.1145
  H  H43  1  0.563930  0.562900  0.554490  1.0  0.1108
  H  H44  1  0.581670  0.455700  0.604340  1.0  0.0992
  H  H45  1  0.023520  0.449010  0.540890  1.0  0.1052
  H  H46  1  0.809170  0.439640  0.435250  1.0  0.0988
  H  H47  1  0.900440  0.342080  0.448420  1.0  0.111
  H  H48  1  0.780430  0.571960  0.666667  1.0  0.1036
  H  H49  1  0.681530  0.536020  0.678090  1.0  0.1124
  H  H50  1  0.930240  0.542270  0.679330  1.0  0.1223
  H  H51  1  0.903670  0.570750  0.538400  1.0  0.1022
  H  H52  1  0.145450  0.571970  0.546070  1.0  0.1061
  H  H53  1  0.015770  0.537340  0.559860  1.0  0.1023
  H  H54  1  0.738610  0.454520  0.642910  1.0  0.1029
  H  H55  1  0.906900  0.485490  0.630260  1.0  0.1056
  H  H56  1  0.688140  0.482440  0.650730  1.0  0.1057
  H  H57  1  0.402940  0.563790  0.516530  1.0  0.1005
  H  H58  1  0.469490  0.536290  0.508290  1.0  0.1084
  H  H59  1  0.245250  0.532010  0.527650  1.0  0.1089
  H  H60  1  0.141720  0.482540  0.586240  1.0  0.0802
  H  H61  1  0.966240  0.480280  0.564750  1.0  0.0955
  H  H62  1  0.889820  0.440430  0.614060  1.0  0.0951
  H  H63  1  0.963940  0.425110  0.592800  1.0  0.0911
  H  H64  1  0.110180  0.399210  0.636380  1.0  0.0862
  H  H65  1  0.297260  0.423780  0.611540  1.0  0.0883
  H  H66  1  0.242550  0.457530  0.631910  1.0  0.0852
  H  H67  1  0.059500  0.432080  0.657010  1.0  0.0748
  H  H68  1  0.471710  0.416820  0.653720  1.0  0.0797
  H  H69  1  0.387450  0.431120  0.676030  1.0  0.0763
  H  H70  1  0.141940  0.388560  0.701540  1.0  0.0986
  H  H71  1  0.242640  0.373280  0.680620  1.0  0.0998
  H  H72  1  0.381230  0.378220  0.705510  1.0  0.0785
  H  H73  1  0.216480  0.357230  0.128150  1.0  0.11
  H  H74  1  0.407170  0.378050  0.101030  1.0  0.0929
  H  H75  1  0.278700  0.394000  0.119200  1.0  0.0879
  H  H76  1  0.986620  0.390990  0.096180  1.0  0.073
  H  H77  1  0.108480  0.373400  0.079700  1.0  0.0857
  H  H78  1  0.095650  0.422720  0.042800  1.0  0.0719
  H  H79  1  0.336350  0.418670  0.051590  1.0  0.0814
  H  H80  1  0.316030  0.445940  0.076490  1.0  0.0806
  H  H81  1  0.062750  0.441100  0.081130  1.0  0.0756
  H  H82  1  0.060680  0.471140  0.025730  1.0  0.1023
  H  H83  1  0.309610  0.479090  0.023900  1.0  0.09
  H  H84  1  0.276690  0.511280  0.041330  1.0  0.1092
  H  H85  1  0.079710  0.491350  0.065650  1.0  0.0947
  H  H86  1  0.610990  0.560030  0.072650  1.0  0.1127
  H  H87  1  0.809170  0.561480  0.049830  1.0  0.1074
  H  H88  1  0.572100  0.562770  0.038370  1.0  0.0967
  H  H89  1  0.583340  0.415120  0.138790  1.0  0.1059
  H  H90  1  0.587720  0.417440  0.103700  1.0  0.1096
  H  H91  1  0.801770  0.422530  0.117640  1.0  0.0992
  H  H92  1  0.584970  0.502920  0.151890  1.0  0.0951
  H  H93  1  0.637960  0.475670  0.187520  1.0  0.1119
  H  H94  1  0.745410  0.475780  0.156250  1.0  0.1013
  H  H95  1  0.032150  0.394640  0.153080  1.0  0.1096
  H  H96  1  0.016280  0.378300  0.191850  1.0  0.1163
  H  H97  1  0.863420  0.406380  0.170250  1.0  0.0984
  H  H98  1  0.752130  0.578230  0.832460  1.0  0.1107
  H  H99  1  0.244320  0.639580  0.831410  1.0  0.1045
  H  H100  1  0.232900  0.533830  0.986300  1.0  0.094
  H  H101  1  0.781470  0.464410  0.062200  1.0  0.1059
  H  H102  1  0.466970  0.514670  0.107720  1.0  0.1062
  H  H103  1  0.003570  0.622620  0.804070  1.0  0.1034
  H  H104  1  0.221880  0.633770  0.763110  1.0  0.0871
  H  H105  1  0.537500  0.628210  0.753710  1.0  0.1086
  H  H106  1  0.260930  0.395090  0.249320  1.0  0.0896
  H  H107  1  0.577150  0.401890  0.238600  1.0  0.0863
  H  H108  1  0.796810  0.428330  0.196550  1.0  0.1129
  H  H109  1  0.118420  0.554490  0.882610  1.0  0.1083
  H  H110  1  0.186010  0.604340  0.939960  1.0  0.0982
  H  H111  1  0.564410  0.540890  0.010100  1.0  0.1055
  H  H112  1  0.244420  0.435250  0.125110  1.0  0.0999
  H  H113  1  0.348860  0.448420  0.209500  1.0  0.1107
  H  H114  1  0.447120  0.666667  0.761350  1.0  0.1032
  H  H115  1  0.359620  0.678090  0.785890  1.0  0.108
  H  H116  1  0.609570  0.679330  0.778400  1.0  0.1213
  H  H117  1  0.442070  0.538400  0.890850  1.0  0.1019
  H  H118  1  0.691520  0.546070  0.881960  1.0  0.1041
  H  H119  1  0.575630  0.559860  0.902800  1.0  0.0963
  H  H120  1  0.381520  0.642910  0.902570  1.0  0.1026
  H  H121  1  0.537160  0.630260  0.884250  1.0  0.1036
  H  H122  1  0.338870  0.650730  0.866830  1.0  0.1068
  H  H123  1  0.919470  0.516530  0.919680  1.0  0.1
  H  H124  1  0.977780  0.508290  0.955420  1.0  0.1099
  H  H125  1  0.772900  0.527650  0.940340  1.0  0.1063
  H  H126  1  0.727960  0.586240  0.931220  1.0  0.0801
  H  H127  1  0.530990  0.564750  0.954970  1.0  0.0944
  H  H128  1  0.503880  0.614060  0.945510  1.0  0.0949
  H  H129  1  0.556740  0.592800  0.982090  1.0  0.089
  H  H130  1  0.746560  0.636380  0.964410  1.0  0.09
  H  H131  1  0.908800  0.611540  0.964680  1.0  0.0875
  H  H132  1  0.874460  0.631910  0.910560  1.0  0.0858
  H  H133  1  0.716510  0.657010  0.910910  1.0  0.0744
  H  H134  1  0.125430  0.653720  0.929460  1.0  0.0824
  H  H135  1  0.063480  0.676030  0.892850  1.0  0.076
  H  H136  1  0.843480  0.701540  0.909900  1.0  0.0959
  H  H137  1  0.923260  0.680620  0.946100  1.0  0.1016
  H  H138  1  0.086740  0.705510  0.916270  1.0  0.0821
  H  H139  1  0.344630  0.128150  0.514620  1.0  0.1109
  H  H140  1  0.508200  0.101030  0.520920  1.0  0.096
  H  H141  1  0.397900  0.119200  0.486800  1.0  0.0873
  H  H142  1  0.082800  0.096180  0.512830  1.0  0.0811
  H  H143  1  0.188180  0.079700  0.546900  1.0  0.0883
  H  H144  1  0.138450  0.042800  0.534480  1.0  0.072
  H  H145  1  0.387940  0.051590  0.529740  1.0  0.0807
  H  H146  1  0.392520  0.076490  0.477570  1.0  0.081
  H  H147  1  0.143880  0.081130  0.477770  1.0  0.0752
  H  H148  1  0.086410  0.025730  0.503130  1.0  0.1031
  H  H149  1  0.333510  0.023900  0.497010  1.0  0.0894
  H  H150  1  0.318020  0.041330  0.447390  1.0  0.1062
  H  H151  1  0.145360  0.065650  0.443000  1.0  0.0999
  H  H152  1  0.683640  0.072650  0.367320  1.0  0.1104
  H  H153  1  0.859000  0.049830  0.388690  1.0  0.1075
  H  H154  1  0.610470  0.038370  0.398860  1.0  0.0982
  H  H155  1  0.722130  0.138790  0.446090  1.0  0.1049
  H  H156  1  0.691420  0.103700  0.478860  1.0  0.1121
  H  H157  1  0.919410  0.117640  0.459830  1.0  0.0982
  H  H158  1  0.736860  0.151890  0.345190  1.0  0.0944
  H  H159  1  0.825480  0.187520  0.336810  1.0  0.1127
  H  H160  1  0.901660  0.156250  0.367970  1.0  0.1037
  H  H161  1  0.185230  0.153080  0.452280  1.0  0.11
  H  H162  1  0.208130  0.191850  0.429850  1.0  0.115
  H  H163  1  0.033670  0.170250  0.423370  1.0  0.0984
  H  H164  1  0.584590  0.832460  0.589310  1.0  0.1108
  H  H165  1  0.075730  0.831410  0.529010  1.0  0.1033
  H  H166  1  0.219200  0.986300  0.479870  1.0  0.0949
  H  H167  1  0.843670  0.062200  0.473390  1.0  0.1066
  H  H168  1  0.574690  0.107720  0.377610  1.0  0.1061
  H  H169  1  0.807640  0.804070  0.573310  1.0  0.1028
  H  H170  1  0.984990  0.763110  0.603120  1.0  0.0873
  H  H171  1  0.291210  0.753710  0.618080  1.0  0.1085
  H  H172  1  0.510250  0.249320  0.355590  1.0  0.0889
  H  H173  1  0.815750  0.238600  0.359510  1.0  0.0865
  H  H174  1  0.993360  0.196550  0.375120  1.0  0.1138
  H  H175  1  0.001030  0.882610  0.562900  1.0  0.111
  H  H176  1  0.125970  0.939960  0.455700  1.0  0.0963
  H  H177  1  0.574510  0.010100  0.449010  1.0  0.1047
  H  H178  1  0.369530  0.125110  0.439640  1.0  0.1
  H  H179  1  0.558360  0.209500  0.342080  1.0  0.1126
  H  H180  1  0.208470  0.761350  0.571960  1.0  0.1045
  H  H181  1  0.145510  0.785890  0.536020  1.0  0.1075
  H  H182  1  0.387970  0.778400  0.542270  1.0  0.1186
  H  H183  1  0.332920  0.890850  0.570750  1.0  0.1024
  H  H184  1  0.573480  0.881960  0.571970  1.0  0.1061
  H  H185  1  0.478430  0.902800  0.537340  1.0  0.099
  H  H186  1  0.284090  0.902570  0.454520  1.0  0.0995
  H  H187  1  0.421410  0.884250  0.485490  1.0  0.1037
  H  H188  1  0.205700  0.866830  0.482440  1.0  0.1074
  H  H189  1  0.839150  0.919680  0.563790  1.0  0.1002
  H  H190  1  0.933200  0.955420  0.536290  1.0  0.1115
  H  H191  1  0.713240  0.940340  0.532010  1.0  0.1074
  H  H192  1  0.659180  0.931220  0.482540  1.0  0.0811
  H  H193  1  0.485960  0.954970  0.480280  1.0  0.0951
  H  H194  1  0.449390  0.945510  0.440430  1.0  0.0965
  H  H195  1  0.538830  0.982090  0.425110  1.0  0.0904
  H  H196  1  0.710970  0.964410  0.399210  1.0  0.0861
  H  H197  1  0.873480  0.964680  0.423780  1.0  0.0879
  H  H198  1  0.785020  0.910560  0.457530  1.0  0.0858
  H  H199  1  0.627420  0.910910  0.432080  1.0  0.0742
  H  H200  1  0.054890  0.929460  0.416820  1.0  0.082
  H  H201  1  0.956330  0.892850  0.431120  1.0  0.0753
  H  H202  1  0.753380  0.909900  0.388560  1.0  0.0984
  H  H203  1  0.869360  0.946100  0.373280  1.0  0.1012
  H  H204  1  0.003010  0.916270  0.378220  1.0  0.0795
  C  C205  1  0.887400  0.510600  0.379250  1.0  -0.2587
  C  C206  1  0.736530  0.523450  0.389790  1.0  -0.1821
  C  C207  1  0.772500  0.520710  0.419330  1.0  -0.2431
  C  C208  1  0.742280  0.489160  0.444810  1.0  -0.2307
  C  C209  1  0.702310  0.488360  0.473830  1.0  -0.2883
  C  C210  1  0.640760  0.457530  0.499310  1.0  -0.288
  C  C211  1  0.106900  0.389880  0.552950  1.0  -0.3267
  C  C212  1  0.223710  0.457000  0.426690  1.0  -0.1794
  C  C213  1  0.134110  0.354900  0.479780  1.0  -0.3679
  C  C214  1  0.608350  0.429690  0.399080  1.0  -0.2461
  C  C215  1  0.050100  0.575980  0.591720  1.0  -0.1577
  C  C216  1  0.940740  0.559860  0.582650  1.0  0.0423
  C  C217  1  0.845210  0.557040  0.636170  1.0  0.0334
  C  C218  1  0.729410  0.542160  0.626270  1.0  -0.1122
  C  C219  1  0.776560  0.543120  0.599840  1.0  0.0243
  C  C220  1  0.004100  0.574960  0.618150  1.0  -0.0194
  C  C221  1  0.552200  0.472330  0.535920  1.0  -0.1287
  C  C222  1  0.494010  0.459210  0.519950  1.0  -0.0093
  C  C223  1  0.300440  0.449990  0.522310  1.0  -0.0005
  C  C224  1  0.173730  0.440160  0.459020  1.0  0.0082
  C  C225  1  0.243780  0.451940  0.475480  1.0  -0.1019
  C  C226  1  0.223890  0.436330  0.505950  1.0  -0.0106
  C  C227  1  0.123770  0.408580  0.520260  1.0  0.0438
  C  C228  1  0.039700  0.397900  0.503700  1.0  -0.1192
  C  C229  1  0.064200  0.413170  0.473220  1.0  -0.0513
  C  C230  1  0.439900  0.606430  0.633540  1.0  -0.0819
  C  C231  1  0.321350  0.589210  0.627090  1.0  -0.1542
  C  C232  1  0.127830  0.592370  0.626440  1.0  0.0677
  C  C233  1  0.055920  0.613890  0.631130  1.0  -0.0868
  C  C234  1  0.605940  0.346310  0.381340  1.0  0.2567
  C  C235  1  0.406230  0.348450  0.381950  1.0  -0.1488
  C  C236  1  0.280110  0.344660  0.362110  1.0  0.6722
  C  C237  1  0.503060  0.640580  0.651790  1.0  0.6682
  C  C238  1  0.369380  0.627030  0.640130  1.0  -0.164
  C  C239  1  0.171960  0.631150  0.638130  1.0  0.3024
  C  C240  1  0.715350  0.356790  0.395990  1.0  -0.1497
  C  C241  1  0.632660  0.368360  0.412030  1.0  0.091
  C  C242  1  0.436480  0.367680  0.414920  1.0  -0.1681
  C  C243  1  0.325530  0.358230  0.399920  1.0  -0.0926
  C  C244  1  0.660460  0.525260  0.591070  1.0  0.0141
  C  C245  1  0.565830  0.539430  0.565580  1.0  -0.1169
  C  C246  1  0.483660  0.523900  0.553380  1.0  0.0379
  C  C247  1  0.492100  0.493470  0.567440  1.0  -0.0293
  C  C248  1  0.576930  0.479070  0.593750  1.0  -0.1192
  C  C249  1  0.660270  0.494590  0.605940  1.0  -0.0015
  C  C250  1  0.423380  0.476750  0.553810  1.0  -0.0342
  C  C251  1  0.231720  0.467170  0.556560  1.0  0.0135
  C  C252  1  0.172390  0.454830  0.540020  1.0  -0.1089
  C  C253  1  0.749840  0.380590  0.426420  1.0  -0.0162
  C  C254  1  0.962270  0.401490  0.456890  1.0  -0.0284
  C  C255  1  0.830990  0.418520  0.437830  1.0  -0.0931
  C  C256  1  0.729300  0.408900  0.421850  1.0  0.0586
  C  C257  1  0.990470  0.373780  0.460350  1.0  0.0544
  C  C258  1  0.882750  0.363600  0.445220  1.0  -0.1458
  C  C259  1  0.806680  0.551610  0.666667  1.0  -0.3788
  C  C260  1  0.005010  0.560010  0.555170  1.0  -0.3224
  C  C261  1  0.754290  0.478380  0.633950  1.0  -0.2725
  C  C262  1  0.395390  0.539990  0.524860  1.0  -0.2658
  C  C263  1  0.087050  0.469120  0.577170  1.0  -0.2897
  C  C264  1  0.014310  0.438640  0.602070  1.0  -0.213
  C  C265  1  0.162320  0.422500  0.623550  1.0  -0.2076
  C  C266  1  0.194320  0.434090  0.644530  1.0  -0.207
  C  C267  1  0.344380  0.418230  0.665690  1.0  -0.1572
  C  C268  1  0.272100  0.387710  0.689740  1.0  -0.3073
  C  C269  1  0.266650  0.379250  0.110150  1.0  -0.2558
  C  C270  1  0.126320  0.389790  0.086760  1.0  -0.1796
  C  C271  1  0.191830  0.419330  0.059960  1.0  -0.2491
  C  C272  1  0.187090  0.444810  0.066030  1.0  -0.2321
  C  C273  1  0.176140  0.473830  0.037810  1.0  -0.288
  C  C274  1  0.140070  0.499310  0.043160  1.0  -0.2897
  C  C275  1  0.659850  0.552950  0.057170  1.0  -0.3301
  C  C276  1  0.650400  0.426690  0.116310  1.0  -0.1786
  C  C277  1  0.613890  0.479780  0.165320  1.0  -0.3701
  C  C278  1  0.007430  0.399080  0.171230  1.0  -0.2412
  C  C279  1  0.641820  0.591720  0.832300  1.0  -0.1573
  C  C280  1  0.523390  0.582650  0.857490  1.0  0.0405
  C  C281  1  0.481380  0.636170  0.806790  1.0  0.0315
  C  C282  1  0.355680  0.626270  0.831570  1.0  -0.1135
  C  C283  1  0.376400  0.599840  0.857040  1.0  0.0251
  C  C284  1  0.622250  0.618150  0.806890  1.0  -0.0191
  C  C285  1  0.088120  0.535920  0.991750  1.0  -0.1289
  C  C286  1  0.013960  0.519950  0.020840  1.0  -0.0114
  C  C287  1  0.822750  0.522310  0.027700  1.0  -0.0007
  C  C288  1  0.632750  0.459020  0.100820  1.0  0.0085
  C  C289  1  0.719260  0.475480  0.072580  1.0  -0.1013
  C  C290  1  0.729840  0.505950  0.057720  1.0  -0.0095
  C  C291  1  0.644030  0.520260  0.071160  1.0  0.0406
  C  C292  1  0.543400  0.503700  0.098400  1.0  -0.1211
  C  C293  1  0.537420  0.473220  0.113610  1.0  -0.0489
  C  C294  1  0.073440  0.633540  0.760030  1.0  -0.0819
  C  C295  1  0.948440  0.627090  0.783700  1.0  -0.1489
  C  C296  1  0.754270  0.626440  0.781190  1.0  0.0678
  C  C297  1  0.687050  0.631130  0.754980  1.0  -0.0871
  C  C298  1  0.987280  0.381340  0.272350  1.0  0.2569
  C  C299  1  0.788180  0.381950  0.269600  1.0  -0.1455
  C  C300  1  0.642220  0.362110  0.293230  1.0  0.6721
  C  C301  1  0.154850  0.651790  0.707630  1.0  0.6676
  C  C302  1  0.009510  0.640130  0.732840  1.0  -0.1627
  C  C303  1  0.810090  0.638130  0.730720  1.0  0.3058
  C  C304  1  0.111340  0.395990  0.247220  1.0  -0.1489
  C  C305  1  0.044690  0.412030  0.219610  1.0  0.0906
  C  C306  1  0.851400  0.414920  0.217400  1.0  -0.1675
  C  C307  1  0.725450  0.399920  0.241850  1.0  -0.0921
  C  C308  1  0.251530  0.591070  0.883670  1.0  0.0138
  C  C309  1  0.131410  0.565580  0.894990  1.0  -0.1165
  C  C310  1  0.037040  0.553380  0.922720  1.0  0.0388
  C  C311  1  0.059540  0.567440  0.939090  1.0  -0.0297
  C  C312  1  0.170680  0.593750  0.927180  1.0  -0.1205
  C  C313  1  0.266210  0.605940  0.899470  1.0  -0.0014
  C  C314  1  0.977190  0.553810  0.969440  1.0  -0.0348
  C  C315  1  0.788280  0.556560  0.976270  1.0  0.0139
  C  C316  1  0.712410  0.540020  0.005150  1.0  -0.1088
  C  C317  1  0.176260  0.426420  0.192990  1.0  -0.0145
  C  C318  1  0.419160  0.456890  0.141620  1.0  -0.0264
  C  C319  1  0.268820  0.437830  0.143650  1.0  -0.0914
  C  C320  1  0.151150  0.421850  0.169250  1.0  0.0594
  C  C321  1  0.450820  0.460350  0.165870  1.0  0.0533
  C  C322  1  0.327970  0.445220  0.191180  1.0  -0.1425
  C  C323  1  0.473360  0.666667  0.781710  1.0  -0.3775
  C  C324  1  0.560180  0.555170  0.884820  1.0  -0.3236
  C  C325  1  0.388240  0.633950  0.887670  1.0  -0.2715
  C  C326  1  0.920250  0.524860  0.935150  1.0  -0.2646
  C  C327  1  0.664220  0.577170  0.953710  1.0  -0.2908
  C  C328  1  0.616380  0.602070  0.959290  1.0  -0.216
  C  C329  1  0.785870  0.623550  0.953950  1.0  -0.2089
  C  C330  1  0.838850  0.644530  0.921380  1.0  -0.208
  C  C331  1  0.010070  0.665690  0.916080  1.0  -0.157
  C  C332  1  0.961840  0.689740  0.922550  1.0  -0.3058
  C  C333  1  0.376800  0.110150  0.510600  1.0  -0.2617
  C  C334  1  0.213080  0.086760  0.523450  1.0  -0.1818
  C  C335  1  0.251790  0.059960  0.520710  1.0  -0.2471
  C  C336  1  0.253120  0.066030  0.489160  1.0  -0.2293
  C  C337  1  0.213950  0.037810  0.488360  1.0  -0.2824
  C  C338  1  0.183230  0.043160  0.457530  1.0  -0.2884
  C  C339  1  0.717020  0.057170  0.389880  1.0  -0.336
  C  C340  1  0.766710  0.116310  0.457000  1.0  -0.1773
  C  C341  1  0.779210  0.165320  0.354900  1.0  -0.3743
  C  C342  1  0.178660  0.171230  0.429690  1.0  -0.2438
  C  C343  1  0.474120  0.832300  0.575980  1.0  -0.153
  C  C344  1  0.380880  0.857490  0.559860  1.0  0.0421
  C  C345  1  0.288170  0.806790  0.557040  1.0  0.0331
  C  C346  1  0.187250  0.831570  0.542160  1.0  -0.1121
  C  C347  1  0.233440  0.857040  0.543120  1.0  0.0242
  C  C348  1  0.429140  0.806890  0.574960  1.0  -0.0184
  C  C349  1  0.079870  0.991750  0.472330  1.0  -0.13
  C  C350  1  0.034800  0.020840  0.459210  1.0  -0.0079
  C  C351  1  0.850450  0.027700  0.449990  1.0  -0.0008
  C  C352  1  0.733570  0.100820  0.440160  1.0  0.0107
  C  C353  1  0.791840  0.072580  0.451940  1.0  -0.1011
  C  C354  1  0.787560  0.057720  0.436330  1.0  -0.0087
  C  C355  1  0.715190  0.071160  0.408580  1.0  0.0396
  C  C356  1  0.641800  0.098400  0.397900  1.0  -0.1188
  C  C357  1  0.651030  0.113610  0.413170  1.0  -0.0494
  C  C358  1  0.833470  0.760030  0.606430  1.0  -0.082
  C  C359  1  0.732140  0.783700  0.589210  1.0  -0.1546
  C  C360  1  0.535460  0.781190  0.592370  1.0  0.0672
  C  C361  1  0.442030  0.754980  0.613890  1.0  -0.0871
  C  C362  1  0.259630  0.272350  0.346310  1.0  0.2537
  C  C363  1  0.057780  0.269600  0.348450  1.0  -0.1473
  C  C364  1  0.935450  0.293230  0.344660  1.0  0.6726
  C  C365  1  0.862480  0.707630  0.640580  1.0  0.669
  C  C366  1  0.742350  0.732840  0.627030  1.0  -0.1626
  C  C367  1  0.540810  0.730720  0.631150  1.0  0.3022
  C  C368  1  0.358560  0.247220  0.356790  1.0  -0.1494
  C  C369  1  0.264300  0.219610  0.368360  1.0  0.0911
  C  C370  1  0.068800  0.217400  0.367680  1.0  -0.1681
  C  C371  1  0.967300  0.241850  0.358230  1.0  -0.0918
  C  C372  1  0.135200  0.883670  0.525260  1.0  0.0099
  C  C373  1  0.026400  0.894990  0.539430  1.0  -0.1181
  C  C374  1  0.959760  0.922720  0.523900  1.0  0.0378
  C  C375  1  0.998630  0.939090  0.493470  1.0  -0.0271
  C  C376  1  0.097860  0.927180  0.479070  1.0  -0.12
  C  C377  1  0.165680  0.899470  0.494590  1.0  -0.0022
  C  C378  1  0.946630  0.969440  0.476750  1.0  -0.0343
  C  C379  1  0.764550  0.976270  0.467170  1.0  0.0122
  C  C380  1  0.717560  0.005150  0.454830  1.0  -0.1097
  C  C381  1  0.369250  0.192990  0.380590  1.0  -0.0152
  C  C382  1  0.560780  0.141620  0.401490  1.0  -0.0245
  C  C383  1  0.412470  0.143650  0.418520  1.0  -0.0935
  C  C384  1  0.320400  0.169250  0.408900  1.0  0.0588
  C  C385  1  0.616690  0.165870  0.373780  1.0  0.0508
  C  C386  1  0.519150  0.191180  0.363600  1.0  -0.1432
  C  C387  1  0.255070  0.781710  0.551610  1.0  -0.3812
  C  C388  1  0.445000  0.884820  0.560010  1.0  -0.3248
  C  C389  1  0.275910  0.887670  0.478380  1.0  -0.2734
  C  C390  1  0.855400  0.935150  0.539990  1.0  -0.2695
  C  C391  1  0.617930  0.953710  0.469120  1.0  -0.2907
  C  C392  1  0.575670  0.959290  0.438640  1.0  -0.2135
  C  C393  1  0.739820  0.953950  0.422500  1.0  -0.2106
  C  C394  1  0.760230  0.921380  0.434090  1.0  -0.2041
  C  C395  1  0.926150  0.916080  0.418230  1.0  -0.1622
  C  C396  1  0.884390  0.922550  0.387710  1.0  -0.3106
  O  O397  1  0.699120  0.331580  0.369310  1.0  -0.6839
  O  O398  1  0.344550  0.336040  0.345180  1.0  -0.8162
  O  O399  1  0.108010  0.351180  0.361700  1.0  -0.6064
  O  O400  1  0.674500  0.633430  0.654720  1.0  -0.6205
  O  O401  1  0.445570  0.658150  0.659670  1.0  -0.8046
  O  O402  1  0.086820  0.653510  0.640000  1.0  -0.7222
  O  O403  1  0.068430  0.369310  0.299110  1.0  -0.689
  O  O404  1  0.689730  0.345180  0.318780  1.0  -0.8167
  O  O405  1  0.469710  0.361700  0.287120  1.0  -0.6047
  O  O406  1  0.329220  0.654720  0.711850  1.0  -0.6206
  O  O407  1  0.105240  0.659670  0.682180  1.0  -0.8043
  O  O408  1  0.726820  0.640000  0.706490  1.0  -0.7232
  O  O409  1  0.367540  0.299110  0.331580  1.0  -0.6842
  O  O410  1  0.008510  0.318780  0.336040  1.0  -0.8165
  O  O411  1  0.756830  0.287120  0.351180  1.0  -0.6063
  O  O412  1  0.041070  0.711850  0.633430  1.0  -0.621
  O  O413  1  0.787420  0.682180  0.658150  1.0  -0.805
  O  O414  1  0.433310  0.706490  0.653510  1.0  -0.7212
