# generated using pymatgen
data_MgH59C53O3
_symmetry_space_group_name_H-M   'P 1'
_cell_length_a   7.03820000
_cell_length_b   83.77320000
_cell_length_c   83.77320000
_cell_angle_alpha   60.07780000
_cell_angle_beta   88.39520000
_cell_angle_gamma   91.60480000
_symmetry_Int_Tables_number   1
_chemical_formula_structural   MgH59C53O3
_chemical_formula_sum   'Mg6 H354 C318 O18'
_cell_volume   42742.67329900
_cell_formula_units_Z   6
loop_
 _symmetry_equiv_pos_site_id
 _symmetry_equiv_pos_as_xyz
  1  'x, y, z'
loop_
 _atom_site_type_symbol
 _atom_site_label
 _atom_site_symmetry_multiplicity
 _atom_site_fract_x
 _atom_site_fract_y
 _atom_site_fract_z
 _atom_site_occupancy
 _atom_site_charge
  Mg  Mg1  1  0.365120  0.327670  0.323850  1.0  1.5518
  Mg  Mg2  1  0.655920  0.671670  0.676230  1.0  1.5247
  Mg  Mg3  1  0.688970  0.323850  0.348480  1.0  1.5502
  Mg  Mg4  1  0.332150  0.676230  0.652100  1.0  1.5274
  Mg  Mg5  1  0.037450  0.348480  0.327670  1.0  1.5452
  Mg  Mg6  1  0.984250  0.652100  0.671670  1.0  1.5043
  H  H7  1  0.405630  0.509660  0.087250  1.0  0.1082
  H  H8  1  0.653250  0.515180  0.079540  1.0  0.1113
  H  H9  1  0.510840  0.501160  0.073020  1.0  0.1059
  H  H10  1  0.614470  0.490300  0.112830  1.0  0.0916
  H  H11  1  0.729660  0.482370  0.098600  1.0  0.0963
  H  H12  1  0.425480  0.467560  0.097050  1.0  0.0815
  H  H13  1  0.301480  0.476210  0.110320  1.0  0.0763
  H  H14  1  0.491110  0.457360  0.137490  1.0  0.0859
  H  H15  1  0.637440  0.450810  0.123860  1.0  0.0836
  H  H16  1  0.357740  0.434030  0.119980  1.0  0.0985
  H  H17  1  0.426410  0.424760  0.143170  1.0  0.1148
  H  H18  1  0.281850  0.390070  0.141840  1.0  0.1079
  H  H19  1  0.324630  0.365730  0.152210  1.0  0.0893
  H  H20  1  0.414400  0.381550  0.128880  1.0  0.1012
  H  H21  1  0.993690  0.371170  0.142500  1.0  0.0841
  H  H22  1  0.125860  0.363490  0.128970  1.0  0.1046
  H  H23  1  0.169960  0.395690  0.102730  1.0  0.0799
  H  H24  1  0.059700  0.404420  0.116320  1.0  0.0716
  H  H25  1  0.754510  0.384990  0.119030  1.0  0.0999
  H  H26  1  0.873470  0.378700  0.103890  1.0  0.0998
  H  H27  1  0.926630  0.416110  0.081510  1.0  0.0945
  H  H28  1  0.719540  0.403280  0.081700  1.0  0.1001
  H  H29  1  0.622370  0.550710  0.924210  1.0  0.1041
  H  H30  1  0.726770  0.568530  0.928020  1.0  0.1095
  H  H31  1  0.774530  0.568990  0.906580  1.0  0.1188
  H  H32  1  0.344390  0.501650  0.972890  1.0  0.1219
  H  H33  1  0.370250  0.500560  0.952030  1.0  0.1123
  H  H34  1  0.503090  0.518100  0.954300  1.0  0.104
  H  H35  1  0.780600  0.536370  0.957780  1.0  0.1105
  H  H36  1  0.341080  0.534490  0.921520  1.0  0.1086
  H  H37  1  0.615990  0.469600  0.021930  1.0  0.1179
  H  H38  1  0.673640  0.466830  0.002360  1.0  0.1255
  H  H39  1  0.812300  0.455760  0.022580  1.0  0.127
  H  H40  1  0.539130  0.410990  0.102580  1.0  0.1003
  H  H41  1  0.624130  0.430960  0.081810  1.0  0.1061
  H  H42  1  0.142370  0.452090  0.137200  1.0  0.0898
  H  H43  1  0.142950  0.427970  0.153580  1.0  0.1175
  H  H44  1  0.670740  0.442840  0.166230  1.0  0.1041
  H  H45  1  0.923230  0.440700  0.169010  1.0  0.1062
  H  H46  1  0.822560  0.447010  0.147120  1.0  0.1085
  H  H47  1  0.446220  0.359030  0.191680  1.0  0.1088
  H  H48  1  0.623850  0.357380  0.176800  1.0  0.1147
  H  H49  1  0.677780  0.350420  0.200170  1.0  0.1076
  H  H50  1  0.114610  0.407200  0.195960  1.0  0.1197
  H  H51  1  0.352450  0.417140  0.190210  1.0  0.1084
  H  H52  1  0.267970  0.402030  0.181790  1.0  0.1122
  H  H53  1  0.360670  0.328800  0.268340  1.0  0.1147
  H  H54  1  0.430910  0.325160  0.249640  1.0  0.1303
  H  H55  1  0.605870  0.332610  0.260030  1.0  0.108
  H  H56  1  0.886130  0.543250  0.895630  1.0  0.102
  H  H57  1  0.364560  0.595320  0.865740  1.0  0.1053
  H  H58  1  0.904590  0.612370  0.770890  1.0  0.1124
  H  H59  1  0.338050  0.645610  0.772480  1.0  0.11
  H  H60  1  0.821430  0.493690  0.977560  1.0  0.1128
  H  H61  1  0.798720  0.384270  0.156650  1.0  0.1024
  H  H62  1  0.679060  0.412620  0.195560  1.0  0.1262
  H  H63  1  0.126930  0.639440  0.753560  1.0  0.1112
  H  H64  1  0.340930  0.646350  0.727710  1.0  0.1022
  H  H65  1  0.648920  0.645750  0.720630  1.0  0.0965
  H  H66  1  0.373200  0.356190  0.276950  1.0  0.1093
  H  H67  1  0.679250  0.350360  0.273070  1.0  0.1059
  H  H68  1  0.886480  0.358170  0.246380  1.0  0.1026
  H  H69  1  0.316820  0.588350  0.801980  1.0  0.1238
  H  H70  1  0.197940  0.617030  0.840590  1.0  0.107
  H  H71  1  0.174610  0.508110  0.019910  1.0  0.1115
  H  H72  1  0.670780  0.355460  0.224800  1.0  0.1121
  H  H73  1  0.098580  0.387290  0.227950  1.0  0.1116
  H  H74  1  0.631860  0.406090  0.131550  1.0  0.106
  H  H75  1  0.110310  0.458170  0.101940  1.0  0.1037
  H  H76  1  0.441920  0.672470  0.745130  1.0  0.1146
  H  H77  1  0.694970  0.674980  0.740380  1.0  0.1239
  H  H78  1  0.541660  0.667720  0.728050  1.0  0.1018
  H  H79  1  0.722770  0.598040  0.816590  1.0  0.1034
  H  H80  1  0.640910  0.583120  0.807850  1.0  0.1032
  H  H81  1  0.880220  0.592670  0.802850  1.0  0.1194
  H  H82  1  0.322760  0.650680  0.797050  1.0  0.1081
  H  H83  1  0.374760  0.643800  0.820440  1.0  0.1142
  H  H84  1  0.553240  0.641910  0.805770  1.0  0.0971
  H  H85  1  0.173520  0.554160  0.850470  1.0  0.1076
  H  H86  1  0.072270  0.560370  0.828630  1.0  0.0994
  H  H87  1  0.324810  0.558230  0.831380  1.0  0.1072
  H  H88  1  0.853620  0.573110  0.843980  1.0  0.1123
  H  H89  1  0.854020  0.549030  0.860520  1.0  0.0916
  H  H90  1  0.372600  0.570730  0.915460  1.0  0.106
  H  H91  1  0.457520  0.590620  0.894610  1.0  0.0995
  H  H92  1  0.183670  0.546030  0.974880  1.0  0.1278
  H  H93  1  0.322290  0.534990  0.995100  1.0  0.1242
  H  H94  1  0.380010  0.532200  0.975540  1.0  0.1189
  H  H95  1  0.655530  0.467120  0.076000  1.0  0.1099
  H  H96  1  0.215860  0.465430  0.039600  1.0  0.1097
  H  H97  1  0.493360  0.483630  0.043220  1.0  0.1057
  H  H98  1  0.626100  0.501110  0.045580  1.0  0.1154
  H  H99  1  0.651940  0.500120  0.024670  1.0  0.1198
  H  H100  1  0.222220  0.432630  0.090770  1.0  0.1145
  H  H101  1  0.269900  0.433210  0.069270  1.0  0.1101
  H  H102  1  0.374290  0.450950  0.073180  1.0  0.1047
  H  H103  1  0.277280  0.598510  0.915370  1.0  0.101
  H  H104  1  0.070120  0.585630  0.915660  1.0  0.0943
  H  H105  1  0.123330  0.623020  0.893080  1.0  0.0993
  H  H106  1  0.242180  0.616590  0.878040  1.0  0.098
  H  H107  1  0.936920  0.597120  0.880890  1.0  0.0745
  H  H108  1  0.826750  0.605980  0.894370  1.0  0.0833
  H  H109  1  0.870810  0.638100  0.867990  1.0  0.1037
  H  H110  1  0.002990  0.630310  0.854560  1.0  0.0848
  H  H111  1  0.582250  0.619960  0.868210  1.0  0.1023
  H  H112  1  0.672090  0.635680  0.844840  1.0  0.0873
  H  H113  1  0.714790  0.611310  0.855360  1.0  0.1103
  H  H114  1  0.570250  0.576490  0.854290  1.0  0.1131
  H  H115  1  0.638630  0.567330  0.877470  1.0  0.099
  H  H116  1  0.358770  0.550510  0.873700  1.0  0.0811
  H  H117  1  0.505030  0.543820  0.860170  1.0  0.0846
  H  H118  1  0.694380  0.525060  0.887400  1.0  0.0808
  H  H119  1  0.570620  0.533860  0.900550  1.0  0.0836
  H  H120  1  0.266230  0.519020  0.899120  1.0  0.0934
  H  H121  1  0.380990  0.510960  0.884970  1.0  0.0905
  H  H122  1  0.485160  0.500280  0.924720  1.0  0.1049
  H  H123  1  0.342180  0.486230  0.918320  1.0  0.105
  H  H124  1  0.589770  0.491680  0.910570  1.0  0.1116
  H  H125  1  0.492880  0.087250  0.403090  1.0  0.112
  H  H126  1  0.732790  0.079540  0.405280  1.0  0.1111
  H  H127  1  0.583860  0.073020  0.425820  1.0  0.1063
  H  H128  1  0.727300  0.112830  0.396870  1.0  0.0936
  H  H129  1  0.828260  0.098600  0.419030  1.0  0.0978
  H  H130  1  0.522530  0.097050  0.435390  1.0  0.0828
  H  H131  1  0.411800  0.110320  0.413470  1.0  0.0795
  H  H132  1  0.628600  0.137490  0.405150  1.0  0.0866
  H  H133  1  0.761300  0.123860  0.425330  1.0  0.0823
  H  H134  1  0.477720  0.119980  0.445990  1.0  0.101
  H  H135  1  0.569580  0.143170  0.432070  1.0  0.1133
  H  H136  1  0.423690  0.141840  0.468090  1.0  0.1071
  H  H137  1  0.476840  0.152210  0.482060  1.0  0.0906
  H  H138  1  0.543280  0.128880  0.489570  1.0  0.1031
  H  H139  1  0.136190  0.142500  0.486330  1.0  0.0852
  H  H140  1  0.254830  0.128970  0.507540  1.0  0.1043
  H  H141  1  0.272690  0.102730  0.501580  1.0  0.0817
  H  H142  1  0.176020  0.116320  0.479260  1.0  0.071
  H  H143  1  0.873540  0.119030  0.495980  1.0  0.0996
  H  H144  1  0.977360  0.103890  0.517410  1.0  0.0975
  H  H145  1  0.008140  0.081510  0.502380  1.0  0.0966
  H  H146  1  0.801240  0.081700  0.515020  1.0  0.104
  H  H147  1  0.546580  0.924210  0.525080  1.0  0.1022
  H  H148  1  0.654790  0.928020  0.503450  1.0  0.1104
  H  H149  1  0.681110  0.906580  0.524430  1.0  0.118
  H  H150  1  0.317280  0.972890  0.525460  1.0  0.1207
  H  H151  1  0.322280  0.952030  0.547410  1.0  0.116
  H  H152  1  0.457390  0.954300  0.527600  1.0  0.1044
  H  H153  1  0.738380  0.957780  0.505850  1.0  0.1112
  H  H154  1  0.262600  0.921520  0.543990  1.0  0.1099
  H  H155  1  0.637920  0.021930  0.508470  1.0  0.1203
  H  H156  1  0.676000  0.002360  0.530810  1.0  0.1277
  H  H157  1  0.834880  0.022580  0.521660  1.0  0.1243
  H  H158  1  0.641710  0.102580  0.486430  1.0  0.0994
  H  H159  1  0.705940  0.081810  0.487230  1.0  0.108
  H  H160  1  0.279570  0.137200  0.410710  1.0  0.0885
  H  H161  1  0.296530  0.153580  0.418450  1.0  0.1184
  H  H162  1  0.836970  0.166230  0.390930  1.0  0.1033
  H  H163  1  0.092240  0.169010  0.390290  1.0  0.1038
  H  H164  1  0.969680  0.147120  0.405870  1.0  0.1122
  H  H165  1  0.637900  0.191680  0.449290  1.0  0.1101
  H  H166  1  0.800650  0.176800  0.465820  1.0  0.1166
  H  H167  1  0.877950  0.200170  0.449410  1.0  0.1103
  H  H168  1  0.310570  0.195960  0.396840  1.0  0.1189
  H  H169  1  0.542660  0.190210  0.392650  1.0  0.1082
  H  H170  1  0.449760  0.181790  0.416180  1.0  0.1174
  H  H171  1  0.629010  0.268340  0.402860  1.0  0.117
  H  H172  1  0.680550  0.249640  0.425200  1.0  0.131
  H  H173  1  0.865900  0.260030  0.407360  1.0  0.1091
  H  H174  1  0.781760  0.895630  0.561120  1.0  0.1017
  H  H175  1  0.230300  0.865740  0.538940  1.0  0.1047
  H  H176  1  0.675480  0.770890  0.616740  1.0  0.1128
  H  H177  1  0.110530  0.772480  0.581910  1.0  0.1102
  H  H178  1  0.798990  0.977560  0.528750  1.0  0.1147
  H  H179  1  0.955370  0.156650  0.459080  1.0  0.1011
  H  H180  1  0.874620  0.195560  0.391820  1.0  0.1267
  H  H181  1  0.880490  0.753560  0.607000  1.0  0.1124
  H  H182  1  0.068640  0.727710  0.625940  1.0  0.1029
  H  H183  1  0.369550  0.720630  0.633620  1.0  0.0973
  H  H184  1  0.650150  0.276950  0.366860  1.0  0.1092
  H  H185  1  0.952320  0.273070  0.376570  1.0  0.1065
  H  H186  1  0.132860  0.246380  0.395450  1.0  0.1027
  H  H187  1  0.118800  0.801980  0.609670  1.0  0.124
  H  H188  1  0.038530  0.840590  0.542380  1.0  0.1032
  H  H189  1  0.194520  0.019910  0.471980  1.0  0.1116
  H  H190  1  0.895580  0.224800  0.419740  1.0  0.1127
  H  H191  1  0.326530  0.227950  0.384760  1.0  0.1119
  H  H192  1  0.763410  0.131550  0.462360  1.0  0.1058
  H  H193  1  0.212250  0.101940  0.439890  1.0  0.1031
  H  H194  1  0.187050  0.745130  0.582400  1.0  0.1138
  H  H195  1  0.435350  0.740380  0.584640  1.0  0.124
  H  H196  1  0.269710  0.728050  0.604230  1.0  0.1024
  H  H197  1  0.539360  0.816590  0.585370  1.0  0.1076
  H  H198  1  0.448760  0.807850  0.609030  1.0  0.1032
  H  H199  1  0.683070  0.802850  0.604480  1.0  0.1187
  H  H200  1  0.119810  0.797050  0.552270  1.0  0.1093
  H  H201  1  0.195200  0.820440  0.535760  1.0  0.1135
  H  H202  1  0.359010  0.805770  0.552320  1.0  0.0993
  H  H203  1  0.023990  0.850470  0.595370  1.0  0.1095
  H  H204  1  0.900900  0.828630  0.611000  1.0  0.1021
  H  H205  1  0.156190  0.831380  0.610390  1.0  0.1086
  H  H206  1  0.697600  0.843980  0.582910  1.0  0.114
  H  H207  1  0.714540  0.860520  0.590450  1.0  0.0897
  H  H208  1  0.288060  0.915460  0.513810  1.0  0.1061
  H  H209  1  0.352130  0.894610  0.514770  1.0  0.0996
  H  H210  1  0.158550  0.974880  0.479090  1.0  0.1253
  H  H211  1  0.317390  0.995100  0.469910  1.0  0.1236
  H  H212  1  0.355550  0.975540  0.492260  1.0  0.1206
  H  H213  1  0.731530  0.076000  0.456880  1.0  0.1091
  H  H214  1  0.255460  0.039600  0.494970  1.0  0.1104
  H  H215  1  0.536580  0.043220  0.473150  1.0  0.1057
  H  H216  1  0.671680  0.045580  0.453310  1.0  0.115
  H  H217  1  0.676610  0.024670  0.475210  1.0  0.1207
  H  H218  1  0.312990  0.090770  0.476600  1.0  0.113
  H  H219  1  0.339170  0.069270  0.497520  1.0  0.1111
  H  H220  1  0.447470  0.073180  0.475870  1.0  0.1048
  H  H221  1  0.192650  0.915370  0.486120  1.0  0.1026
  H  H222  1  0.985780  0.915660  0.498710  1.0  0.0959
  H  H223  1  0.016410  0.893080  0.483900  1.0  0.0966
  H  H224  1  0.120220  0.878040  0.505370  1.0  0.0977
  H  H225  1  0.817810  0.880890  0.521990  1.0  0.0704
  H  H226  1  0.721120  0.894370  0.499650  1.0  0.0832
  H  H227  1  0.738800  0.867990  0.493910  1.0  0.1027
  H  H228  1  0.857550  0.854560  0.515130  1.0  0.0827
  H  H229  1  0.450460  0.868210  0.511830  1.0  0.1043
  H  H230  1  0.516930  0.844840  0.519480  1.0  0.0873
  H  H231  1  0.570150  0.855360  0.533330  1.0  0.1075
  H  H232  1  0.424540  0.854290  0.569220  1.0  0.1114
  H  H233  1  0.516100  0.877470  0.555200  1.0  0.1005
  H  H234  1  0.232470  0.873700  0.575790  1.0  0.0827
  H  H235  1  0.365200  0.860170  0.596010  1.0  0.0866
  H  H236  1  0.581780  0.887400  0.587540  1.0  0.0829
  H  H237  1  0.471170  0.900550  0.565590  1.0  0.0853
  H  H238  1  0.165350  0.899120  0.581860  1.0  0.0968
  H  H239  1  0.265960  0.884970  0.604070  1.0  0.0941
  H  H240  1  0.409880  0.924720  0.575000  1.0  0.1075
  H  H241  1  0.260500  0.918320  0.595450  1.0  0.1075
  H  H242  1  0.500340  0.910570  0.597750  1.0  0.1123
  H  H243  1  0.895970  0.403090  0.509660  1.0  0.112
  H  H244  1  0.138070  0.405280  0.515180  1.0  0.1109
  H  H245  1  0.009680  0.425820  0.501160  1.0  0.1067
  H  H246  1  0.124170  0.396870  0.490300  1.0  0.0908
  H  H247  1  0.247290  0.419030  0.482370  1.0  0.0958
  H  H248  1  0.957920  0.435390  0.467560  1.0  0.0837
  H  H249  1  0.825270  0.413470  0.476210  1.0  0.078
  H  H250  1  0.033750  0.405150  0.457360  1.0  0.0868
  H  H251  1  0.186630  0.425330  0.450810  1.0  0.083
  H  H252  1  0.923710  0.445990  0.434030  1.0  0.1002
  H  H253  1  0.001650  0.432070  0.424760  1.0  0.1115
  H  H254  1  0.891780  0.468090  0.390070  1.0  0.1105
  H  H255  1  0.958900  0.482060  0.365730  1.0  0.0866
  H  H256  1  0.032850  0.489570  0.381550  1.0  0.1015
  H  H257  1  0.622520  0.486330  0.371170  1.0  0.0841
  H  H258  1  0.762370  0.507540  0.363490  1.0  0.1028
  H  H259  1  0.774270  0.501580  0.395690  1.0  0.082
  H  H260  1  0.655280  0.479260  0.404420  1.0  0.0739
  H  H261  1  0.369520  0.495980  0.384990  1.0  0.0986
  H  H262  1  0.494770  0.517410  0.378700  1.0  0.0962
  H  H263  1  0.510520  0.502380  0.416110  1.0  0.0966
  H  H264  1  0.316260  0.515020  0.403280  1.0  0.1028
  H  H265  1  0.071660  0.525080  0.550710  1.0  0.1026
  H  H266  1  0.158240  0.503450  0.568530  1.0  0.1095
  H  H267  1  0.205540  0.524430  0.568990  1.0  0.1169
  H  H268  1  0.842740  0.525460  0.501650  1.0  0.116
  H  H269  1  0.869690  0.547410  0.500560  1.0  0.116
  H  H270  1  0.984990  0.527600  0.518100  1.0  0.1044
  H  H271  1  0.244230  0.505850  0.536370  1.0  0.1133
  H  H272  1  0.806590  0.543990  0.534490  1.0  0.1104
  H  H273  1  0.146390  0.508470  0.469600  1.0  0.1192
  H  H274  1  0.206810  0.530810  0.466830  1.0  0.1253
  H  H275  1  0.356540  0.521660  0.455760  1.0  0.1247
  H  H276  1  0.128140  0.486430  0.410990  1.0  0.1016
  H  H277  1  0.193170  0.487230  0.430960  1.0  0.1055
  H  H278  1  0.690280  0.410710  0.452090  1.0  0.0924
  H  H279  1  0.714980  0.418450  0.427970  1.0  0.1166
  H  H280  1  0.227900  0.390930  0.442840  1.0  0.1022
  H  H281  1  0.482530  0.390290  0.440700  1.0  0.1021
  H  H282  1  0.375550  0.405870  0.447010  1.0  0.107
  H  H283  1  0.087190  0.449290  0.359030  1.0  0.112
  H  H284  1  0.266470  0.465820  0.357380  1.0  0.1165
  H  H285  1  0.327360  0.449410  0.350420  1.0  0.1073
  H  H286  1  0.707410  0.396840  0.407200  1.0  0.1199
  H  H287  1  0.935310  0.392650  0.417140  1.0  0.1063
  H  H288  1  0.865940  0.416180  0.402030  1.0  0.1172
  H  H289  1  0.031870  0.402860  0.328800  1.0  0.1126
  H  H290  1  0.105750  0.425200  0.325160  1.0  0.13
  H  H291  1  0.273260  0.407360  0.332610  1.0  0.1071
  H  H292  1  0.342880  0.561120  0.543250  1.0  0.1033
  H  H293  1  0.769240  0.538940  0.595320  1.0  0.1058
  H  H294  1  0.292220  0.616740  0.612370  1.0  0.1137
  H  H295  1  0.692440  0.581910  0.645610  1.0  0.1099
  H  H296  1  0.327740  0.528750  0.493690  1.0  0.1141
  H  H297  1  0.414450  0.459080  0.384270  1.0  0.1044
  H  H298  1  0.266440  0.391820  0.412620  1.0  0.1251
  H  H299  1  0.487490  0.607000  0.639440  1.0  0.1124
  H  H300  1  0.694580  0.625940  0.646350  1.0  0.1032
  H  H301  1  0.003170  0.633620  0.645750  1.0  0.0957
  H  H302  1  0.017010  0.366860  0.356190  1.0  0.1091
  H  H303  1  0.328890  0.376570  0.350360  1.0  0.1059
  H  H304  1  0.528310  0.395450  0.358170  1.0  0.1033
  H  H305  1  0.728470  0.609670  0.588350  1.0  0.1224
  H  H306  1  0.580910  0.542380  0.617030  1.0  0.1064
  H  H307  1  0.666500  0.471980  0.508110  1.0  0.1115
  H  H308  1  0.315320  0.419740  0.355460  1.0  0.1124
  H  H309  1  0.711290  0.384760  0.387290  1.0  0.1128
  H  H310  1  0.225770  0.462360  0.406090  1.0  0.1053
  H  H311  1  0.652140  0.439890  0.458170  1.0  0.1021
  H  H312  1  0.769450  0.582400  0.672470  1.0  0.1152
  H  H313  1  0.019990  0.584640  0.674980  1.0  0.1247
  H  H314  1  0.873940  0.604230  0.667720  1.0  0.1018
  H  H315  1  0.124730  0.585370  0.598040  1.0  0.1077
  H  H316  1  0.057790  0.609030  0.583120  1.0  0.1038
  H  H317  1  0.287550  0.604480  0.592670  1.0  0.1207
  H  H318  1  0.672080  0.552270  0.650680  1.0  0.1111
  H  H319  1  0.730960  0.535760  0.643800  1.0  0.1155
  H  H320  1  0.911330  0.552320  0.641910  1.0  0.1105
  H  H321  1  0.619360  0.595370  0.554160  1.0  0.1089
  H  H322  1  0.511900  0.611000  0.560370  1.0  0.1012
  H  H323  1  0.766580  0.610390  0.558230  1.0  0.1082
  H  H324  1  0.280510  0.582910  0.573110  1.0  0.1122
  H  H325  1  0.304990  0.590450  0.549030  1.0  0.0922
  H  H326  1  0.801870  0.513810  0.570730  1.0  0.1047
  H  H327  1  0.866900  0.514770  0.590620  1.0  0.1027
  H  H328  1  0.637640  0.479090  0.546030  1.0  0.1288
  H  H329  1  0.787300  0.469910  0.534990  1.0  0.1242
  H  H330  1  0.847810  0.492260  0.532200  1.0  0.1203
  H  H331  1  0.188410  0.456880  0.467120  1.0  0.1097
  H  H332  1  0.750430  0.494970  0.465430  1.0  0.1115
  H  H333  1  0.009730  0.473150  0.483630  1.0  0.1059
  H  H334  1  0.124990  0.453310  0.501110  1.0  0.1165
  H  H335  1  0.151820  0.475210  0.500120  1.0  0.1169
  H  H336  1  0.789590  0.476600  0.432630  1.0  0.113
  H  H337  1  0.836690  0.497520  0.433210  1.0  0.1122
  H  H338  1  0.923340  0.475870  0.450950  1.0  0.1061
  H  H339  1  0.678770  0.486120  0.598510  1.0  0.1018
  H  H340  1  0.484490  0.498710  0.585630  1.0  0.0966
  H  H341  1  0.500310  0.483900  0.623020  1.0  0.095
  H  H342  1  0.625590  0.505370  0.616590  1.0  0.0962
  H  H343  1  0.339800  0.521990  0.597120  1.0  0.0709
  H  H344  1  0.220770  0.499650  0.605980  1.0  0.085
  H  H345  1  0.232710  0.493910  0.638100  1.0  0.1023
  H  H346  1  0.372680  0.515130  0.630310  1.0  0.0818
  H  H347  1  0.962290  0.511830  0.619960  1.0  0.1027
  H  H348  1  0.036410  0.519480  0.635680  1.0  0.0877
  H  H349  1  0.103480  0.533330  0.611310  1.0  0.1103
  H  H350  1  0.993760  0.569220  0.576490  1.0  0.1108
  H  H351  1  0.071300  0.555200  0.567330  1.0  0.1019
  H  H352  1  0.808260  0.575790  0.550510  1.0  0.0814
  H  H353  1  0.961210  0.596010  0.543820  1.0  0.0888
  H  H354  1  0.169320  0.587540  0.525060  1.0  0.0821
  H  H355  1  0.036760  0.565590  0.533860  1.0  0.0849
  H  H356  1  0.747210  0.581860  0.519020  1.0  0.0938
  H  H357  1  0.870030  0.604070  0.510960  1.0  0.0914
  H  H358  1  0.984880  0.575000  0.500280  1.0  0.1096
  H  H359  1  0.855950  0.595450  0.486230  1.0  0.1082
  H  H360  1  0.098090  0.597750  0.491680  1.0  0.1121
  C  C361  1  0.536740  0.504290  0.084280  1.0  -0.2787
  C  C362  1  0.592910  0.486910  0.101670  1.0  -0.1681
  C  C363  1  0.439180  0.471260  0.108070  1.0  -0.1426
  C  C364  1  0.491520  0.454130  0.126070  1.0  -0.1608
  C  C365  1  0.360610  0.436870  0.131670  1.0  -0.2909
  C  C366  1  0.294240  0.378410  0.139060  1.0  -0.2519
  C  C367  1  0.109670  0.375150  0.131690  1.0  -0.2057
  C  C368  1  0.059260  0.392560  0.113820  1.0  -0.1843
  C  C369  1  0.863710  0.389840  0.107470  1.0  -0.2855
  C  C370  1  0.801110  0.407560  0.090300  1.0  -0.2976
  C  C371  1  0.751490  0.559730  0.921710  1.0  -0.2377
  C  C372  1  0.364510  0.510160  0.957610  1.0  -0.3259
  C  C373  1  0.903690  0.536050  0.949840  1.0  -0.1161
  C  C374  1  0.915150  0.547600  0.930550  1.0  0.0442
  C  C375  1  0.077040  0.547340  0.920270  1.0  0.0075
  C  C376  1  0.219900  0.535040  0.929480  1.0  -0.1171
  C  C377  1  0.207730  0.523340  0.948770  1.0  0.0376
  C  C378  1  0.048560  0.524090  0.959060  1.0  0.005
  C  C379  1  0.735200  0.468420  0.013640  1.0  -0.36
  C  C380  1  0.670640  0.419360  0.094960  1.0  -0.3309
  C  C381  1  0.158990  0.438240  0.138590  1.0  -0.2629
  C  C382  1  0.801260  0.438210  0.162230  1.0  -0.2842
  C  C383  1  0.601380  0.360640  0.188100  1.0  -0.3655
  C  C384  1  0.263860  0.404520  0.193700  1.0  -0.3792
  C  C385  1  0.456710  0.334120  0.255810  1.0  -0.3332
  C  C386  1  0.991600  0.566330  0.869450  1.0  0.0131
  C  C387  1  0.985820  0.555010  0.888850  1.0  -0.106
  C  C388  1  0.227600  0.574750  0.891340  1.0  -0.0234
  C  C389  1  0.254600  0.584320  0.872020  1.0  -0.1055
  C  C390  1  0.782080  0.619800  0.771270  1.0  -0.1186
  C  C391  1  0.666790  0.612430  0.787540  1.0  0.0249
  C  C392  1  0.588590  0.646660  0.756430  1.0  0.0236
  C  C393  1  0.462930  0.638460  0.772200  1.0  -0.0896
  C  C394  1  0.098660  0.559250  0.899870  1.0  -0.0755
  C  C395  1  0.139410  0.580380  0.860670  1.0  0.0285
  C  C396  1  0.498730  0.621310  0.787720  1.0  -0.0143
  C  C397  1  0.743560  0.636630  0.755520  1.0  -0.0089
  C  C398  1  0.898260  0.496780  0.986860  1.0  -0.1276
  C  C399  1  0.869710  0.485260  0.006090  1.0  0.0275
  C  C400  1  0.969950  0.489530  0.018040  1.0  -0.0316
  C  C401  1  0.673890  0.380060  0.182320  1.0  0.0028
  C  C402  1  0.770440  0.390670  0.164970  1.0  -0.0819
  C  C403  1  0.812020  0.409840  0.157260  1.0  0.008
  C  C404  1  0.778220  0.417810  0.168680  1.0  0.0016
  C  C405  1  0.703190  0.406530  0.186860  1.0  -0.0731
  C  C406  1  0.635000  0.388310  0.193210  1.0  -0.0092
  C  C407  1  0.191120  0.647030  0.725420  1.0  -0.1078
  C  C408  1  0.068150  0.643030  0.740410  1.0  -0.1466
  C  C409  1  0.871440  0.643260  0.738690  1.0  0.0024
  C  C410  1  0.799660  0.647260  0.721600  1.0  -0.1125
  C  C411  1  0.104990  0.349150  0.292380  1.0  0.1903
  C  C412  1  0.903040  0.347400  0.291530  1.0  -0.1742
  C  C413  1  0.762490  0.340520  0.307690  1.0  0.6685
  C  C414  1  0.256200  0.658980  0.692550  1.0  0.6879
  C  C415  1  0.123150  0.651880  0.707920  1.0  -0.1405
  C  C416  1  0.921540  0.651190  0.706330  1.0  0.3387
  C  C417  1  0.222210  0.353870  0.276580  1.0  -0.09
  C  C418  1  0.145830  0.356820  0.260000  1.0  0.0213
  C  C419  1  0.948920  0.355490  0.259150  1.0  -0.152
  C  C420  1  0.830310  0.351010  0.274560  1.0  -0.0879
  C  C421  1  0.363050  0.612690  0.804240  1.0  -0.0058
  C  C422  1  0.292880  0.594520  0.810610  1.0  -0.0654
  C  C423  1  0.217520  0.583310  0.828800  1.0  1e-04
  C  C424  1  0.184090  0.591390  0.840120  1.0  0.0041
  C  C425  1  0.226230  0.610570  0.832330  1.0  -0.0739
  C  C426  1  0.324040  0.621050  0.815030  1.0  0.0052
  C  C427  1  0.026100  0.512270  0.979430  1.0  -0.0328
  C  C428  1  0.126280  0.516560  0.991370  1.0  0.0302
  C  C429  1  0.097730  0.505010  0.010600  1.0  -0.1314
  C  C430  1  0.268100  0.363580  0.242850  1.0  -0.0053
  C  C431  1  0.503210  0.379390  0.210000  1.0  -0.0034
  C  C432  1  0.856840  0.420930  0.136730  1.0  0.0301
  C  C433  1  0.897880  0.442290  0.097550  1.0  -0.0515
  C  C434  1  0.544930  0.362360  0.225370  1.0  -0.0988
  C  C435  1  0.424230  0.353900  0.241480  1.0  0.033
  C  C436  1  0.333590  0.387850  0.210630  1.0  0.0506
  C  C437  1  0.222770  0.380220  0.227210  1.0  -0.1214
  C  C438  1  0.741790  0.417090  0.125330  1.0  -0.1097
  C  C439  1  0.768950  0.426780  0.105980  1.0  -0.0416
  C  C440  1  0.010630  0.446410  0.108660  1.0  -0.1065
  C  C441  1  0.004770  0.434970  0.128060  1.0  0.0155
  C  C442  1  0.564860  0.666500  0.741650  1.0  -0.3836
  C  C443  1  0.730620  0.595590  0.804660  1.0  -0.378
  C  C444  1  0.397850  0.640440  0.809220  1.0  -0.3692
  C  C445  1  0.194440  0.562910  0.835340  1.0  -0.2866
  C  C446  1  0.837420  0.562930  0.859000  1.0  -0.268
  C  C447  1  0.326030  0.582270  0.902280  1.0  -0.3275
  C  C448  1  0.260770  0.533380  0.983830  1.0  -0.3597
  C  C449  1  0.947840  0.477670  0.038400  1.0  0.0034
  C  C450  1  0.788750  0.478370  0.048730  1.0  0.0391
  C  C451  1  0.776710  0.466600  0.068010  1.0  -0.1161
  C  C452  1  0.919600  0.454280  0.077170  1.0  0.0076
  C  C453  1  0.081480  0.454100  0.066850  1.0  0.0441
  C  C454  1  0.092840  0.465720  0.047570  1.0  -0.122
  C  C455  1  0.631880  0.491550  0.039950  1.0  -0.3274
  C  C456  1  0.245200  0.441960  0.075650  1.0  -0.2424
  C  C457  1  0.195630  0.594150  0.906840  1.0  -0.2972
  C  C458  1  0.133010  0.611800  0.889600  1.0  -0.2798
  C  C459  1  0.937420  0.609030  0.883290  1.0  -0.1829
  C  C460  1  0.887000  0.626380  0.865360  1.0  -0.2101
  C  C461  1  0.702430  0.623050  0.858040  1.0  -0.2523
  C  C462  1  0.635790  0.564400  0.865840  1.0  -0.2612
  C  C463  1  0.504650  0.547140  0.871530  1.0  -0.1579
  C  C464  1  0.556780  0.530070  0.889590  1.0  -0.1426
  C  C465  1  0.402820  0.514440  0.896070  1.0  -0.1664
  C  C466  1  0.458890  0.497090  0.913520  1.0  -0.2891
  C  C467  1  0.621020  0.084280  0.411430  1.0  -0.2862
  C  C468  1  0.694580  0.101670  0.411420  1.0  -0.1689
  C  C469  1  0.547250  0.108070  0.420670  1.0  -0.1454
  C  C470  1  0.617590  0.126070  0.419800  1.0  -0.1593
  C  C471  1  0.492280  0.131670  0.431460  1.0  -0.2941
  C  C472  1  0.433300  0.139060  0.482530  1.0  -0.2558
  C  C473  1  0.241360  0.131690  0.493160  1.0  -0.2103
  C  C474  1  0.173080  0.113820  0.493620  1.0  -0.1868
  C  C475  1  0.971180  0.107470  0.502690  1.0  -0.2802
  C  C476  1  0.891410  0.090300  0.502140  1.0  -0.2953
  C  C477  1  0.673200  0.921710  0.518560  1.0  -0.2352
  C  C478  1  0.322120  0.957610  0.532230  1.0  -0.3252
  C  C479  1  0.853530  0.949840  0.514110  1.0  -0.1173
  C  C480  1  0.845700  0.930550  0.521850  1.0  0.0436
  C  C481  1  0.997310  0.920270  0.532390  1.0  0.0061
  C  C482  1  0.149380  0.929480  0.535480  1.0  -0.1177
  C  C483  1  0.156500  0.948770  0.527890  1.0  0.0383
  C  C484  1  0.007620  0.959060  0.516850  1.0  0.0041
  C  C485  1  0.748840  0.013640  0.517940  1.0  -0.3605
  C  C486  1  0.765600  0.094960  0.485680  1.0  -0.328
  C  C487  1  0.297580  0.138590  0.423170  1.0  -0.2625
  C  C488  1  0.963490  0.162230  0.399560  1.0  -0.286
  C  C489  1  0.789480  0.188100  0.451260  1.0  -0.3703
  C  C490  1  0.457560  0.193700  0.401780  1.0  -0.3791
  C  C491  1  0.712520  0.255810  0.410070  1.0  -0.3377
  C  C492  1  0.861050  0.869450  0.564220  1.0  0.015
  C  C493  1  0.874670  0.888850  0.556140  1.0  -0.1044
  C  C494  1  0.118940  0.891340  0.533910  1.0  -0.0206
  C  C495  1  0.126620  0.872020  0.543660  1.0  -0.1052
  C  C496  1  0.553350  0.771270  0.608930  1.0  -0.1198
  C  C497  1  0.454330  0.787540  0.600030  1.0  0.0257
  C  C498  1  0.345020  0.756430  0.596910  1.0  0.0243
  C  C499  1  0.235130  0.772200  0.589340  1.0  -0.0897
  C  C500  1  0.998530  0.899870  0.540880  1.0  -0.0775
  C  C501  1  0.000080  0.860670  0.558950  1.0  0.026
  C  C502  1  0.286450  0.787720  0.590970  1.0  -0.0152
  C  C503  1  0.499080  0.755520  0.607850  1.0  -0.009
  C  C504  1  0.885120  0.986860  0.516360  1.0  -0.1297
  C  C505  1  0.875800  0.006090  0.508650  1.0  0.0266
  C  C506  1  0.987990  0.018040  0.492430  1.0  -0.0311
  C  C507  1  0.856210  0.182320  0.437620  1.0  0.002
  C  C508  1  0.935410  0.164970  0.444360  1.0  -0.0816
  C  C509  1  0.969280  0.157260  0.432900  1.0  0.0057
  C  C510  1  0.946900  0.168680  0.413510  1.0  0.0027
  C  C511  1  0.890050  0.186860  0.406610  1.0  -0.0784
  C  C512  1  0.828210  0.193210  0.418480  1.0  -0.0095
  C  C513  1  0.916540  0.725420  0.627550  1.0  -0.1084
  C  C514  1  0.808560  0.740410  0.616560  1.0  -0.1475
  C  C515  1  0.610130  0.738690  0.618050  1.0  0.003
  C  C516  1  0.521260  0.721600  0.631140  1.0  -0.1113
  C  C517  1  0.397370  0.292380  0.358470  1.0  0.1881
  C  C518  1  0.194570  0.291530  0.361070  1.0  -0.1757
  C  C519  1  0.070180  0.307690  0.351790  1.0  0.6687
  C  C520  1  0.948750  0.692550  0.648470  1.0  0.6876
  C  C521  1  0.831070  0.707920  0.640200  1.0  -0.1408
  C  C522  1  0.627870  0.706330  0.642480  1.0  0.3365
  C  C523  1  0.498790  0.276580  0.369550  1.0  -0.0908
  C  C524  1  0.405830  0.260000  0.383180  1.0  0.022
  C  C525  1  0.208070  0.259150  0.385360  1.0  -0.1541
  C  C526  1  0.104870  0.274560  0.374430  1.0  -0.088
  C  C527  1  0.167290  0.804240  0.583070  1.0  -0.0063
  C  C528  1  0.103490  0.810610  0.594870  1.0  -0.0689
  C  C529  1  0.046320  0.828800  0.587890  1.0  0.0031
  C  C530  1  0.024210  0.840120  0.568490  1.0  0.0027
  C  C531  1  0.058560  0.832330  0.557100  1.0  -0.0727
  C  C532  1  0.139070  0.815030  0.563920  1.0  0.0052
  C  C533  1  0.005530  0.979430  0.508300  1.0  -0.0329
  C  C534  1  0.117650  0.991370  0.492070  1.0  0.0288
  C  C535  1  0.108330  0.010600  0.484390  1.0  -0.13
  C  C536  1  0.510950  0.242850  0.393570  1.0  -0.0057
  C  C537  1  0.713210  0.210000  0.410610  1.0  -0.0051
  C  C538  1  0.993570  0.136730  0.442340  1.0  0.0284
  C  C539  1  0.995430  0.097550  0.460160  1.0  -0.0521
  C  C540  1  0.770300  0.225370  0.412270  1.0  -0.0993
  C  C541  1  0.665710  0.241480  0.404620  1.0  0.0347
  C  C542  1  0.544220  0.210630  0.401520  1.0  0.0499
  C  C543  1  0.449980  0.227210  0.392570  1.0  -0.1204
  C  C544  1  0.867120  0.125330  0.457580  1.0  -0.1105
  C  C545  1  0.874930  0.105980  0.467240  1.0  -0.0373
  C  C546  1  0.119290  0.108660  0.444930  1.0  -0.1035
  C  C547  1  0.132830  0.128060  0.436970  1.0  0.016
  C  C548  1  0.306510  0.741650  0.591850  1.0  -0.3865
  C  C549  1  0.535280  0.804660  0.599750  1.0  -0.3791
  C  C550  1  0.207070  0.809220  0.550340  1.0  -0.3754
  C  C551  1  0.029780  0.835340  0.601750  1.0  -0.2835
  C  C552  1  0.696420  0.859000  0.578070  1.0  -0.2653
  C  C553  1  0.228310  0.902280  0.515450  1.0  -0.3244
  C  C554  1  0.244600  0.983830  0.482790  1.0  -0.3616
  C  C555  1  0.986240  0.038400  0.483930  1.0  0.0032
  C  C556  1  0.837480  0.048730  0.472900  1.0  0.0381
  C  C557  1  0.844720  0.068010  0.465390  1.0  -0.1166
  C  C558  1  0.996770  0.077170  0.468550  1.0  0.0069
  C  C559  1  0.148330  0.066850  0.479050  1.0  0.0455
  C  C560  1  0.140410  0.047570  0.486710  1.0  -0.1221
  C  C561  1  0.671830  0.039950  0.468500  1.0  -0.325
  C  C562  1  0.320850  0.075650  0.482390  1.0  -0.238
  C  C563  1  0.102470  0.906840  0.499010  1.0  -0.3058
  C  C564  1  0.022610  0.889600  0.498600  1.0  -0.284
  C  C565  1  0.820710  0.883290  0.507680  1.0  -0.184
  C  C566  1  0.752360  0.865360  0.508260  1.0  -0.2144
  C  C567  1  0.560470  0.858040  0.518910  1.0  -0.2592
  C  C568  1  0.501630  0.865840  0.569760  1.0  -0.2671
  C  C569  1  0.376180  0.871530  0.581330  1.0  -0.1573
  C  C570  1  0.446370  0.889590  0.580340  1.0  -0.1399
  C  C571  1  0.298890  0.896070  0.589490  1.0  -0.1693
  C  C572  1  0.372410  0.913520  0.589390  1.0  -0.2929
  C  C573  1  0.032450  0.411430  0.504290  1.0  -0.2867
  C  C574  1  0.106000  0.411420  0.486910  1.0  -0.1671
  C  C575  1  0.967920  0.420670  0.471260  1.0  -0.1429
  C  C576  1  0.037390  0.419800  0.454130  1.0  -0.1604
  C  C577  1  0.923740  0.431460  0.436870  1.0  -0.2945
  C  C578  1  0.915830  0.482530  0.378410  1.0  -0.2567
  C  C579  1  0.734520  0.493160  0.375150  1.0  -0.2116
  C  C580  1  0.666667  0.493620  0.392560  1.0  -0.1841
  C  C581  1  0.473870  0.502690  0.389840  1.0  -0.2772
  C  C582  1  0.393550  0.502140  0.407560  1.0  -0.2932
  C  C583  1  0.191760  0.518560  0.559730  1.0  -0.2342
  C  C584  1  0.854350  0.532230  0.510160  1.0  -0.3266
  C  C585  1  0.367640  0.514110  0.536050  1.0  -0.1171
  C  C586  1  0.367550  0.521850  0.547600  1.0  0.0444
  C  C587  1  0.529700  0.532390  0.547340  1.0  0.0069
  C  C588  1  0.684860  0.535480  0.535040  1.0  -0.1177
  C  C589  1  0.684390  0.527890  0.523340  1.0  0.039
  C  C590  1  0.524470  0.516850  0.524090  1.0  0.0045
  C  C591  1  0.266780  0.517940  0.468420  1.0  -0.3581
  C  C592  1  0.251280  0.485680  0.419360  1.0  -0.3291
  C  C593  1  0.720750  0.423170  0.438240  1.0  -0.2641
  C  C594  1  0.363050  0.399560  0.438210  1.0  -0.2806
  C  C595  1  0.240740  0.451260  0.360640  1.0  -0.3665
  C  C596  1  0.859340  0.401780  0.404520  1.0  -0.3768
  C  C597  1  0.122590  0.410070  0.334120  1.0  -0.3362
  C  C598  1  0.425270  0.564220  0.566330  1.0  0.0118
  C  C599  1  0.430810  0.556140  0.555010  1.0  -0.1043
  C  C600  1  0.652850  0.533910  0.574750  1.0  -0.0211
  C  C601  1  0.670280  0.543660  0.584320  1.0  -0.1055
  C  C602  1  0.162280  0.608930  0.619800  1.0  -0.1192
  C  C603  1  0.054360  0.600030  0.612430  1.0  0.0256
  C  C604  1  0.941930  0.596910  0.646660  1.0  0.0252
  C  C605  1  0.824470  0.589340  0.638460  1.0  -0.0901
  C  C606  1  0.539410  0.540880  0.559250  1.0  -0.0779
  C  C607  1  0.559030  0.558950  0.580380  1.0  0.0271
  C  C608  1  0.877420  0.590970  0.621310  1.0  -0.0148
  C  C609  1  0.106930  0.607850  0.636630  1.0  -0.0087
  C  C610  1  0.401480  0.516360  0.496780  1.0  -0.1326
  C  C611  1  0.384450  0.508650  0.485260  1.0  0.0299
  C  C612  1  0.480420  0.492430  0.489530  1.0  -0.0323
  C  C613  1  0.293830  0.437620  0.380060  1.0  0.0027
  C  C614  1  0.379770  0.444360  0.390670  1.0  -0.0832
  C  C615  1  0.402180  0.432900  0.409840  1.0  0.0069
  C  C616  1  0.360410  0.413510  0.417810  1.0  -1e-04
  C  C617  1  0.296660  0.406610  0.406530  1.0  -0.076
  C  C618  1  0.246690  0.418480  0.388310  1.0  -0.0085
  C  C619  1  0.544090  0.627550  0.647030  1.0  -0.1073
  C  C620  1  0.425120  0.616560  0.643030  1.0  -0.1487
  C  C621  1  0.228180  0.618050  0.643260  1.0  0.0029
  C  C622  1  0.152400  0.631140  0.647260  1.0  -0.1115
  C  C623  1  0.755840  0.358470  0.349150  1.0  0.1889
  C  C624  1  0.555640  0.361070  0.347400  1.0  -0.1762
  C  C625  1  0.421970  0.351790  0.340520  1.0  0.6685
  C  C626  1  0.597220  0.648470  0.658980  1.0  0.6879
  C  C627  1  0.471270  0.640200  0.651880  1.0  -0.1402
  C  C628  1  0.270350  0.642480  0.651190  1.0  0.3369
  C  C629  1  0.868340  0.369550  0.353870  1.0  -0.0905
  C  C630  1  0.789010  0.383180  0.356820  1.0  0.0221
  C  C631  1  0.593430  0.385360  0.355490  1.0  -0.1543
  C  C632  1  0.479300  0.374430  0.351010  1.0  -0.0879
  C  C633  1  0.750360  0.583070  0.612690  1.0  -0.0035
  C  C634  1  0.698360  0.594870  0.594520  1.0  -0.0699
  C  C635  1  0.634210  0.587890  0.583310  1.0  0.0007
  C  C636  1  0.592700  0.568490  0.591390  1.0  0.0033
  C  C637  1  0.615660  0.557100  0.610570  1.0  -0.0734
  C  C638  1  0.702990  0.563920  0.621050  1.0  0.0051
  C  C639  1  0.513830  0.508300  0.512270  1.0  -0.0324
  C  C640  1  0.609720  0.492070  0.516560  1.0  0.0302
  C  C641  1  0.592720  0.484390  0.505010  1.0  -0.1341
  C  C642  1  0.904520  0.393570  0.363580  1.0  -0.0052
  C  C643  1  0.123820  0.410610  0.379390  1.0  -0.0041
  C  C644  1  0.435910  0.442340  0.420930  1.0  0.0283
  C  C645  1  0.455590  0.460160  0.442290  1.0  -0.0542
  C  C646  1  0.182570  0.412270  0.362360  1.0  -0.0992
  C  C647  1  0.070330  0.404620  0.353900  1.0  0.0338
  C  C648  1  0.945740  0.401520  0.387850  1.0  0.0512
  C  C649  1  0.842550  0.392570  0.380220  1.0  -0.121
  C  C650  1  0.324700  0.457580  0.417090  1.0  -0.1099
  C  C651  1  0.342170  0.467240  0.426780  1.0  -0.0422
  C  C652  1  0.564220  0.444930  0.446410  1.0  -0.1049
  C  C653  1  0.569800  0.436970  0.434970  1.0  0.0141
  C  C654  1  0.898360  0.591850  0.666500  1.0  -0.3838
  C  C655  1  0.135030  0.599750  0.595590  1.0  -0.3771
  C  C656  1  0.757410  0.550340  0.640440  1.0  -0.3683
  C  C657  1  0.631530  0.601750  0.562910  1.0  -0.2817
  C  C658  1  0.274490  0.578070  0.562930  1.0  -0.2649
  C  C659  1  0.743760  0.515450  0.582270  1.0  -0.3258
  C  C660  1  0.727390  0.482790  0.533380  1.0  -0.3571
  C  C661  1  0.470170  0.483930  0.477670  1.0  0.004
  C  C662  1  0.310380  0.472900  0.478370  1.0  0.0393
  C  C663  1  0.310110  0.465390  0.466600  1.0  -0.1173
  C  C664  1  0.465320  0.468550  0.454280  1.0  0.0064
  C  C665  1  0.627380  0.479050  0.454100  1.0  0.0457
  C  C666  1  0.627120  0.486710  0.465720  1.0  -0.1219
  C  C667  1  0.140330  0.468500  0.491550  1.0  -0.3247
  C  C668  1  0.803240  0.482390  0.441960  1.0  -0.2407
  C  C669  1  0.601480  0.499010  0.594150  1.0  -0.2981
  C  C670  1  0.521210  0.498600  0.611800  1.0  -0.2749
  C  C671  1  0.328390  0.507680  0.609030  1.0  -0.1794
  C  C672  1  0.260620  0.508260  0.626380  1.0  -0.2118
  C  C673  1  0.079380  0.518910  0.623050  1.0  -0.2589
  C  C674  1  0.071390  0.569760  0.564400  1.0  -0.2644
  C  C675  1  0.957510  0.581330  0.547140  1.0  -0.159
  C  C676  1  0.026710  0.580340  0.530070  1.0  -0.1448
  C  C677  1  0.888380  0.589490  0.514440  1.0  -0.1703
  C  C678  1  0.961800  0.589390  0.497090  1.0  -0.2945
  O  O679  1  0.194020  0.348660  0.307460  1.0  -0.6993
  O  O680  1  0.816170  0.337090  0.323520  1.0  -0.7877
  O  O681  1  0.587000  0.337830  0.305390  1.0  -0.6158
  O  O682  1  0.433690  0.660770  0.694880  1.0  -0.6159
  O  O683  1  0.199080  0.663980  0.676430  1.0  -0.8118
  O  O684  1  0.847720  0.653240  0.691580  1.0  -0.7532
  O  O685  1  0.501480  0.307460  0.343880  1.0  -0.6965
  O  O686  1  0.139690  0.323520  0.339390  1.0  -0.7876
  O  O687  1  0.892390  0.305390  0.356780  1.0  -0.6159
  O  O688  1  0.128570  0.694880  0.644350  1.0  -0.6171
  O  O689  1  0.875510  0.676430  0.659590  1.0  -0.8126
  O  O690  1  0.539300  0.691580  0.655180  1.0  -0.753
  O  O691  1  0.845360  0.343880  0.348660  1.0  -0.6967
  O  O692  1  0.479080  0.339390  0.337090  1.0  -0.7889
  O  O693  1  0.249170  0.356780  0.337830  1.0  -0.617
  O  O694  1  0.772920  0.644350  0.660770  1.0  -0.6165
  O  O695  1  0.535100  0.659590  0.663980  1.0  -0.8122
  O  O696  1  0.194480  0.655180  0.653240  1.0  -0.7528
