# generated using pymatgen
data_MgH42(C10O)4
_symmetry_space_group_name_H-M   'P 1'
_cell_length_a   6.94410000
_cell_length_b   65.72830000
_cell_length_c   65.72830000
_cell_angle_alpha   60.12300000
_cell_angle_beta   87.98180000
_cell_angle_gamma   92.01820000
_symmetry_Int_Tables_number   1
_chemical_formula_structural   MgH42(C10O)4
_chemical_formula_sum   'Mg6 H252 C240 O24'
_cell_volume   25948.50973651
_cell_formula_units_Z   6
loop_
 _symmetry_equiv_pos_site_id
 _symmetry_equiv_pos_as_xyz
  1  'x, y, z'
loop_
 _atom_site_type_symbol
 _atom_site_label
 _atom_site_symmetry_multiplicity
 _atom_site_fract_x
 _atom_site_fract_y
 _atom_site_fract_z
 _atom_site_occupancy
 _atom_site_charge
  Mg  Mg1  1  0.730980  0.351270  0.329570  1.0  1.4808
  Mg  Mg2  1  0.286110  0.649630  0.669240  1.0  1.4783
  Mg  Mg3  1  0.060550  0.329570  0.319160  1.0  1.4813
  Mg  Mg4  1  0.955350  0.669240  0.681130  1.0  1.4789
  Mg  Mg5  1  0.379710  0.319160  0.351270  1.0  1.4817
  Mg  Mg6  1  0.636480  0.681130  0.649630  1.0  1.4773
  H  H7  1  0.262970  0.507680  0.393280  1.0  0.0878
  H  H8  1  0.353590  0.504250  0.369930  1.0  0.0921
  H  H9  1  0.441400  0.486960  0.398090  1.0  0.0869
  H  H10  1  0.497230  0.539970  0.369260  1.0  0.0685
  H  H11  1  0.670240  0.520800  0.369290  1.0  0.071
  H  H12  1  0.772310  0.533070  0.395540  1.0  0.0689
  H  H13  1  0.689610  0.503430  0.412280  1.0  0.0722
  H  H14  1  0.372280  0.515050  0.421290  1.0  0.0611
  H  H15  1  0.453480  0.544950  0.403940  1.0  0.0595
  H  H16  1  0.721250  0.538820  0.429910  1.0  0.0689
  H  H17  1  0.652370  0.508870  0.445950  1.0  0.0696
  H  H18  1  0.300990  0.528890  0.447100  1.0  0.0801
  H  H19  1  0.475080  0.549280  0.445890  1.0  0.0709
  H  H20  1  0.877150  0.485810  0.485740  1.0  0.0997
  H  H21  1  0.073730  0.505110  0.483470  1.0  0.0942
  H  H22  1  0.953490  0.510840  0.458450  1.0  0.091
  H  H23  1  0.587190  0.432830  0.462100  1.0  0.0964
  H  H24  1  0.466380  0.442960  0.435600  1.0  0.0856
  H  H25  1  0.648150  0.460960  0.437730  1.0  0.0896
  H  H26  1  0.056930  0.393940  0.484170  1.0  0.1073
  H  H27  1  0.300010  0.398850  0.471740  1.0  0.094
  H  H28  1  0.210300  0.416400  0.482870  1.0  0.0776
  H  H29  1  0.648970  0.456630  0.391670  1.0  0.0971
  H  H30  1  0.792740  0.481930  0.385500  1.0  0.1013
  H  H31  1  0.866660  0.465270  0.372920  1.0  0.089
  H  H32  1  0.458980  0.380360  0.450070  1.0  0.0982
  H  H33  1  0.707390  0.379950  0.456590  1.0  0.0864
  H  H34  1  0.581840  0.406160  0.445780  1.0  0.0856
  H  H35  1  0.720630  0.410740  0.341610  1.0  0.0914
  H  H36  1  0.773620  0.438010  0.339480  1.0  0.0973
  H  H37  1  0.961250  0.418380  0.345500  1.0  0.089
  H  H38  1  0.392860  0.536130  0.526730  1.0  0.0945
  H  H39  1  0.077830  0.529850  0.546250  1.0  0.0959
  H  H40  1  0.559950  0.629190  0.578960  1.0  0.1045
  H  H41  1  0.020830  0.572030  0.623620  1.0  0.1025
  H  H42  1  0.599870  0.542890  0.480360  1.0  0.1027
  H  H43  1  0.002300  0.478490  0.412960  1.0  0.0952
  H  H44  1  0.027050  0.394520  0.445210  1.0  0.1041
  H  H45  1  0.789010  0.608440  0.614610  1.0  0.0901
  H  H46  1  0.999550  0.626270  0.629710  1.0  0.0821
  H  H47  1  0.302700  0.637940  0.628330  1.0  0.0873
  H  H48  1  0.773250  0.393410  0.310630  1.0  0.407
  H  H49  1  0.208920  0.607840  0.689160  1.0  0.431
  H  H50  1  0.714680  0.363400  0.372960  1.0  0.088
  H  H51  1  0.024830  0.379260  0.364520  1.0  0.0907
  H  H52  1  0.229490  0.397680  0.379700  1.0  0.0967
  H  H53  1  0.969360  0.608920  0.554130  1.0  0.0974
  H  H54  1  0.992770  0.524850  0.587000  1.0  0.0956
  H  H55  1  0.395250  0.460010  0.519790  1.0  0.1045
  H  H56  1  0.985540  0.431910  0.375770  1.0  0.1022
  H  H57  1  0.444780  0.374400  0.418970  1.0  0.1047
  H  H58  1  0.917020  0.473160  0.453860  1.0  0.0967
  H  H59  1  0.602170  0.466840  0.473310  1.0  0.0943
  H  H60  1  0.059890  0.586830  0.653570  1.0  0.0917
  H  H61  1  0.229740  0.565310  0.659200  1.0  0.0969
  H  H62  1  0.308590  0.591720  0.657440  1.0  0.0885
  H  H63  1  0.407460  0.597680  0.552400  1.0  0.0855
  H  H64  1  0.285440  0.624070  0.542190  1.0  0.0848
  H  H65  1  0.535790  0.623240  0.547990  1.0  0.0997
  H  H66  1  0.132210  0.538410  0.626600  1.0  0.0903
  H  H67  1  0.205020  0.521630  0.614110  1.0  0.1014
  H  H68  1  0.348980  0.546980  0.607720  1.0  0.0978
  H  H69  1  0.785470  0.586630  0.516840  1.0  0.0764
  H  H70  1  0.696100  0.604380  0.527720  1.0  0.0918
  H  H71  1  0.939250  0.609130  0.515370  1.0  0.105
  H  H72  1  0.347410  0.542270  0.562240  1.0  0.0884
  H  H73  1  0.528830  0.560580  0.563960  1.0  0.0847
  H  H74  1  0.407090  0.570250  0.537600  1.0  0.0919
  H  H75  1  0.040920  0.492020  0.541870  1.0  0.0908
  H  H76  1  0.921230  0.497690  0.516850  1.0  0.0965
  H  H77  1  0.117950  0.516980  0.514570  1.0  0.1049
  H  H78  1  0.519240  0.453630  0.554300  1.0  0.0654
  H  H79  1  0.693870  0.473960  0.553090  1.0  0.0774
  H  H80  1  0.342590  0.494100  0.554150  1.0  0.0678
  H  H81  1  0.273870  0.464160  0.570290  1.0  0.0668
  H  H82  1  0.541690  0.458140  0.596220  1.0  0.0564
  H  H83  1  0.623250  0.488020  0.578730  1.0  0.0636
  H  H84  1  0.306390  0.499790  0.587650  1.0  0.0677
  H  H85  1  0.223200  0.470170  0.604530  1.0  0.0695
  H  H86  1  0.325930  0.482630  0.630610  1.0  0.0686
  H  H87  1  0.498300  0.463340  0.630760  1.0  0.0707
  H  H88  1  0.555500  0.516330  0.601670  1.0  0.086
  H  H89  1  0.643030  0.499140  0.629870  1.0  0.0919
  H  H90  1  0.733270  0.495490  0.606630  1.0  0.0878
  H  H91  1  0.656250  0.393280  0.099040  1.0  0.0888
  H  H92  1  0.723520  0.369930  0.125820  1.0  0.0908
  H  H93  1  0.839490  0.398090  0.114950  1.0  0.0828
  H  H94  1  0.866490  0.369260  0.090770  1.0  0.0686
  H  H95  1  0.039530  0.369290  0.109910  1.0  0.07
  H  H96  1  0.167850  0.395540  0.071390  1.0  0.068
  H  H97  1  0.101890  0.412280  0.084290  1.0  0.0676
  H  H98  1  0.793570  0.421290  0.063660  1.0  0.0602
  H  H99  1  0.857420  0.403940  0.051110  1.0  0.0588
  H  H100  1  0.151160  0.429910  0.031270  1.0  0.0679
  H  H101  1  0.098320  0.445950  0.045180  1.0  0.0657
  H  H102  1  0.748090  0.447100  0.024010  1.0  0.0785
  H  H103  1  0.920970  0.445890  0.004830  1.0  0.0706
  H  H104  1  0.362890  0.485740  0.028450  1.0  0.0997
  H  H105  1  0.557200  0.483470  0.011420  1.0  0.0954
  H  H106  1  0.411940  0.458450  0.030710  1.0  0.0886
  H  H107  1  0.049290  0.462100  0.105070  1.0  0.0965
  H  H108  1  0.901980  0.435600  0.121440  1.0  0.0874
  H  H109  1  0.085880  0.437730  0.101310  1.0  0.0893
  H  H110  1  0.541100  0.484170  0.121890  1.0  0.1054
  H  H111  1  0.771750  0.471740  0.129410  1.0  0.0946
  H  H112  1  0.693170  0.482870  0.100730  1.0  0.0792
  H  H113  1  0.040640  0.391670  0.151700  1.0  0.098
  H  H114  1  0.178240  0.385500  0.132570  1.0  0.0991
  H  H115  1  0.239580  0.372920  0.161810  1.0  0.09
  H  H116  1  0.909050  0.450070  0.169570  1.0  0.0977
  H  H117  1  0.163980  0.456590  0.163460  1.0  0.0888
  H  H118  1  0.027620  0.445780  0.148060  1.0  0.0836
  H  H119  1  0.062240  0.341610  0.247650  1.0  0.0908
  H  H120  1  0.113100  0.339480  0.222510  1.0  0.0968
  H  H121  1  0.306750  0.345500  0.236120  1.0  0.0898
  H  H122  1  0.919590  0.526730  0.937140  1.0  0.0942
  H  H123  1  0.624080  0.546250  0.923900  1.0  0.0958
  H  H124  1  0.138910  0.578960  0.791850  1.0  0.1024
  H  H125  1  0.644450  0.623620  0.804350  1.0  0.1025
  H  H126  1  0.080230  0.480360  0.976750  1.0  0.105
  H  H127  1  0.415260  0.412960  0.108550  1.0  0.0925
  H  H128  1  0.472260  0.445210  0.160270  1.0  0.1017
  H  H129  1  0.403620  0.614610  0.776950  1.0  0.0909
  H  H130  1  0.629260  0.629710  0.744020  1.0  0.0813
  H  H131  1  0.931030  0.628330  0.733730  1.0  0.0862
  H  H132  1  0.083880  0.310630  0.295960  1.0  0.4049
  H  H133  1  0.898080  0.689160  0.703000  1.0  0.4325
  H  H134  1  0.087640  0.372960  0.263640  1.0  0.0883
  H  H135  1  0.389350  0.364520  0.256220  1.0  0.0909
  H  H136  1  0.609190  0.379700  0.222620  1.0  0.0976
  H  H137  1  0.523490  0.554130  0.836950  1.0  0.0998
  H  H138  1  0.579770  0.587000  0.888150  1.0  0.0924
  H  H139  1  0.915040  0.519790  0.020200  1.0  0.1059
  H  H140  1  0.361310  0.375770  0.192320  1.0  0.1026
  H  H141  1  0.863750  0.418970  0.206630  1.0  0.1045
  H  H142  1  0.370880  0.453860  0.072980  1.0  0.096
  H  H143  1  0.075480  0.473310  0.059850  1.0  0.0933
  H  H144  1  0.713460  0.653570  0.759600  1.0  0.0911
  H  H145  1  0.888940  0.659200  0.775490  1.0  0.0963
  H  H146  1  0.966030  0.657440  0.750840  1.0  0.0915
  H  H147  1  0.959860  0.552400  0.849920  1.0  0.0862
  H  H148  1  0.827630  0.542190  0.833740  1.0  0.0854
  H  H149  1  0.083780  0.547990  0.828770  1.0  0.0986
  H  H150  1  0.758810  0.626600  0.834990  1.0  0.0904
  H  H151  1  0.819130  0.614110  0.864260  1.0  0.0999
  H  H152  1  0.956700  0.607720  0.845300  1.0  0.0987
  H  H153  1  0.302310  0.516840  0.896530  1.0  0.0762
  H  H154  1  0.223820  0.527720  0.867900  1.0  0.0897
  H  H155  1  0.454620  0.515370  0.875500  1.0  0.103
  H  H156  1  0.909650  0.562240  0.895490  1.0  0.0884
  H  H157  1  0.092790  0.563960  0.875460  1.0  0.0875
  H  H158  1  0.944690  0.537600  0.892150  1.0  0.0899
  H  H159  1  0.582790  0.541870  0.966110  1.0  0.0888
  H  H160  1  0.438080  0.516850  0.985460  1.0  0.0961
  H  H161  1  0.632520  0.514570  0.968450  1.0  0.1048
  H  H162  1  0.073540  0.554300  0.992070  1.0  0.07
  H  H163  1  0.246960  0.553090  0.972950  1.0  0.0762
  H  H164  1  0.896740  0.554150  0.951750  1.0  0.0665
  H  H165  1  0.844160  0.570290  0.965550  1.0  0.0724
  H  H166  1  0.137910  0.596220  0.945640  1.0  0.0605
  H  H167  1  0.201980  0.578730  0.933250  1.0  0.0626
  H  H168  1  0.894040  0.587650  0.912560  1.0  0.0673
  H  H169  1  0.827730  0.604530  0.925300  1.0  0.0721
  H  H170  1  0.956540  0.630610  0.886760  1.0  0.0679
  H  H171  1  0.129060  0.630760  0.905900  1.0  0.0688
  H  H172  1  0.157170  0.601670  0.882000  1.0  0.0847
  H  H173  1  0.272900  0.629870  0.870990  1.0  0.0898
  H  H174  1  0.339900  0.606630  0.897880  1.0  0.0887
  H  H175  1  0.755290  0.099040  0.507680  1.0  0.0876
  H  H176  1  0.849340  0.125820  0.504250  1.0  0.0928
  H  H177  1  0.954440  0.114950  0.486960  1.0  0.0807
  H  H178  1  0.957260  0.090770  0.539970  1.0  0.0714
  H  H179  1  0.149440  0.109910  0.520800  1.0  0.0711
  H  H180  1  0.239240  0.071390  0.533070  1.0  0.0698
  H  H181  1  0.186180  0.084290  0.503430  1.0  0.0674
  H  H182  1  0.857230  0.063660  0.515050  1.0  0.0618
  H  H183  1  0.908530  0.051110  0.544950  1.0  0.0605
  H  H184  1  0.182430  0.031270  0.538820  1.0  0.0694
  H  H185  1  0.143500  0.045180  0.508870  1.0  0.0659
  H  H186  1  0.772100  0.024010  0.528890  1.0  0.0787
  H  H187  1  0.925800  0.004830  0.549280  1.0  0.0731
  H  H188  1  0.391340  0.028450  0.485810  1.0  0.0978
  H  H189  1  0.568620  0.011420  0.505110  1.0  0.0949
  H  H190  1  0.442650  0.030710  0.510840  1.0  0.0881
  H  H191  1  0.154360  0.105070  0.432830  1.0  0.0946
  H  H192  1  0.023420  0.121440  0.442960  1.0  0.0873
  H  H193  1  0.187190  0.101310  0.460960  1.0  0.0877
  H  H194  1  0.662990  0.121890  0.393940  1.0  0.1035
  H  H195  1  0.901160  0.129410  0.398850  1.0  0.0949
  H  H196  1  0.793900  0.100730  0.416400  1.0  0.0816
  H  H197  1  0.192340  0.151700  0.456630  1.0  0.098
  H  H198  1  0.310810  0.132570  0.481930  1.0  0.0992
  H  H199  1  0.401390  0.161810  0.465270  1.0  0.0902
  H  H200  1  0.078620  0.169570  0.380360  1.0  0.0994
  H  H201  1  0.327440  0.163460  0.379950  1.0  0.0869
  H  H202  1  0.175680  0.148060  0.406160  1.0  0.0852
  H  H203  1  0.309890  0.247650  0.410740  1.0  0.095
  H  H204  1  0.335610  0.222510  0.438010  1.0  0.099
  H  H205  1  0.542870  0.236120  0.418380  1.0  0.09
  H  H206  1  0.856730  0.937140  0.536130  1.0  0.0942
  H  H207  1  0.547980  0.923900  0.529850  1.0  0.0966
  H  H208  1  0.930760  0.791850  0.629190  1.0  0.1023
  H  H209  1  0.448800  0.804350  0.572030  1.0  0.1044
  H  H210  1  0.056980  0.976750  0.542890  1.0  0.1052
  H  H211  1  0.523810  0.108550  0.478490  1.0  0.0925
  H  H212  1  0.632530  0.160270  0.394520  1.0  0.1033
  H  H213  1  0.180570  0.776950  0.608440  1.0  0.0912
  H  H214  1  0.373280  0.744020  0.626270  1.0  0.0824
  H  H215  1  0.664760  0.733730  0.637940  1.0  0.0881
  H  H216  1  0.379840  0.295960  0.393410  1.0  0.4055
  H  H217  1  0.601080  0.703000  0.607840  1.0  0.4334
  H  H218  1  0.351280  0.263640  0.363400  1.0  0.088
  H  H219  1  0.645570  0.256220  0.379260  1.0  0.0905
  H  H220  1  0.831810  0.222620  0.397680  1.0  0.098
  H  H221  1  0.360440  0.836950  0.608920  1.0  0.1004
  H  H222  1  0.467920  0.888150  0.524850  1.0  0.0926
  H  H223  1  0.935240  0.020200  0.460010  1.0  0.1077
  H  H224  1  0.553630  0.192320  0.431910  1.0  0.1042
  H  H225  1  0.070380  0.206630  0.374400  1.0  0.1045
  H  H226  1  0.443860  0.072980  0.473160  1.0  0.0974
  H  H227  1  0.135330  0.059850  0.466840  1.0  0.0937
  H  H228  1  0.473060  0.759600  0.586830  1.0  0.0923
  H  H229  1  0.664430  0.775490  0.565310  1.0  0.0976
  H  H230  1  0.716870  0.750840  0.591720  1.0  0.0928
  H  H231  1  0.809780  0.849920  0.597680  1.0  0.0851
  H  H232  1  0.661370  0.833740  0.624070  1.0  0.085
  H  H233  1  0.912550  0.828770  0.623240  1.0  0.1001
  H  H234  1  0.593800  0.834990  0.538410  1.0  0.091
  H  H235  1  0.683390  0.864260  0.521630  1.0  0.0994
  H  H236  1  0.802000  0.845300  0.546980  1.0  0.0987
  H  H237  1  0.198840  0.896530  0.586630  1.0  0.0785
  H  H238  1  0.091720  0.867900  0.604380  1.0  0.0918
  H  H239  1  0.330120  0.875500  0.609130  1.0  0.1046
  H  H240  1  0.805140  0.895490  0.542270  1.0  0.0867
  H  H241  1  0.968250  0.875460  0.560580  1.0  0.0864
  H  H242  1  0.836840  0.892150  0.570250  1.0  0.0889
  H  H243  1  0.548900  0.966110  0.492020  1.0  0.0874
  H  H244  1  0.423540  0.985460  0.497690  1.0  0.0972
  H  H245  1  0.600970  0.968450  0.516980  1.0  0.1045
  H  H246  1  0.065610  0.992070  0.453630  1.0  0.0719
  H  H247  1  0.219910  0.972950  0.473960  1.0  0.0789
  H  H248  1  0.848490  0.951750  0.494100  1.0  0.0651
  H  H249  1  0.809710  0.965550  0.464160  1.0  0.0699
  H  H250  1  0.083550  0.945640  0.458140  1.0  0.0597
  H  H251  1  0.135230  0.933250  0.488020  1.0  0.0617
  H  H252  1  0.806600  0.912560  0.499790  1.0  0.0678
  H  H253  1  0.753030  0.925300  0.470170  1.0  0.0711
  H  H254  1  0.843300  0.886760  0.482630  1.0  0.0705
  H  H255  1  0.034960  0.905900  0.463340  1.0  0.0703
  H  H256  1  0.039170  0.882000  0.516330  1.0  0.0819
  H  H257  1  0.143890  0.870990  0.499140  1.0  0.0921
  H  H258  1  0.237780  0.897880  0.495490  1.0  0.0922
  C  C259  1  0.393340  0.504190  0.385800  1.0  -0.291
  C  C260  1  0.554040  0.522750  0.379850  1.0  -0.1236
  C  C261  1  0.641960  0.521060  0.401230  1.0  -0.1964
  C  C262  1  0.500980  0.527310  0.415070  1.0  -0.1607
  C  C263  1  0.595620  0.526090  0.435870  1.0  -0.2309
  C  C264  1  0.452670  0.530930  0.450760  1.0  -0.2877
  C  C265  1  0.003380  0.496870  0.474720  1.0  -0.261
  C  C266  1  0.528280  0.448030  0.447480  1.0  -0.2709
  C  C267  1  0.171860  0.407360  0.473470  1.0  -0.2121
  C  C268  1  0.799300  0.464160  0.388640  1.0  -0.258
  C  C269  1  0.599520  0.390520  0.444540  1.0  -0.2125
  C  C270  1  0.805790  0.419610  0.348830  1.0  -0.2846
  C  C271  1  0.610800  0.544730  0.543610  1.0  0.0265
  C  C272  1  0.542570  0.534760  0.531030  1.0  -0.1362
  C  C273  1  0.856350  0.519970  0.530790  1.0  0.0437
  C  C274  1  0.927710  0.531130  0.542130  1.0  -0.1593
  C  C275  1  0.442800  0.616540  0.588750  1.0  -0.1449
  C  C276  1  0.336780  0.606580  0.578280  1.0  0.0816
  C  C277  1  0.251090  0.593670  0.624650  1.0  0.0773
  C  C278  1  0.139480  0.584410  0.613860  1.0  -0.1241
  C  C279  1  0.661890  0.522110  0.524860  1.0  -0.0004
  C  C280  1  0.808400  0.543860  0.548290  1.0  0.0066
  C  C281  1  0.183210  0.590180  0.591010  1.0  -0.0288
  C  C282  1  0.403020  0.610280  0.611740  1.0  0.0032
  C  C283  1  0.554730  0.524800  0.488910  1.0  -0.1292
  C  C284  1  0.476310  0.515400  0.476240  1.0  0.043
  C  C285  1  0.417680  0.491750  0.487660  1.0  0.0299
  C  C286  1  0.914300  0.449670  0.409070  1.0  0.0392
  C  C287  1  0.007480  0.460130  0.419980  1.0  -0.0861
  C  C288  1  0.099600  0.447160  0.440430  1.0  0.0296
  C  C289  1  0.099800  0.423040  0.450090  1.0  0.0761
  C  C290  1  0.020140  0.412850  0.438220  1.0  -0.0956
  C  C291  1  0.922240  0.425700  0.418190  1.0  0.0266
  C  C292  1  0.848080  0.629080  0.629940  1.0  -0.1469
  C  C293  1  0.727270  0.618580  0.621360  1.0  -0.1866
  C  C294  1  0.528540  0.620880  0.621710  1.0  0.0541
  C  C295  1  0.453190  0.634670  0.629860  1.0  -0.1753
  C  C296  1  0.450610  0.356620  0.361110  1.0  0.2741
  C  C297  1  0.249870  0.360890  0.358600  1.0  -0.1533
  C  C298  1  0.114890  0.352320  0.347270  1.0  0.6617
  C  C299  1  0.900250  0.648960  0.651290  1.0  0.6476
  C  C300  1  0.774770  0.642140  0.639310  1.0  -0.0941
  C  C301  1  0.572620  0.645580  0.638370  1.0  0.3752
  C  C302  1  0.565640  0.367490  0.370060  1.0  -0.1346
  C  C303  1  0.488740  0.382640  0.376360  1.0  0.0395
  C  C304  1  0.292420  0.386390  0.374440  1.0  -0.168
  C  C305  1  0.175370  0.375660  0.365780  1.0  -0.1592
  C  C306  1  0.075260  0.577850  0.581230  1.0  0.0286
  C  C307  1  0.976060  0.590560  0.561270  1.0  -0.09
  C  C308  1  0.895700  0.580230  0.549560  1.0  0.0707
  C  C309  1  0.895510  0.556100  0.559390  1.0  0.0323
  C  C310  1  0.987940  0.543230  0.579850  1.0  -0.0855
  C  C311  1  0.082530  0.553840  0.590520  1.0  0.0446
  C  C312  1  0.577450  0.511120  0.512520  1.0  0.0346
  C  C313  1  0.518770  0.487490  0.523930  1.0  0.0406
  C  C314  1  0.440410  0.478090  0.511260  1.0  -0.1329
  C  C315  1  0.609020  0.393260  0.386680  1.0  -0.0065
  C  C316  1  0.817830  0.413540  0.408010  1.0  0.0279
  C  C317  1  0.186550  0.459250  0.451680  1.0  0.0123
  C  C318  1  0.333070  0.480780  0.475310  1.0  -0.0016
  C  C319  1  0.866810  0.419400  0.385220  1.0  -0.141
  C  C320  1  0.760870  0.410000  0.374170  1.0  0.0757
  C  C321  1  0.663560  0.397100  0.420310  1.0  0.0854
  C  C322  1  0.562840  0.387040  0.409560  1.0  -0.1132
  C  C323  1  0.067170  0.471880  0.457950  1.0  -0.1674
  C  C324  1  0.138540  0.482940  0.469400  1.0  0.0415
  C  C325  1  0.452420  0.468220  0.469020  1.0  -0.1288
  C  C326  1  0.384200  0.458370  0.456350  1.0  0.0265
  C  C327  1  0.210930  0.584070  0.650060  1.0  -0.2694
  C  C328  1  0.394420  0.613240  0.553860  1.0  -0.2262
  C  C329  1  0.198620  0.539440  0.610890  1.0  -0.2568
  C  C330  1  0.824040  0.595790  0.526120  1.0  -0.1945
  C  C331  1  0.466760  0.555220  0.552300  1.0  -0.2723
  C  C332  1  0.991460  0.505960  0.525570  1.0  -0.2627
  C  C333  1  0.542150  0.471980  0.549400  1.0  -0.2796
  C  C334  1  0.399440  0.476880  0.564290  1.0  -0.225
  C  C335  1  0.494390  0.475770  0.585020  1.0  -0.1597
  C  C336  1  0.353750  0.482150  0.598780  1.0  -0.1975
  C  C337  1  0.441920  0.480580  0.620100  1.0  -0.1242
  C  C338  1  0.603110  0.499090  0.614070  1.0  -0.2893
  C  C339  1  0.779140  0.385800  0.110010  1.0  -0.2857
  C  C340  1  0.933890  0.379850  0.097400  1.0  -0.1182
  C  C341  1  0.043190  0.401230  0.077710  1.0  -0.2009
  C  C342  1  0.916050  0.415070  0.057620  1.0  -0.1643
  C  C343  1  0.031490  0.435870  0.038040  1.0  -0.2399
  C  C344  1  0.903430  0.450760  0.018310  1.0  -0.2918
  C  C345  1  0.478100  0.474720  0.028410  1.0  -0.2607
  C  C346  1  0.975760  0.447480  0.104490  1.0  -0.2708
  C  C347  1  0.645330  0.473470  0.119170  1.0  -0.2164
  C  C348  1  0.187940  0.388640  0.147200  1.0  -0.2518
  C  C349  1  0.044060  0.444540  0.164940  1.0  -0.2157
  C  C350  1  0.154620  0.348830  0.231560  1.0  -0.2844
  C  C351  1  0.154410  0.543610  0.911660  1.0  0.025
  C  C352  1  0.073600  0.531030  0.934210  1.0  -0.1325
  C  C353  1  0.387140  0.530790  0.949240  1.0  0.0422
  C  C354  1  0.469840  0.542130  0.926740  1.0  -0.1611
  C  C355  1  0.031550  0.588750  0.794710  1.0  -0.1437
  C  C356  1  0.915060  0.578280  0.815140  1.0  0.0812
  C  C357  1  0.875740  0.624650  0.781680  1.0  0.0748
  C  C358  1  0.753340  0.613860  0.801730  1.0  -0.1246
  C  C359  1  0.186750  0.524860  0.953030  1.0  -0.0014
  C  C360  1  0.356690  0.548290  0.907850  1.0  0.005
  C  C361  1  0.774220  0.591010  0.818810  1.0  -0.0271
  C  C362  1  0.014760  0.611740  0.777980  1.0  0.0027
  C  C363  1  0.043640  0.488910  0.986290  1.0  -0.1265
  C  C364  1  0.952550  0.476240  0.008360  1.0  0.0425
  C  C365  1  0.905340  0.487660  0.020590  1.0  0.0304
  C  C366  1  0.323370  0.409070  0.141260  1.0  0.0398
  C  C367  1  0.427460  0.419980  0.119890  1.0  -0.0858
  C  C368  1  0.540030  0.440430  0.112410  1.0  0.031
  C  C369  1  0.549890  0.450090  0.126870  1.0  0.0755
  C  C370  1  0.458360  0.438220  0.148930  1.0  -0.0945
  C  C371  1  0.340430  0.418190  0.156110  1.0  0.0282
  C  C372  1  0.478020  0.629940  0.740980  1.0  -0.1472
  C  C373  1  0.348630  0.621360  0.760060  1.0  -0.1833
  C  C374  1  0.150250  0.621710  0.757410  1.0  0.0539
  C  C375  1  0.083050  0.629860  0.735470  1.0  -0.1733
  C  C376  1  0.811720  0.361110  0.282270  1.0  0.2769
  C  C377  1  0.608470  0.358600  0.280510  1.0  -0.1537
  C  C378  1  0.462160  0.347270  0.300410  1.0  0.6621
  C  C379  1  0.551540  0.651290  0.699750  1.0  0.6475
  C  C380  1  0.414080  0.639310  0.718550  1.0  -0.095
  C  C381  1  0.210990  0.638370  0.716050  1.0  0.3747
  C  C382  1  0.935700  0.370060  0.262450  1.0  -0.1334
  C  C383  1  0.865100  0.376360  0.241000  1.0  0.0389
  C  C384  1  0.666860  0.374440  0.239170  1.0  -0.1651
  C  C385  1  0.541150  0.365780  0.258560  1.0  -0.1596
  C  C386  1  0.656490  0.581230  0.840920  1.0  0.0272
  C  C387  1  0.537330  0.561270  0.848170  1.0  -0.0902
  C  C388  1  0.445260  0.549560  0.870210  1.0  0.0715
  C  C389  1  0.454900  0.559390  0.884510  1.0  0.0332
  C  C390  1  0.567790  0.579850  0.876920  1.0  -0.0862
  C  C391  1  0.673050  0.590520  0.855640  1.0  0.0471
  C  C392  1  0.089970  0.512520  0.976360  1.0  0.0332
  C  C393  1  0.042700  0.523930  0.988580  1.0  0.0426
  C  C394  1  0.951670  0.511260  0.010650  1.0  -0.1282
  C  C395  1  0.995700  0.386680  0.220060  1.0  -0.0061
  C  C396  1  0.225840  0.408010  0.178450  1.0  0.0286
  C  C397  1  0.638230  0.451680  0.089070  1.0  0.0118
  C  C398  1  0.808380  0.475310  0.043910  1.0  -0.0013
  C  C399  1  0.252030  0.385220  0.195380  1.0  -0.1409
  C  C400  1  0.135040  0.374170  0.215830  1.0  0.0756
  C  C401  1  0.083870  0.420310  0.182590  1.0  0.0843
  C  C402  1  0.972400  0.409560  0.203400  1.0  -0.1131
  C  C403  1  0.525120  0.457950  0.070170  1.0  -0.168
  C  C404  1  0.607940  0.469400  0.047660  1.0  0.04
  C  C405  1  0.921440  0.469020  0.062760  1.0  -0.1313
  C  C406  1  0.840550  0.456350  0.085280  1.0  0.027
  C  C407  1  0.860990  0.650060  0.765870  1.0  -0.2717
  C  C408  1  0.948280  0.553860  0.832900  1.0  -0.2294
  C  C409  1  0.809510  0.610890  0.849670  1.0  -0.2524
  C  C410  1  0.350160  0.526120  0.878090  1.0  -0.1987
  C  C411  1  0.019060  0.552300  0.892480  1.0  -0.2712
  C  C412  1  0.517030  0.525570  0.968470  1.0  -0.2612
  C  C413  1  0.091550  0.549400  0.978620  1.0  -0.2819
  C  C414  1  0.963730  0.564290  0.958830  1.0  -0.2352
  C  C415  1  0.079410  0.585020  0.939210  1.0  -0.1672
  C  C416  1  0.952530  0.598780  0.919070  1.0  -0.2041
  C  C417  1  0.062020  0.620100  0.899320  1.0  -0.1218
  C  C418  1  0.217180  0.614070  0.886840  1.0  -0.2881
  C  C419  1  0.889150  0.110010  0.504190  1.0  -0.2899
  C  C420  1  0.031290  0.097400  0.522750  1.0  -0.1194
  C  C421  1  0.120900  0.077710  0.521060  1.0  -0.2039
  C  C422  1  0.973670  0.057620  0.527310  1.0  -0.1662
  C  C423  1  0.069530  0.038040  0.526090  1.0  -0.2359
  C  C424  1  0.921740  0.018310  0.530930  1.0  -0.2906
  C  C425  1  0.506510  0.028410  0.496870  1.0  -0.26
  C  C426  1  0.080250  0.104490  0.448030  1.0  -0.2716
  C  C427  1  0.764500  0.119170  0.407360  1.0  -0.2167
  C  C428  1  0.335140  0.147200  0.464160  1.0  -0.2553
  C  C429  1  0.209000  0.164940  0.390520  1.0  -0.2203
  C  C430  1  0.386180  0.231560  0.419610  1.0  -0.2867
  C  C431  1  0.066070  0.911660  0.544730  1.0  0.0264
  C  C432  1  0.007810  0.934210  0.534760  1.0  -0.1313
  C  C433  1  0.336380  0.949240  0.519970  1.0  0.041
  C  C434  1  0.396580  0.926740  0.531130  1.0  -0.1606
  C  C435  1  0.826260  0.794710  0.616540  1.0  -0.1397
  C  C436  1  0.730200  0.815140  0.606580  1.0  0.0813
  C  C437  1  0.657420  0.781680  0.593670  1.0  0.0766
  C  C438  1  0.555070  0.801730  0.584410  1.0  -0.1229
  C  C439  1  0.139780  0.953030  0.522110  1.0  0.0016
  C  C440  1  0.264540  0.907850  0.543860  1.0  0.0059
  C  C441  1  0.593030  0.818810  0.590180  1.0  -0.0293
  C  C442  1  0.792740  0.777980  0.610280  1.0  0.0019
  C  C443  1  0.029930  0.986290  0.524800  1.0  -0.1252
  C  C444  1  0.960910  0.008360  0.515400  1.0  0.0417
  C  C445  1  0.925930  0.020590  0.491750  1.0  0.0321
  C  C446  1  0.464630  0.141260  0.449670  1.0  0.0379
  C  C447  1  0.547350  0.119890  0.460130  1.0  -0.0861
  C  C448  1  0.652440  0.112410  0.447160  1.0  0.0317
  C  C449  1  0.676760  0.126870  0.423040  1.0  0.0733
  C  C450  1  0.607290  0.148930  0.412850  1.0  -0.0982
  C  C451  1  0.496540  0.156110  0.425700  1.0  0.0277
  C  C452  1  0.219000  0.740980  0.629080  1.0  -0.147
  C  C453  1  0.108690  0.760060  0.618580  1.0  -0.187
  C  C454  1  0.907660  0.757410  0.620880  1.0  0.0549
  C  C455  1  0.818520  0.735470  0.634670  1.0  -0.1732
  C  C456  1  0.093990  0.282270  0.356620  1.0  0.274
  C  C457  1  0.888980  0.280510  0.360890  1.0  -0.1535
  C  C458  1  0.762570  0.300410  0.352320  1.0  0.6613
  C  C459  1  0.251290  0.699750  0.648960  1.0  0.6467
  C  C460  1  0.132630  0.718550  0.642140  1.0  -0.095
  C  C461  1  0.927040  0.716050  0.645580  1.0  0.3744
  C  C462  1  0.198150  0.262450  0.367490  1.0  -0.1323
  C  C463  1  0.106100  0.241000  0.382640  1.0  0.0389
  C  C464  1  0.906030  0.239170  0.386390  1.0  -0.1666
  C  C465  1  0.799710  0.258560  0.375660  1.0  -0.1593
  C  C466  1  0.497410  0.840920  0.577850  1.0  0.0259
  C  C467  1  0.385500  0.848170  0.590560  1.0  -0.0912
  C  C468  1  0.315470  0.870210  0.580230  1.0  0.0723
  C  C469  1  0.339410  0.884510  0.556100  1.0  0.0354
  C  C470  1  0.444710  0.876920  0.543230  1.0  -0.0873
  C  C471  1  0.528690  0.855640  0.553840  1.0  0.0454
  C  C472  1  0.066330  0.976360  0.511120  1.0  0.0334
  C  C473  1  0.031280  0.988580  0.487490  1.0  0.043
  C  C474  1  0.962320  0.010650  0.478090  1.0  -0.1277
  C  C475  1  0.215760  0.220060  0.393260  1.0  -0.0071
  C  C476  1  0.404290  0.178450  0.413540  1.0  0.0267
  C  C477  1  0.727300  0.089070  0.459250  1.0  0.0137
  C  C478  1  0.852290  0.043910  0.480780  1.0  0.0028
  C  C479  1  0.447410  0.195380  0.419400  1.0  -0.1415
  C  C480  1  0.350870  0.215830  0.410000  1.0  0.0779
  C  C481  1  0.266460  0.182590  0.397100  1.0  0.0844
  C  C482  1  0.175800  0.203400  0.387040  1.0  -0.1105
  C  C483  1  0.595290  0.070170  0.471880  1.0  -0.1684
  C  C484  1  0.655600  0.047660  0.482940  1.0  0.0387
  C  C485  1  0.984200  0.062760  0.468220  1.0  -0.1313
  C  C486  1  0.925830  0.085280  0.458370  1.0  0.0257
  C  C487  1  0.626860  0.765870  0.584070  1.0  -0.2751
  C  C488  1  0.781180  0.832900  0.613240  1.0  -0.2277
  C  C489  1  0.659180  0.849670  0.539440  1.0  -0.2607
  C  C490  1  0.228250  0.878090  0.595790  1.0  -0.2003
  C  C491  1  0.911540  0.892480  0.555220  1.0  -0.2748
  C  C492  1  0.485500  0.968470  0.505960  1.0  -0.2616
  C  C493  1  0.070170  0.978620  0.471980  1.0  -0.2841
  C  C494  1  0.922560  0.958830  0.476880  1.0  -0.2347
  C  C495  1  0.018620  0.939210  0.475770  1.0  -0.1643
  C  C496  1  0.871600  0.919070  0.482150  1.0  -0.2067
  C  C497  1  0.961340  0.899320  0.480580  1.0  -0.1242
  C  C498  1  0.104020  0.886840  0.499090  1.0  -0.2957
  O  O499  1  0.658320  0.383960  0.311230  1.0  -0.5726
  O  O500  1  0.539170  0.340460  0.357100  1.0  -0.7845
  O  O501  1  0.171470  0.339240  0.339890  1.0  -0.8204
  O  O502  1  0.941140  0.358680  0.344750  1.0  -0.6367
  O  O503  1  0.076860  0.643730  0.652780  1.0  -0.6214
  O  O504  1  0.837250  0.659730  0.661010  1.0  -0.7431
  O  O505  1  0.496210  0.658860  0.644510  1.0  -0.696
  O  O506  1  0.335420  0.616070  0.687130  1.0  -0.5778
  O  O507  1  0.969550  0.311230  0.304810  1.0  -0.5719
  O  O508  1  0.896270  0.357100  0.302440  1.0  -0.7858
  O  O509  1  0.511360  0.339890  0.320870  1.0  -0.8208
  O  O510  1  0.285890  0.344750  0.296570  1.0  -0.6363
  O  O511  1  0.729640  0.652780  0.703490  1.0  -0.6211
  O  O512  1  0.498260  0.661010  0.679260  1.0  -0.7428
  O  O513  1  0.140720  0.644510  0.696630  1.0  -0.6982
  O  O514  1  0.022550  0.687130  0.696800  1.0  -0.5757
  O  O515  1  0.274360  0.304810  0.383960  1.0  -0.5724
  O  O516  1  0.198710  0.302440  0.340460  1.0  -0.7826
  O  O517  1  0.832230  0.320870  0.339240  1.0  -0.8206
  O  O518  1  0.582460  0.296570  0.358680  1.0  -0.6367
  O  O519  1  0.433130  0.703490  0.643730  1.0  -0.6224
  O  O520  1  0.177520  0.679260  0.659730  1.0  -0.7441
  O  O521  1  0.837350  0.696630  0.658860  1.0  -0.6965
  O  O522  1  0.719350  0.696800  0.616070  1.0  -0.5758
