# generated using pymatgen
data_MgH35C33O7
_symmetry_space_group_name_H-M   'P 1'
_cell_length_a   6.73170000
_cell_length_b   54.54670000
_cell_length_c   54.54670000
_cell_angle_alpha   60.16780000
_cell_angle_beta   87.64230000
_cell_angle_gamma   92.35770000
_symmetry_Int_Tables_number   1
_chemical_formula_structural   MgH35C33O7
_chemical_formula_sum   'Mg6 H210 C198 O42'
_cell_volume   17316.36507791
_cell_formula_units_Z   6
loop_
 _symmetry_equiv_pos_site_id
 _symmetry_equiv_pos_as_xyz
  1  'x, y, z'
loop_
 _atom_site_type_symbol
 _atom_site_label
 _atom_site_symmetry_multiplicity
 _atom_site_fract_x
 _atom_site_fract_y
 _atom_site_fract_z
 _atom_site_occupancy
 _atom_site_charge
  Mg  Mg1  1  0.936770  0.353030  0.329990  1.0  1.5287
  Mg  Mg2  1  0.266760  0.329990  0.316980  1.0  1.5322
  Mg  Mg3  1  0.583740  0.316980  0.353030  1.0  1.5304
  Mg  Mg4  1  0.063230  0.646970  0.670010  1.0  1.5275
  Mg  Mg5  1  0.733240  0.670010  0.683020  1.0  1.5298
  Mg  Mg6  1  0.416260  0.683020  0.646970  1.0  1.5346
  H  H7  1  0.931490  0.365480  0.388370  1.0  0.1071
  H  H8  1  0.447710  0.412080  0.394680  1.0  0.108
  H  H9  1  0.232910  0.393240  0.372090  1.0  0.1021
  H  H10  1  0.021240  0.413180  0.483950  1.0  0.113
  H  H11  1  0.497860  0.497920  0.432610  1.0  0.1005
  H  H12  1  0.139920  0.484460  0.505670  1.0  0.11
  H  H13  1  0.009570  0.468600  0.395760  1.0  0.1127
  H  H14  1  0.929030  0.363890  0.436370  1.0  0.115
  H  H15  1  0.854090  0.449000  0.346310  1.0  0.1266
  H  H16  1  0.858570  0.477240  0.354600  1.0  0.1213
  H  H17  1  0.635920  0.454150  0.363610  1.0  0.1097
  H  H18  1  0.310400  0.388640  0.469610  1.0  0.1233
  H  H19  1  0.270480  0.363720  0.457590  1.0  0.1279
  H  H20  1  0.089390  0.364040  0.483140  1.0  0.1141
  H  H21  1  0.598870  0.473860  0.401590  1.0  0.116
  H  H22  1  0.397410  0.496540  0.386140  1.0  0.0977
  H  H23  1  0.384030  0.460710  0.391950  1.0  0.1099
  H  H24  1  0.013630  0.435100  0.523660  1.0  0.1126
  H  H25  1  0.276930  0.433870  0.530980  1.0  0.1093
  H  H26  1  0.153690  0.405200  0.529160  1.0  0.1134
  H  H27  1  0.057590  0.508850  0.455810  1.0  0.096
  H  H28  1  0.861370  0.533190  0.443040  1.0  0.1095
  H  H29  1  0.783260  0.517900  0.408400  1.0  0.0973
  H  H30  1  0.978370  0.493080  0.421080  1.0  0.0925
  H  H31  1  0.924450  0.546930  0.363570  1.0  0.0958
  H  H32  1  0.117850  0.522370  0.370480  1.0  0.1037
  H  H33  1  0.176940  0.584990  0.355100  1.0  0.0863
  H  H34  1  0.217560  0.571750  0.330490  1.0  0.1055
  H  H35  1  0.684270  0.581620  0.339610  1.0  0.1046
  H  H36  1  0.488140  0.604350  0.335400  1.0  0.1214
  H  H37  1  0.719350  0.569290  0.388870  1.0  0.0944
  H  H38  1  0.725310  0.607090  0.366940  1.0  0.1066
  H  H39  1  0.415080  0.545830  0.418960  1.0  0.1136
  H  H40  1  0.565500  0.565580  0.431540  1.0  0.1031
  H  H41  1  0.298520  0.568070  0.430370  1.0  0.1151
  H  H42  1  0.319860  0.388370  0.246150  1.0  0.1075
  H  H43  1  0.842390  0.394680  0.193240  1.0  0.1086
  H  H44  1  0.605000  0.372090  0.234670  1.0  0.1016
  H  H45  1  0.505190  0.483950  0.102870  1.0  0.1109
  H  H46  1  0.930470  0.432610  0.069470  1.0  0.0999
  H  H47  1  0.645590  0.505670  0.009870  1.0  0.1102
  H  H48  1  0.405330  0.395760  0.135640  1.0  0.1113
  H  H49  1  0.365400  0.436370  0.199740  1.0  0.1155
  H  H50  1  0.200400  0.346310  0.204690  1.0  0.1285
  H  H51  1  0.213170  0.354600  0.168160  1.0  0.1171
  H  H52  1  0.999530  0.363610  0.182240  1.0  0.1097
  H  H53  1  0.780010  0.469610  0.141750  1.0  0.1227
  H  H54  1  0.728070  0.457590  0.178690  1.0  0.1298
  H  H55  1  0.572530  0.483140  0.152820  1.0  0.1158
  H  H56  1  0.000460  0.401590  0.124550  1.0  0.1156
  H  H57  1  0.783550  0.386140  0.117320  1.0  0.0944
  H  H58  1  0.775980  0.391950  0.147340  1.0  0.1109
  H  H59  1  0.537290  0.523660  0.041240  1.0  0.1139
  H  H60  1  0.807910  0.530980  0.035150  1.0  0.1106
  H  H61  1  0.682850  0.529160  0.065640  1.0  0.1156
  H  H62  1  0.513400  0.455810  0.035340  1.0  0.0961
  H  H63  1  0.304410  0.443040  0.023770  1.0  0.105
  H  H64  1  0.191660  0.408400  0.073700  1.0  0.0968
  H  H65  1  0.399450  0.421080  0.085840  1.0  0.0907
  H  H66  1  0.288020  0.363570  0.089500  1.0  0.0953
  H  H67  1  0.488330  0.370480  0.107150  1.0  0.1013
  H  H68  1  0.532040  0.355100  0.059910  1.0  0.0842
  H  H69  1  0.548050  0.330490  0.097760  1.0  0.1047
  H  H70  1  0.023880  0.339610  0.078770  1.0  0.1058
  H  H71  1  0.823540  0.335400  0.060250  1.0  0.1209
  H  H72  1  0.108220  0.388870  0.041840  1.0  0.0971
  H  H73  1  0.092250  0.366940  0.025970  1.0  0.1053
  H  H74  1  0.834040  0.418960  0.035210  1.0  0.1114
  H  H75  1  0.997040  0.431540  0.002880  1.0  0.1021
  H  H76  1  0.728890  0.430370  0.001560  1.0  0.114
  H  H77  1  0.566010  0.246150  0.365480  1.0  0.1068
  H  H78  1  0.035630  0.193240  0.412080  1.0  0.1095
  H  H79  1  0.839670  0.234670  0.393240  1.0  0.1021
  H  H80  1  0.608060  0.102870  0.413180  1.0  0.1129
  H  H81  1  0.999940  0.069470  0.497920  1.0  0.1003
  H  H82  1  0.655460  0.009870  0.484460  1.0  0.1099
  H  H83  1  0.540970  0.135640  0.468600  1.0  0.1125
  H  H84  1  0.565140  0.199740  0.363890  1.0  0.1155
  H  H85  1  0.405090  0.204690  0.449000  1.0  0.1283
  H  H86  1  0.381330  0.168160  0.477240  1.0  0.1185
  H  H87  1  0.181770  0.182240  0.454150  1.0  0.11
  H  H88  1  0.921760  0.141750  0.388640  1.0  0.1254
  H  H89  1  0.906760  0.178690  0.363720  1.0  0.1299
  H  H90  1  0.725350  0.152820  0.364040  1.0  0.1146
  H  H91  1  0.125010  0.124550  0.473860  1.0  0.1151
  H  H92  1  0.900870  0.117320  0.496540  1.0  0.0962
  H  H93  1  0.923320  0.147340  0.460710  1.0  0.1112
  H  H94  1  0.578530  0.041240  0.435100  1.0  0.1138
  H  H95  1  0.843060  0.035150  0.433870  1.0  0.1114
  H  H96  1  0.748490  0.065640  0.405200  1.0  0.1138
  H  H97  1  0.548740  0.035340  0.508850  1.0  0.0962
  H  H98  1  0.328180  0.023770  0.533190  1.0  0.1079
  H  H99  1  0.265360  0.073700  0.517900  1.0  0.0978
  H  H100  1  0.485290  0.085840  0.493080  1.0  0.0919
  H  H101  1  0.377520  0.089500  0.546930  1.0  0.0941
  H  H102  1  0.595480  0.107150  0.522370  1.0  0.1041
  H  H103  1  0.591950  0.059910  0.584990  1.0  0.0887
  H  H104  1  0.645810  0.097760  0.571750  1.0  0.1065
  H  H105  1  0.102650  0.078770  0.581620  1.0  0.1079
  H  H106  1  0.883790  0.060250  0.604350  1.0  0.1217
  H  H107  1  0.150060  0.041840  0.569290  1.0  0.0971
  H  H108  1  0.118220  0.025970  0.607090  1.0  0.1051
  H  H109  1  0.869250  0.035210  0.545830  1.0  0.111
  H  H110  1  0.999920  0.002880  0.565580  1.0  0.1015
  H  H111  1  0.730450  0.001560  0.568070  1.0  0.1159
  H  H112  1  0.068510  0.634520  0.611630  1.0  0.106
  H  H113  1  0.552290  0.587920  0.605320  1.0  0.1085
  H  H114  1  0.767090  0.606760  0.627910  1.0  0.1025
  H  H115  1  0.978760  0.586820  0.516050  1.0  0.1157
  H  H116  1  0.502140  0.502080  0.567390  1.0  0.101
  H  H117  1  0.860080  0.515540  0.494330  1.0  0.1095
  H  H118  1  0.990430  0.531400  0.604240  1.0  0.1135
  H  H119  1  0.070970  0.636110  0.563630  1.0  0.1161
  H  H120  1  0.145910  0.551000  0.653690  1.0  0.1276
  H  H121  1  0.141430  0.522760  0.645400  1.0  0.1195
  H  H122  1  0.364080  0.545850  0.636390  1.0  0.1107
  H  H123  1  0.689600  0.611360  0.530390  1.0  0.1245
  H  H124  1  0.729520  0.636280  0.542410  1.0  0.1268
  H  H125  1  0.910610  0.635960  0.516860  1.0  0.1153
  H  H126  1  0.401130  0.526140  0.598410  1.0  0.1147
  H  H127  1  0.602590  0.503460  0.613860  1.0  0.0979
  H  H128  1  0.615970  0.539290  0.608050  1.0  0.1094
  H  H129  1  0.986370  0.564900  0.476340  1.0  0.1146
  H  H130  1  0.723070  0.566130  0.469020  1.0  0.1094
  H  H131  1  0.846310  0.594800  0.470840  1.0  0.1146
  H  H132  1  0.942410  0.491150  0.544190  1.0  0.0967
  H  H133  1  0.138630  0.466810  0.556960  1.0  0.1085
  H  H134  1  0.216740  0.482100  0.591600  1.0  0.0968
  H  H135  1  0.021630  0.506920  0.578920  1.0  0.0931
  H  H136  1  0.075550  0.453070  0.636430  1.0  0.0951
  H  H137  1  0.882150  0.477630  0.629520  1.0  0.1017
  H  H138  1  0.823060  0.415010  0.644900  1.0  0.0845
  H  H139  1  0.782440  0.428250  0.669510  1.0  0.1061
  H  H140  1  0.315730  0.418380  0.660390  1.0  0.1051
  H  H141  1  0.511860  0.395650  0.664600  1.0  0.1215
  H  H142  1  0.280650  0.430710  0.611130  1.0  0.0955
  H  H143  1  0.274690  0.392910  0.633060  1.0  0.1065
  H  H144  1  0.584920  0.454170  0.581040  1.0  0.1104
  H  H145  1  0.434500  0.434420  0.568460  1.0  0.1034
  H  H146  1  0.701480  0.431930  0.569630  1.0  0.1153
  H  H147  1  0.680140  0.611630  0.753850  1.0  0.1066
  H  H148  1  0.157610  0.605320  0.806760  1.0  0.1086
  H  H149  1  0.395000  0.627910  0.765330  1.0  0.1024
  H  H150  1  0.494810  0.516050  0.897130  1.0  0.1123
  H  H151  1  0.069530  0.567390  0.930530  1.0  0.1005
  H  H152  1  0.354410  0.494330  0.990130  1.0  0.1091
  H  H153  1  0.594670  0.604240  0.864360  1.0  0.1138
  H  H154  1  0.634600  0.563630  0.800260  1.0  0.1148
  H  H155  1  0.799600  0.653690  0.795310  1.0  0.1285
  H  H156  1  0.786830  0.645400  0.831840  1.0  0.1187
  H  H157  1  0.000470  0.636390  0.817760  1.0  0.1106
  H  H158  1  0.219990  0.530390  0.858250  1.0  0.1222
  H  H159  1  0.271930  0.542410  0.821310  1.0  0.1272
  H  H160  1  0.427470  0.516860  0.847180  1.0  0.1149
  H  H161  1  0.999540  0.598410  0.875450  1.0  0.1138
  H  H162  1  0.216450  0.613860  0.882680  1.0  0.0966
  H  H163  1  0.224020  0.608050  0.852660  1.0  0.1091
  H  H164  1  0.462710  0.476340  0.958760  1.0  0.1146
  H  H165  1  0.192090  0.469020  0.964850  1.0  0.1125
  H  H166  1  0.317150  0.470840  0.934360  1.0  0.1126
  H  H167  1  0.486600  0.544190  0.964660  1.0  0.0977
  H  H168  1  0.695590  0.556960  0.976230  1.0  0.1044
  H  H169  1  0.808340  0.591600  0.926300  1.0  0.097
  H  H170  1  0.600550  0.578920  0.914160  1.0  0.0911
  H  H171  1  0.711980  0.636430  0.910500  1.0  0.0945
  H  H172  1  0.511670  0.629520  0.892850  1.0  0.101
  H  H173  1  0.467960  0.644900  0.940090  1.0  0.0867
  H  H174  1  0.451950  0.669510  0.902240  1.0  0.1026
  H  H175  1  0.976120  0.660390  0.921230  1.0  0.1048
  H  H176  1  0.176460  0.664600  0.939750  1.0  0.1227
  H  H177  1  0.891780  0.611130  0.958160  1.0  0.098
  H  H178  1  0.907750  0.633060  0.974030  1.0  0.106
  H  H179  1  0.165960  0.581040  0.964790  1.0  0.112
  H  H180  1  0.002960  0.568460  0.997120  1.0  0.1022
  H  H181  1  0.271110  0.569630  0.998440  1.0  0.1158
  H  H182  1  0.433990  0.753850  0.634520  1.0  0.1055
  H  H183  1  0.964370  0.806760  0.587920  1.0  0.1092
  H  H184  1  0.160330  0.765330  0.606760  1.0  0.1022
  H  H185  1  0.391940  0.897130  0.586820  1.0  0.1124
  H  H186  1  0.000060  0.930530  0.502080  1.0  0.1002
  H  H187  1  0.344540  0.990130  0.515540  1.0  0.1103
  H  H188  1  0.459030  0.864360  0.531400  1.0  0.1122
  H  H189  1  0.434860  0.800260  0.636110  1.0  0.1153
  H  H190  1  0.594910  0.795310  0.551000  1.0  0.129
  H  H191  1  0.618670  0.831840  0.522760  1.0  0.1172
  H  H192  1  0.818230  0.817760  0.545850  1.0  0.1104
  H  H193  1  0.078240  0.858250  0.611360  1.0  0.1242
  H  H194  1  0.093240  0.821310  0.636280  1.0  0.1295
  H  H195  1  0.274650  0.847180  0.635960  1.0  0.1153
  H  H196  1  0.874990  0.875450  0.526140  1.0  0.1138
  H  H197  1  0.099130  0.882680  0.503460  1.0  0.0918
  H  H198  1  0.076680  0.852660  0.539290  1.0  0.1109
  H  H199  1  0.421470  0.958760  0.564900  1.0  0.1144
  H  H200  1  0.156940  0.964850  0.566130  1.0  0.1117
  H  H201  1  0.251510  0.934360  0.594800  1.0  0.1141
  H  H202  1  0.451260  0.964660  0.491150  1.0  0.096
  H  H203  1  0.671820  0.976230  0.466810  1.0  0.1067
  H  H204  1  0.734640  0.926300  0.482100  1.0  0.0973
  H  H205  1  0.514710  0.914160  0.506920  1.0  0.0929
  H  H206  1  0.622480  0.910500  0.453070  1.0  0.0934
  H  H207  1  0.404520  0.892850  0.477630  1.0  0.1026
  H  H208  1  0.408050  0.940090  0.415010  1.0  0.0888
  H  H209  1  0.354190  0.902240  0.428250  1.0  0.1062
  H  H210  1  0.897350  0.921230  0.418380  1.0  0.1055
  H  H211  1  0.116210  0.939750  0.395650  1.0  0.1214
  H  H212  1  0.849940  0.958160  0.430710  1.0  0.0982
  H  H213  1  0.881780  0.974030  0.392910  1.0  0.1049
  H  H214  1  0.130750  0.964790  0.454170  1.0  0.1128
  H  H215  1  0.000080  0.997120  0.434420  1.0  0.1023
  H  H216  1  0.269550  0.998440  0.431930  1.0  0.1156
  C  C217  1  0.318890  0.358190  0.351770  1.0  0.6918
  C  C218  1  0.456300  0.367920  0.366630  1.0  -0.2012
  C  C219  1  0.659640  0.360590  0.371030  1.0  0.1725
  C  C220  1  0.780880  0.372140  0.383810  1.0  -0.1208
  C  C221  1  0.709870  0.391630  0.391300  1.0  0.0172
  C  C222  1  0.508980  0.398120  0.387800  1.0  -0.1448
  C  C223  1  0.384860  0.386730  0.375360  1.0  -0.0967
  C  C224  1  0.193940  0.440870  0.444320  1.0  0.0046
  C  C225  1  0.133170  0.430980  0.473040  1.0  -0.114
  C  C226  1  0.217160  0.443210  0.488150  1.0  0.0291
  C  C227  1  0.350920  0.468020  0.473450  1.0  -0.0204
  C  C228  1  0.404600  0.478390  0.444460  1.0  -0.1097
  C  C229  1  0.339130  0.464230  0.430270  1.0  0.0104
  C  C230  1  0.430390  0.484180  0.487180  1.0  -0.0484
  C  C231  1  0.634080  0.494460  0.482790  1.0  0.1174
  C  C232  1  0.298170  0.490760  0.503570  1.0  -0.138
  C  C233  1  0.845030  0.404660  0.403400  1.0  -0.028
  C  C234  1  0.090590  0.427870  0.429220  1.0  -0.0026
  C  C235  1  0.993590  0.445720  0.404560  1.0  -0.0903
  C  C236  1  0.877870  0.434590  0.390880  1.0  -0.0136
  C  C237  1  0.074480  0.398070  0.439920  1.0  0.0323
  C  C238  1  0.947340  0.386810  0.427400  1.0  -0.1504
  C  C239  1  0.801860  0.454850  0.362330  1.0  -0.3818
  C  C240  1  0.192700  0.377610  0.464010  1.0  -0.3092
  C  C241  1  0.433190  0.474310  0.400780  1.0  -0.2539
  C  C242  1  0.162230  0.428730  0.519750  1.0  -0.3196
  C  C243  1  0.909250  0.512260  0.446650  1.0  -0.0581
  C  C244  1  0.931090  0.513800  0.417830  1.0  -0.0156
  C  C245  1  0.075360  0.541280  0.371870  1.0  -0.0039
  C  C246  1  0.224210  0.566530  0.353050  1.0  -0.0067
  C  C247  1  0.552420  0.584160  0.351090  1.0  -0.1039
  C  C248  1  0.625060  0.587260  0.375850  1.0  -0.1004
  C  C249  1  0.435120  0.566140  0.419260  1.0  -0.0145
  C  C250  1  0.670660  0.351770  0.290040  1.0  0.6916
  C  C251  1  0.822930  0.366630  0.265450  1.0  -0.2006
  C  C252  1  0.030670  0.371030  0.268380  1.0  0.1733
  C  C253  1  0.164690  0.383810  0.244050  1.0  -0.1215
  C  C254  1  0.101170  0.391300  0.217070  1.0  0.0168
  C  C255  1  0.896780  0.387800  0.214080  1.0  -0.1462
  C  C256  1  0.760220  0.375360  0.237910  1.0  -0.0968
  C  C257  1  0.638260  0.444320  0.114810  1.0  0.0067
  C  C258  1  0.606210  0.473040  0.095980  1.0  -0.1169
  C  C259  1  0.705310  0.488150  0.068640  1.0  0.0283
  C  C260  1  0.824370  0.473450  0.058530  1.0  -0.0184
  C  C261  1  0.849060  0.444460  0.077150  1.0  -0.1082
  C  C262  1  0.769400  0.430270  0.105500  1.0  0.0125
  C  C263  1  0.917570  0.487180  0.028640  1.0  -0.0457
  C  C264  1  0.116870  0.482790  0.022750  1.0  0.1218
  C  C265  1  0.801740  0.503570  0.005670  1.0  -0.1376
  C  C266  1  0.248430  0.403400  0.191940  1.0  -0.026
  C  C267  1  0.519810  0.429220  0.142910  1.0  -0.0017
  C  C268  1  0.398150  0.404560  0.149720  1.0  -0.0903
  C  C269  1  0.268750  0.390880  0.174530  1.0  -0.0145
  C  C270  1  0.514400  0.439920  0.162010  1.0  0.0333
  C  C271  1  0.374740  0.427400  0.185790  1.0  -0.1528
  C  C272  1  0.164190  0.362330  0.182820  1.0  -0.3762
  C  C273  1  0.656710  0.464010  0.158380  1.0  -0.3111
  C  C274  1  0.833970  0.400780  0.124910  1.0  -0.2526
  C  C275  1  0.681980  0.519750  0.051520  1.0  -0.3256
  C  C276  1  0.355900  0.446650  0.041090  1.0  -0.0572
  C  C277  1  0.348920  0.417830  0.068370  1.0  -0.0148
  C  C278  1  0.447230  0.371870  0.086850  1.0  -0.0022
  C  C279  1  0.577260  0.353050  0.080420  1.0  0.0018
  C  C280  1  0.903510  0.351090  0.064750  1.0  -0.0982
  C  C281  1  0.000910  0.375850  0.036890  1.0  -0.1079
  C  C282  1  0.854380  0.419260  0.014600  1.0  -0.0194
  C  C283  1  0.960700  0.290040  0.358190  1.0  0.6911
  C  C284  1  0.088380  0.265450  0.367920  1.0  -0.2012
  C  C285  1  0.299050  0.268380  0.360590  1.0  0.1707
  C  C286  1  0.408740  0.244050  0.372140  1.0  -0.1216
  C  C287  1  0.318240  0.217070  0.391630  1.0  0.0178
  C  C288  1  0.110860  0.214080  0.398120  1.0  -0.1475
  C  C289  1  0.998130  0.237910  0.386730  1.0  -0.0977
  C  C290  1  0.753070  0.114810  0.440870  1.0  0.0053
  C  C291  1  0.702190  0.095980  0.430980  1.0  -0.1134
  C  C292  1  0.773950  0.068640  0.443210  1.0  0.0288
  C  C293  1  0.882900  0.058530  0.468020  1.0  -0.0183
  C  C294  1  0.926210  0.077150  0.478390  1.0  -0.1081
  C  C295  1  0.874900  0.105500  0.464230  1.0  0.0144
  C  C296  1  0.946210  0.028640  0.484180  1.0  -0.0471
  C  C297  1  0.139620  0.022750  0.494460  1.0  0.1218
  C  C298  1  0.807410  0.005670  0.490760  1.0  -0.1386
  C  C299  1  0.440370  0.191940  0.404660  1.0  -0.0261
  C  C300  1  0.662720  0.142910  0.427870  1.0  -0.0008
  C  C301  1  0.547870  0.149720  0.445720  1.0  -0.0917
  C  C302  1  0.443280  0.174530  0.434590  1.0  -0.0122
  C  C303  1  0.676410  0.162010  0.398070  1.0  0.0294
  C  C304  1  0.560530  0.185790  0.386810  1.0  -0.1462
  C  C305  1  0.347010  0.182820  0.454850  1.0  -0.3793
  C  C306  1  0.815090  0.158380  0.377610  1.0  -0.3162
  C  C307  1  0.958880  0.124910  0.474310  1.0  -0.2527
  C  C308  1  0.733500  0.051520  0.428730  1.0  -0.325
  C  C309  1  0.396990  0.041090  0.512260  1.0  -0.0564
  C  C310  1  0.417290  0.068370  0.513800  1.0  -0.014
  C  C311  1  0.534080  0.086850  0.541280  1.0  -0.0047
  C  C312  1  0.657680  0.080420  0.566530  1.0  -0.0102
  C  C313  1  0.968260  0.064750  0.584160  1.0  -0.1089
  C  C314  1  0.037800  0.036890  0.587260  1.0  -0.1091
  C  C315  1  0.868980  0.014600  0.566140  1.0  -0.0134
  C  C316  1  0.681110  0.641810  0.648230  1.0  0.692
  C  C317  1  0.543700  0.632080  0.633370  1.0  -0.2006
  C  C318  1  0.340360  0.639410  0.628970  1.0  0.1718
  C  C319  1  0.219120  0.627860  0.616190  1.0  -0.1241
  C  C320  1  0.290130  0.608370  0.608700  1.0  0.0172
  C  C321  1  0.491020  0.601880  0.612200  1.0  -0.1452
  C  C322  1  0.615140  0.613270  0.624640  1.0  -0.0985
  C  C323  1  0.806060  0.559130  0.555680  1.0  0.0042
  C  C324  1  0.866830  0.569020  0.526960  1.0  -0.1121
  C  C325  1  0.782840  0.556790  0.511850  1.0  0.027
  C  C326  1  0.649080  0.531980  0.526550  1.0  -0.0212
  C  C327  1  0.595400  0.521610  0.555540  1.0  -0.1102
  C  C328  1  0.660870  0.535770  0.569730  1.0  0.0104
  C  C329  1  0.569610  0.515820  0.512820  1.0  -0.0486
  C  C330  1  0.365920  0.505540  0.517210  1.0  0.118
  C  C331  1  0.701830  0.509240  0.496430  1.0  -0.135
  C  C332  1  0.154970  0.595340  0.596600  1.0  -0.0278
  C  C333  1  0.909410  0.572130  0.570780  1.0  -0.0027
  C  C334  1  0.006410  0.554280  0.595440  1.0  -0.0898
  C  C335  1  0.122130  0.565410  0.609120  1.0  -0.012
  C  C336  1  0.925520  0.601930  0.560080  1.0  0.0334
  C  C337  1  0.052660  0.613190  0.572600  1.0  -0.1503
  C  C338  1  0.198140  0.545150  0.637670  1.0  -0.3797
  C  C339  1  0.807300  0.622390  0.535990  1.0  -0.308
  C  C340  1  0.566810  0.525690  0.599220  1.0  -0.2555
  C  C341  1  0.837770  0.571270  0.480250  1.0  -0.3227
  C  C342  1  0.090750  0.487740  0.553350  1.0  -0.0581
  C  C343  1  0.068910  0.486200  0.582170  1.0  -0.016
  C  C344  1  0.924640  0.458720  0.628130  1.0  -0.0017
  C  C345  1  0.775790  0.433470  0.646950  1.0  -0.0075
  C  C346  1  0.447580  0.415840  0.648910  1.0  -0.107
  C  C347  1  0.374940  0.412740  0.624150  1.0  -0.1032
  C  C348  1  0.564880  0.433860  0.580740  1.0  -0.0161
  C  C349  1  0.329340  0.648230  0.709960  1.0  0.6919
  C  C350  1  0.177070  0.633370  0.734550  1.0  -0.2005
  C  C351  1  0.969330  0.628970  0.731620  1.0  0.175
  C  C352  1  0.835310  0.616190  0.755950  1.0  -0.1237
  C  C353  1  0.898830  0.608700  0.782930  1.0  0.0165
  C  C354  1  0.103220  0.612200  0.785920  1.0  -0.1454
  C  C355  1  0.239780  0.624640  0.762090  1.0  -0.099
  C  C356  1  0.361740  0.555680  0.885190  1.0  0.0071
  C  C357  1  0.393790  0.526960  0.904020  1.0  -0.1145
  C  C358  1  0.294690  0.511850  0.931360  1.0  0.0292
  C  C359  1  0.175630  0.526550  0.941470  1.0  -0.0196
  C  C360  1  0.150940  0.555540  0.922850  1.0  -0.1096
  C  C361  1  0.230600  0.569730  0.894500  1.0  0.013
  C  C362  1  0.082430  0.512820  0.971360  1.0  -0.0474
  C  C363  1  0.883130  0.517210  0.977250  1.0  0.1232
  C  C364  1  0.198260  0.496430  0.994330  1.0  -0.1359
  C  C365  1  0.751570  0.596600  0.808060  1.0  -0.0277
  C  C366  1  0.480190  0.570780  0.857090  1.0  -0.0024
  C  C367  1  0.601850  0.595440  0.850280  1.0  -0.0895
  C  C368  1  0.731250  0.609120  0.825470  1.0  -0.0133
  C  C369  1  0.485600  0.560080  0.837990  1.0  0.0333
  C  C370  1  0.625260  0.572600  0.814210  1.0  -0.1504
  C  C371  1  0.835810  0.637670  0.817180  1.0  -0.378
  C  C372  1  0.343290  0.535990  0.841620  1.0  -0.3076
  C  C373  1  0.166030  0.599220  0.875090  1.0  -0.2541
  C  C374  1  0.318020  0.480250  0.948480  1.0  -0.3243
  C  C375  1  0.644100  0.553350  0.958910  1.0  -0.0583
  C  C376  1  0.651080  0.582170  0.931630  1.0  -0.0155
  C  C377  1  0.552770  0.628130  0.913150  1.0  -0.0006
  C  C378  1  0.422740  0.646950  0.919580  1.0  -0.0075
  C  C379  1  0.096490  0.648910  0.935250  1.0  -0.1012
  C  C380  1  0.999090  0.624150  0.963110  1.0  -0.1095
  C  C381  1  0.145620  0.580740  0.985400  1.0  -0.0175
  C  C382  1  0.039300  0.709960  0.641810  1.0  0.692
  C  C383  1  0.911620  0.734550  0.632080  1.0  -0.2013
  C  C384  1  0.700950  0.731620  0.639410  1.0  0.1708
  C  C385  1  0.591260  0.755950  0.627860  1.0  -0.1232
  C  C386  1  0.681760  0.782930  0.608370  1.0  0.0184
  C  C387  1  0.889140  0.785920  0.601880  1.0  -0.1443
  C  C388  1  0.001870  0.762090  0.613270  1.0  -0.099
  C  C389  1  0.246930  0.885190  0.559130  1.0  0.0048
  C  C390  1  0.297810  0.904020  0.569020  1.0  -0.1115
  C  C391  1  0.226050  0.931360  0.556790  1.0  0.0315
  C  C392  1  0.117100  0.941470  0.531980  1.0  -0.0212
  C  C393  1  0.073790  0.922850  0.521610  1.0  -0.1084
  C  C394  1  0.125100  0.894500  0.535770  1.0  0.0139
  C  C395  1  0.053790  0.971360  0.515820  1.0  -0.0466
  C  C396  1  0.860380  0.977250  0.505540  1.0  0.1231
  C  C397  1  0.192590  0.994330  0.509240  1.0  -0.1365
  C  C398  1  0.559630  0.808060  0.595340  1.0  -0.0266
  C  C399  1  0.337280  0.857090  0.572130  1.0  -0.0
  C  C400  1  0.452130  0.850280  0.554280  1.0  -0.0891
  C  C401  1  0.556720  0.825470  0.565410  1.0  -0.0129
  C  C402  1  0.323590  0.837990  0.601930  1.0  0.0328
  C  C403  1  0.439470  0.814210  0.613190  1.0  -0.1457
  C  C404  1  0.652990  0.817180  0.545150  1.0  -0.3834
  C  C405  1  0.184910  0.841620  0.622390  1.0  -0.3107
  C  C406  1  0.041120  0.875090  0.525690  1.0  -0.2548
  C  C407  1  0.266500  0.948480  0.571270  1.0  -0.3243
  C  C408  1  0.603010  0.958910  0.487740  1.0  -0.0576
  C  C409  1  0.582710  0.931630  0.486200  1.0  -0.0153
  C  C410  1  0.465920  0.913150  0.458720  1.0  -0.0045
  C  C411  1  0.342320  0.919580  0.433470  1.0  -0.0091
  C  C412  1  0.031740  0.935250  0.415840  1.0  -0.1071
  C  C413  1  0.962200  0.963110  0.412740  1.0  -0.1095
  C  C414  1  0.131020  0.985400  0.433860  1.0  -0.0131
  O  O415  1  0.135010  0.364310  0.349850  1.0  -0.5929
  O  O416  1  0.384600  0.344260  0.340420  1.0  -0.8121
  O  O417  1  0.744310  0.340420  0.365440  1.0  -0.7566
  O  O418  1  0.769130  0.488960  0.465710  1.0  -0.3421
  O  O419  1  0.076890  0.535910  0.400160  1.0  -0.3501
  O  O420  1  0.420100  0.559360  0.361810  1.0  -0.322
  O  O421  1  0.459080  0.589830  0.391380  1.0  -0.3731
  O  O422  1  0.484860  0.349850  0.285840  1.0  -0.5913
  O  O423  1  0.725020  0.340420  0.315320  1.0  -0.813
  O  O424  1  0.109750  0.365440  0.294140  1.0  -0.7566
  O  O425  1  0.234840  0.465710  0.045330  1.0  -0.3419
  O  O426  1  0.477050  0.400160  0.063930  1.0  -0.3481
  O  O427  1  0.781910  0.361810  0.078830  1.0  -0.3238
  O  O428  1  0.850460  0.391380  0.018790  1.0  -0.3763
  O  O429  1  0.770700  0.285840  0.364310  1.0  -0.592
  O  O430  1  0.040340  0.315320  0.344260  1.0  -0.8114
  O  O431  1  0.403890  0.294140  0.340420  1.0  -0.7555
  O  O432  1  0.280170  0.045330  0.488960  1.0  -0.3405
  O  O433  1  0.540980  0.063930  0.535910  1.0  -0.3478
  O  O434  1  0.860740  0.078830  0.559360  1.0  -0.3262
  O  O435  1  0.869250  0.018790  0.589830  1.0  -0.3795
  O  O436  1  0.864990  0.635690  0.650150  1.0  -0.5925
  O  O437  1  0.615400  0.655740  0.659580  1.0  -0.8117
  O  O438  1  0.255690  0.659580  0.634560  1.0  -0.7562
  O  O439  1  0.230870  0.511040  0.534290  1.0  -0.3424
  O  O440  1  0.923110  0.464090  0.599840  1.0  -0.3504
  O  O441  1  0.579900  0.440640  0.638190  1.0  -0.3226
  O  O442  1  0.540920  0.410170  0.608620  1.0  -0.3799
  O  O443  1  0.515140  0.650150  0.714160  1.0  -0.5923
  O  O444  1  0.274980  0.659580  0.684680  1.0  -0.8119
  O  O445  1  0.890250  0.634560  0.705860  1.0  -0.7588
  O  O446  1  0.765160  0.534290  0.954670  1.0  -0.3424
  O  O447  1  0.522950  0.599840  0.936070  1.0  -0.3503
  O  O448  1  0.218090  0.638190  0.921170  1.0  -0.324
  O  O449  1  0.149540  0.608620  0.981210  1.0  -0.3764
  O  O450  1  0.229300  0.714160  0.635690  1.0  -0.5921
  O  O451  1  0.959660  0.684680  0.655740  1.0  -0.8119
  O  O452  1  0.596110  0.705860  0.659580  1.0  -0.7544
  O  O453  1  0.719830  0.954670  0.511040  1.0  -0.3411
  O  O454  1  0.459020  0.936070  0.464090  1.0  -0.3488
  O  O455  1  0.139260  0.921170  0.440640  1.0  -0.3256
  O  O456  1  0.130750  0.981210  0.410170  1.0  -0.3839
