# generated using pymatgen
data_ZnH30(C6N)6
_symmetry_space_group_name_H-M   'P 1'
_cell_length_a   12.60200000
_cell_length_b   15.12900000
_cell_length_c   18.54900000
_cell_angle_alpha   90.00000000
_cell_angle_beta   96.59900000
_cell_angle_gamma   90.00000000
_symmetry_Int_Tables_number   1
_chemical_formula_structural   ZnH30(C6N)6
_chemical_formula_sum   'Zn4 H120 C144 N24'
_cell_volume   3513.04186641
_cell_formula_units_Z   4
loop_
 _symmetry_equiv_pos_site_id
 _symmetry_equiv_pos_as_xyz
  1  'x, y, z'
loop_
 _atom_site_type_symbol
 _atom_site_label
 _atom_site_symmetry_multiplicity
 _atom_site_fract_x
 _atom_site_fract_y
 _atom_site_fract_z
 _atom_site_occupancy
 _atom_site_charge
  Zn  Zn1  1  0.500000  0.537450  0.750000  1.0  0.7866
  Zn  Zn2  1  0.000000  0.962550  0.250000  1.0  0.7889
  Zn  Zn3  1  0.000000  0.037450  0.750000  1.0  0.7866
  Zn  Zn4  1  0.500000  0.462550  0.250000  1.0  0.7889
  H  H5  1  0.408500  0.712600  0.785600  1.0  0.0671
  H  H6  1  0.327500  0.779600  0.875800  1.0  0.0944
  H  H7  1  0.356200  0.554100  0.987500  1.0  0.1035
  H  H8  1  0.436500  0.493400  0.895500  1.0  0.0653
  H  H9  1  0.268200  0.675900  0.041100  1.0  0.077
  H  H10  1  0.591500  0.712600  0.714400  1.0  0.0664
  H  H11  1  0.672500  0.779600  0.624200  1.0  0.0943
  H  H12  1  0.643800  0.554100  0.512500  1.0  0.1039
  H  H13  1  0.563500  0.493400  0.604500  1.0  0.0651
  H  H14  1  0.731800  0.675900  0.458900  1.0  0.0775
  H  H15  1  0.091500  0.787400  0.214400  1.0  0.0672
  H  H16  1  0.172500  0.720400  0.124200  1.0  0.0938
  H  H17  1  0.143800  0.945900  0.012500  1.0  0.104
  H  H18  1  0.063500  0.006600  0.104500  1.0  0.065
  H  H19  1  0.231800  0.824100  0.958900  1.0  0.078
  H  H20  1  0.908500  0.787400  0.285600  1.0  0.0665
  H  H21  1  0.827500  0.720400  0.375800  1.0  0.0934
  H  H22  1  0.856200  0.945900  0.487500  1.0  0.1033
  H  H23  1  0.936500  0.006600  0.395500  1.0  0.0649
  H  H24  1  0.768200  0.824100  0.541100  1.0  0.0769
  H  H25  1  0.908500  0.212600  0.785600  1.0  0.0671
  H  H26  1  0.827500  0.279600  0.875800  1.0  0.0944
  H  H27  1  0.856200  0.054100  0.987500  1.0  0.1035
  H  H28  1  0.936500  0.993400  0.895500  1.0  0.0655
  H  H29  1  0.768200  0.175900  0.041100  1.0  0.077
  H  H30  1  0.091500  0.212600  0.714400  1.0  0.0664
  H  H31  1  0.172500  0.279600  0.624200  1.0  0.0943
  H  H32  1  0.143800  0.054100  0.512500  1.0  0.1039
  H  H33  1  0.063500  0.993400  0.604500  1.0  0.0654
  H  H34  1  0.231800  0.175900  0.458900  1.0  0.0775
  H  H35  1  0.591500  0.287400  0.214400  1.0  0.0672
  H  H36  1  0.672500  0.220400  0.124200  1.0  0.0938
  H  H37  1  0.643800  0.445900  0.012500  1.0  0.104
  H  H38  1  0.563500  0.506600  0.104500  1.0  0.0647
  H  H39  1  0.731800  0.324100  0.958900  1.0  0.078
  H  H40  1  0.408500  0.287400  0.285600  1.0  0.0665
  H  H41  1  0.327500  0.220400  0.375800  1.0  0.0934
  H  H42  1  0.356200  0.445900  0.487500  1.0  0.1033
  H  H43  1  0.436500  0.506600  0.395500  1.0  0.0646
  H  H44  1  0.268200  0.324100  0.541100  1.0  0.0769
  H  H45  1  0.366100  0.611100  0.599000  1.0  0.056
  H  H46  1  0.213400  0.580000  0.524100  1.0  0.1028
  H  H47  1  0.120700  0.426700  0.680800  1.0  0.1148
  H  H48  1  0.279200  0.457100  0.748700  1.0  0.0571
  H  H49  1  0.028300  0.409200  0.561300  1.0  0.0937
  H  H50  1  0.887600  0.499900  0.551300  1.0  0.0788
  H  H51  1  0.054300  0.684700  0.514300  1.0  0.1085
  H  H52  1  0.059800  0.815300  0.578300  1.0  0.0579
  H  H53  1  0.882100  0.718500  0.715500  1.0  0.0619
  H  H54  1  0.876200  0.582600  0.659000  1.0  0.1098
  H  H55  1  0.633900  0.388900  0.401000  1.0  0.0559
  H  H56  1  0.786600  0.420000  0.475900  1.0  0.1034
  H  H57  1  0.879300  0.573300  0.319200  1.0  0.1151
  H  H58  1  0.720800  0.542900  0.251300  1.0  0.0572
  H  H59  1  0.971700  0.590800  0.438700  1.0  0.0941
  H  H60  1  0.112400  0.500100  0.448700  1.0  0.0779
  H  H61  1  0.945700  0.315300  0.485700  1.0  0.1083
  H  H62  1  0.940200  0.184700  0.421700  1.0  0.0571
  H  H63  1  0.117900  0.281500  0.284500  1.0  0.0633
  H  H64  1  0.123800  0.417400  0.341000  1.0  0.1102
  H  H65  1  0.866100  0.111100  0.599000  1.0  0.056
  H  H66  1  0.713400  0.080000  0.524100  1.0  0.1028
  H  H67  1  0.620700  0.926700  0.680800  1.0  0.1148
  H  H68  1  0.779200  0.957100  0.748700  1.0  0.0571
  H  H69  1  0.528300  0.909200  0.561300  1.0  0.0937
  H  H70  1  0.387600  0.999900  0.551300  1.0  0.0788
  H  H71  1  0.554300  0.184700  0.514300  1.0  0.1085
  H  H72  1  0.559800  0.315300  0.578300  1.0  0.0581
  H  H73  1  0.382100  0.218500  0.715500  1.0  0.0619
  H  H74  1  0.376200  0.082600  0.659000  1.0  0.1098
  H  H75  1  0.133900  0.888900  0.401000  1.0  0.0559
  H  H76  1  0.286600  0.920000  0.475900  1.0  0.1034
  H  H77  1  0.379300  0.073300  0.319200  1.0  0.1151
  H  H78  1  0.220800  0.042900  0.251300  1.0  0.0572
  H  H79  1  0.471700  0.090800  0.438700  1.0  0.0941
  H  H80  1  0.612400  0.000100  0.448700  1.0  0.0779
  H  H81  1  0.445700  0.815300  0.485700  1.0  0.1083
  H  H82  1  0.440200  0.684700  0.421700  1.0  0.0569
  H  H83  1  0.617900  0.781500  0.284500  1.0  0.0633
  H  H84  1  0.623800  0.917400  0.341000  1.0  0.1102
  H  H85  1  0.633900  0.611100  0.901000  1.0  0.0561
  H  H86  1  0.786600  0.580000  0.975900  1.0  0.1037
  H  H87  1  0.879300  0.426700  0.819200  1.0  0.1148
  H  H88  1  0.720800  0.457100  0.751300  1.0  0.0574
  H  H89  1  0.971700  0.409200  0.938700  1.0  0.0928
  H  H90  1  0.112400  0.499900  0.948700  1.0  0.078
  H  H91  1  0.945700  0.684700  0.985700  1.0  0.1082
  H  H92  1  0.940200  0.815300  0.921700  1.0  0.0575
  H  H93  1  0.117900  0.718500  0.784500  1.0  0.0632
  H  H94  1  0.123800  0.582600  0.841000  1.0  0.1098
  H  H95  1  0.366100  0.388900  0.099000  1.0  0.0561
  H  H96  1  0.213400  0.420000  0.024100  1.0  0.1019
  H  H97  1  0.120700  0.573300  0.180800  1.0  0.1145
  H  H98  1  0.279200  0.542900  0.248700  1.0  0.057
  H  H99  1  0.028300  0.590800  0.061300  1.0  0.0935
  H  H100  1  0.887600  0.500100  0.051300  1.0  0.0778
  H  H101  1  0.054300  0.315300  0.014300  1.0  0.1086
  H  H102  1  0.059800  0.184700  0.078300  1.0  0.0578
  H  H103  1  0.882100  0.281500  0.215500  1.0  0.062
  H  H104  1  0.876200  0.417400  0.159000  1.0  0.1096
  H  H105  1  0.133900  0.111100  0.901000  1.0  0.0561
  H  H106  1  0.286600  0.080000  0.975900  1.0  0.1037
  H  H107  1  0.379300  0.926700  0.819200  1.0  0.1148
  H  H108  1  0.220800  0.957100  0.751300  1.0  0.0574
  H  H109  1  0.471700  0.909200  0.938700  1.0  0.0928
  H  H110  1  0.612400  0.999900  0.948700  1.0  0.078
  H  H111  1  0.445700  0.184700  0.985700  1.0  0.1082
  H  H112  1  0.440200  0.315300  0.921700  1.0  0.0577
  H  H113  1  0.617900  0.218500  0.784500  1.0  0.0632
  H  H114  1  0.623800  0.082600  0.841000  1.0  0.1098
  H  H115  1  0.866100  0.888900  0.099000  1.0  0.0561
  H  H116  1  0.713400  0.920000  0.024100  1.0  0.1019
  H  H117  1  0.620700  0.073300  0.180800  1.0  0.1145
  H  H118  1  0.779200  0.042900  0.248700  1.0  0.057
  H  H119  1  0.528300  0.090800  0.061300  1.0  0.0935
  H  H120  1  0.387600  0.000100  0.051300  1.0  0.0778
  H  H121  1  0.554300  0.815300  0.014300  1.0  0.1086
  H  H122  1  0.559800  0.684700  0.078300  1.0  0.0576
  H  H123  1  0.382100  0.781500  0.215500  1.0  0.062
  H  H124  1  0.376200  0.917400  0.159000  1.0  0.1096
  C  C125  1  0.397700  0.680170  0.826700  1.0  0.1487
  C  C126  1  0.348300  0.720740  0.880850  1.0  -0.1908
  C  C127  1  0.329840  0.674300  0.942320  1.0  0.1099
  C  C128  1  0.365300  0.587830  0.946790  1.0  -0.2344
  C  C129  1  0.413800  0.551860  0.891300  1.0  0.1587
  C  C130  1  0.272600  0.711050  0.000400  1.0  -0.1673
  C  C131  1  0.602300  0.680170  0.673300  1.0  0.148
  C  C132  1  0.651700  0.720740  0.619150  1.0  -0.1895
  C  C133  1  0.670160  0.674300  0.557680  1.0  0.1107
  C  C134  1  0.634700  0.587830  0.553210  1.0  -0.2347
  C  C135  1  0.586200  0.551860  0.608700  1.0  0.1579
  C  C136  1  0.727400  0.711050  0.499600  1.0  -0.1678
  C  C137  1  0.102300  0.819830  0.173300  1.0  0.1477
  C  C138  1  0.151700  0.779260  0.119150  1.0  -0.1883
  C  C139  1  0.170160  0.825700  0.057680  1.0  0.1101
  C  C140  1  0.134700  0.912170  0.053210  1.0  -0.2347
  C  C141  1  0.086200  0.948140  0.108700  1.0  0.1579
  C  C142  1  0.227400  0.788950  0.999600  1.0  -0.1666
  C  C143  1  0.897700  0.819830  0.326700  1.0  0.148
  C  C144  1  0.848300  0.779260  0.380850  1.0  -0.1907
  C  C145  1  0.829840  0.825700  0.442320  1.0  0.1096
  C  C146  1  0.865300  0.912170  0.446790  1.0  -0.236
  C  C147  1  0.913800  0.948140  0.391300  1.0  0.1583
  C  C148  1  0.772600  0.788950  0.500400  1.0  -0.1662
  C  C149  1  0.897700  0.180170  0.826700  1.0  0.1487
  C  C150  1  0.848300  0.220740  0.880850  1.0  -0.1908
  C  C151  1  0.829840  0.174300  0.942320  1.0  0.1099
  C  C152  1  0.865300  0.087830  0.946790  1.0  -0.2344
  C  C153  1  0.913800  0.051860  0.891300  1.0  0.1587
  C  C154  1  0.772600  0.211050  0.000400  1.0  -0.1673
  C  C155  1  0.102300  0.180170  0.673300  1.0  0.148
  C  C156  1  0.151700  0.220740  0.619150  1.0  -0.1895
  C  C157  1  0.170160  0.174300  0.557680  1.0  0.1107
  C  C158  1  0.134700  0.087830  0.553210  1.0  -0.2347
  C  C159  1  0.086200  0.051860  0.608700  1.0  0.1579
  C  C160  1  0.227400  0.211050  0.499600  1.0  -0.1678
  C  C161  1  0.602300  0.319830  0.173300  1.0  0.1477
  C  C162  1  0.651700  0.279260  0.119150  1.0  -0.1883
  C  C163  1  0.670160  0.325700  0.057680  1.0  0.1101
  C  C164  1  0.634700  0.412170  0.053210  1.0  -0.2347
  C  C165  1  0.586200  0.448140  0.108700  1.0  0.1579
  C  C166  1  0.727400  0.288950  0.999600  1.0  -0.1666
  C  C167  1  0.397700  0.319830  0.326700  1.0  0.148
  C  C168  1  0.348300  0.279260  0.380850  1.0  -0.1907
  C  C169  1  0.329840  0.325700  0.442320  1.0  0.1096
  C  C170  1  0.365300  0.412170  0.446790  1.0  -0.236
  C  C171  1  0.413800  0.448140  0.391300  1.0  0.1583
  C  C172  1  0.272600  0.288950  0.500400  1.0  -0.1662
  C  C173  1  0.317800  0.571090  0.614800  1.0  0.1607
  C  C174  1  0.225200  0.553230  0.569420  1.0  -0.2382
  C  C175  1  0.150310  0.495710  0.591600  1.0  0.0717
  C  C176  1  0.170900  0.462100  0.661750  1.0  -0.2058
  C  C177  1  0.266400  0.481700  0.702620  1.0  0.1642
  C  C178  1  0.050010  0.467720  0.545720  1.0  -0.1124
  C  C179  1  0.950570  0.531580  0.538360  1.0  -0.1027
  C  C180  1  0.961110  0.618990  0.577790  1.0  0.0707
  C  C181  1  0.017900  0.689740  0.554970  1.0  -0.254
  C  C182  1  0.020100  0.768590  0.593730  1.0  0.1615
  C  C183  1  0.917000  0.711600  0.674290  1.0  0.1576
  C  C184  1  0.911900  0.629550  0.640170  1.0  -0.2078
  C  C185  1  0.682200  0.428910  0.385200  1.0  0.1616
  C  C186  1  0.774800  0.446770  0.430580  1.0  -0.2359
  C  C187  1  0.849690  0.504290  0.408400  1.0  0.0687
  C  C188  1  0.829100  0.537900  0.338250  1.0  -0.2075
  C  C189  1  0.733600  0.518300  0.297380  1.0  0.1631
  C  C190  1  0.949990  0.532280  0.454280  1.0  -0.112
  C  C191  1  0.049430  0.468420  0.461640  1.0  -0.104
  C  C192  1  0.038890  0.381010  0.422210  1.0  0.0691
  C  C193  1  0.982100  0.310260  0.445030  1.0  -0.2523
  C  C194  1  0.979900  0.231410  0.406270  1.0  0.1599
  C  C195  1  0.083000  0.288400  0.325710  1.0  0.1581
  C  C196  1  0.088100  0.370450  0.359830  1.0  -0.2074
  C  C197  1  0.817800  0.071090  0.614800  1.0  0.1607
  C  C198  1  0.725200  0.053230  0.569420  1.0  -0.2382
  C  C199  1  0.650310  0.995710  0.591600  1.0  0.0717
  C  C200  1  0.670900  0.962100  0.661750  1.0  -0.2058
  C  C201  1  0.766400  0.981700  0.702620  1.0  0.1642
  C  C202  1  0.550010  0.967720  0.545720  1.0  -0.1124
  C  C203  1  0.450570  0.031580  0.538360  1.0  -0.1027
  C  C204  1  0.461110  0.118990  0.577790  1.0  0.0707
  C  C205  1  0.517900  0.189740  0.554970  1.0  -0.254
  C  C206  1  0.520100  0.268590  0.593730  1.0  0.1615
  C  C207  1  0.417000  0.211600  0.674290  1.0  0.1576
  C  C208  1  0.411900  0.129550  0.640170  1.0  -0.2078
  C  C209  1  0.182200  0.928910  0.385200  1.0  0.1616
  C  C210  1  0.274800  0.946770  0.430580  1.0  -0.2359
  C  C211  1  0.349690  0.004290  0.408400  1.0  0.0687
  C  C212  1  0.329100  0.037900  0.338250  1.0  -0.2075
  C  C213  1  0.233600  0.018300  0.297380  1.0  0.1631
  C  C214  1  0.449990  0.032280  0.454280  1.0  -0.112
  C  C215  1  0.549430  0.968420  0.461640  1.0  -0.104
  C  C216  1  0.538890  0.881010  0.422210  1.0  0.0691
  C  C217  1  0.482100  0.810260  0.445030  1.0  -0.2523
  C  C218  1  0.479900  0.731410  0.406270  1.0  0.1599
  C  C219  1  0.583000  0.788400  0.325710  1.0  0.1581
  C  C220  1  0.588100  0.870450  0.359830  1.0  -0.2074
  C  C221  1  0.682200  0.571090  0.885200  1.0  0.161
  C  C222  1  0.774800  0.553230  0.930580  1.0  -0.2377
  C  C223  1  0.849690  0.495710  0.908400  1.0  0.0696
  C  C224  1  0.829100  0.462100  0.838250  1.0  -0.2071
  C  C225  1  0.733600  0.481700  0.797380  1.0  0.1636
  C  C226  1  0.949990  0.467720  0.954280  1.0  -0.1126
  C  C227  1  0.049430  0.531580  0.961640  1.0  -0.1033
  C  C228  1  0.038890  0.618990  0.922210  1.0  0.0694
  C  C229  1  0.982100  0.689740  0.945030  1.0  -0.2521
  C  C230  1  0.979900  0.768590  0.906270  1.0  0.1597
  C  C231  1  0.083000  0.711600  0.825710  1.0  0.1581
  C  C232  1  0.088100  0.629550  0.859830  1.0  -0.2077
  C  C233  1  0.317800  0.428910  0.114800  1.0  0.1605
  C  C234  1  0.225200  0.446770  0.069420  1.0  -0.2367
  C  C235  1  0.150310  0.504290  0.091600  1.0  0.0709
  C  C236  1  0.170900  0.537900  0.161750  1.0  -0.2066
  C  C237  1  0.266400  0.518300  0.202620  1.0  0.1638
  C  C238  1  0.050010  0.532280  0.045720  1.0  -0.1116
  C  C239  1  0.950570  0.468420  0.038360  1.0  -0.1029
  C  C240  1  0.961110  0.381010  0.077790  1.0  0.0704
  C  C241  1  0.017900  0.310260  0.054970  1.0  -0.2541
  C  C242  1  0.020100  0.231410  0.093730  1.0  0.1614
  C  C243  1  0.917000  0.288400  0.174290  1.0  0.1582
  C  C244  1  0.911900  0.370450  0.140170  1.0  -0.207
  C  C245  1  0.182200  0.071090  0.885200  1.0  0.161
  C  C246  1  0.274800  0.053230  0.930580  1.0  -0.2377
  C  C247  1  0.349690  0.995710  0.908400  1.0  0.0696
  C  C248  1  0.329100  0.962100  0.838250  1.0  -0.2071
  C  C249  1  0.233600  0.981700  0.797380  1.0  0.1636
  C  C250  1  0.449990  0.967720  0.954280  1.0  -0.1126
  C  C251  1  0.549430  0.031580  0.961640  1.0  -0.1033
  C  C252  1  0.538890  0.118990  0.922210  1.0  0.0694
  C  C253  1  0.482100  0.189740  0.945030  1.0  -0.2521
  C  C254  1  0.479900  0.268590  0.906270  1.0  0.1597
  C  C255  1  0.583000  0.211600  0.825710  1.0  0.1581
  C  C256  1  0.588100  0.129550  0.859830  1.0  -0.2077
  C  C257  1  0.817800  0.928910  0.114800  1.0  0.1605
  C  C258  1  0.725200  0.946770  0.069420  1.0  -0.2367
  C  C259  1  0.650310  0.004290  0.091600  1.0  0.0709
  C  C260  1  0.670900  0.037900  0.161750  1.0  -0.2066
  C  C261  1  0.766400  0.018300  0.202620  1.0  0.1638
  C  C262  1  0.550010  0.032280  0.045720  1.0  -0.1116
  C  C263  1  0.450570  0.968420  0.038360  1.0  -0.1029
  C  C264  1  0.461110  0.881010  0.077790  1.0  0.0704
  C  C265  1  0.517900  0.810260  0.054970  1.0  -0.2541
  C  C266  1  0.520100  0.731410  0.093730  1.0  0.1614
  C  C267  1  0.417000  0.788400  0.174290  1.0  0.1582
  C  C268  1  0.411900  0.870450  0.140170  1.0  -0.207
  N  N269  1  0.430160  0.596570  0.831260  1.0  -0.3403
  N  N270  1  0.569840  0.596570  0.668740  1.0  -0.3397
  N  N271  1  0.069840  0.903430  0.168740  1.0  -0.3401
  N  N272  1  0.930160  0.903430  0.331260  1.0  -0.3399
  N  N273  1  0.930160  0.096570  0.831260  1.0  -0.3403
  N  N274  1  0.069840  0.096570  0.668740  1.0  -0.3397
  N  N275  1  0.569840  0.403430  0.168740  1.0  -0.3401
  N  N276  1  0.430160  0.403430  0.331260  1.0  -0.3399
  N  N277  1  0.341720  0.533910  0.680190  1.0  -0.3516
  N  N278  1  0.969100  0.780840  0.651060  1.0  -0.4379
  N  N279  1  0.658280  0.466090  0.319810  1.0  -0.3538
  N  N280  1  0.030900  0.219160  0.348940  1.0  -0.4362
  N  N281  1  0.841720  0.033910  0.680190  1.0  -0.3516
  N  N282  1  0.469100  0.280840  0.651060  1.0  -0.4379
  N  N283  1  0.158280  0.966090  0.319810  1.0  -0.3538
  N  N284  1  0.530900  0.719160  0.348940  1.0  -0.4362
  N  N285  1  0.658280  0.533910  0.819810  1.0  -0.3531
  N  N286  1  0.030900  0.780840  0.848940  1.0  -0.44
  N  N287  1  0.341720  0.466090  0.180190  1.0  -0.3515
  N  N288  1  0.969100  0.219160  0.151060  1.0  -0.4351
  N  N289  1  0.158280  0.033910  0.819810  1.0  -0.3531
  N  N290  1  0.530900  0.280840  0.848940  1.0  -0.44
  N  N291  1  0.841720  0.966090  0.180190  1.0  -0.3515
  N  N292  1  0.469100  0.719160  0.151060  1.0  -0.4351
