# generated using pymatgen
data_AlH2C10O9
_symmetry_space_group_name_H-M   'P 1'
_cell_length_a   17.54480000
_cell_length_b   13.57810000
_cell_length_c   6.66420000
_cell_angle_alpha   90.00000000
_cell_angle_beta   113.19600000
_cell_angle_gamma   90.00000000
_symmetry_Int_Tables_number   1
_chemical_formula_structural   AlH2C10O9
_chemical_formula_sum   'Al4 H8 C40 O36'
_cell_volume   1459.24396211
_cell_formula_units_Z   4
loop_
 _symmetry_equiv_pos_site_id
 _symmetry_equiv_pos_as_xyz
  1  'x, y, z'
loop_
 _atom_site_type_symbol
 _atom_site_label
 _atom_site_symmetry_multiplicity
 _atom_site_fract_x
 _atom_site_fract_y
 _atom_site_fract_z
 _atom_site_occupancy
 _atom_site_charge
  Al  Al1  1  0.000000  0.000000  0.000000  1.0  1.8385
  Al  Al2  1  0.500000  0.500000  0.000000  1.0  1.8385
  Al  Al3  1  0.000000  0.000000  0.500000  1.0  1.8385
  Al  Al4  1  0.500000  0.500000  0.500000  1.0  1.8385
  H  H5  1  0.849000  0.257000  0.340000  1.0  0.1669
  H  H6  1  0.349000  0.757000  0.340000  1.0  0.1669
  H  H7  1  0.151000  0.257000  0.160000  1.0  0.1653
  H  H8  1  0.651000  0.757000  0.160000  1.0  0.1653
  H  H9  1  0.151000  0.743000  0.660000  1.0  0.1673
  H  H10  1  0.651000  0.243000  0.660000  1.0  0.1673
  H  H11  1  0.849000  0.743000  0.840000  1.0  0.1669
  H  H12  1  0.349000  0.243000  0.840000  1.0  0.1669
  C  C13  1  0.814070  0.180530  0.559690  1.0  -0.0395
  C  C14  1  0.756230  0.176030  0.652960  1.0  0.0083
  C  C15  1  0.810090  0.253770  0.412600  1.0  -0.0081
  C  C16  1  0.891410  0.113660  0.648000  1.0  0.7021
  C  C17  1  0.749590  0.094650  0.799480  1.0  0.7333
  C  C18  1  0.314070  0.680530  0.559690  1.0  -0.0395
  C  C19  1  0.256230  0.676030  0.652960  1.0  0.0083
  C  C20  1  0.310090  0.753770  0.412600  1.0  -0.0081
  C  C21  1  0.391410  0.613660  0.648000  1.0  0.7021
  C  C22  1  0.249590  0.594650  0.799480  1.0  0.7333
  C  C23  1  0.185930  0.180530  0.940310  1.0  -0.0409
  C  C24  1  0.243770  0.176030  0.847040  1.0  0.0072
  C  C25  1  0.189910  0.253770  0.087400  1.0  -0.0096
  C  C26  1  0.108590  0.113660  0.852000  1.0  0.7025
  C  C27  1  0.250410  0.094650  0.700520  1.0  0.7326
  C  C28  1  0.685930  0.680530  0.940310  1.0  -0.0409
  C  C29  1  0.743770  0.676030  0.847040  1.0  0.0072
  C  C30  1  0.689910  0.753770  0.087400  1.0  -0.0096
  C  C31  1  0.608590  0.613660  0.852000  1.0  0.7025
  C  C32  1  0.750410  0.594650  0.700520  1.0  0.7326
  C  C33  1  0.185930  0.819470  0.440310  1.0  -0.0399
  C  C34  1  0.243770  0.823970  0.347040  1.0  0.0074
  C  C35  1  0.189910  0.746230  0.587400  1.0  -0.0094
  C  C36  1  0.108590  0.886340  0.352000  1.0  0.7016
  C  C37  1  0.250410  0.905350  0.200520  1.0  0.7318
  C  C38  1  0.685930  0.319470  0.440310  1.0  -0.0399
  C  C39  1  0.743770  0.323970  0.347040  1.0  0.0074
  C  C40  1  0.689910  0.246230  0.587400  1.0  -0.0094
  C  C41  1  0.608590  0.386340  0.352000  1.0  0.7019
  C  C42  1  0.750410  0.405350  0.200520  1.0  0.7318
  C  C43  1  0.814070  0.819470  0.059690  1.0  -0.0396
  C  C44  1  0.756230  0.823970  0.152960  1.0  0.0083
  C  C45  1  0.810090  0.746230  0.912600  1.0  -0.0085
  C  C46  1  0.891410  0.886340  0.148000  1.0  0.7021
  C  C47  1  0.749590  0.905350  0.299480  1.0  0.7323
  C  C48  1  0.314070  0.319470  0.059690  1.0  -0.0396
  C  C49  1  0.256230  0.323970  0.152960  1.0  0.0083
  C  C50  1  0.310090  0.246230  0.912600  1.0  -0.0085
  C  C51  1  0.391410  0.386340  0.148000  1.0  0.7024
  C  C52  1  0.249590  0.405350  0.299480  1.0  0.7323
  O  O53  1  0.909680  0.080770  0.833470  1.0  -0.5507
  O  O54  1  0.922850  0.096540  0.510480  1.0  -0.5745
  O  O55  1  0.738290  0.005690  0.748220  1.0  -0.5379
  O  O56  1  0.755460  0.124530  0.992840  1.0  -0.4832
  O  O57  1  0.409680  0.580770  0.833470  1.0  -0.5507
  O  O58  1  0.422850  0.596540  0.510480  1.0  -0.5745
  O  O59  1  0.238290  0.505690  0.748220  1.0  -0.5379
  O  O60  1  0.255460  0.624530  0.992840  1.0  -0.4832
  O  O61  1  0.090320  0.080770  0.666530  1.0  -0.5511
  O  O62  1  0.077150  0.096540  0.989520  1.0  -0.5747
  O  O63  1  0.261710  0.005690  0.751780  1.0  -0.5363
  O  O64  1  0.244540  0.124530  0.507160  1.0  -0.4835
  O  O65  1  0.590320  0.580770  0.666530  1.0  -0.5511
  O  O66  1  0.577150  0.596540  0.989520  1.0  -0.5747
  O  O67  1  0.761710  0.505690  0.751780  1.0  -0.5363
  O  O68  1  0.744540  0.624530  0.507160  1.0  -0.4835
  O  O69  1  0.090320  0.919230  0.166530  1.0  -0.5508
  O  O70  1  0.077150  0.903460  0.489520  1.0  -0.5745
  O  O71  1  0.261710  0.994310  0.251780  1.0  -0.537
  O  O72  1  0.244540  0.875470  0.007160  1.0  -0.4825
  O  O73  1  0.590320  0.419230  0.166530  1.0  -0.5508
  O  O74  1  0.577150  0.403460  0.489520  1.0  -0.5745
  O  O75  1  0.761710  0.494310  0.251780  1.0  -0.537
  O  O76  1  0.744540  0.375470  0.007160  1.0  -0.4825
  O  O77  1  0.909680  0.919230  0.333470  1.0  -0.5498
  O  O78  1  0.922850  0.903460  0.010480  1.0  -0.5742
  O  O79  1  0.738290  0.994310  0.248220  1.0  -0.5401
  O  O80  1  0.755460  0.875470  0.492840  1.0  -0.4825
  O  O81  1  0.409680  0.419230  0.333470  1.0  -0.5498
  O  O82  1  0.422850  0.403460  0.010480  1.0  -0.5742
  O  O83  1  0.238290  0.494310  0.248220  1.0  -0.5401
  O  O84  1  0.255460  0.375470  0.492840  1.0  -0.4825
  O  O85  1  0.000000  0.937930  0.750000  1.0  -0.6684
  O  O86  1  0.500000  0.437930  0.750000  1.0  -0.6684
  O  O87  1  0.000000  0.062070  0.250000  1.0  -0.6664
  O  O88  1  0.500000  0.562070  0.250000  1.0  -0.6664
