# generated using pymatgen
data_Zn2P2H16C16NO10
_symmetry_space_group_name_H-M   'P 1'
_cell_length_a   10.24200000
_cell_length_b   13.14360000
_cell_length_c   13.14360000
_cell_angle_alpha   94.73600000
_cell_angle_beta   109.48800000
_cell_angle_gamma   109.48800000
_symmetry_Int_Tables_number   1
_chemical_formula_structural   Zn2P2H16C16NO10
_chemical_formula_sum   'Zn4 P4 H32 C32 N2 O20'
_cell_volume   1534.56142368
_cell_formula_units_Z   2
loop_
 _symmetry_equiv_pos_site_id
 _symmetry_equiv_pos_as_xyz
  1  'x, y, z'
loop_
 _atom_site_type_symbol
 _atom_site_label
 _atom_site_symmetry_multiplicity
 _atom_site_fract_x
 _atom_site_fract_y
 _atom_site_fract_z
 _atom_site_occupancy
 _atom_site_charge
  Zn  Zn1  1  0.522280  0.940230  0.838410  1.0  1.0547
  Zn  Zn2  1  0.977720  0.161590  0.059770  1.0  1.0571
  Zn  Zn3  1  0.477720  0.059770  0.161590  1.0  1.0565
  Zn  Zn4  1  0.022280  0.838410  0.940230  1.0  1.055
  P  P5  1  0.654480  0.164550  0.022110  1.0  1.5419
  P  P6  1  0.845520  0.977890  0.835450  1.0  1.541
  P  P7  1  0.345520  0.835450  0.977890  1.0  1.5406
  P  P8  1  0.154480  0.022110  0.164550  1.0  1.5402
  H  H9  1  0.636300  0.232700  0.817300  1.0  0.0957
  H  H10  1  0.728200  0.400700  0.765900  1.0  0.1182
  H  H11  1  0.875800  0.560900  0.075700  1.0  0.1041
  H  H12  1  0.798100  0.393500  0.131100  1.0  0.1167
  H  H13  1  0.863700  0.182700  0.767300  1.0  0.095
  H  H14  1  0.771800  0.234100  0.599300  1.0  0.1169
  H  H15  1  0.624200  0.924300  0.439100  1.0  0.104
  H  H16  1  0.701900  0.868900  0.606500  1.0  0.1157
  H  H17  1  0.363700  0.767300  0.182700  1.0  0.0952
  H  H18  1  0.271800  0.599300  0.234100  1.0  0.1182
  H  H19  1  0.124200  0.439100  0.924300  1.0  0.104
  H  H20  1  0.201900  0.606500  0.868900  1.0  0.1171
  H  H21  1  0.136300  0.817300  0.232700  1.0  0.0946
  H  H22  1  0.228200  0.765900  0.400700  1.0  0.1176
  H  H23  1  0.375800  0.075700  0.560900  1.0  0.1038
  H  H24  1  0.298100  0.131100  0.393500  1.0  0.1164
  H  H25  1  0.174800  0.990900  0.753300  1.0  0.1128
  H  H26  1  0.114200  0.083600  0.721800  1.0  0.1183
  H  H27  1  0.280100  0.101900  0.738900  1.0  0.1179
  H  H28  1  0.326100  0.097800  0.918200  1.0  0.1722
  H  H29  1  0.325200  0.246700  0.009100  1.0  0.1084
  H  H30  1  0.385800  0.278200  0.916400  1.0  0.12
  H  H31  1  0.219900  0.261100  0.898100  1.0  0.1148
  H  H32  1  0.173900  0.081800  0.902200  1.0  0.1926
  H  H33  1  0.825200  0.009100  0.246700  1.0  0.1108
  H  H34  1  0.885800  0.916400  0.278200  1.0  0.1193
  H  H35  1  0.719900  0.898100  0.261100  1.0  0.119
  H  H36  1  0.673900  0.902200  0.081800  1.0  0.1803
  H  H37  1  0.674800  0.753300  0.990900  1.0  0.1082
  H  H38  1  0.614200  0.721800  0.083600  1.0  0.1215
  H  H39  1  0.780100  0.738900  0.101900  1.0  0.1125
  H  H40  1  0.826100  0.918200  0.097800  1.0  0.1916
  C  C41  1  0.710800  0.295000  0.979800  1.0  -0.2456
  C  C42  1  0.687400  0.298200  0.871000  1.0  -0.0334
  C  C43  1  0.740300  0.400000  0.839200  1.0  -0.0289
  C  C44  1  0.808400  0.496000  0.916000  1.0  -0.0966
  C  C45  1  0.829400  0.494500  0.023500  1.0  -0.0101
  C  C46  1  0.781600  0.393400  0.057000  1.0  -0.054
  C  C47  1  0.864800  0.605300  0.882100  1.0  0.7117
  C  C48  1  0.789200  0.020200  0.705000  1.0  -0.2475
  C  C49  1  0.812600  0.129000  0.701800  1.0  -0.0342
  C  C50  1  0.759700  0.160800  0.600000  1.0  -0.0346
  C  C51  1  0.691600  0.084000  0.504000  1.0  -0.0928
  C  C52  1  0.670600  0.976500  0.505500  1.0  -0.0141
  C  C53  1  0.718400  0.943000  0.606600  1.0  -0.0597
  C  C54  1  0.635200  0.117900  0.394700  1.0  0.7113
  C  C55  1  0.289200  0.705000  0.020200  1.0  -0.2473
  C  C56  1  0.312600  0.701800  0.129000  1.0  -0.0318
  C  C57  1  0.259700  0.600000  0.160800  1.0  -0.0281
  C  C58  1  0.191600  0.504000  0.084000  1.0  -0.0965
  C  C59  1  0.170600  0.505500  0.976500  1.0  -0.0111
  C  C60  1  0.218400  0.606600  0.943000  1.0  -0.0513
  C  C61  1  0.135200  0.394700  0.117900  1.0  0.7106
  C  C62  1  0.210800  0.979800  0.295000  1.0  -0.2499
  C  C63  1  0.187400  0.871000  0.298200  1.0  -0.0332
  C  C64  1  0.240300  0.839200  0.400000  1.0  -0.0337
  C  C65  1  0.308400  0.916000  0.496000  1.0  -0.0941
  C  C66  1  0.329400  0.023500  0.494500  1.0  -0.0128
  C  C67  1  0.281600  0.057000  0.393400  1.0  -0.0609
  C  C68  1  0.364800  0.882100  0.605300  1.0  0.7109
  C  C69  1  0.200400  0.069300  0.763700  1.0  -0.2481
  C  C70  1  0.299600  0.236300  0.930700  1.0  -0.249
  C  C71  1  0.799600  0.930700  0.236300  1.0  -0.2477
  C  C72  1  0.700400  0.763700  0.069300  1.0  -0.2492
  N  N73  1  0.250000  0.117700  0.882300  1.0  -0.049
  N  N74  1  0.750000  0.882300  0.117700  1.0  -0.0481
  O  O75  1  0.542700  0.080790  0.918010  1.0  -0.8034
  O  O76  1  0.791900  0.138880  0.078120  1.0  -0.8121
  O  O77  1  0.582500  0.179510  0.103690  1.0  -0.7992
  O  O78  1  0.864400  0.606100  0.787700  1.0  -0.5282
  O  O79  1  0.914600  0.691300  0.956900  1.0  -0.5803
  O  O80  1  0.957300  0.081990  0.919210  1.0  -0.8017
  O  O81  1  0.708100  0.921880  0.861120  1.0  -0.8135
  O  O82  1  0.917500  0.896310  0.820490  1.0  -0.7989
  O  O83  1  0.635600  0.212300  0.393900  1.0  -0.5306
  O  O84  1  0.585400  0.043100  0.308700  1.0  -0.5795
  O  O85  1  0.457300  0.919210  0.081990  1.0  -0.803
  O  O86  1  0.208100  0.861120  0.921880  1.0  -0.8125
  O  O87  1  0.417500  0.820490  0.896310  1.0  -0.7986
  O  O88  1  0.135600  0.393900  0.212300  1.0  -0.5292
  O  O89  1  0.085400  0.308700  0.043100  1.0  -0.5802
  O  O90  1  0.042700  0.918010  0.080790  1.0  -0.8029
  O  O91  1  0.291900  0.078120  0.138880  1.0  -0.8141
  O  O92  1  0.082500  0.103690  0.179510  1.0  -0.7972
  O  O93  1  0.364400  0.787700  0.606100  1.0  -0.526
  O  O94  1  0.414600  0.956900  0.691300  1.0  -0.5802
