# generated using pymatgen
data_ZnPH12C9NO5
_symmetry_space_group_name_H-M   'P 1'
_cell_length_a   10.53400000
_cell_length_b   13.26640000
_cell_length_c   13.26640000
_cell_angle_alpha   92.35470000
_cell_angle_beta   113.00000000
_cell_angle_gamma   113.00000000
_symmetry_Int_Tables_number   1
_chemical_formula_structural   ZnPH12C9NO5
_chemical_formula_sum   'Zn4 P4 H48 C36 N4 O20'
_cell_volume   1529.28937736
_cell_formula_units_Z   4
loop_
 _symmetry_equiv_pos_site_id
 _symmetry_equiv_pos_as_xyz
  1  'x, y, z'
loop_
 _atom_site_type_symbol
 _atom_site_label
 _atom_site_symmetry_multiplicity
 _atom_site_fract_x
 _atom_site_fract_y
 _atom_site_fract_z
 _atom_site_occupancy
 _atom_site_charge
  Zn  Zn1  1  0.993050  0.158540  0.056080  1.0  1.0236
  Zn  Zn2  1  0.506950  0.943920  0.841460  1.0  1.0257
  Zn  Zn3  1  0.006950  0.841460  0.943920  1.0  1.025
  Zn  Zn4  1  0.493050  0.056080  0.158540  1.0  1.0233
  P  P5  1  0.803950  0.956570  0.829910  1.0  1.54
  P  P6  1  0.696050  0.170090  0.043430  1.0  1.5383
  P  P7  1  0.196050  0.043430  0.170090  1.0  1.5359
  P  P8  1  0.303950  0.829910  0.956570  1.0  1.5395
  H  H9  1  0.834300  0.161800  0.764600  1.0  0.0959
  H  H10  1  0.773800  0.217100  0.598500  1.0  0.1056
  H  H11  1  0.604300  0.904100  0.432300  1.0  0.1037
  H  H12  1  0.662900  0.847600  0.598200  1.0  0.1063
  H  H13  1  0.665700  0.235400  0.838200  1.0  0.0964
  H  H14  1  0.726200  0.401500  0.782900  1.0  0.1064
  H  H15  1  0.895700  0.567700  0.095900  1.0  0.1038
  H  H16  1  0.837100  0.401800  0.152400  1.0  0.1051
  H  H17  1  0.165700  0.838200  0.235400  1.0  0.0963
  H  H18  1  0.226200  0.782900  0.401500  1.0  0.1062
  H  H19  1  0.395700  0.095900  0.567700  1.0  0.1042
  H  H20  1  0.337100  0.152400  0.401800  1.0  0.1061
  H  H21  1  0.334300  0.764600  0.161800  1.0  0.0962
  H  H22  1  0.273800  0.598500  0.217100  1.0  0.1068
  H  H23  1  0.104300  0.432300  0.904100  1.0  0.1039
  H  H24  1  0.162900  0.598200  0.847600  1.0  0.106
  H  H25  1  0.999800  0.214100  0.259700  1.0  0.1578
  H  H26  1  0.141800  0.264100  0.363300  1.0  0.188
  H  H27  1  0.027500  0.375400  0.337600  1.0  0.0866
  H  H28  1  0.882600  0.276500  0.335900  1.0  0.0983
  H  H29  1  0.036900  0.331500  0.446900  1.0  0.0959
  H  H30  1  0.025300  0.080000  0.348800  1.0  0.1043
  H  H31  1  0.033600  0.146100  0.453700  1.0  0.0959
  H  H32  1  0.880300  0.092400  0.342000  1.0  0.101
  H  H33  1  0.500200  0.740300  0.785900  1.0  0.1582
  H  H34  1  0.358200  0.636700  0.735900  1.0  0.1906
  H  H35  1  0.472500  0.662400  0.624600  1.0  0.082
  H  H36  1  0.617400  0.664100  0.723500  1.0  0.1018
  H  H37  1  0.463100  0.553100  0.668500  1.0  0.0923
  H  H38  1  0.474700  0.651200  0.920000  1.0  0.1021
  H  H39  1  0.466400  0.546300  0.853900  1.0  0.0916
  H  H40  1  0.619700  0.658000  0.907600  1.0  0.1035
  H  H41  1  0.000200  0.785900  0.740300  1.0  0.1538
  H  H42  1  0.858200  0.735900  0.636700  1.0  0.1957
  H  H43  1  0.972500  0.624600  0.662400  1.0  0.0863
  H  H44  1  0.117400  0.723500  0.664100  1.0  0.1006
  H  H45  1  0.963100  0.668500  0.553100  1.0  0.0949
  H  H46  1  0.974700  0.920000  0.651200  1.0  0.1033
  H  H47  1  0.966400  0.853900  0.546300  1.0  0.0948
  H  H48  1  0.119700  0.907600  0.658000  1.0  0.102
  H  H49  1  0.499800  0.259700  0.214100  1.0  0.1599
  H  H50  1  0.641800  0.363300  0.264100  1.0  0.182
  H  H51  1  0.527500  0.337600  0.375400  1.0  0.0826
  H  H52  1  0.382600  0.335900  0.276500  1.0  0.0991
  H  H53  1  0.536900  0.446900  0.331500  1.0  0.0929
  H  H54  1  0.525300  0.348800  0.080000  1.0  0.1032
  H  H55  1  0.533600  0.453700  0.146100  1.0  0.0918
  H  H56  1  0.380300  0.342000  0.092400  1.0  0.102
  C  C57  1  0.755900  0.998420  0.698780  1.0  -0.17
  C  C58  1  0.787900  0.109200  0.697400  1.0  -0.0553
  C  C59  1  0.752300  0.142100  0.598300  1.0  -0.0613
  C  C60  1  0.685200  0.066230  0.498570  1.0  -0.1018
  C  C61  1  0.651700  0.956800  0.499800  1.0  -0.0497
  C  C62  1  0.686700  0.922900  0.598900  1.0  -0.0801
  C  C63  1  0.644300  0.102600  0.390600  1.0  0.6787
  C  C64  1  0.744100  0.301220  0.001580  1.0  -0.17
  C  C65  1  0.712100  0.302600  0.890800  1.0  -0.0523
  C  C66  1  0.747700  0.401700  0.857900  1.0  -0.0576
  C  C67  1  0.814800  0.501430  0.933770  1.0  -0.1022
  C  C68  1  0.848300  0.500200  0.043200  1.0  -0.0471
  C  C69  1  0.813300  0.401100  0.077100  1.0  -0.0798
  C  C70  1  0.855700  0.609400  0.897400  1.0  0.6807
  C  C71  1  0.244100  0.001580  0.301220  1.0  -0.1717
  C  C72  1  0.212100  0.890800  0.302600  1.0  -0.0549
  C  C73  1  0.247700  0.857900  0.401700  1.0  -0.0624
  C  C74  1  0.314800  0.933770  0.501430  1.0  -0.1015
  C  C75  1  0.348300  0.043200  0.500200  1.0  -0.0492
  C  C76  1  0.313300  0.077100  0.401100  1.0  -0.079
  C  C77  1  0.355700  0.897400  0.609400  1.0  0.6793
  C  C78  1  0.255900  0.698780  0.998420  1.0  -0.1711
  C  C79  1  0.287900  0.697400  0.109200  1.0  -0.0549
  C  C80  1  0.252300  0.598300  0.142100  1.0  -0.0584
  C  C81  1  0.185200  0.498570  0.066230  1.0  -0.1013
  C  C82  1  0.151700  0.499800  0.956800  1.0  -0.0485
  C  C83  1  0.186700  0.598900  0.922900  1.0  -0.0794
  C  C84  1  0.144300  0.390600  0.102600  1.0  0.6796
  C  C85  1  0.992700  0.310000  0.366400  1.0  -0.1777
  C  C86  1  0.990400  0.128900  0.373100  1.0  -0.1967
  C  C87  1  0.507300  0.633600  0.690000  1.0  -0.1777
  C  C88  1  0.509600  0.626900  0.871100  1.0  -0.1966
  C  C89  1  0.007300  0.690000  0.633600  1.0  -0.1773
  C  C90  1  0.009600  0.871100  0.626900  1.0  -0.1967
  C  C91  1  0.492700  0.366400  0.310000  1.0  -0.1785
  C  C92  1  0.490400  0.373100  0.128900  1.0  -0.1965
  N  N93  1  0.038600  0.231400  0.335200  1.0  -0.0602
  N  N94  1  0.461400  0.664800  0.768600  1.0  -0.0591
  N  N95  1  0.961400  0.768600  0.664800  1.0  -0.0583
  N  N96  1  0.538600  0.335200  0.231400  1.0  -0.0581
  O  O97  1  0.916100  0.062270  0.917010  1.0  -0.8853
  O  O98  1  0.658300  0.896450  0.842850  1.0  -0.7712
  O  O99  1  0.870600  0.876610  0.822190  1.0  -0.8172
  O  O100  1  0.663100  0.199560  0.388720  1.0  -0.5604
  O  O101  1  0.590500  0.028210  0.304630  1.0  -0.5937
  O  O102  1  0.583900  0.082990  0.937730  1.0  -0.8841
  O  O103  1  0.841700  0.157150  0.103550  1.0  -0.7737
  O  O104  1  0.629400  0.177810  0.123390  1.0  -0.8175
  O  O105  1  0.836900  0.611280  0.800440  1.0  -0.5623
  O  O106  1  0.909500  0.695370  0.971790  1.0  -0.5968
  O  O107  1  0.083900  0.937730  0.082990  1.0  -0.8841
  O  O108  1  0.341700  0.103550  0.157150  1.0  -0.7675
  O  O109  1  0.129400  0.123390  0.177810  1.0  -0.8157
  O  O110  1  0.336900  0.800440  0.611280  1.0  -0.5612
  O  O111  1  0.409500  0.971790  0.695370  1.0  -0.5943
  O  O112  1  0.416100  0.917010  0.062270  1.0  -0.8863
  O  O113  1  0.158300  0.842850  0.896450  1.0  -0.7747
  O  O114  1  0.370600  0.822190  0.876610  1.0  -0.8177
  O  O115  1  0.163100  0.388720  0.199560  1.0  -0.5616
  O  O116  1  0.090500  0.304630  0.028210  1.0  -0.5954
