# generated using pymatgen
data_ZnH17C18N5O4
_symmetry_space_group_name_H-M   'P 1'
_cell_length_a   9.26700000
_cell_length_b   13.25700000
_cell_length_c   16.32400000
_cell_angle_alpha   90.00000000
_cell_angle_beta   94.97500000
_cell_angle_gamma   90.00000000
_symmetry_Int_Tables_number   1
_chemical_formula_structural   ZnH17C18N5O4
_chemical_formula_sum   'Zn4 H68 C72 N20 O16'
_cell_volume   1997.89089915
_cell_formula_units_Z   4
loop_
 _symmetry_equiv_pos_site_id
 _symmetry_equiv_pos_as_xyz
  1  'x, y, z'
loop_
 _atom_site_type_symbol
 _atom_site_label
 _atom_site_symmetry_multiplicity
 _atom_site_fract_x
 _atom_site_fract_y
 _atom_site_fract_z
 _atom_site_occupancy
 _atom_site_charge
  Zn  Zn1  1  0.730900  0.155230  0.816760  1.0  0.8931
  Zn  Zn2  1  0.769100  0.655230  0.683240  1.0  0.8929
  Zn  Zn3  1  0.269100  0.844770  0.183240  1.0  0.8925
  Zn  Zn4  1  0.230900  0.344770  0.316760  1.0  0.8929
  H  H5  1  0.998400  0.197400  0.044100  1.0  0.0971
  H  H6  1  0.254000  0.025500  0.918500  1.0  0.1059
  H  H7  1  0.400800  0.134600  0.139800  1.0  0.1103
  H  H8  1  0.284200  0.324000  0.904100  1.0  0.1285
  H  H9  1  0.681300  0.247200  0.987500  1.0  0.1117
  H  H10  1  0.387800  0.222700  0.807400  1.0  0.1017
  H  H11  1  0.359800  0.376100  0.048000  1.0  0.0861
  H  H12  1  0.504400  0.333100  0.091500  1.0  0.0985
  H  H13  1  0.636300  0.460800  0.026900  1.0  0.0676
  H  H14  1  0.528700  0.507700  0.085400  1.0  0.0847
  H  H15  1  0.778000  0.891200  0.607500  1.0  0.1034
  H  H16  1  0.493000  0.829900  0.586000  1.0  0.0864
  H  H17  1  0.387400  0.919000  0.601800  1.0  0.0759
  H  H18  1  0.477700  0.024100  0.725200  1.0  0.1108
  H  H19  1  0.888800  0.989900  0.719000  1.0  0.0912
  H  H20  1  0.431100  0.916000  0.463700  1.0  0.0816
  H  H21  1  0.598100  0.923500  0.487100  1.0  0.074
  H  H22  1  0.501600  0.697400  0.455900  1.0  0.0971
  H  H23  1  0.246000  0.525500  0.581500  1.0  0.1053
  H  H24  1  0.099200  0.634600  0.360200  1.0  0.1105
  H  H25  1  0.215800  0.824000  0.595900  1.0  0.1288
  H  H26  1  0.818700  0.747200  0.512500  1.0  0.1108
  H  H27  1  0.112200  0.722700  0.692600  1.0  0.1019
  H  H28  1  0.140200  0.876100  0.452000  1.0  0.0879
  H  H29  1  0.995600  0.833100  0.408500  1.0  0.1014
  H  H30  1  0.863700  0.960800  0.473100  1.0  0.0681
  H  H31  1  0.971300  0.007700  0.414600  1.0  0.0841
  H  H32  1  0.722000  0.391200  0.892500  1.0  0.1029
  H  H33  1  0.007000  0.329900  0.914000  1.0  0.0876
  H  H34  1  0.112600  0.419000  0.898200  1.0  0.0768
  H  H35  1  0.022300  0.524100  0.774800  1.0  0.11
  H  H36  1  0.611200  0.489900  0.781000  1.0  0.0921
  H  H37  1  0.068900  0.416000  0.036300  1.0  0.0817
  H  H38  1  0.901900  0.423500  0.012900  1.0  0.0743
  H  H39  1  0.001600  0.802600  0.955900  1.0  0.0969
  H  H40  1  0.746000  0.974500  0.081500  1.0  0.1054
  H  H41  1  0.599200  0.865400  0.860200  1.0  0.1106
  H  H42  1  0.715800  0.676000  0.095900  1.0  0.1285
  H  H43  1  0.318700  0.752800  0.012500  1.0  0.1113
  H  H44  1  0.612200  0.777300  0.192600  1.0  0.1016
  H  H45  1  0.640200  0.623900  0.952000  1.0  0.088
  H  H46  1  0.495600  0.666900  0.908500  1.0  0.1014
  H  H47  1  0.363700  0.539200  0.973100  1.0  0.0687
  H  H48  1  0.471300  0.492300  0.914600  1.0  0.0844
  H  H49  1  0.222000  0.108800  0.392500  1.0  0.1039
  H  H50  1  0.507000  0.170100  0.414000  1.0  0.0863
  H  H51  1  0.612600  0.081000  0.398200  1.0  0.0768
  H  H52  1  0.522300  0.975900  0.274800  1.0  0.1098
  H  H53  1  0.111200  0.010100  0.281000  1.0  0.0919
  H  H54  1  0.568900  0.084000  0.536300  1.0  0.0809
  H  H55  1  0.401900  0.076500  0.512900  1.0  0.0742
  H  H56  1  0.498400  0.302600  0.544100  1.0  0.097
  H  H57  1  0.754000  0.474500  0.418500  1.0  0.106
  H  H58  1  0.900800  0.365400  0.639800  1.0  0.1104
  H  H59  1  0.784200  0.176000  0.404100  1.0  0.1289
  H  H60  1  0.181300  0.252800  0.487500  1.0  0.1113
  H  H61  1  0.887800  0.277300  0.307400  1.0  0.1016
  H  H62  1  0.859800  0.123900  0.548000  1.0  0.086
  H  H63  1  0.004400  0.166900  0.591500  1.0  0.0988
  H  H64  1  0.136300  0.039200  0.526900  1.0  0.0675
  H  H65  1  0.028700  0.992300  0.585400  1.0  0.0846
  H  H66  1  0.278000  0.608800  0.107500  1.0  0.1033
  H  H67  1  0.993000  0.670100  0.086000  1.0  0.0852
  H  H68  1  0.887400  0.581000  0.101800  1.0  0.076
  H  H69  1  0.977700  0.475900  0.225200  1.0  0.1108
  H  H70  1  0.388800  0.510100  0.219000  1.0  0.0914
  H  H71  1  0.931100  0.584000  0.963700  1.0  0.0822
  H  H72  1  0.098100  0.576500  0.987100  1.0  0.075
  C  C73  1  0.087500  0.166400  0.039900  1.0  -0.0002
  C  C74  1  0.110600  0.111200  0.970300  1.0  -0.1481
  C  C75  1  0.173900  0.237300  0.177300  1.0  0.6648
  C  C76  1  0.997600  0.107100  0.899000  1.0  0.6748
  C  C77  1  0.196000  0.175800  0.103500  1.0  -0.1415
  C  C78  1  0.239200  0.063600  0.964900  1.0  -0.063
  C  C79  1  0.327300  0.128400  0.097600  1.0  -0.1055
  C  C80  1  0.349200  0.071500  0.028600  1.0  0.1403
  C  C81  1  0.376500  0.295900  0.908600  1.0  -0.1564
  C  C82  1  0.595800  0.252700  0.953500  1.0  0.1342
  C  C83  1  0.435600  0.241000  0.857600  1.0  0.0812
  C  C84  1  0.462300  0.366800  0.042400  1.0  -0.0482
  C  C85  1  0.534700  0.470400  0.034700  1.0  -0.1619
  C  C86  1  0.731400  0.929900  0.644800  1.0  -0.1413
  C  C87  1  0.483900  0.902700  0.587100  1.0  -0.0201
  C  C88  1  0.568100  0.003400  0.710800  1.0  0.138
  C  C89  1  0.789300  0.984000  0.706700  1.0  0.0706
  C  C90  1  0.504300  0.944800  0.502900  1.0  -0.1644
  C  C91  1  0.412500  0.666400  0.460100  1.0  -0.0015
  C  C92  1  0.389400  0.611200  0.529700  1.0  -0.1473
  C  C93  1  0.326100  0.737300  0.322700  1.0  0.6648
  C  C94  1  0.502400  0.607100  0.601000  1.0  0.6738
  C  C95  1  0.304000  0.675800  0.396500  1.0  -0.1408
  C  C96  1  0.260800  0.563600  0.535100  1.0  -0.0632
  C  C97  1  0.172700  0.628400  0.402400  1.0  -0.1045
  C  C98  1  0.150800  0.571500  0.471400  1.0  0.1405
  C  C99  1  0.123500  0.795900  0.591400  1.0  -0.1561
  C  C100  1  0.904200  0.752700  0.546500  1.0  0.1353
  C  C101  1  0.064400  0.741000  0.642400  1.0  0.0813
  C  C102  1  0.037700  0.866800  0.457600  1.0  -0.0501
  C  C103  1  0.965300  0.970400  0.465300  1.0  -0.1616
  C  C104  1  0.768600  0.429900  0.855200  1.0  -0.1427
  C  C105  1  0.016100  0.402700  0.912900  1.0  -0.0203
  C  C106  1  0.931900  0.503400  0.789200  1.0  0.1375
  C  C107  1  0.710700  0.484000  0.793300  1.0  0.0706
  C  C108  1  0.995700  0.444800  0.997100  1.0  -0.1649
  C  C109  1  0.912500  0.833600  0.960100  1.0  -0.0013
  C  C110  1  0.889400  0.888800  0.029700  1.0  -0.1481
  C  C111  1  0.826100  0.762700  0.822700  1.0  0.6645
  C  C112  1  0.002400  0.892900  0.101000  1.0  0.6737
  C  C113  1  0.804000  0.824200  0.896500  1.0  -0.1404
  C  C114  1  0.760800  0.936400  0.035100  1.0  -0.0639
  C  C115  1  0.672700  0.871600  0.902400  1.0  -0.1049
  C  C116  1  0.650800  0.928500  0.971400  1.0  0.1413
  C  C117  1  0.623500  0.704100  0.091400  1.0  -0.156
  C  C118  1  0.404200  0.747300  0.046500  1.0  0.1358
  C  C119  1  0.564400  0.759000  0.142400  1.0  0.0812
  C  C120  1  0.537700  0.633200  0.957600  1.0  -0.0494
  C  C121  1  0.465300  0.529600  0.965300  1.0  -0.1608
  C  C122  1  0.268600  0.070100  0.355200  1.0  -0.1433
  C  C123  1  0.516100  0.097300  0.412900  1.0  -0.0202
  C  C124  1  0.431900  0.996600  0.289200  1.0  0.1378
  C  C125  1  0.210700  0.016000  0.293300  1.0  0.0706
  C  C126  1  0.495700  0.055200  0.497100  1.0  -0.1654
  C  C127  1  0.587500  0.333600  0.539900  1.0  -0.0009
  C  C128  1  0.610600  0.388800  0.470300  1.0  -0.1478
  C  C129  1  0.673900  0.262700  0.677300  1.0  0.6644
  C  C130  1  0.497600  0.392900  0.399000  1.0  0.6751
  C  C131  1  0.696000  0.324200  0.603500  1.0  -0.141
  C  C132  1  0.739200  0.436400  0.464900  1.0  -0.0635
  C  C133  1  0.827300  0.371600  0.597600  1.0  -0.1061
  C  C134  1  0.849200  0.428500  0.528600  1.0  0.1406
  C  C135  1  0.876500  0.204100  0.408600  1.0  -0.1565
  C  C136  1  0.095800  0.247300  0.453500  1.0  0.1347
  C  C137  1  0.935600  0.259000  0.357600  1.0  0.0817
  C  C138  1  0.962300  0.133200  0.542400  1.0  -0.0483
  C  C139  1  0.034700  0.029600  0.534700  1.0  -0.1622
  C  C140  1  0.231400  0.570100  0.144800  1.0  -0.1408
  C  C141  1  0.983900  0.597300  0.087100  1.0  -0.0216
  C  C142  1  0.068100  0.496600  0.210800  1.0  0.1382
  C  C143  1  0.289300  0.516000  0.206700  1.0  0.0705
  C  C144  1  0.004300  0.555200  0.002900  1.0  -0.1642
  N  N145  1  0.480500  0.303400  0.970900  1.0  0.058
  N  N146  1  0.571400  0.210800  0.880300  1.0  -0.3876
  N  N147  1  0.488400  0.025500  0.030500  1.0  -0.1678
  N  N148  1  0.693700  0.029400  0.749900  1.0  -0.3795
  N  N149  1  0.590500  0.943900  0.648400  1.0  0.0693
  N  N150  1  0.019500  0.803400  0.529100  1.0  0.0572
  N  N151  1  0.928600  0.710800  0.619700  1.0  -0.3882
  N  N152  1  0.011600  0.525500  0.469500  1.0  -0.1687
  N  N153  1  0.806300  0.529400  0.750100  1.0  -0.3791
  N  N154  1  0.909500  0.443900  0.851600  1.0  0.0675
  N  N155  1  0.519500  0.696600  0.029100  1.0  0.0563
  N  N156  1  0.428600  0.789200  0.119700  1.0  -0.3894
  N  N157  1  0.511600  0.974500  0.969500  1.0  -0.169
  N  N158  1  0.306300  0.970600  0.250100  1.0  -0.3796
  N  N159  1  0.409500  0.056100  0.351600  1.0  0.0688
  N  N160  1  0.980500  0.196600  0.470900  1.0  0.0572
  N  N161  1  0.071400  0.289200  0.380300  1.0  -0.3894
  N  N162  1  0.988400  0.474500  0.530500  1.0  -0.1676
  N  N163  1  0.193700  0.470600  0.249900  1.0  -0.3787
  N  N164  1  0.090500  0.556100  0.148400  1.0  0.0696
  O  O165  1  0.878600  0.152500  0.908900  1.0  -0.6393
  O  O166  1  0.282500  0.252300  0.228400  1.0  -0.6183
  O  O167  1  0.051900  0.272800  0.186300  1.0  -0.6126
  O  O168  1  0.022000  0.064700  0.836200  1.0  -0.5828
  O  O169  1  0.621400  0.652500  0.591100  1.0  -0.6392
  O  O170  1  0.217500  0.752300  0.271600  1.0  -0.6185
  O  O171  1  0.448100  0.772800  0.313700  1.0  -0.6122
  O  O172  1  0.478000  0.564700  0.663800  1.0  -0.5836
  O  O173  1  0.121400  0.847500  0.091100  1.0  -0.6396
  O  O174  1  0.717500  0.747700  0.771600  1.0  -0.6174
  O  O175  1  0.948100  0.727200  0.813700  1.0  -0.6124
  O  O176  1  0.978000  0.935300  0.163800  1.0  -0.5837
  O  O177  1  0.378600  0.347500  0.408900  1.0  -0.6394
  O  O178  1  0.782500  0.247700  0.728400  1.0  -0.617
  O  O179  1  0.551900  0.227200  0.686300  1.0  -0.6128
  O  O180  1  0.522000  0.435300  0.336200  1.0  -0.5824
