# generated using pymatgen
data_CuH32(C5N3)4
_symmetry_space_group_name_H-M   'P 1'
_cell_length_a   11.53590000
_cell_length_b   15.09480000
_cell_length_c   22.68170000
_cell_angle_alpha   90.00000000
_cell_angle_beta   91.48300000
_cell_angle_gamma   90.00000000
_symmetry_Int_Tables_number   1
_chemical_formula_structural   CuH32(C5N3)4
_chemical_formula_sum   'Cu4 H128 C80 N48'
_cell_volume   3948.28919672
_cell_formula_units_Z   4
loop_
 _symmetry_equiv_pos_site_id
 _symmetry_equiv_pos_as_xyz
  1  'x, y, z'
loop_
 _atom_site_type_symbol
 _atom_site_label
 _atom_site_symmetry_multiplicity
 _atom_site_fract_x
 _atom_site_fract_y
 _atom_site_fract_z
 _atom_site_occupancy
 _atom_site_charge
  Cu  Cu1  1  0.884100  0.721400  0.727860  1.0  0.4247
  Cu  Cu2  1  0.615900  0.221400  0.772140  1.0  0.4252
  Cu  Cu3  1  0.115900  0.278600  0.272140  1.0  0.4253
  Cu  Cu4  1  0.384100  0.778600  0.227860  1.0  0.4248
  H  H5  1  0.041500  0.662500  0.843000  1.0  0.0813
  H  H6  1  0.042100  0.575800  0.685700  1.0  0.059
  H  H7  1  0.234400  0.468700  0.699500  1.0  0.0882
  H  H8  1  0.277600  0.458200  0.764900  1.0  0.0516
  H  H9  1  0.116000  0.368800  0.776800  1.0  0.0541
  H  H10  1  0.218000  0.330300  0.739200  1.0  0.0506
  H  H11  1  0.011600  0.405100  0.698700  1.0  0.0478
  H  H12  1  0.120000  0.412500  0.658800  1.0  0.0496
  H  H13  1  0.129900  0.257700  0.654000  1.0  0.0321
  H  H14  1  0.018200  0.251500  0.692500  1.0  0.0469
  H  H15  1  0.029100  0.325100  0.577500  1.0  0.0542
  H  H16  1  0.923600  0.347900  0.618000  1.0  0.0489
  H  H17  1  0.993900  0.168900  0.592500  1.0  0.0921
  H  H18  1  0.886900  0.212700  0.560500  1.0  0.1047
  H  H19  1  0.740500  0.888200  0.769000  1.0  0.0728
  H  H20  1  0.712400  0.775000  0.621100  1.0  0.0396
  H  H21  1  0.492200  0.942000  0.613500  1.0  0.0604
  H  H22  1  0.519900  0.853100  0.581000  1.0  0.0677
  H  H23  1  0.685300  0.921500  0.543900  1.0  0.0564
  H  H24  1  0.643700  0.010400  0.571400  1.0  0.0619
  H  H25  1  0.597000  0.016600  0.469600  1.0  0.0389
  H  H26  1  0.531900  0.925200  0.471800  1.0  0.0427
  H  H27  1  0.157100  0.978600  0.631100  1.0  0.079
  H  H28  1  0.242800  0.925000  0.593600  1.0  0.0615
  H  H29  1  0.134100  0.048000  0.557000  1.0  0.0484
  H  H30  1  0.178500  0.971900  0.516800  1.0  0.0653
  H  H31  1  0.951000  0.985200  0.554700  1.0  0.0418
  H  H32  1  0.996300  0.909700  0.513200  1.0  0.0477
  H  H33  1  0.803800  0.064300  0.753100  1.0  0.0805
  H  H34  1  0.721900  0.260000  0.648500  1.0  0.0917
  H  H35  1  0.068100  0.870100  0.706600  1.0  0.0998
  H  H36  1  0.957000  0.689600  0.594400  1.0  0.084
  H  H37  1  0.458500  0.162500  0.657000  1.0  0.0808
  H  H38  1  0.457900  0.075800  0.814300  1.0  0.0578
  H  H39  1  0.265600  0.968700  0.800500  1.0  0.0885
  H  H40  1  0.222400  0.958200  0.735100  1.0  0.0496
  H  H41  1  0.384000  0.868800  0.723200  1.0  0.0545
  H  H42  1  0.282000  0.830300  0.760800  1.0  0.0497
  H  H43  1  0.488400  0.905100  0.801300  1.0  0.0486
  H  H44  1  0.380000  0.912500  0.841200  1.0  0.0494
  H  H45  1  0.370100  0.757700  0.846000  1.0  0.0292
  H  H46  1  0.481800  0.751500  0.807500  1.0  0.0464
  H  H47  1  0.470900  0.825100  0.922500  1.0  0.0535
  H  H48  1  0.576400  0.847900  0.882000  1.0  0.0508
  H  H49  1  0.506100  0.668900  0.907500  1.0  0.0921
  H  H50  1  0.613100  0.712700  0.939500  1.0  0.1061
  H  H51  1  0.759500  0.388200  0.731000  1.0  0.073
  H  H52  1  0.787600  0.275000  0.878900  1.0  0.0406
  H  H53  1  0.007800  0.442000  0.886500  1.0  0.0598
  H  H54  1  0.980100  0.353100  0.919000  1.0  0.0687
  H  H55  1  0.814700  0.421500  0.956100  1.0  0.0565
  H  H56  1  0.856300  0.510400  0.928600  1.0  0.0624
  H  H57  1  0.903000  0.516600  0.030400  1.0  0.0397
  H  H58  1  0.968100  0.425200  0.028200  1.0  0.0433
  H  H59  1  0.342900  0.478600  0.868900  1.0  0.0778
  H  H60  1  0.257200  0.425000  0.906400  1.0  0.0654
  H  H61  1  0.365900  0.548000  0.943000  1.0  0.0495
  H  H62  1  0.321500  0.471900  0.983200  1.0  0.0652
  H  H63  1  0.549000  0.485200  0.945300  1.0  0.0426
  H  H64  1  0.503700  0.409700  0.986800  1.0  0.0473
  H  H65  1  0.696200  0.564300  0.746900  1.0  0.08
  H  H66  1  0.778100  0.760000  0.851500  1.0  0.0917
  H  H67  1  0.431900  0.370100  0.793400  1.0  0.1002
  H  H68  1  0.543000  0.189600  0.905600  1.0  0.0849
  H  H69  1  0.958500  0.337500  0.157000  1.0  0.0805
  H  H70  1  0.957900  0.424200  0.314300  1.0  0.0584
  H  H71  1  0.765600  0.531300  0.300500  1.0  0.0898
  H  H72  1  0.722400  0.541800  0.235100  1.0  0.05
  H  H73  1  0.884000  0.631200  0.223200  1.0  0.0543
  H  H74  1  0.782000  0.669700  0.260800  1.0  0.0496
  H  H75  1  0.988400  0.594900  0.301300  1.0  0.0482
  H  H76  1  0.880000  0.587500  0.341200  1.0  0.0499
  H  H77  1  0.870100  0.742300  0.346000  1.0  0.0294
  H  H78  1  0.981800  0.748500  0.307500  1.0  0.0481
  H  H79  1  0.970900  0.674900  0.422500  1.0  0.0538
  H  H80  1  0.076400  0.652100  0.382000  1.0  0.0508
  H  H81  1  0.006100  0.831100  0.407500  1.0  0.0925
  H  H82  1  0.113100  0.787300  0.439500  1.0  0.1059
  H  H83  1  0.259500  0.111800  0.231000  1.0  0.073
  H  H84  1  0.287600  0.225000  0.378900  1.0  0.0394
  H  H85  1  0.507800  0.058000  0.386500  1.0  0.0605
  H  H86  1  0.480100  0.146900  0.419000  1.0  0.0681
  H  H87  1  0.314700  0.078500  0.456100  1.0  0.0568
  H  H88  1  0.356300  0.989600  0.428600  1.0  0.0599
  H  H89  1  0.403000  0.983400  0.530400  1.0  0.0391
  H  H90  1  0.468100  0.074800  0.528200  1.0  0.0442
  H  H91  1  0.842900  0.021400  0.368900  1.0  0.0774
  H  H92  1  0.757200  0.075000  0.406400  1.0  0.0652
  H  H93  1  0.865900  0.952000  0.443000  1.0  0.0486
  H  H94  1  0.821500  0.028100  0.483200  1.0  0.0651
  H  H95  1  0.049000  0.014800  0.445300  1.0  0.0424
  H  H96  1  0.003700  0.090300  0.486800  1.0  0.0487
  H  H97  1  0.196200  0.935700  0.246900  1.0  0.0803
  H  H98  1  0.278100  0.740000  0.351500  1.0  0.0922
  H  H99  1  0.931900  0.129900  0.293400  1.0  0.1005
  H  H100  1  0.043000  0.310400  0.405600  1.0  0.0854
  H  H101  1  0.541500  0.837500  0.343000  1.0  0.0812
  H  H102  1  0.542100  0.924200  0.185700  1.0  0.0587
  H  H103  1  0.734400  0.031300  0.199500  1.0  0.0885
  H  H104  1  0.777600  0.041800  0.264900  1.0  0.0506
  H  H105  1  0.616000  0.131200  0.276800  1.0  0.0532
  H  H106  1  0.718000  0.169700  0.239200  1.0  0.05
  H  H107  1  0.511600  0.094900  0.198700  1.0  0.0482
  H  H108  1  0.620000  0.087500  0.158800  1.0  0.0477
  H  H109  1  0.629900  0.242300  0.154000  1.0  0.0322
  H  H110  1  0.518200  0.248500  0.192500  1.0  0.0471
  H  H111  1  0.529100  0.174900  0.077500  1.0  0.0536
  H  H112  1  0.423600  0.152100  0.118000  1.0  0.0498
  H  H113  1  0.493900  0.331100  0.092500  1.0  0.092
  H  H114  1  0.386900  0.287300  0.060500  1.0  0.1045
  H  H115  1  0.240500  0.611800  0.269000  1.0  0.0726
  H  H116  1  0.212400  0.725000  0.121100  1.0  0.0406
  H  H117  1  0.992200  0.558000  0.113500  1.0  0.0605
  H  H118  1  0.019900  0.646900  0.081000  1.0  0.0692
  H  H119  1  0.185300  0.578500  0.043900  1.0  0.0574
  H  H120  1  0.143700  0.489600  0.071400  1.0  0.0607
  H  H121  1  0.097000  0.483400  0.969600  1.0  0.0376
  H  H122  1  0.031900  0.574800  0.971800  1.0  0.0445
  H  H123  1  0.657100  0.521400  0.131100  1.0  0.0796
  H  H124  1  0.742800  0.575000  0.093600  1.0  0.0618
  H  H125  1  0.634100  0.452000  0.057000  1.0  0.049
  H  H126  1  0.678500  0.528100  0.016800  1.0  0.0655
  H  H127  1  0.451000  0.514800  0.054700  1.0  0.0417
  H  H128  1  0.496300  0.590300  0.013200  1.0  0.0488
  H  H129  1  0.303800  0.435700  0.253100  1.0  0.0807
  H  H130  1  0.221900  0.240000  0.148500  1.0  0.0919
  H  H131  1  0.568100  0.629900  0.206600  1.0  0.1003
  H  H132  1  0.457000  0.810400  0.094400  1.0  0.085
  C  C133  1  0.057000  0.628000  0.810000  1.0  0.1273
  C  C134  1  0.057000  0.584000  0.726000  1.0  0.1689
  C  C135  1  0.209000  0.459000  0.739300  1.0  0.0073
  C  C136  1  0.160000  0.377000  0.741300  1.0  -0.1447
  C  C137  1  0.084000  0.377000  0.689000  1.0  -0.1642
  C  C138  1  0.059000  0.288000  0.664300  1.0  -0.1511
  C  C139  1  0.984000  0.305000  0.610200  1.0  -0.1706
  C  C140  1  0.930000  0.210000  0.597600  1.0  -0.1184
  C  C141  1  0.719000  0.875000  0.730300  1.0  0.2304
  C  C142  1  0.704000  0.815000  0.652100  1.0  0.1276
  C  C143  1  0.554000  0.906000  0.598900  1.0  -0.0054
  C  C144  1  0.617000  0.955000  0.553700  1.0  -0.1513
  C  C145  1  0.549000  0.979000  0.493700  1.0  -0.1334
  C  C146  1  0.161000  0.937000  0.599000  1.0  -0.1045
  C  C147  1  0.126000  0.985000  0.548000  1.0  -0.213
  C  C148  1  0.007000  0.971000  0.525000  1.0  -0.1225
  C  C149  1  0.804000  0.104400  0.722000  1.0  0.2444
  C  C150  1  0.760000  0.211100  0.665000  1.0  0.0793
  C  C151  1  0.057000  0.837000  0.672400  1.0  0.0913
  C  C152  1  0.996000  0.737700  0.610800  1.0  0.2125
  C  C153  1  0.443000  0.128000  0.690000  1.0  0.1274
  C  C154  1  0.443000  0.084000  0.774000  1.0  0.1706
  C  C155  1  0.291000  0.959000  0.760700  1.0  0.0066
  C  C156  1  0.340000  0.877000  0.758700  1.0  -0.1442
  C  C157  1  0.416000  0.877000  0.811000  1.0  -0.1662
  C  C158  1  0.441000  0.788000  0.835700  1.0  -0.1498
  C  C159  1  0.516000  0.805000  0.889800  1.0  -0.1714
  C  C160  1  0.570000  0.710000  0.902400  1.0  -0.1196
  C  C161  1  0.781000  0.375000  0.769700  1.0  0.2308
  C  C162  1  0.796000  0.315000  0.847900  1.0  0.1271
  C  C163  1  0.946000  0.406000  0.901100  1.0  -0.0033
  C  C164  1  0.883000  0.455000  0.946300  1.0  -0.1532
  C  C165  1  0.951000  0.479000  0.006300  1.0  -0.1357
  C  C166  1  0.339000  0.437000  0.901000  1.0  -0.1056
  C  C167  1  0.374000  0.485000  0.952000  1.0  -0.2117
  C  C168  1  0.493000  0.471000  0.975000  1.0  -0.1213
  C  C169  1  0.696000  0.604400  0.778000  1.0  0.2449
  C  C170  1  0.740000  0.711100  0.835000  1.0  0.0807
  C  C171  1  0.443000  0.337000  0.827600  1.0  0.0915
  C  C172  1  0.504000  0.237700  0.889200  1.0  0.213
  C  C173  1  0.943000  0.372000  0.190000  1.0  0.1265
  C  C174  1  0.943000  0.416000  0.274000  1.0  0.1701
  C  C175  1  0.791000  0.541000  0.260700  1.0  0.0055
  C  C176  1  0.840000  0.623000  0.258700  1.0  -0.1436
  C  C177  1  0.916000  0.623000  0.311000  1.0  -0.1666
  C  C178  1  0.941000  0.712000  0.335700  1.0  -0.1499
  C  C179  1  0.016000  0.695000  0.389800  1.0  -0.1691
  C  C180  1  0.070000  0.790000  0.402400  1.0  -0.1183
  C  C181  1  0.281000  0.125000  0.269700  1.0  0.2316
  C  C182  1  0.296000  0.185000  0.347900  1.0  0.1241
  C  C183  1  0.446000  0.094000  0.401100  1.0  -0.0021
  C  C184  1  0.383000  0.045000  0.446300  1.0  -0.1539
  C  C185  1  0.451000  0.021000  0.506300  1.0  -0.1377
  C  C186  1  0.839000  0.063000  0.401000  1.0  -0.1057
  C  C187  1  0.874000  0.015000  0.452000  1.0  -0.2133
  C  C188  1  0.993000  0.029000  0.475000  1.0  -0.1213
  C  C189  1  0.196000  0.895600  0.278000  1.0  0.2452
  C  C190  1  0.240000  0.788900  0.335000  1.0  0.0809
  C  C191  1  0.943000  0.163000  0.327600  1.0  0.0915
  C  C192  1  0.004000  0.262300  0.389200  1.0  0.213
  C  C193  1  0.557000  0.872000  0.310000  1.0  0.1265
  C  C194  1  0.557000  0.916000  0.226000  1.0  0.1683
  C  C195  1  0.709000  0.041000  0.239300  1.0  0.0046
  C  C196  1  0.660000  0.123000  0.241300  1.0  -0.1449
  C  C197  1  0.584000  0.123000  0.189000  1.0  -0.1652
  C  C198  1  0.559000  0.212000  0.164300  1.0  -0.1517
  C  C199  1  0.484000  0.195000  0.110200  1.0  -0.168
  C  C200  1  0.430000  0.290000  0.097600  1.0  -0.1173
  C  C201  1  0.219000  0.625000  0.230300  1.0  0.2319
  C  C202  1  0.204000  0.685000  0.152100  1.0  0.1253
  C  C203  1  0.054000  0.594000  0.098900  1.0  -0.0072
  C  C204  1  0.117000  0.545000  0.053700  1.0  -0.1518
  C  C205  1  0.049000  0.521000  0.993700  1.0  -0.1347
  C  C206  1  0.661000  0.563000  0.099000  1.0  -0.1046
  C  C207  1  0.626000  0.515000  0.048000  1.0  -0.2141
  C  C208  1  0.507000  0.529000  0.025000  1.0  -0.1241
  C  C209  1  0.304000  0.395600  0.222000  1.0  0.2437
  C  C210  1  0.260000  0.288900  0.165000  1.0  0.0793
  C  C211  1  0.557000  0.663000  0.172400  1.0  0.0911
  C  C212  1  0.496000  0.762300  0.110800  1.0  0.2125
  N  N213  1  0.007000  0.639000  0.753900  1.0  -0.3217
  N  N214  1  0.137000  0.535000  0.756300  1.0  0.0363
  N  N215  1  0.130000  0.562000  0.808700  1.0  -0.2402
  N  N216  1  0.851000  0.171700  0.644000  1.0  0.0854
  N  N217  1  0.878600  0.105700  0.679300  1.0  -0.3094
  N  N218  1  0.731000  0.169500  0.713100  1.0  -0.3091
  N  N219  1  0.764000  0.807200  0.700500  1.0  -0.3977
  N  N220  1  0.631000  0.878900  0.648400  1.0  0.097
  N  N221  1  0.638000  0.922100  0.699600  1.0  -0.3959
  N  N222  1  0.988000  0.767100  0.665800  1.0  -0.3046
  N  N223  1  0.109000  0.850400  0.621500  1.0  0.1218
  N  N224  1  0.072000  0.789000  0.583400  1.0  -0.2959
  N  N225  1  0.493000  0.139000  0.746100  1.0  -0.3219
  N  N226  1  0.363000  0.035000  0.743700  1.0  0.0363
  N  N227  1  0.370000  0.062000  0.691300  1.0  -0.2391
  N  N228  1  0.649000  0.671700  0.856000  1.0  0.0859
  N  N229  1  0.621400  0.605700  0.820700  1.0  -0.3111
  N  N230  1  0.769000  0.669500  0.786900  1.0  -0.3093
  N  N231  1  0.736000  0.307200  0.799500  1.0  -0.3986
  N  N232  1  0.869000  0.378900  0.851600  1.0  0.0967
  N  N233  1  0.862000  0.422100  0.800400  1.0  -0.397
  N  N234  1  0.512000  0.267100  0.834200  1.0  -0.3049
  N  N235  1  0.391000  0.350400  0.878500  1.0  0.123
  N  N236  1  0.428000  0.289000  0.916600  1.0  -0.2977
  N  N237  1  0.993000  0.361000  0.246100  1.0  -0.321
  N  N238  1  0.863000  0.465000  0.243700  1.0  0.0357
  N  N239  1  0.870000  0.438000  0.191300  1.0  -0.2396
  N  N240  1  0.149000  0.828300  0.356000  1.0  0.0866
  N  N241  1  0.121400  0.894300  0.320700  1.0  -0.3141
  N  N242  1  0.269000  0.830500  0.286900  1.0  -0.3097
  N  N243  1  0.236000  0.192800  0.299500  1.0  -0.3992
  N  N244  1  0.369000  0.121100  0.351600  1.0  0.0978
  N  N245  1  0.362000  0.077900  0.300400  1.0  -0.396
  N  N246  1  0.012000  0.232900  0.334200  1.0  -0.3039
  N  N247  1  0.891000  0.149600  0.378500  1.0  0.1233
  N  N248  1  0.928000  0.211000  0.416600  1.0  -0.2977
  N  N249  1  0.507000  0.861000  0.253900  1.0  -0.3221
  N  N250  1  0.637000  0.965000  0.256300  1.0  0.0373
  N  N251  1  0.630000  0.938000  0.308700  1.0  -0.2397
  N  N252  1  0.351000  0.328300  0.144000  1.0  0.0863
  N  N253  1  0.378600  0.394300  0.179300  1.0  -0.3141
  N  N254  1  0.231000  0.330500  0.213100  1.0  -0.309
  N  N255  1  0.264000  0.692800  0.200500  1.0  -0.3991
  N  N256  1  0.131000  0.621100  0.148400  1.0  0.0976
  N  N257  1  0.138000  0.577900  0.199600  1.0  -0.3952
  N  N258  1  0.488000  0.732900  0.165800  1.0  -0.3037
  N  N259  1  0.609000  0.649600  0.121500  1.0  0.1217
  N  N260  1  0.572000  0.711000  0.083400  1.0  -0.2976
