# generated using pymatgen
data_Cu2BH7C6N9ClO2
_symmetry_space_group_name_H-M   'P 1'
_cell_length_a   10.56200000
_cell_length_b   11.47600000
_cell_length_c   15.66300000
_cell_angle_alpha   90.00000000
_cell_angle_beta   90.00000000
_cell_angle_gamma   93.57000000
_symmetry_Int_Tables_number   1
_chemical_formula_structural   Cu2BH7C6N9ClO2
_chemical_formula_sum   'Cu8 B4 H28 C24 N36 Cl4 O8'
_cell_volume   1894.82047880
_cell_formula_units_Z   4
loop_
 _symmetry_equiv_pos_site_id
 _symmetry_equiv_pos_as_xyz
  1  'x, y, z'
loop_
 _atom_site_type_symbol
 _atom_site_label
 _atom_site_symmetry_multiplicity
 _atom_site_fract_x
 _atom_site_fract_y
 _atom_site_fract_z
 _atom_site_occupancy
 _atom_site_charge
  Cu  Cu1  1  0.003190  0.904310  0.937520  1.0  0.8096
  Cu  Cu2  1  0.590120  0.450540  0.943770  1.0  0.8571
  Cu  Cu3  1  0.496810  0.595690  0.437520  1.0  0.8096
  Cu  Cu4  1  0.909880  0.049460  0.443770  1.0  0.856
  Cu  Cu5  1  0.996810  0.095690  0.062480  1.0  0.8093
  Cu  Cu6  1  0.409880  0.549460  0.056230  1.0  0.856
  Cu  Cu7  1  0.503190  0.404310  0.562480  1.0  0.81
  Cu  Cu8  1  0.090120  0.950540  0.556230  1.0  0.8565
  B  B9  1  0.846200  0.460900  0.831300  1.0  0.4195
  B  B10  1  0.653800  0.039100  0.331300  1.0  0.4171
  B  B11  1  0.153800  0.539100  0.168700  1.0  0.4188
  B  B12  1  0.346200  0.960900  0.668700  1.0  0.4222
  H  H13  1  0.915000  0.460000  0.792800  1.0  0.0924
  H  H14  1  0.715000  0.775600  0.962600  1.0  0.0943
  H  H15  1  0.992000  0.669300  0.835700  1.0  0.2735
  H  H16  1  0.465000  0.418000  0.755000  1.0  0.2195
  H  H17  1  0.783600  0.411900  0.651900  1.0  0.1062
  H  H18  1  0.728000  0.247100  0.066200  1.0  0.0716
  H  H19  1  0.011000  0.284000  0.904000  1.0  0.1108
  H  H20  1  0.585000  0.040000  0.292800  1.0  0.0941
  H  H21  1  0.785000  0.724400  0.462600  1.0  0.097
  H  H22  1  0.508000  0.830700  0.335700  1.0  0.2761
  H  H23  1  0.035000  0.082000  0.255000  1.0  0.216
  H  H24  1  0.716400  0.088100  0.151900  1.0  0.1054
  H  H25  1  0.772000  0.252900  0.566200  1.0  0.0673
  H  H26  1  0.489000  0.216000  0.404000  1.0  0.1095
  H  H27  1  0.085000  0.540000  0.207200  1.0  0.0941
  H  H28  1  0.285000  0.224400  0.037400  1.0  0.097
  H  H29  1  0.008000  0.330700  0.164300  1.0  0.2776
  H  H30  1  0.535000  0.582000  0.245000  1.0  0.2165
  H  H31  1  0.216400  0.588100  0.348100  1.0  0.1047
  H  H32  1  0.272000  0.752900  0.933800  1.0  0.0676
  H  H33  1  0.989000  0.716000  0.096000  1.0  0.1094
  H  H34  1  0.415000  0.960000  0.707200  1.0  0.0923
  H  H35  1  0.215000  0.275600  0.537400  1.0  0.0945
  H  H36  1  0.492000  0.169300  0.664300  1.0  0.2742
  H  H37  1  0.965000  0.918000  0.745000  1.0  0.2199
  H  H38  1  0.283600  0.911900  0.848100  1.0  0.1053
  H  H39  1  0.228000  0.747100  0.433800  1.0  0.0706
  H  H40  1  0.511000  0.784000  0.596000  1.0  0.1108
  C  C41  1  0.776400  0.722900  0.939700  1.0  0.1978
  C  C42  1  0.926900  0.673200  0.862700  1.0  0.2088
  C  C43  1  0.527600  0.413700  0.753100  1.0  0.1288
  C  C44  1  0.708200  0.424300  0.696400  1.0  0.0437
  C  C45  1  0.767900  0.273900  0.011300  1.0  0.1812
  C  C46  1  0.922300  0.290500  0.925200  1.0  0.1385
  C  C47  1  0.723600  0.777100  0.439700  1.0  0.2002
  C  C48  1  0.573100  0.826800  0.362700  1.0  0.2088
  C  C49  1  0.972400  0.086300  0.253100  1.0  0.1292
  C  C50  1  0.791800  0.075700  0.196400  1.0  0.0455
  C  C51  1  0.732100  0.226100  0.511300  1.0  0.1843
  C  C52  1  0.577700  0.209500  0.425200  1.0  0.1375
  C  C53  1  0.223600  0.277100  0.060300  1.0  0.1987
  C  C54  1  0.073100  0.326800  0.137300  1.0  0.208
  C  C55  1  0.472400  0.586300  0.246900  1.0  0.1299
  C  C56  1  0.291800  0.575700  0.303600  1.0  0.0465
  C  C57  1  0.232100  0.726100  0.988700  1.0  0.1844
  C  C58  1  0.077700  0.709500  0.074800  1.0  0.1374
  C  C59  1  0.276400  0.222900  0.560300  1.0  0.1969
  C  C60  1  0.426900  0.173200  0.637300  1.0  0.2072
  C  C61  1  0.027600  0.913700  0.746900  1.0  0.1296
  C  C62  1  0.208200  0.924300  0.803600  1.0  0.0451
  C  C63  1  0.267900  0.773900  0.488700  1.0  0.1812
  C  C64  1  0.422300  0.790500  0.574800  1.0  0.1397
  N  N65  1  0.845300  0.582600  0.870400  1.0  0.0791
  N  N66  1  0.748100  0.613300  0.920700  1.0  -0.344
  N  N67  1  0.889900  0.764700  0.905700  1.0  -0.4176
  N  N68  1  0.723800  0.437100  0.778500  1.0  -0.0005
  N  N69  1  0.606500  0.431100  0.816100  1.0  -0.2663
  N  N70  1  0.584800  0.407800  0.677400  1.0  -0.3426
  N  N71  1  0.842300  0.369600  0.903600  1.0  -0.0401
  N  N72  1  0.742800  0.359800  0.959600  1.0  -0.3718
  N  N73  1  0.879300  0.227900  0.992500  1.0  -0.4211
  N  N74  1  0.654700  0.917400  0.370400  1.0  0.0806
  N  N75  1  0.751900  0.886700  0.420700  1.0  -0.3456
  N  N76  1  0.610100  0.735300  0.405700  1.0  -0.4158
  N  N77  1  0.776200  0.062900  0.278500  1.0  -0.002
  N  N78  1  0.893500  0.068900  0.316100  1.0  -0.264
  N  N79  1  0.915200  0.092200  0.177400  1.0  -0.342
  N  N80  1  0.657700  0.130400  0.403600  1.0  -0.0402
  N  N81  1  0.757200  0.140200  0.459600  1.0  -0.3728
  N  N82  1  0.620700  0.272100  0.492500  1.0  -0.4206
  N  N83  1  0.154700  0.417400  0.129600  1.0  0.0807
  N  N84  1  0.251900  0.386700  0.079300  1.0  -0.3441
  N  N85  1  0.110100  0.235300  0.094300  1.0  -0.4156
  N  N86  1  0.276200  0.562900  0.221500  1.0  -0.0027
  N  N87  1  0.393500  0.568900  0.183900  1.0  -0.2612
  N  N88  1  0.415200  0.592200  0.322600  1.0  -0.3419
  N  N89  1  0.157700  0.630400  0.096400  1.0  -0.0395
  N  N90  1  0.257200  0.640200  0.040400  1.0  -0.372
  N  N91  1  0.120700  0.772100  0.007500  1.0  -0.4206
  N  N92  1  0.345300  0.082600  0.629600  1.0  0.0795
  N  N93  1  0.248100  0.113300  0.579300  1.0  -0.3435
  N  N94  1  0.389900  0.264700  0.594300  1.0  -0.4175
  N  N95  1  0.223800  0.937100  0.721500  1.0  -0.001
  N  N96  1  0.106500  0.931100  0.683900  1.0  -0.2619
  N  N97  1  0.084800  0.907800  0.822600  1.0  -0.3428
  N  N98  1  0.342300  0.869600  0.596400  1.0  -0.0393
  N  N99  1  0.242800  0.859800  0.540400  1.0  -0.3715
  N  N100  1  0.379300  0.727900  0.507500  1.0  -0.4214
  Cl  Cl101  1  0.207300  0.210700  0.818800  1.0  -0.5272
  Cl  Cl102  1  0.292700  0.289300  0.318800  1.0  -0.5272
  Cl  Cl103  1  0.792700  0.789300  0.181200  1.0  -0.5273
  Cl  Cl104  1  0.707300  0.710700  0.681200  1.0  -0.5273
  O  O105  1  0.893400  0.957300  0.027500  1.0  -0.652
  O  O106  1  0.437100  0.534100  0.934500  1.0  -0.6552
  O  O107  1  0.606600  0.542700  0.527500  1.0  -0.6512
  O  O108  1  0.062900  0.965900  0.434500  1.0  -0.6557
  O  O109  1  0.106600  0.042700  0.972500  1.0  -0.6511
  O  O110  1  0.562900  0.465900  0.065500  1.0  -0.6543
  O  O111  1  0.393400  0.457300  0.472500  1.0  -0.652
  O  O112  1  0.937100  0.034100  0.565500  1.0  -0.6548
