# generated using pymatgen
data_MnH10(C6N5)2
_symmetry_space_group_name_H-M   'P 1'
_cell_length_a   8.66150000
_cell_length_b   14.56630000
_cell_length_c   15.23900000
_cell_angle_alpha   102.97500000
_cell_angle_beta   90.00000000
_cell_angle_gamma   107.29600000
_symmetry_Int_Tables_number   1
_chemical_formula_structural   MnH10(C6N5)2
_chemical_formula_sum   'Mn4 H40 C48 N40'
_cell_volume   1784.22581463
_cell_formula_units_Z   4
loop_
 _symmetry_equiv_pos_site_id
 _symmetry_equiv_pos_as_xyz
  1  'x, y, z'
loop_
 _atom_site_type_symbol
 _atom_site_label
 _atom_site_symmetry_multiplicity
 _atom_site_fract_x
 _atom_site_fract_y
 _atom_site_fract_z
 _atom_site_occupancy
 _atom_site_charge
  Mn  Mn1  1  0.491700  0.493480  0.383850  1.0  0.9287
  Mn  Mn2  1  0.998220  0.506520  0.116150  1.0  0.9306
  Mn  Mn3  1  0.508300  0.506520  0.616150  1.0  0.9302
  Mn  Mn4  1  0.001780  0.493480  0.883850  1.0  0.9285
  H  H5  1  0.642400  0.724600  0.381100  1.0  0.0798
  H  H6  1  0.867500  0.539200  0.416400  1.0  0.0684
  H  H7  1  0.114700  0.655800  0.420700  1.0  0.1153
  H  H8  1  0.125700  0.812600  0.406700  1.0  0.1124
  H  H9  1  0.779600  0.895400  0.381200  1.0  0.089
  H  H10  1  0.206000  0.091600  0.361900  1.0  0.0865
  H  H11  1  0.857100  0.176200  0.352300  1.0  0.1111
  H  H12  1  0.863800  0.333600  0.343400  1.0  0.1205
  H  H13  1  0.110700  0.452400  0.350900  1.0  0.0659
  H  H14  1  0.339700  0.262000  0.358900  1.0  0.082
  H  H15  1  0.917800  0.275400  0.118900  1.0  0.0799
  H  H16  1  0.328300  0.460800  0.083600  1.0  0.0684
  H  H17  1  0.458900  0.344200  0.079300  1.0  0.1156
  H  H18  1  0.313100  0.187400  0.093300  1.0  0.1126
  H  H19  1  0.884200  0.104600  0.118800  1.0  0.0891
  H  H20  1  0.114400  0.908400  0.138100  1.0  0.0869
  H  H21  1  0.680900  0.823800  0.147700  1.0  0.1115
  H  H22  1  0.530200  0.666400  0.156600  1.0  0.1207
  H  H23  1  0.658300  0.547600  0.149100  1.0  0.0656
  H  H24  1  0.077700  0.738000  0.141100  1.0  0.082
  H  H25  1  0.357600  0.275400  0.618900  1.0  0.0807
  H  H26  1  0.132500  0.460800  0.583600  1.0  0.0682
  H  H27  1  0.885300  0.344200  0.579300  1.0  0.1161
  H  H28  1  0.874300  0.187400  0.593300  1.0  0.1117
  H  H29  1  0.220400  0.104600  0.618800  1.0  0.0952
  H  H30  1  0.794000  0.908400  0.638100  1.0  0.0844
  H  H31  1  0.142900  0.823800  0.647700  1.0  0.1116
  H  H32  1  0.136200  0.666400  0.656600  1.0  0.1198
  H  H33  1  0.889300  0.547600  0.649100  1.0  0.0657
  H  H34  1  0.660300  0.738000  0.641100  1.0  0.081
  H  H35  1  0.082200  0.724600  0.881100  1.0  0.0808
  H  H36  1  0.671700  0.539200  0.916400  1.0  0.0681
  H  H37  1  0.541100  0.655800  0.920700  1.0  0.1157
  H  H38  1  0.686900  0.812600  0.906700  1.0  0.112
  H  H39  1  0.115800  0.895400  0.881200  1.0  0.0954
  H  H40  1  0.885600  0.091600  0.861900  1.0  0.0846
  H  H41  1  0.319100  0.176200  0.852300  1.0  0.1117
  H  H42  1  0.469800  0.333600  0.843400  1.0  0.12
  H  H43  1  0.341700  0.452400  0.850900  1.0  0.0658
  H  H44  1  0.922300  0.262000  0.858900  1.0  0.0809
  C  C45  1  0.739030  0.710860  0.389100  1.0  0.1365
  C  C46  1  0.870740  0.601480  0.409500  1.0  0.1693
  C  C47  1  0.019810  0.671420  0.412800  1.0  -0.1541
  C  C48  1  0.026330  0.764260  0.404400  1.0  0.0324
  C  C49  1  0.882540  0.785280  0.392400  1.0  -0.1185
  C  C50  1  0.878100  0.882400  0.383100  1.0  0.1819
  C  C51  1  0.107410  0.105020  0.363700  1.0  0.1751
  C  C52  1  0.099890  0.202580  0.357700  1.0  -0.1204
  C  C53  1  0.955700  0.224600  0.352800  1.0  0.025
  C  C54  1  0.959420  0.317840  0.348600  1.0  -0.1687
  C  C55  1  0.108800  0.388600  0.352000  1.0  0.1711
  C  C56  1  0.242610  0.277020  0.358000  1.0  0.155
  C  C57  1  0.028170  0.289140  0.110900  1.0  0.1361
  C  C58  1  0.269260  0.398520  0.090500  1.0  0.1697
  C  C59  1  0.348390  0.328580  0.087200  1.0  -0.1542
  C  C60  1  0.262070  0.235740  0.095600  1.0  0.0333
  C  C61  1  0.097260  0.214720  0.107600  1.0  -0.1204
  C  C62  1  0.995700  0.117600  0.116900  1.0  0.183
  C  C63  1  0.002390  0.894980  0.136300  1.0  0.1746
  C  C64  1  0.897310  0.797420  0.142300  1.0  -0.1203
  C  C65  1  0.731100  0.775400  0.147200  1.0  0.0244
  C  C66  1  0.641580  0.682160  0.151400  1.0  -0.1674
  C  C67  1  0.720200  0.611400  0.148000  1.0  0.1718
  C  C68  1  0.965590  0.722980  0.142000  1.0  0.1549
  C  C69  1  0.260970  0.289140  0.610900  1.0  0.1369
  C  C70  1  0.129260  0.398520  0.590500  1.0  0.1696
  C  C71  1  0.980190  0.328580  0.587200  1.0  -0.1534
  C  C72  1  0.973670  0.235740  0.595600  1.0  0.0339
  C  C73  1  0.117460  0.214720  0.607600  1.0  -0.1201
  C  C74  1  0.121900  0.117600  0.616900  1.0  0.1821
  C  C75  1  0.892590  0.894980  0.636300  1.0  0.1751
  C  C76  1  0.900110  0.797420  0.642300  1.0  -0.1199
  C  C77  1  0.044300  0.775400  0.647200  1.0  0.0231
  C  C78  1  0.040580  0.682160  0.651400  1.0  -0.168
  C  C79  1  0.891200  0.611400  0.648000  1.0  0.172
  C  C80  1  0.757390  0.722980  0.642000  1.0  0.1561
  C  C81  1  0.971830  0.710860  0.889100  1.0  0.1367
  C  C82  1  0.730740  0.601480  0.909500  1.0  0.1695
  C  C83  1  0.651610  0.671420  0.912800  1.0  -0.1526
  C  C84  1  0.737930  0.764260  0.904400  1.0  0.0332
  C  C85  1  0.902740  0.785280  0.892400  1.0  -0.1184
  C  C86  1  0.004300  0.882400  0.883100  1.0  0.1812
  C  C87  1  0.997610  0.105020  0.863700  1.0  0.1759
  C  C88  1  0.102690  0.202580  0.857700  1.0  -0.1201
  C  C89  1  0.268900  0.224600  0.852800  1.0  0.0245
  C  C90  1  0.358420  0.317840  0.848600  1.0  -0.1694
  C  C91  1  0.279800  0.388600  0.852000  1.0  0.1716
  C  C92  1  0.034410  0.277020  0.858000  1.0  0.1556
  N  N93  1  0.731380  0.619360  0.396800  1.0  -0.3464
  N  N94  1  0.010570  0.949340  0.377600  1.0  -0.2656
  N  N95  1  0.976260  0.038320  0.371600  1.0  -0.2555
  N  N96  1  0.248720  0.370240  0.357000  1.0  -0.3439
  N  N97  1  0.584580  0.430160  0.487400  1.0  -0.6763
  N  N98  1  0.598540  0.348480  0.475900  1.0  0.5504
  N  N99  1  0.611020  0.270440  0.464600  1.0  -0.4588
  N  N100  1  0.594310  0.403220  0.280400  1.0  -0.5648
  N  N101  1  0.706990  0.415780  0.237500  1.0  0.5802
  N  N102  1  0.819200  0.425600  0.195600  1.0  -0.5653
  N  N103  1  0.112020  0.380640  0.103200  1.0  -0.3455
  N  N104  1  0.061230  0.050660  0.122400  1.0  -0.2649
  N  N105  1  0.937940  0.961680  0.128400  1.0  -0.2552
  N  N106  1  0.878480  0.629760  0.143000  1.0  -0.3431
  N  N107  1  0.154420  0.569840  0.012600  1.0  -0.6789
  N  N108  1  0.250060  0.651520  0.024100  1.0  0.5508
  N  N109  1  0.340580  0.729560  0.035400  1.0  -0.4608
  N  N110  1  0.191090  0.596780  0.219600  1.0  -0.566
  N  N111  1  0.291210  0.584220  0.262500  1.0  0.58
  N  N112  1  0.393600  0.574400  0.304400  1.0  -0.5659
  N  N113  1  0.268620  0.380640  0.603200  1.0  -0.3451
  N  N114  1  0.989430  0.050660  0.622400  1.0  -0.2643
  N  N115  1  0.023740  0.961680  0.628400  1.0  -0.2567
  N  N116  1  0.751280  0.629760  0.643000  1.0  -0.3442
  N  N117  1  0.415420  0.569840  0.512600  1.0  -0.6812
  N  N118  1  0.401460  0.651520  0.524100  1.0  0.5512
  N  N119  1  0.388980  0.729560  0.535400  1.0  -0.4601
  N  N120  1  0.405690  0.596780  0.719600  1.0  -0.5672
  N  N121  1  0.293010  0.584220  0.762500  1.0  0.5807
  N  N122  1  0.180800  0.574400  0.804400  1.0  -0.5664
  N  N123  1  0.887980  0.619360  0.896800  1.0  -0.3448
  N  N124  1  0.938770  0.949340  0.877600  1.0  -0.2645
  N  N125  1  0.062060  0.038320  0.871600  1.0  -0.2564
  N  N126  1  0.121520  0.370240  0.857000  1.0  -0.3439
  N  N127  1  0.845580  0.430160  0.987400  1.0  -0.6792
  N  N128  1  0.749940  0.348480  0.975900  1.0  0.5505
  N  N129  1  0.659420  0.270440  0.964600  1.0  -0.4598
  N  N130  1  0.808910  0.403220  0.780400  1.0  -0.5641
  N  N131  1  0.708790  0.415780  0.737500  1.0  0.5808
  N  N132  1  0.606400  0.425600  0.695600  1.0  -0.5659
