# generated using pymatgen
data_Cu2H5C9SN7O4
_symmetry_space_group_name_H-M   'P 1'
_cell_length_a   13.09110000
_cell_length_b   20.35290000
_cell_length_c   20.35290000
_cell_angle_alpha   64.46590000
_cell_angle_beta   77.61960000
_cell_angle_gamma   102.38000000
_symmetry_Int_Tables_number   1
_chemical_formula_structural   Cu2H5C9SN7O4
_chemical_formula_sum   'Cu12 H30 C54 S6 N42 O24'
_cell_volume   4480.47121969
_cell_formula_units_Z   6
loop_
 _symmetry_equiv_pos_site_id
 _symmetry_equiv_pos_as_xyz
  1  'x, y, z'
loop_
 _atom_site_type_symbol
 _atom_site_label
 _atom_site_symmetry_multiplicity
 _atom_site_fract_x
 _atom_site_fract_y
 _atom_site_fract_z
 _atom_site_occupancy
 _atom_site_charge
  Cu  Cu1  1  0.871480  0.484350  0.827000  1.0  0.723
  Cu  Cu2  1  0.931850  0.478250  0.610150  1.0  0.7246
  Cu  Cu3  1  0.698480  0.827000  0.688650  1.0  0.7195
  Cu  Cu4  1  0.542000  0.610150  0.911600  1.0  0.7261
  Cu  Cu5  1  0.387130  0.688650  0.484350  1.0  0.7236
  Cu  Cu6  1  0.453600  0.911600  0.478250  1.0  0.7257
  Cu  Cu7  1  0.128520  0.515650  0.173000  1.0  0.7216
  Cu  Cu8  1  0.068150  0.521750  0.389850  1.0  0.7268
  Cu  Cu9  1  0.301520  0.173000  0.311350  1.0  0.723
  Cu  Cu10  1  0.458000  0.389850  0.088400  1.0  0.727
  Cu  Cu11  1  0.612870  0.311350  0.515650  1.0  0.7224
  Cu  Cu12  1  0.546400  0.088400  0.521750  1.0  0.7271
  H  H13  1  0.914900  0.540300  0.942800  1.0  0.0994
  H  H14  1  0.064000  0.606900  0.956000  1.0  0.1228
  H  H15  1  0.238400  0.653600  0.866200  1.0  0.1269
  H  H16  1  0.254900  0.641600  0.754000  1.0  0.136
  H  H17  1  0.295200  0.621900  0.383000  1.0  0.0915
  H  H18  1  0.857700  0.942800  0.516900  1.0  0.0999
  H  H19  1  0.020000  0.956000  0.437100  1.0  0.1212
  H  H20  1  0.104600  0.866200  0.480200  1.0  0.127
  H  H21  1  0.008900  0.754000  0.604400  1.0  0.1348
  H  H22  1  0.678200  0.383000  0.995100  1.0  0.0931
  H  H23  1  0.374600  0.516900  0.540300  1.0  0.0997
  H  H24  1  0.457100  0.437100  0.606900  1.0  0.1213
  H  H25  1  0.584800  0.480200  0.653600  1.0  0.1274
  H  H26  1  0.613300  0.604400  0.641600  1.0  0.136
  H  H27  1  0.673300  0.995100  0.621900  1.0  0.0927
  H  H28  1  0.085100  0.459700  0.057200  1.0  0.0993
  H  H29  1  0.936000  0.393100  0.044000  1.0  0.1219
  H  H30  1  0.761600  0.346400  0.133800  1.0  0.1268
  H  H31  1  0.745100  0.358400  0.246000  1.0  0.1358
  H  H32  1  0.704800  0.378100  0.617000  1.0  0.0928
  H  H33  1  0.142300  0.057200  0.483100  1.0  0.1001
  H  H34  1  0.980000  0.044000  0.562900  1.0  0.1227
  H  H35  1  0.895400  0.133800  0.519800  1.0  0.1273
  H  H36  1  0.991100  0.246000  0.395600  1.0  0.135
  H  H37  1  0.321800  0.617000  0.004900  1.0  0.0935
  H  H38  1  0.625400  0.483100  0.459700  1.0  0.0988
  H  H39  1  0.542900  0.562900  0.393100  1.0  0.1207
  H  H40  1  0.415200  0.519800  0.346400  1.0  0.1276
  H  H41  1  0.386700  0.395600  0.358400  1.0  0.1358
  H  H42  1  0.326700  0.004900  0.378100  1.0  0.0923
  C  C43  1  0.984700  0.561000  0.904400  1.0  0.1652
  C  C44  1  0.073600  0.600000  0.913100  1.0  -0.1034
  C  C45  1  0.176000  0.628800  0.859700  1.0  -0.1347
  C  C46  1  0.186100  0.620300  0.793300  1.0  -0.0679
  C  C47  1  0.094010  0.581010  0.788180  1.0  0.1896
  C  C48  1  0.092110  0.565660  0.724530  1.0  0.2751
  C  C49  1  0.122230  0.563400  0.622610  1.0  0.3228
  C  C50  1  0.159400  0.572540  0.545440  1.0  0.281
  C  C51  1  0.241150  0.600460  0.431610  1.0  0.2426
  C  C52  1  0.889100  0.904400  0.534600  1.0  0.1664
  C  C53  1  0.986700  0.913100  0.486900  1.0  -0.1023
  C  C54  1  0.035700  0.859700  0.511500  1.0  -0.1369
  C  C55  1  0.979400  0.793300  0.586400  1.0  -0.0677
  C  C56  1  0.882190  0.788180  0.630810  1.0  0.1885
  C  C57  1  0.816640  0.724530  0.709810  1.0  0.2769
  C  C58  1  0.744840  0.622610  0.813990  1.0  0.3218
  C  C59  1  0.704840  0.545440  0.882020  1.0  0.2799
  C  C60  1  0.672760  0.431610  0.967930  1.0  0.2382
  C  C61  1  0.423700  0.534600  0.561000  1.0  0.166
  C  C62  1  0.473600  0.486900  0.600000  1.0  -0.1039
  C  C63  1  0.547200  0.511500  0.628800  1.0  -0.1368
  C  C64  1  0.565800  0.586400  0.620300  1.0  -0.0736
  C  C65  1  0.513000  0.630810  0.581010  1.0  0.1883
  C  C66  1  0.526450  0.709810  0.565660  1.0  0.2766
  C  C67  1  0.558830  0.813990  0.563400  1.0  0.3225
  C  C68  1  0.586860  0.882020  0.572540  1.0  0.28
  C  C69  1  0.640690  0.967930  0.600460  1.0  0.2404
  C  C70  1  0.015300  0.439000  0.095600  1.0  0.1655
  C  C71  1  0.926400  0.400000  0.086900  1.0  -0.1041
  C  C72  1  0.824000  0.371200  0.140300  1.0  -0.136
  C  C73  1  0.813900  0.379700  0.206700  1.0  -0.0688
  C  C74  1  0.905990  0.418990  0.211820  1.0  0.1907
  C  C75  1  0.907890  0.434340  0.275470  1.0  0.2771
  C  C76  1  0.877770  0.436600  0.377390  1.0  0.3227
  C  C77  1  0.840600  0.427460  0.454560  1.0  0.2799
  C  C78  1  0.758850  0.399540  0.568390  1.0  0.2423
  C  C79  1  0.110900  0.095600  0.465400  1.0  0.1679
  C  C80  1  0.013300  0.086900  0.513100  1.0  -0.1032
  C  C81  1  0.964300  0.140300  0.488500  1.0  -0.1364
  C  C82  1  0.020600  0.206700  0.413600  1.0  -0.0677
  C  C83  1  0.117810  0.211820  0.369190  1.0  0.1897
  C  C84  1  0.183360  0.275470  0.290190  1.0  0.2776
  C  C85  1  0.255160  0.377390  0.186010  1.0  0.3225
  C  C86  1  0.295160  0.454560  0.117980  1.0  0.2796
  C  C87  1  0.327240  0.568390  0.032070  1.0  0.2393
  C  C88  1  0.576300  0.465400  0.439000  1.0  0.1665
  C  C89  1  0.526400  0.513100  0.400000  1.0  -0.1039
  C  C90  1  0.452800  0.488500  0.371200  1.0  -0.1363
  C  C91  1  0.434200  0.413600  0.379700  1.0  -0.0717
  C  C92  1  0.487000  0.369190  0.418990  1.0  0.1894
  C  C93  1  0.473550  0.290190  0.434340  1.0  0.2767
  C  C94  1  0.441170  0.186010  0.436600  1.0  0.3228
  C  C95  1  0.413140  0.117980  0.427460  1.0  0.2789
  C  C96  1  0.359310  0.032070  0.399540  1.0  0.2423
  S  S97  1  0.721300  0.427320  0.753320  1.0  1.6207
  S  S98  1  0.474620  0.753320  0.819360  1.0  1.6186
  S  S99  1  0.293980  0.819360  0.427320  1.0  1.6206
  S  S100  1  0.278700  0.572680  0.246680  1.0  1.6202
  S  S101  1  0.525380  0.246680  0.180640  1.0  1.6198
  S  S102  1  0.706020  0.180640  0.572680  1.0  1.6184
  N  N103  1  0.993050  0.551010  0.842360  1.0  -0.2866
  N  N104  1  0.997140  0.520770  0.731150  1.0  -0.3087
  N  N105  1  0.015420  0.518880  0.664520  1.0  -0.3076
  N  N106  1  0.175760  0.593850  0.656870  1.0  -0.3975
  N  N107  1  0.084210  0.537410  0.526480  1.0  -0.3057
  N  N108  1  0.137510  0.554650  0.452220  1.0  -0.2406
  N  N109  1  0.259270  0.612180  0.488870  1.0  -0.4106
  N  N110  1  0.835410  0.842360  0.606630  1.0  -0.2869
  N  N111  1  0.728290  0.731150  0.748080  1.0  -0.3064
  N  N112  1  0.679940  0.664520  0.816600  1.0  -0.307
  N  N113  1  0.832630  0.656870  0.749280  1.0  -0.3958
  N  N114  1  0.610690  0.526480  0.936110  1.0  -0.3056
  N  N115  1  0.589730  0.452220  0.993130  1.0  -0.2418
  N  N116  1  0.748140  0.488870  0.898950  1.0  -0.4088
  N  N117  1  0.442040  0.606630  0.551010  1.0  -0.2854
  N  N118  1  0.476370  0.748080  0.520770  1.0  -0.3066
  N  N119  1  0.496540  0.816600  0.518880  1.0  -0.3072
  N  N120  1  0.581910  0.749280  0.593850  1.0  -0.3974
  N  N121  1  0.546800  0.936110  0.537410  1.0  -0.3062
  N  N122  1  0.582860  0.993130  0.554650  1.0  -0.2383
  N  N123  1  0.647090  0.898950  0.612180  1.0  -0.4107
  N  N124  1  0.006950  0.448990  0.157640  1.0  -0.2889
  N  N125  1  0.002860  0.479230  0.268850  1.0  -0.3077
  N  N126  1  0.984580  0.481120  0.335480  1.0  -0.3067
  N  N127  1  0.824240  0.406150  0.343130  1.0  -0.3954
  N  N128  1  0.915790  0.462590  0.473520  1.0  -0.3051
  N  N129  1  0.862490  0.445350  0.547780  1.0  -0.2368
  N  N130  1  0.740730  0.387820  0.511130  1.0  -0.4092
  N  N131  1  0.164590  0.157640  0.393370  1.0  -0.2877
  N  N132  1  0.271710  0.268850  0.251920  1.0  -0.3078
  N  N133  1  0.320060  0.335480  0.183400  1.0  -0.3093
  N  N134  1  0.167370  0.343130  0.250720  1.0  -0.3944
  N  N135  1  0.389310  0.473520  0.063890  1.0  -0.3062
  N  N136  1  0.410270  0.547780  0.006870  1.0  -0.2399
  N  N137  1  0.251860  0.511130  0.101050  1.0  -0.41
  N  N138  1  0.557960  0.393370  0.448990  1.0  -0.2883
  N  N139  1  0.523630  0.251920  0.479230  1.0  -0.3087
  N  N140  1  0.503460  0.183400  0.481120  1.0  -0.3066
  N  N141  1  0.418090  0.250720  0.406150  1.0  -0.3945
  N  N142  1  0.453200  0.063890  0.462590  1.0  -0.3057
  N  N143  1  0.417140  0.006870  0.445350  1.0  -0.2376
  N  N144  1  0.352910  0.101050  0.387820  1.0  -0.4095
  O  O145  1  0.766840  0.408790  0.816570  1.0  -0.7067
  O  O146  1  0.732000  0.508000  0.718200  1.0  -0.6157
  O  O147  1  0.609400  0.376800  0.779000  1.0  -0.5273
  O  O148  1  0.791790  0.413590  0.696120  1.0  -0.715
  O  O149  1  0.583410  0.816570  0.774640  1.0  -0.703
  O  O150  1  0.450200  0.718200  0.773800  1.0  -0.6167
  O  O151  1  0.388400  0.779000  0.844200  1.0  -0.5219
  O  O152  1  0.487910  0.696120  0.890290  1.0  -0.7173
  O  O153  1  0.358050  0.774640  0.408790  1.0  -0.7007
  O  O154  1  0.224000  0.773800  0.508000  1.0  -0.6161
  O  O155  1  0.232600  0.844200  0.376800  1.0  -0.5215
  O  O156  1  0.378200  0.890290  0.413590  1.0  -0.7134
  O  O157  1  0.233160  0.591210  0.183430  1.0  -0.7065
  O  O158  1  0.268000  0.492000  0.281800  1.0  -0.6137
  O  O159  1  0.390600  0.623200  0.221000  1.0  -0.5262
  O  O160  1  0.208210  0.586410  0.303880  1.0  -0.7162
  O  O161  1  0.416590  0.183430  0.225360  1.0  -0.6996
  O  O162  1  0.549800  0.281800  0.226200  1.0  -0.6193
  O  O163  1  0.611600  0.221000  0.155800  1.0  -0.5241
  O  O164  1  0.512090  0.303880  0.109710  1.0  -0.7167
  O  O165  1  0.641950  0.225360  0.591210  1.0  -0.7014
  O  O166  1  0.776000  0.226200  0.492000  1.0  -0.6165
  O  O167  1  0.767400  0.155800  0.623200  1.0  -0.5189
  O  O168  1  0.621800  0.109710  0.586410  1.0  -0.7148
