# generated using pymatgen
data_Cu2H5C9SN7O4
_symmetry_space_group_name_H-M   'P 1'
_cell_length_a   18.27660000
_cell_length_b   24.64010000
_cell_length_c   24.64010000
_cell_angle_alpha   65.90170000
_cell_angle_beta   75.68530000
_cell_angle_gamma   104.31500000
_symmetry_Int_Tables_number   1
_chemical_formula_structural   Cu2H5C9SN7O4
_chemical_formula_sum   'Cu24 H60 C108 S12 N84 O48'
_cell_volume   9022.24242056
_cell_formula_units_Z   12
loop_
 _symmetry_equiv_pos_site_id
 _symmetry_equiv_pos_as_xyz
  1  'x, y, z'
loop_
 _atom_site_type_symbol
 _atom_site_label
 _atom_site_symmetry_multiplicity
 _atom_site_fract_x
 _atom_site_fract_y
 _atom_site_fract_z
 _atom_site_occupancy
 _atom_site_charge
  Cu  Cu1  1  0.867160  0.167110  0.282680  1.0  0.9234
  Cu  Cu2  1  0.879960  0.350890  0.211760  1.0  0.7818
  Cu  Cu3  1  0.792460  0.960900  0.398940  1.0  0.6069
  Cu  Cu4  1  0.960290  0.556940  0.109160  1.0  0.734
  Cu  Cu5  1  0.149840  0.282680  0.550210  1.0  0.9245
  Cu  Cu6  1  0.091720  0.211760  0.437350  1.0  0.783
  Cu  Cu7  1  0.191400  0.398940  0.640160  1.0  0.6056
  Cu  Cu8  1  0.069450  0.109160  0.333900  1.0  0.7314
  Cu  Cu9  1  0.700050  0.550210  0.167110  1.0  0.9231
  Cu  Cu10  1  0.529070  0.437350  0.350890  1.0  0.7828
  Cu  Cu11  1  0.831560  0.640160  0.960900  1.0  0.6048
  Cu  Cu12  1  0.403350  0.333900  0.556940  1.0  0.7321
  Cu  Cu13  1  0.132840  0.832890  0.717320  1.0  0.9246
  Cu  Cu14  1  0.120040  0.649110  0.788240  1.0  0.7846
  Cu  Cu15  1  0.207540  0.039100  0.601060  1.0  0.6048
  Cu  Cu16  1  0.039710  0.443060  0.890840  1.0  0.7375
  Cu  Cu17  1  0.850160  0.717320  0.449790  1.0  0.9225
  Cu  Cu18  1  0.908280  0.788240  0.562650  1.0  0.7825
  Cu  Cu19  1  0.808600  0.601060  0.359840  1.0  0.6054
  Cu  Cu20  1  0.930550  0.890840  0.666100  1.0  0.7326
  Cu  Cu21  1  0.299950  0.449790  0.832890  1.0  0.9226
  Cu  Cu22  1  0.470930  0.562650  0.649110  1.0  0.7818
  Cu  Cu23  1  0.168440  0.359840  0.039100  1.0  0.6048
  Cu  Cu24  1  0.596650  0.666100  0.443060  1.0  0.7313
  H  H25  1  0.055200  0.700000  0.993900  1.0  0.1063
  H  H26  1  0.161900  0.754800  0.893300  1.0  0.1296
  H  H27  1  0.225600  0.697100  0.859300  1.0  0.1169
  H  H28  1  0.180100  0.586300  0.924600  1.0  0.1442
  H  H29  1  0.681300  0.815700  0.510000  1.0  0.0925
  H  H30  1  0.549100  0.759200  0.586100  1.0  0.1306
  H  H31  1  0.468100  0.814400  0.599600  1.0  0.1191
  H  H32  1  0.518500  0.926000  0.530600  1.0  0.1359
  H  H33  1  0.704000  0.296300  0.317400  1.0  0.1093
  H  H34  1  0.031800  0.220000  0.159800  1.0  0.1022
  H  H35  1  0.049100  0.993900  0.306100  1.0  0.1037
  H  H36  1  0.055200  0.893300  0.351900  1.0  0.129
  H  H37  1  0.084900  0.859300  0.443600  1.0  0.1182
  H  H38  1  0.104700  0.924600  0.489100  1.0  0.1455
  H  H39  1  0.191300  0.510000  0.674300  1.0  0.0937
  H  H40  1  0.135200  0.586100  0.654700  1.0  0.1312
  H  H41  1  0.067700  0.599600  0.586000  1.0  0.1197
  H  H42  1  0.049100  0.530600  0.543400  1.0  0.1367
  H  H43  1  0.021400  0.317400  0.386300  1.0  0.1088
  H  H44  1  0.191600  0.159800  0.620200  1.0  0.1039
  H  H45  1  0.355200  0.306100  0.700000  1.0  0.1019
  H  H46  1  0.407100  0.351900  0.754800  1.0  0.1312
  H  H47  1  0.528500  0.443600  0.697100  1.0  0.1168
  H  H48  1  0.593800  0.489100  0.586300  1.0  0.1442
  H  H49  1  0.865600  0.674300  0.815700  1.0  0.0928
  H  H50  1  0.789900  0.654700  0.759200  1.0  0.1307
  H  H51  1  0.653700  0.586000  0.814400  1.0  0.1194
  H  H52  1  0.592500  0.543400  0.926000  1.0  0.136
  H  H53  1  0.407700  0.386300  0.296300  1.0  0.1083
  H  H54  1  0.811800  0.620200  0.220000  1.0  0.1039
  H  H55  1  0.944800  0.300000  0.006100  1.0  0.106
  H  H56  1  0.838100  0.245200  0.106700  1.0  0.13
  H  H57  1  0.774400  0.302900  0.140700  1.0  0.1169
  H  H58  1  0.819900  0.413700  0.075400  1.0  0.1444
  H  H59  1  0.318700  0.184300  0.490000  1.0  0.093
  H  H60  1  0.450900  0.240800  0.413900  1.0  0.1305
  H  H61  1  0.531900  0.185600  0.400400  1.0  0.1193
  H  H62  1  0.481500  0.074000  0.469400  1.0  0.1357
  H  H63  1  0.296000  0.703700  0.682600  1.0  0.1083
  H  H64  1  0.968200  0.780000  0.840200  1.0  0.1026
  H  H65  1  0.950900  0.006100  0.693900  1.0  0.1044
  H  H66  1  0.944800  0.106700  0.648100  1.0  0.1318
  H  H67  1  0.915100  0.140700  0.556400  1.0  0.1187
  H  H68  1  0.895300  0.075400  0.510900  1.0  0.146
  H  H69  1  0.808700  0.490000  0.325700  1.0  0.0944
  H  H70  1  0.864800  0.413900  0.345300  1.0  0.1311
  H  H71  1  0.932300  0.400400  0.414000  1.0  0.1194
  H  H72  1  0.950900  0.469400  0.456600  1.0  0.1375
  H  H73  1  0.978600  0.682600  0.613700  1.0  0.1099
  H  H74  1  0.808400  0.840200  0.379800  1.0  0.1035
  H  H75  1  0.644800  0.693900  0.300000  1.0  0.102
  H  H76  1  0.592900  0.648100  0.245200  1.0  0.1303
  H  H77  1  0.471500  0.556400  0.302900  1.0  0.1174
  H  H78  1  0.406200  0.510900  0.413700  1.0  0.1438
  H  H79  1  0.134400  0.325700  0.184300  1.0  0.0918
  H  H80  1  0.210100  0.345300  0.240800  1.0  0.1306
  H  H81  1  0.346300  0.414000  0.185600  1.0  0.1199
  H  H82  1  0.407500  0.456600  0.074000  1.0  0.1361
  H  H83  1  0.592300  0.613700  0.703700  1.0  0.1092
  H  H84  1  0.188200  0.379800  0.780000  1.0  0.1038
  C  C85  1  0.080050  0.676880  0.979630  1.0  0.1293
  C  C86  1  0.144470  0.710320  0.919410  1.0  0.0223
  C  C87  1  0.181970  0.675630  0.899420  1.0  -0.0733
  C  C88  1  0.155570  0.610180  0.937770  1.0  -0.0899
  C  C89  1  0.091190  0.580930  0.996960  1.0  0.1712
  C  C90  1  0.055880  0.511350  0.044410  1.0  0.2855
  C  C91  1  0.025900  0.413680  0.097880  1.0  0.3119
  C  C92  1  0.013000  0.345680  0.127680  1.0  0.2793
  C  C93  1  0.647760  0.837920  0.514040  1.0  0.178
  C  C94  1  0.569200  0.804000  0.560100  1.0  -0.1059
  C  C95  1  0.520900  0.836400  0.567600  1.0  -0.0973
  C  C96  1  0.550900  0.903000  0.526800  1.0  -0.0818
  C  C97  1  0.630130  0.933920  0.480530  1.0  0.1608
  C  C98  1  0.670640  0.004760  0.435540  1.0  0.3166
  C  C99  1  0.706930  0.102880  0.382790  1.0  0.3131
  C  C100  1  0.719820  0.170680  0.352220  1.0  0.2884
  C  C101  1  0.720030  0.262410  0.320920  1.0  0.2617
  C  C102  1  0.015710  0.253470  0.157840  1.0  0.2619
  C  C103  1  0.059680  0.979630  0.343490  1.0  0.1339
  C  C104  1  0.063880  0.919410  0.370270  1.0  0.0199
  C  C105  1  0.081390  0.899420  0.424950  1.0  -0.0738
  C  C106  1  0.093340  0.937770  0.452050  1.0  -0.0924
  C  C107  1  0.088150  0.996960  0.422110  1.0  0.1694
  C  C108  1  0.100290  0.044410  0.444240  1.0  0.2848
  C  C109  1  0.123780  0.097880  0.488440  1.0  0.311
  C  C110  1  0.140680  0.127680  0.526640  1.0  0.2799
  C  C111  1  0.161800  0.514040  0.648040  1.0  0.1779
  C  C112  1  0.129300  0.560100  0.635900  1.0  -0.1052
  C  C113  1  0.088500  0.567600  0.596000  1.0  -0.0962
  C  C114  1  0.077700  0.526800  0.570200  1.0  -0.084
  C  C115  1  0.110660  0.480530  0.585550  1.0  0.1585
  C  C116  1  0.106180  0.435540  0.559700  1.0  0.3169
  C  C117  1  0.089720  0.382790  0.514330  1.0  0.3111
  C  C118  1  0.072040  0.352220  0.477100  1.0  0.2888
  C  C119  1  0.040950  0.320920  0.416670  1.0  0.263
  C  C120  1  0.173550  0.157840  0.588690  1.0  0.2663
  C  C121  1  0.403170  0.343490  0.676880  1.0  0.1298
  C  C122  1  0.434150  0.370270  0.710320  1.0  0.0189
  C  C123  1  0.506340  0.424950  0.675630  1.0  -0.0754
  C  C124  1  0.545390  0.452050  0.610180  1.0  -0.0903
  C  C125  1  0.510260  0.422110  0.580930  1.0  0.1669
  C  C126  1  0.544530  0.444240  0.511350  1.0  0.285
  C  C127  1  0.612220  0.488440  0.413680  1.0  0.3102
  C  C128  1  0.667320  0.526640  0.345680  1.0  0.2793
  C  C129  1  0.809840  0.648040  0.837920  1.0  0.1778
  C  C130  1  0.765200  0.635900  0.804000  1.0  -0.1056
  C  C131  1  0.684500  0.596000  0.836400  1.0  -0.0959
  C  C132  1  0.647900  0.570200  0.903000  1.0  -0.0818
  C  C133  1  0.696210  0.585550  0.933920  1.0  0.1606
  C  C134  1  0.665880  0.559700  0.004760  1.0  0.3173
  C  C135  1  0.604050  0.514330  0.102880  1.0  0.3121
  C  C136  1  0.549140  0.477100  0.170680  1.0  0.2891
  C  C137  1  0.457620  0.416670  0.262410  1.0  0.2616
  C  C138  1  0.762240  0.588690  0.253470  1.0  0.2631
  C  C139  1  0.919950  0.323120  0.020370  1.0  0.1301
  C  C140  1  0.855530  0.289680  0.080590  1.0  0.0155
  C  C141  1  0.818030  0.324370  0.100580  1.0  -0.0752
  C  C142  1  0.844430  0.389820  0.062230  1.0  -0.0883
  C  C143  1  0.908810  0.419070  0.003040  1.0  0.1707
  C  C144  1  0.944120  0.488650  0.955590  1.0  0.2866
  C  C145  1  0.974100  0.586320  0.902120  1.0  0.3098
  C  C146  1  0.987000  0.654320  0.872320  1.0  0.2792
  C  C147  1  0.352240  0.162080  0.485960  1.0  0.1774
  C  C148  1  0.430800  0.196000  0.439900  1.0  -0.1053
  C  C149  1  0.479100  0.163600  0.432400  1.0  -0.0952
  C  C150  1  0.449100  0.097000  0.473200  1.0  -0.0815
  C  C151  1  0.369870  0.066080  0.519470  1.0  0.1608
  C  C152  1  0.329360  0.995240  0.564460  1.0  0.3168
  C  C153  1  0.293070  0.897120  0.617210  1.0  0.3121
  C  C154  1  0.280180  0.829320  0.647780  1.0  0.2881
  C  C155  1  0.279970  0.737590  0.679080  1.0  0.2615
  C  C156  1  0.984290  0.746530  0.842160  1.0  0.2616
  C  C157  1  0.940320  0.020370  0.656510  1.0  0.1307
  C  C158  1  0.936120  0.080590  0.629730  1.0  0.0179
  C  C159  1  0.918610  0.100580  0.575050  1.0  -0.0719
  C  C160  1  0.906660  0.062230  0.547950  1.0  -0.0931
  C  C161  1  0.911850  0.003040  0.577890  1.0  0.1672
  C  C162  1  0.899710  0.955590  0.555760  1.0  0.2863
  C  C163  1  0.876220  0.902120  0.511560  1.0  0.3107
  C  C164  1  0.859320  0.872320  0.473360  1.0  0.2794
  C  C165  1  0.838200  0.485960  0.351960  1.0  0.1771
  C  C166  1  0.870700  0.439900  0.364100  1.0  -0.1034
  C  C167  1  0.911500  0.432400  0.404000  1.0  -0.0956
  C  C168  1  0.922300  0.473200  0.429800  1.0  -0.086
  C  C169  1  0.889340  0.519470  0.414450  1.0  0.1586
  C  C170  1  0.893820  0.564460  0.440300  1.0  0.3176
  C  C171  1  0.910280  0.617210  0.485670  1.0  0.3111
  C  C172  1  0.927960  0.647780  0.522900  1.0  0.289
  C  C173  1  0.959050  0.679080  0.583330  1.0  0.2618
  C  C174  1  0.826450  0.842160  0.411310  1.0  0.2663
  C  C175  1  0.596830  0.656510  0.323120  1.0  0.1311
  C  C176  1  0.565850  0.629730  0.289680  1.0  0.018
  C  C177  1  0.493660  0.575050  0.324370  1.0  -0.0727
  C  C178  1  0.454610  0.547950  0.389820  1.0  -0.0901
  C  C179  1  0.489740  0.577890  0.419070  1.0  0.1674
  C  C180  1  0.455470  0.555760  0.488650  1.0  0.2879
  C  C181  1  0.387780  0.511560  0.586320  1.0  0.3101
  C  C182  1  0.332680  0.473360  0.654320  1.0  0.2784
  C  C183  1  0.190160  0.351960  0.162080  1.0  0.1781
  C  C184  1  0.234800  0.364100  0.196000  1.0  -0.1061
  C  C185  1  0.315500  0.404000  0.163600  1.0  -0.0971
  C  C186  1  0.352100  0.429800  0.097000  1.0  -0.0809
  C  C187  1  0.303790  0.414450  0.066080  1.0  0.161
  C  C188  1  0.334120  0.440300  0.995240  1.0  0.3171
  C  C189  1  0.395950  0.485670  0.897120  1.0  0.3102
  C  C190  1  0.450860  0.522900  0.829320  1.0  0.2893
  C  C191  1  0.542380  0.583330  0.737590  1.0  0.26
  C  C192  1  0.237760  0.411310  0.746530  1.0  0.2647
  S  S193  1  0.010160  0.214790  0.336870  1.0  1.7042
  S  S194  1  0.950060  0.069790  0.276350  1.0  1.6435
  S  S195  1  0.347030  0.336870  0.448340  1.0  1.7041
  S  S196  1  0.226410  0.276350  0.653860  1.0  1.6482
  S  S197  1  0.795370  0.448340  0.214790  1.0  1.7051
  S  S198  1  0.880270  0.653860  0.069790  1.0  1.6493
  S  S199  1  0.989840  0.785210  0.663130  1.0  1.7041
  S  S200  1  0.049940  0.930210  0.723650  1.0  1.6494
  S  S201  1  0.652970  0.663130  0.551660  1.0  1.7051
  S  S202  1  0.773590  0.723650  0.346140  1.0  1.6471
  S  S203  1  0.204630  0.551660  0.785210  1.0  1.7046
  S  S204  1  0.119730  0.346140  0.930210  1.0  1.6478
  N  N205  1  0.052510  0.613460  0.017730  1.0  -0.3174
  N  N206  1  0.989840  0.490060  0.096740  1.0  -0.201
  N  N207  1  0.969580  0.426020  0.132720  1.0  -0.3584
  N  N208  1  0.081830  0.465100  0.042410  1.0  -0.3715
  N  N209  1  0.947160  0.305710  0.181550  1.0  -0.2409
  N  N210  1  0.948820  0.245470  0.201170  1.0  -0.2029
  N  N211  1  0.678520  0.902780  0.474020  1.0  -0.3135
  N  N212  1  0.746020  0.025670  0.392310  1.0  -0.3857
  N  N213  1  0.769790  0.090820  0.357080  1.0  -0.3327
  N  N214  1  0.642310  0.050940  0.431710  1.0  -0.3995
  N  N215  1  0.791820  0.210880  0.302120  1.0  -0.327
  N  N216  1  0.791810  0.271000  0.281570  1.0  -0.2943
  N  N217  1  0.672790  0.200250  0.366280  1.0  -0.3878
  N  N218  1  0.058210  0.315720  0.110410  1.0  -0.4226
  N  N219  1  0.070240  0.017730  0.368810  1.0  -0.3152
  N  N220  1  0.086580  0.096740  0.413200  1.0  -0.1999
  N  N221  1  0.102300  0.132720  0.441260  1.0  -0.3565
  N  N222  1  0.124240  0.042410  0.492490  1.0  -0.3687
  N  N223  1  0.128710  0.181550  0.512740  1.0  -0.2412
  N  N224  1  0.149990  0.201170  0.553360  1.0  -0.2035
  N  N225  1  0.152540  0.474020  0.623200  1.0  -0.3117
  N  N226  1  0.138330  0.392310  0.582020  1.0  -0.3853
  N  N227  1  0.126870  0.357080  0.552100  1.0  -0.3331
  N  N228  1  0.074020  0.431710  0.517350  1.0  -0.4028
  N  N229  1  0.093940  0.302120  0.487000  1.0  -0.3256
  N  N230  1  0.073380  0.281570  0.447430  1.0  -0.2969
  N  N231  1  0.039070  0.366280  0.433470  1.0  -0.3902
  N  N232  1  0.168620  0.110410  0.573870  1.0  -0.4257
  N  N233  1  0.439050  0.368810  0.613460  1.0  -0.3204
  N  N234  1  0.499780  0.413200  0.490060  1.0  -0.2012
  N  N235  1  0.543560  0.441260  0.426020  1.0  -0.3618
  N  N236  1  0.616730  0.492490  0.465100  1.0  -0.3692
  N  N237  1  0.641450  0.512740  0.305710  1.0  -0.2423
  N  N238  1  0.703350  0.553360  0.245470  1.0  -0.203
  N  N239  1  0.775740  0.623200  0.902780  1.0  -0.3152
  N  N240  1  0.720350  0.582020  0.025670  1.0  -0.3852
  N  N241  1  0.678970  0.552100  0.090820  1.0  -0.331
  N  N242  1  0.591370  0.517350  0.050940  1.0  -0.4035
  N  N243  1  0.580940  0.487000  0.210880  1.0  -0.3263
  N  N244  1  0.520810  0.447430  0.271000  1.0  -0.2966
  N  N245  1  0.472540  0.433470  0.200250  1.0  -0.3892
  N  N246  1  0.742490  0.573870  0.315720  1.0  -0.4252
  N  N247  1  0.947490  0.386540  0.982270  1.0  -0.318
  N  N248  1  0.010160  0.509940  0.903260  1.0  -0.2032
  N  N249  1  0.030420  0.573980  0.867280  1.0  -0.3569
  N  N250  1  0.918170  0.534900  0.957590  1.0  -0.3687
  N  N251  1  0.052840  0.694290  0.818450  1.0  -0.2416
  N  N252  1  0.051180  0.754530  0.798830  1.0  -0.2027
  N  N253  1  0.321480  0.097220  0.525980  1.0  -0.3149
  N  N254  1  0.253980  0.974330  0.607690  1.0  -0.383
  N  N255  1  0.230210  0.909180  0.642920  1.0  -0.3336
  N  N256  1  0.357690  0.949060  0.568290  1.0  -0.4017
  N  N257  1  0.208180  0.789120  0.697880  1.0  -0.3251
  N  N258  1  0.208190  0.729000  0.718430  1.0  -0.2964
  N  N259  1  0.327210  0.799750  0.633720  1.0  -0.3861
  N  N260  1  0.941790  0.684280  0.889590  1.0  -0.4249
  N  N261  1  0.929760  0.982270  0.631190  1.0  -0.3132
  N  N262  1  0.913420  0.903260  0.586800  1.0  -0.1992
  N  N263  1  0.897700  0.867280  0.558740  1.0  -0.3579
  N  N264  1  0.875760  0.957590  0.507510  1.0  -0.3675
  N  N265  1  0.871290  0.818450  0.487260  1.0  -0.2402
  N  N266  1  0.850010  0.798830  0.446640  1.0  -0.2019
  N  N267  1  0.847460  0.525980  0.376800  1.0  -0.3129
  N  N268  1  0.861670  0.607690  0.417980  1.0  -0.3839
  N  N269  1  0.873130  0.642920  0.447900  1.0  -0.3343
  N  N270  1  0.925980  0.568290  0.482650  1.0  -0.4018
  N  N271  1  0.906060  0.697880  0.513000  1.0  -0.3262
  N  N272  1  0.926620  0.718430  0.552570  1.0  -0.2967
  N  N273  1  0.960930  0.633720  0.566530  1.0  -0.3855
  N  N274  1  0.831380  0.889590  0.426130  1.0  -0.4235
  N  N275  1  0.560950  0.631190  0.386540  1.0  -0.3203
  N  N276  1  0.500220  0.586800  0.509940  1.0  -0.1998
  N  N277  1  0.456440  0.558740  0.573980  1.0  -0.3608
  N  N278  1  0.383270  0.507510  0.534900  1.0  -0.3686
  N  N279  1  0.358550  0.487260  0.694290  1.0  -0.2412
  N  N280  1  0.296650  0.446640  0.754530  1.0  -0.2025
  N  N281  1  0.224260  0.376800  0.097220  1.0  -0.3159
  N  N282  1  0.279650  0.417980  0.974330  1.0  -0.3828
  N  N283  1  0.321030  0.447900  0.909180  1.0  -0.3319
  N  N284  1  0.408630  0.482650  0.949060  1.0  -0.4021
  N  N285  1  0.419060  0.513000  0.789120  1.0  -0.326
  N  N286  1  0.479190  0.552570  0.729000  1.0  -0.2965
  N  N287  1  0.527460  0.566530  0.799750  1.0  -0.386
  N  N288  1  0.257510  0.426130  0.684280  1.0  -0.4253
  O  O289  1  0.905690  0.026340  0.346930  1.0  -0.7312
  O  O290  1  0.953550  0.034610  0.242160  1.0  -0.5342
  O  O291  1  0.909220  0.113790  0.251680  1.0  -0.709
  O  O292  1  0.030010  0.283230  0.294250  1.0  -0.6348
  O  O293  1  0.075790  0.197380  0.307940  1.0  -0.7539
  O  O294  1  0.007830  0.203850  0.401380  1.0  -0.762
  O  O295  1  0.034140  0.108580  0.265280  1.0  -0.7132
  O  O296  1  0.930230  0.172580  0.347640  1.0  -0.7176
  O  O297  1  0.252620  0.346930  0.626730  1.0  -0.7258
  O  O298  1  0.195710  0.242160  0.723230  1.0  -0.541
  O  O299  1  0.160900  0.251680  0.634530  1.0  -0.7079
  O  O300  1  0.324260  0.294250  0.422520  1.0  -0.6402
  O  O301  1  0.383730  0.307940  0.494680  1.0  -0.7535
  O  O302  1  0.409210  0.401380  0.394770  1.0  -0.7617
  O  O303  1  0.299420  0.265280  0.626140  1.0  -0.7103
  O  O304  1  0.277870  0.347640  0.479780  1.0  -0.7159
  O  O305  1  0.879350  0.626730  0.026340  1.0  -0.7288
  O  O306  1  0.918940  0.723230  0.034610  1.0  -0.5395
  O  O307  1  0.795430  0.634530  0.113790  1.0  -0.7096
  O  O308  1  0.746780  0.422520  0.283230  1.0  -0.6353
  O  O309  1  0.878410  0.494680  0.197380  1.0  -0.7515
  O  O310  1  0.803980  0.394770  0.203850  1.0  -0.7624
  O  O311  1  0.925560  0.626140  0.108580  1.0  -0.71
  O  O312  1  0.757650  0.479780  0.172580  1.0  -0.7177
  O  O313  1  0.094310  0.973660  0.653070  1.0  -0.7291
  O  O314  1  0.046450  0.965390  0.757840  1.0  -0.5309
  O  O315  1  0.090780  0.886210  0.748320  1.0  -0.7061
  O  O316  1  0.969990  0.716770  0.705750  1.0  -0.6354
  O  O317  1  0.924210  0.802620  0.692060  1.0  -0.7518
  O  O318  1  0.992170  0.796150  0.598620  1.0  -0.7611
  O  O319  1  0.965860  0.891420  0.734720  1.0  -0.7126
  O  O320  1  0.069770  0.827420  0.652360  1.0  -0.7162
  O  O321  1  0.747380  0.653070  0.373270  1.0  -0.7245
  O  O322  1  0.804290  0.757840  0.276770  1.0  -0.5449
  O  O323  1  0.839100  0.748320  0.365470  1.0  -0.711
  O  O324  1  0.675740  0.705750  0.577480  1.0  -0.6401
  O  O325  1  0.616270  0.692060  0.505320  1.0  -0.7522
  O  O326  1  0.590790  0.598620  0.605230  1.0  -0.7608
  O  O327  1  0.700580  0.734720  0.373860  1.0  -0.7148
  O  O328  1  0.722130  0.652360  0.520220  1.0  -0.7149
  O  O329  1  0.120650  0.373270  0.973660  1.0  -0.7281
  O  O330  1  0.081060  0.276770  0.965390  1.0  -0.5398
  O  O331  1  0.204570  0.365470  0.886210  1.0  -0.7066
  O  O332  1  0.253220  0.577480  0.716770  1.0  -0.6373
  O  O333  1  0.121590  0.505320  0.802620  1.0  -0.7524
  O  O334  1  0.196020  0.605230  0.796150  1.0  -0.7618
  O  O335  1  0.074440  0.373860  0.891420  1.0  -0.7083
  O  O336  1  0.242350  0.520220  0.827420  1.0  -0.7195
