# generated using pymatgen
data_ZnH22C32(N2O3)2
_symmetry_space_group_name_H-M   'P 1'
_cell_length_a   16.52760000
_cell_length_b   16.52760000
_cell_length_c   25.39590000
_cell_angle_alpha   90.00000000
_cell_angle_beta   90.00000000
_cell_angle_gamma   120.00000000
_symmetry_Int_Tables_number   1
_chemical_formula_structural   ZnH22C32(N2O3)2
_chemical_formula_sum   'Zn6 H132 C192 N24 O36'
_cell_volume   6007.77732038
_cell_formula_units_Z   6
loop_
 _symmetry_equiv_pos_site_id
 _symmetry_equiv_pos_as_xyz
  1  'x, y, z'
loop_
 _atom_site_type_symbol
 _atom_site_label
 _atom_site_symmetry_multiplicity
 _atom_site_fract_x
 _atom_site_fract_y
 _atom_site_fract_z
 _atom_site_occupancy
 _atom_site_charge
  Zn  Zn1  1  0.287040  0.712950  0.000000  1.0  0.9058
  Zn  Zn2  1  0.425910  0.712950  0.333333  1.0  0.9071
  Zn  Zn3  1  0.287040  0.574080  0.666667  1.0  0.9105
  Zn  Zn4  1  0.712960  0.287050  0.000000  1.0  0.9075
  Zn  Zn5  1  0.574090  0.287050  0.333333  1.0  0.9062
  Zn  Zn6  1  0.712960  0.425920  0.666667  1.0  0.9102
  H  H7  1  0.597600  0.820800  0.912200  1.0  0.1118
  H  H8  1  0.693400  0.485900  0.960100  1.0  0.1078
  H  H9  1  0.541800  0.455800  0.955600  1.0  0.065
  H  H10  1  0.100500  0.642400  0.051800  1.0  0.0636
  H  H11  1  0.943800  0.585100  0.030200  1.0  0.1128
  H  H12  1  0.022400  0.631100  0.881200  1.0  0.0972
  H  H13  1  0.583300  0.555600  0.817000  1.0  0.0784
  H  H14  1  0.734300  0.581800  0.821200  1.0  0.0767
  H  H15  1  0.170200  0.670200  0.906200  1.0  0.0735
  H  H16  1  0.833100  0.548400  0.966800  1.0  0.2435
  H  H17  1  0.223200  0.402400  0.245530  1.0  0.1127
  H  H18  1  0.792500  0.306600  0.293430  1.0  0.1083
  H  H19  1  0.914000  0.458200  0.288930  1.0  0.0644
  H  H20  1  0.541900  0.899500  0.385130  1.0  0.0634
  H  H21  1  0.641300  0.056200  0.363530  1.0  0.1142
  H  H22  1  0.608700  0.977600  0.214530  1.0  0.0971
  H  H23  1  0.972300  0.416700  0.150330  1.0  0.078
  H  H24  1  0.847500  0.265700  0.154530  1.0  0.0765
  H  H25  1  0.500000  0.829800  0.239530  1.0  0.0738
  H  H26  1  0.715300  0.166900  0.300130  1.0  0.2452
  H  H27  1  0.179200  0.776800  0.578870  1.0  0.1102
  H  H28  1  0.514100  0.207500  0.626770  1.0  0.1082
  H  H29  1  0.544200  0.086000  0.622270  1.0  0.0645
  H  H30  1  0.357600  0.458100  0.718470  1.0  0.0629
  H  H31  1  0.414900  0.358700  0.696870  1.0  0.1138
  H  H32  1  0.368900  0.391300  0.547870  1.0  0.0971
  H  H33  1  0.444400  0.027700  0.483670  1.0  0.0782
  H  H34  1  0.418200  0.152500  0.487870  1.0  0.0766
  H  H35  1  0.329800  0.500000  0.572870  1.0  0.0742
  H  H36  1  0.451600  0.284700  0.633470  1.0  0.2447
  H  H37  1  0.402400  0.179200  0.912200  1.0  0.1119
  H  H38  1  0.306600  0.514100  0.960100  1.0  0.1083
  H  H39  1  0.458200  0.544200  0.955600  1.0  0.0648
  H  H40  1  0.899500  0.357600  0.051800  1.0  0.0617
  H  H41  1  0.056200  0.414900  0.030200  1.0  0.1134
  H  H42  1  0.977600  0.368900  0.881200  1.0  0.0966
  H  H43  1  0.416700  0.444400  0.817000  1.0  0.0782
  H  H44  1  0.265700  0.418200  0.821200  1.0  0.0769
  H  H45  1  0.829800  0.329800  0.906200  1.0  0.0734
  H  H46  1  0.166900  0.451600  0.966800  1.0  0.2464
  H  H47  1  0.776800  0.597600  0.245530  1.0  0.1121
  H  H48  1  0.207500  0.693400  0.293430  1.0  0.1088
  H  H49  1  0.086000  0.541800  0.288930  1.0  0.0649
  H  H50  1  0.458100  0.100500  0.385130  1.0  0.0624
  H  H51  1  0.358700  0.943800  0.363530  1.0  0.1146
  H  H52  1  0.391300  0.022400  0.214530  1.0  0.0974
  H  H53  1  0.027700  0.583300  0.150330  1.0  0.0785
  H  H54  1  0.152500  0.734300  0.154530  1.0  0.0767
  H  H55  1  0.500000  0.170200  0.239530  1.0  0.074
  H  H56  1  0.284700  0.833100  0.300130  1.0  0.2457
  H  H57  1  0.820800  0.223200  0.578870  1.0  0.1104
  H  H58  1  0.485900  0.792500  0.626770  1.0  0.1078
  H  H59  1  0.455800  0.914000  0.622270  1.0  0.0649
  H  H60  1  0.642400  0.541900  0.718470  1.0  0.061
  H  H61  1  0.585100  0.641300  0.696870  1.0  0.1137
  H  H62  1  0.631100  0.608700  0.547870  1.0  0.0965
  H  H63  1  0.555600  0.972300  0.483670  1.0  0.0785
  H  H64  1  0.581800  0.847500  0.487870  1.0  0.0766
  H  H65  1  0.670200  0.500000  0.572870  1.0  0.0747
  H  H66  1  0.548400  0.715300  0.633470  1.0  0.244
  H  H67  1  0.776800  0.179200  0.421130  1.0  0.1116
  H  H68  1  0.207500  0.514100  0.373230  1.0  0.1071
  H  H69  1  0.086000  0.544200  0.377730  1.0  0.0655
  H  H70  1  0.458100  0.357600  0.281530  1.0  0.0639
  H  H71  1  0.358700  0.414900  0.303130  1.0  0.113
  H  H72  1  0.391300  0.368900  0.452130  1.0  0.0967
  H  H73  1  0.027700  0.444400  0.516330  1.0  0.0781
  H  H74  1  0.152500  0.418200  0.512130  1.0  0.0765
  H  H75  1  0.500000  0.329800  0.427130  1.0  0.0734
  H  H76  1  0.284700  0.451600  0.366530  1.0  0.2458
  H  H77  1  0.820800  0.597600  0.087800  1.0  0.1135
  H  H78  1  0.485900  0.693400  0.039900  1.0  0.1076
  H  H79  1  0.455800  0.541800  0.044400  1.0  0.0653
  H  H80  1  0.642400  0.100500  0.948200  1.0  0.064
  H  H81  1  0.585100  0.943800  0.969800  1.0  0.1143
  H  H82  1  0.631100  0.022400  0.118800  1.0  0.0969
  H  H83  1  0.555600  0.583300  0.183000  1.0  0.0778
  H  H84  1  0.581800  0.734300  0.178800  1.0  0.076
  H  H85  1  0.670200  0.170200  0.093800  1.0  0.0733
  H  H86  1  0.548400  0.833100  0.033200  1.0  0.2467
  H  H87  1  0.402400  0.223200  0.754470  1.0  0.1114
  H  H88  1  0.306600  0.792500  0.706570  1.0  0.1071
  H  H89  1  0.458200  0.914000  0.711070  1.0  0.0649
  H  H90  1  0.899500  0.541900  0.614870  1.0  0.0628
  H  H91  1  0.056200  0.641300  0.636470  1.0  0.1133
  H  H92  1  0.977600  0.608700  0.785470  1.0  0.0962
  H  H93  1  0.416700  0.972300  0.849670  1.0  0.0781
  H  H94  1  0.265700  0.847500  0.845470  1.0  0.0762
  H  H95  1  0.829800  0.500000  0.760470  1.0  0.074
  H  H96  1  0.166900  0.715300  0.699870  1.0  0.245
  H  H97  1  0.223200  0.820800  0.421130  1.0  0.1109
  H  H98  1  0.792500  0.485900  0.373230  1.0  0.1077
  H  H99  1  0.914000  0.455800  0.377730  1.0  0.0651
  H  H100  1  0.541900  0.642400  0.281530  1.0  0.0621
  H  H101  1  0.641300  0.585100  0.303130  1.0  0.1121
  H  H102  1  0.608700  0.631100  0.452130  1.0  0.0966
  H  H103  1  0.972300  0.555600  0.516330  1.0  0.0776
  H  H104  1  0.847500  0.581800  0.512130  1.0  0.0762
  H  H105  1  0.500000  0.670200  0.427130  1.0  0.0731
  H  H106  1  0.715300  0.548400  0.366530  1.0  0.2444
  H  H107  1  0.179200  0.402400  0.087800  1.0  0.1127
  H  H108  1  0.514100  0.306600  0.039900  1.0  0.108
  H  H109  1  0.544200  0.458200  0.044400  1.0  0.0645
  H  H110  1  0.357600  0.899500  0.948200  1.0  0.0628
  H  H111  1  0.414900  0.056200  0.969800  1.0  0.1144
  H  H112  1  0.368900  0.977600  0.118800  1.0  0.0963
  H  H113  1  0.444400  0.416700  0.183000  1.0  0.0783
  H  H114  1  0.418200  0.265700  0.178800  1.0  0.0764
  H  H115  1  0.329800  0.829800  0.093800  1.0  0.0735
  H  H116  1  0.451600  0.166900  0.033200  1.0  0.246
  H  H117  1  0.597600  0.776800  0.754470  1.0  0.1117
  H  H118  1  0.693400  0.207500  0.706570  1.0  0.1069
  H  H119  1  0.541800  0.086000  0.711070  1.0  0.0654
  H  H120  1  0.100500  0.458100  0.614870  1.0  0.0615
  H  H121  1  0.943800  0.358700  0.636470  1.0  0.1131
  H  H122  1  0.022400  0.391300  0.785470  1.0  0.0965
  H  H123  1  0.583300  0.027700  0.849670  1.0  0.0779
  H  H124  1  0.734300  0.152500  0.845470  1.0  0.0759
  H  H125  1  0.170200  0.500000  0.760470  1.0  0.0743
  H  H126  1  0.833100  0.284700  0.699870  1.0  0.2444
  H  H127  1  0.356000  0.678000  0.833330  1.0  0.0867
  H  H128  1  0.679100  0.839550  0.833330  1.0  0.0916
  H  H129  1  0.322000  0.644000  0.166670  1.0  0.0875
  H  H130  1  0.160450  0.320900  0.166670  1.0  0.0909
  H  H131  1  0.322000  0.678000  0.500000  1.0  0.087
  H  H132  1  0.160450  0.839550  0.500000  1.0  0.0917
  H  H133  1  0.644000  0.322000  0.833330  1.0  0.0869
  H  H134  1  0.320900  0.160450  0.833330  1.0  0.0916
  H  H135  1  0.678000  0.356000  0.166670  1.0  0.088
  H  H136  1  0.839550  0.679100  0.166670  1.0  0.0937
  H  H137  1  0.678000  0.322000  0.500000  1.0  0.0868
  H  H138  1  0.839550  0.160450  0.500000  1.0  0.0918
  C  C139  1  0.415900  0.739900  0.929250  1.0  0.662
  C  C140  1  0.467100  0.749300  0.879330  1.0  -0.1722
  C  C141  1  0.565500  0.796800  0.880800  1.0  -0.0854
  C  C142  1  0.734400  0.550100  0.894340  1.0  0.2166
  C  C143  1  0.834700  0.578400  0.895700  1.0  0.4722
  C  C144  1  0.674900  0.506200  0.930700  1.0  -0.1767
  C  C145  1  0.581200  0.487400  0.927600  1.0  -0.137
  C  C146  1  0.084400  0.638400  0.016400  1.0  0.1713
  C  C147  1  0.988500  0.604700  0.003650  1.0  -0.2013
  C  C148  1  0.035400  0.630100  0.916740  1.0  -0.217
  C  C149  1  0.963700  0.601600  0.953270  1.0  0.2672
  C  C150  1  0.604600  0.543600  0.848300  1.0  -0.2057
  C  C151  1  0.697600  0.561300  0.851400  1.0  -0.0923
  C  C152  1  0.547000  0.510300  0.889310  1.0  0.2384
  C  C153  1  0.125500  0.656700  0.932160  1.0  0.1753
  C  C154  1  0.324000  0.584100  0.262580  1.0  0.6629
  C  C155  1  0.282200  0.532900  0.212660  1.0  -0.175
  C  C156  1  0.231300  0.434500  0.214130  1.0  -0.0833
  C  C157  1  0.815700  0.265600  0.227670  1.0  0.2154
  C  C158  1  0.743700  0.165300  0.229030  1.0  0.4768
  C  C159  1  0.831300  0.325100  0.264030  1.0  -0.1754
  C  C160  1  0.906200  0.418800  0.260930  1.0  -0.1376
  C  C161  1  0.554000  0.915600  0.349730  1.0  0.1724
  C  C162  1  0.616200  0.011500  0.336980  1.0  -0.1997
  C  C163  1  0.594700  0.964600  0.250070  1.0  -0.2126
  C  C164  1  0.637900  0.036300  0.286600  1.0  0.2677
  C  C165  1  0.939000  0.395400  0.181630  1.0  -0.2034
  C  C166  1  0.863700  0.302400  0.184730  1.0  -0.0885
  C  C167  1  0.963300  0.453000  0.222640  1.0  0.2404
  C  C168  1  0.531200  0.874500  0.265490  1.0  0.1766
  C  C169  1  0.260100  0.676000  0.595920  1.0  0.661
  C  C170  1  0.250700  0.717800  0.546000  1.0  -0.1732
  C  C171  1  0.203200  0.768700  0.547470  1.0  -0.086
  C  C172  1  0.449900  0.184300  0.561010  1.0  0.2136
  C  C173  1  0.421600  0.256300  0.562370  1.0  0.4747
  C  C174  1  0.493800  0.168700  0.597370  1.0  -0.1775
  C  C175  1  0.512600  0.093800  0.594270  1.0  -0.1388
  C  C176  1  0.361600  0.446000  0.683070  1.0  0.1688
  C  C177  1  0.395300  0.383800  0.670320  1.0  -0.1998
  C  C178  1  0.369900  0.405300  0.583410  1.0  -0.2154
  C  C179  1  0.398400  0.362100  0.619940  1.0  0.2655
  C  C180  1  0.456400  0.061000  0.514970  1.0  -0.2022
  C  C181  1  0.438700  0.136300  0.518070  1.0  -0.0924
  C  C182  1  0.489700  0.036700  0.555980  1.0  0.2392
  C  C183  1  0.343300  0.468800  0.598830  1.0  0.1752
  C  C184  1  0.584100  0.260100  0.929250  1.0  0.662
  C  C185  1  0.532900  0.250700  0.879330  1.0  -0.173
  C  C186  1  0.434500  0.203200  0.880800  1.0  -0.0874
  C  C187  1  0.265600  0.449900  0.894340  1.0  0.2158
  C  C188  1  0.165300  0.421600  0.895700  1.0  0.4728
  C  C189  1  0.325100  0.493800  0.930700  1.0  -0.1772
  C  C190  1  0.418800  0.512600  0.927600  1.0  -0.1376
  C  C191  1  0.915600  0.361600  0.016400  1.0  0.1694
  C  C192  1  0.011500  0.395300  0.003650  1.0  -0.1995
  C  C193  1  0.964600  0.369900  0.916740  1.0  -0.2157
  C  C194  1  0.036300  0.398400  0.953270  1.0  0.2674
  C  C195  1  0.395400  0.456400  0.848300  1.0  -0.2055
  C  C196  1  0.302400  0.438700  0.851400  1.0  -0.0947
  C  C197  1  0.453000  0.489700  0.889310  1.0  0.2374
  C  C198  1  0.874500  0.343300  0.932160  1.0  0.1744
  C  C199  1  0.676000  0.415900  0.262580  1.0  0.6628
  C  C200  1  0.717800  0.467100  0.212660  1.0  -0.1744
  C  C201  1  0.768700  0.565500  0.214130  1.0  -0.0858
  C  C202  1  0.184300  0.734400  0.227670  1.0  0.2179
  C  C203  1  0.256300  0.834700  0.229030  1.0  0.4763
  C  C204  1  0.168700  0.674900  0.264030  1.0  -0.177
  C  C205  1  0.093800  0.581200  0.260930  1.0  -0.1375
  C  C206  1  0.446000  0.084400  0.349730  1.0  0.1716
  C  C207  1  0.383800  0.988500  0.336980  1.0  -0.1997
  C  C208  1  0.405300  0.035400  0.250070  1.0  -0.2121
  C  C209  1  0.362100  0.963700  0.286600  1.0  0.2673
  C  C210  1  0.061000  0.604600  0.181630  1.0  -0.2045
  C  C211  1  0.136300  0.697600  0.184730  1.0  -0.091
  C  C212  1  0.036700  0.547000  0.222640  1.0  0.2393
  C  C213  1  0.468800  0.125500  0.265490  1.0  0.1751
  C  C214  1  0.739900  0.324000  0.595920  1.0  0.6617
  C  C215  1  0.749300  0.282200  0.546000  1.0  -0.1726
  C  C216  1  0.796800  0.231300  0.547470  1.0  -0.0835
  C  C217  1  0.550100  0.815700  0.561010  1.0  0.213
  C  C218  1  0.578400  0.743700  0.562370  1.0  0.4753
  C  C219  1  0.506200  0.831300  0.597370  1.0  -0.1771
  C  C220  1  0.487400  0.906200  0.594270  1.0  -0.1375
  C  C221  1  0.638400  0.554000  0.683070  1.0  0.17
  C  C222  1  0.604700  0.616200  0.670320  1.0  -0.1988
  C  C223  1  0.630100  0.594700  0.583410  1.0  -0.2156
  C  C224  1  0.601600  0.637900  0.619940  1.0  0.2671
  C  C225  1  0.543600  0.939000  0.514970  1.0  -0.2016
  C  C226  1  0.561300  0.863700  0.518070  1.0  -0.0881
  C  C227  1  0.510300  0.963300  0.555980  1.0  0.2403
  C  C228  1  0.656700  0.531200  0.598830  1.0  0.1745
  C  C229  1  0.676000  0.260100  0.404080  1.0  0.662
  C  C230  1  0.717800  0.250700  0.454000  1.0  -0.1718
  C  C231  1  0.768700  0.203200  0.452530  1.0  -0.0843
  C  C232  1  0.184300  0.449900  0.438990  1.0  0.2153
  C  C233  1  0.256300  0.421600  0.437630  1.0  0.4727
  C  C234  1  0.168700  0.493800  0.402630  1.0  -0.1768
  C  C235  1  0.093800  0.512600  0.405730  1.0  -0.1361
  C  C236  1  0.446000  0.361600  0.316930  1.0  0.1694
  C  C237  1  0.383800  0.395300  0.329680  1.0  -0.2008
  C  C238  1  0.405300  0.369900  0.416590  1.0  -0.2158
  C  C239  1  0.362100  0.398400  0.380060  1.0  0.2668
  C  C240  1  0.061000  0.456400  0.485030  1.0  -0.2044
  C  C241  1  0.136300  0.438700  0.481930  1.0  -0.0928
  C  C242  1  0.036700  0.489700  0.444020  1.0  0.2388
  C  C243  1  0.468800  0.343300  0.401170  1.0  0.1746
  C  C244  1  0.739900  0.415900  0.070750  1.0  0.663
  C  C245  1  0.749300  0.467100  0.120670  1.0  -0.1713
  C  C246  1  0.796800  0.565500  0.119200  1.0  -0.0856
  C  C247  1  0.550100  0.734400  0.105660  1.0  0.2155
  C  C248  1  0.578400  0.834700  0.104300  1.0  0.4761
  C  C249  1  0.506200  0.674900  0.069300  1.0  -0.1751
  C  C250  1  0.487400  0.581200  0.072400  1.0  -0.1384
  C  C251  1  0.638400  0.084400  0.983600  1.0  0.1718
  C  C252  1  0.604700  0.988500  0.996350  1.0  -0.1987
  C  C253  1  0.630100  0.035400  0.083260  1.0  -0.2122
  C  C254  1  0.601600  0.963700  0.046730  1.0  0.2675
  C  C255  1  0.543600  0.604600  0.151700  1.0  -0.2029
  C  C256  1  0.561300  0.697600  0.148600  1.0  -0.0892
  C  C257  1  0.510300  0.547000  0.110690  1.0  0.2412
  C  C258  1  0.656700  0.125500  0.067840  1.0  0.1773
  C  C259  1  0.584100  0.324000  0.737420  1.0  0.661
  C  C260  1  0.532900  0.282200  0.787340  1.0  -0.1755
  C  C261  1  0.434500  0.231300  0.785870  1.0  -0.0861
  C  C262  1  0.265600  0.815700  0.772330  1.0  0.2139
  C  C263  1  0.165300  0.743700  0.770970  1.0  0.4753
  C  C264  1  0.325100  0.831300  0.735970  1.0  -0.1773
  C  C265  1  0.418800  0.906200  0.739070  1.0  -0.1398
  C  C266  1  0.915600  0.554000  0.650270  1.0  0.1686
  C  C267  1  0.011500  0.616200  0.663020  1.0  -0.1984
  C  C268  1  0.964600  0.594700  0.749930  1.0  -0.2145
  C  C269  1  0.036300  0.637900  0.713400  1.0  0.2661
  C  C270  1  0.395400  0.939000  0.818370  1.0  -0.2018
  C  C271  1  0.302400  0.863700  0.815270  1.0  -0.0935
  C  C272  1  0.453000  0.963300  0.777360  1.0  0.24
  C  C273  1  0.874500  0.531200  0.734510  1.0  0.1743
  C  C274  1  0.324000  0.739900  0.404080  1.0  0.6618
  C  C275  1  0.282200  0.749300  0.454000  1.0  -0.1728
  C  C276  1  0.231300  0.796800  0.452530  1.0  -0.086
  C  C277  1  0.815700  0.550100  0.438990  1.0  0.2166
  C  C278  1  0.743700  0.578400  0.437630  1.0  0.4718
  C  C279  1  0.831300  0.506200  0.402630  1.0  -0.1768
  C  C280  1  0.906200  0.487400  0.405730  1.0  -0.1383
  C  C281  1  0.554000  0.638400  0.316930  1.0  0.1702
  C  C282  1  0.616200  0.604700  0.329680  1.0  -0.198
  C  C283  1  0.594700  0.630100  0.416590  1.0  -0.2149
  C  C284  1  0.637900  0.601600  0.380060  1.0  0.2675
  C  C285  1  0.939000  0.543600  0.485030  1.0  -0.2064
  C  C286  1  0.863700  0.561300  0.481930  1.0  -0.0966
  C  C287  1  0.963300  0.510300  0.444020  1.0  0.2389
  C  C288  1  0.531200  0.656700  0.401170  1.0  0.175
  C  C289  1  0.260100  0.584100  0.070750  1.0  0.6629
  C  C290  1  0.250700  0.532900  0.120670  1.0  -0.1712
  C  C291  1  0.203200  0.434500  0.119200  1.0  -0.0851
  C  C292  1  0.449900  0.265600  0.105660  1.0  0.2167
  C  C293  1  0.421600  0.165300  0.104300  1.0  0.4752
  C  C294  1  0.493800  0.325100  0.069300  1.0  -0.1766
  C  C295  1  0.512600  0.418800  0.072400  1.0  -0.1367
  C  C296  1  0.361600  0.915600  0.983600  1.0  0.171
  C  C297  1  0.395300  0.011500  0.996350  1.0  -0.2009
  C  C298  1  0.369900  0.964600  0.083260  1.0  -0.2106
  C  C299  1  0.398400  0.036300  0.046730  1.0  0.2675
  C  C300  1  0.456400  0.395400  0.151700  1.0  -0.2044
  C  C301  1  0.438700  0.302400  0.148600  1.0  -0.0898
  C  C302  1  0.489700  0.453000  0.110690  1.0  0.2394
  C  C303  1  0.343300  0.874500  0.067840  1.0  0.1744
  C  C304  1  0.415900  0.676000  0.737420  1.0  0.6619
  C  C305  1  0.467100  0.717800  0.787340  1.0  -0.1757
  C  C306  1  0.565500  0.768700  0.785870  1.0  -0.0836
  C  C307  1  0.734400  0.184300  0.772330  1.0  0.2116
  C  C308  1  0.834700  0.256300  0.770970  1.0  0.4747
  C  C309  1  0.674900  0.168700  0.735970  1.0  -0.1765
  C  C310  1  0.581200  0.093800  0.739070  1.0  -0.1367
  C  C311  1  0.084400  0.446000  0.650270  1.0  0.1692
  C  C312  1  0.988500  0.383800  0.663020  1.0  -0.1985
  C  C313  1  0.035400  0.405300  0.749930  1.0  -0.2147
  C  C314  1  0.963700  0.362100  0.713400  1.0  0.2666
  C  C315  1  0.604600  0.061000  0.818370  1.0  -0.2009
  C  C316  1  0.697600  0.136300  0.815270  1.0  -0.0882
  C  C317  1  0.547000  0.036700  0.777360  1.0  0.2404
  C  C318  1  0.125500  0.468800  0.734510  1.0  0.1746
  C  C319  1  0.421000  0.710500  0.833330  1.0  0.0026
  C  C320  1  0.614100  0.807050  0.833330  1.0  -0.1351
  C  C321  1  0.289500  0.579000  0.166670  1.0  0.0041
  C  C322  1  0.192950  0.385900  0.166670  1.0  -0.1324
  C  C323  1  0.289500  0.710500  0.500000  1.0  0.005
  C  C324  1  0.192950  0.807050  0.500000  1.0  -0.1383
  C  C325  1  0.579000  0.289500  0.833330  1.0  0.0014
  C  C326  1  0.385900  0.192950  0.833330  1.0  -0.1384
  C  C327  1  0.710500  0.421000  0.166670  1.0  0.006
  C  C328  1  0.807050  0.614100  0.166670  1.0  -0.1279
  C  C329  1  0.710500  0.289500  0.500000  1.0  0.0063
  C  C330  1  0.807050  0.192950  0.500000  1.0  -0.1362
  N  N331  1  0.150830  0.663910  0.981450  1.0  -0.3562
  N  N332  1  0.871940  0.573140  0.941200  1.0  -0.3448
  N  N333  1  0.513080  0.849170  0.314780  1.0  -0.3567
  N  N334  1  0.701200  0.128060  0.274530  1.0  -0.3426
  N  N335  1  0.336090  0.486920  0.648120  1.0  -0.3577
  N  N336  1  0.426860  0.298800  0.607870  1.0  -0.3444
  N  N337  1  0.849170  0.336090  0.981450  1.0  -0.3558
  N  N338  1  0.128060  0.426860  0.941200  1.0  -0.3446
  N  N339  1  0.486920  0.150830  0.314780  1.0  -0.3572
  N  N340  1  0.298800  0.871940  0.274530  1.0  -0.3412
  N  N341  1  0.663910  0.513080  0.648120  1.0  -0.3569
  N  N342  1  0.573140  0.701200  0.607870  1.0  -0.3439
  N  N343  1  0.486920  0.336090  0.351880  1.0  -0.3565
  N  N344  1  0.298800  0.426860  0.392130  1.0  -0.3448
  N  N345  1  0.663910  0.150830  0.018550  1.0  -0.357
  N  N346  1  0.573140  0.871940  0.058800  1.0  -0.3422
  N  N347  1  0.849170  0.513080  0.685220  1.0  -0.3575
  N  N348  1  0.128060  0.701200  0.725470  1.0  -0.3459
  N  N349  1  0.513080  0.663910  0.351880  1.0  -0.3559
  N  N350  1  0.701200  0.573140  0.392130  1.0  -0.3448
  N  N351  1  0.336090  0.849170  0.018550  1.0  -0.3569
  N  N352  1  0.426860  0.128060  0.058800  1.0  -0.3441
  N  N353  1  0.150830  0.486920  0.685220  1.0  -0.3558
  N  N354  1  0.871940  0.298800  0.725470  1.0  -0.3447
  O  O355  1  0.330280  0.708710  0.928340  1.0  -0.5841
  O  O356  1  0.461300  0.765320  0.971430  1.0  -0.6514
  O  O357  1  0.882600  0.608500  0.856530  1.0  -0.4969
  O  O358  1  0.378430  0.669720  0.261670  1.0  -0.584
  O  O359  1  0.304020  0.538700  0.304760  1.0  -0.6509
  O  O360  1  0.725900  0.117400  0.189860  1.0  -0.4965
  O  O361  1  0.291290  0.621570  0.595010  1.0  -0.5823
  O  O362  1  0.234680  0.695980  0.638100  1.0  -0.6528
  O  O363  1  0.391500  0.274100  0.523200  1.0  -0.492
  O  O364  1  0.669720  0.291290  0.928340  1.0  -0.5851
  O  O365  1  0.538700  0.234680  0.971430  1.0  -0.6521
  O  O366  1  0.117400  0.391500  0.856530  1.0  -0.497
  O  O367  1  0.621570  0.330280  0.261670  1.0  -0.5849
  O  O368  1  0.695980  0.461300  0.304760  1.0  -0.6508
  O  O369  1  0.274100  0.882600  0.189860  1.0  -0.4978
  O  O370  1  0.708710  0.378430  0.595010  1.0  -0.5815
  O  O371  1  0.765320  0.304020  0.638100  1.0  -0.6527
  O  O372  1  0.608500  0.725900  0.523200  1.0  -0.4929
  O  O373  1  0.621570  0.291290  0.404990  1.0  -0.5836
  O  O374  1  0.695980  0.234680  0.361900  1.0  -0.6529
  O  O375  1  0.274100  0.391500  0.476800  1.0  -0.4903
  O  O376  1  0.708710  0.330280  0.071660  1.0  -0.5838
  O  O377  1  0.765320  0.461300  0.028570  1.0  -0.6519
  O  O378  1  0.608500  0.882600  0.143470  1.0  -0.4962
  O  O379  1  0.669720  0.378430  0.738330  1.0  -0.5826
  O  O380  1  0.538700  0.304020  0.695240  1.0  -0.6538
  O  O381  1  0.117400  0.725900  0.810140  1.0  -0.4946
  O  O382  1  0.378430  0.708710  0.404990  1.0  -0.5848
  O  O383  1  0.304020  0.765320  0.361900  1.0  -0.6534
  O  O384  1  0.725900  0.608500  0.476800  1.0  -0.4883
  O  O385  1  0.291290  0.669720  0.071660  1.0  -0.5848
  O  O386  1  0.234680  0.538700  0.028570  1.0  -0.652
  O  O387  1  0.391500  0.117400  0.143470  1.0  -0.4953
  O  O388  1  0.330280  0.621570  0.738330  1.0  -0.5813
  O  O389  1  0.461300  0.695980  0.695240  1.0  -0.6537
  O  O390  1  0.882600  0.274100  0.810140  1.0  -0.4975
