# generated using pymatgen
data_ZnH21C32N5O8
_symmetry_space_group_name_H-M   'P 1'
_cell_length_a   16.50940000
_cell_length_b   16.50940000
_cell_length_c   25.70100000
_cell_angle_alpha   90.00000000
_cell_angle_beta   90.00000000
_cell_angle_gamma   120.00000000
_symmetry_Int_Tables_number   1
_chemical_formula_structural   ZnH21C32N5O8
_chemical_formula_sum   'Zn6 H126 C192 N30 O48'
_cell_volume   6066.57028235
_cell_formula_units_Z   6
loop_
 _symmetry_equiv_pos_site_id
 _symmetry_equiv_pos_as_xyz
  1  'x, y, z'
loop_
 _atom_site_type_symbol
 _atom_site_label
 _atom_site_symmetry_multiplicity
 _atom_site_fract_x
 _atom_site_fract_y
 _atom_site_fract_z
 _atom_site_occupancy
 _atom_site_charge
  Zn  Zn1  1  0.715340  0.430680  0.166670  1.0  0.893
  Zn  Zn2  1  0.715340  0.284660  0.500000  1.0  0.8898
  Zn  Zn3  1  0.569320  0.284660  0.833330  1.0  0.8898
  Zn  Zn4  1  0.284660  0.569320  0.166670  1.0  0.8934
  Zn  Zn5  1  0.284660  0.715340  0.500000  1.0  0.8891
  Zn  Zn6  1  0.430680  0.715340  0.833330  1.0  0.8897
  H  H7  1  0.820100  0.228500  0.075600  1.0  0.1322
  H  H8  1  0.662700  0.497900  0.073500  1.0  0.0884
  H  H9  1  0.612100  0.595700  0.047500  1.0  0.1222
  H  H10  1  0.587100  0.643700  0.195200  1.0  0.1113
  H  H11  1  0.652500  0.555300  0.217400  1.0  0.0918
  H  H12  1  0.567400  0.835600  0.982700  1.0  0.1117
  H  H13  1  0.553400  0.967100  0.979500  1.0  0.1085
  H  H14  1  0.453000  0.915100  0.121200  1.0  0.0989
  H  H15  1  0.482900  0.791100  0.128000  1.0  0.1224
  H  H16  1  0.550700  0.719200  0.132600  1.0  0.2833
  H  H17  1  0.408400  0.179900  0.408930  1.0  0.1327
  H  H18  1  0.835200  0.337300  0.406830  1.0  0.0874
  H  H19  1  0.983600  0.387900  0.380830  1.0  0.1214
  H  H20  1  0.056600  0.412900  0.528530  1.0  0.1121
  H  H21  1  0.902800  0.347500  0.550730  1.0  0.092
  H  H22  1  0.268200  0.432600  0.316030  1.0  0.1114
  H  H23  1  0.413700  0.446600  0.312830  1.0  0.1083
  H  H24  1  0.462100  0.547000  0.454530  1.0  0.0993
  H  H25  1  0.308200  0.517100  0.461330  1.0  0.1224
  H  H26  1  0.168500  0.449300  0.465930  1.0  0.285
  H  H27  1  0.771500  0.591600  0.742270  1.0  0.1325
  H  H28  1  0.502100  0.164800  0.740170  1.0  0.0886
  H  H29  1  0.404300  0.016400  0.714170  1.0  0.1239
  H  H30  1  0.356300  0.943400  0.861870  1.0  0.1132
  H  H31  1  0.444700  0.097200  0.884070  1.0  0.0927
  H  H32  1  0.164400  0.731800  0.649370  1.0  0.1114
  H  H33  1  0.032900  0.586300  0.646170  1.0  0.1084
  H  H34  1  0.084900  0.537900  0.787870  1.0  0.0989
  H  H35  1  0.208900  0.691800  0.794670  1.0  0.1225
  H  H36  1  0.280800  0.831500  0.799270  1.0  0.2852
  H  H37  1  0.179900  0.771500  0.075600  1.0  0.1327
  H  H38  1  0.337300  0.502100  0.073500  1.0  0.0883
  H  H39  1  0.387900  0.404300  0.047500  1.0  0.1224
  H  H40  1  0.412900  0.356300  0.195200  1.0  0.1127
  H  H41  1  0.347500  0.444700  0.217400  1.0  0.0919
  H  H42  1  0.432600  0.164400  0.982700  1.0  0.1111
  H  H43  1  0.446600  0.032900  0.979500  1.0  0.1088
  H  H44  1  0.547000  0.084900  0.121200  1.0  0.0991
  H  H45  1  0.517100  0.208900  0.128000  1.0  0.1228
  H  H46  1  0.449300  0.280800  0.132600  1.0  0.2839
  H  H47  1  0.591600  0.820100  0.408930  1.0  0.1324
  H  H48  1  0.164800  0.662700  0.406830  1.0  0.0881
  H  H49  1  0.016400  0.612100  0.380830  1.0  0.1219
  H  H50  1  0.943400  0.587100  0.528530  1.0  0.1108
  H  H51  1  0.097200  0.652500  0.550730  1.0  0.0925
  H  H52  1  0.731800  0.567400  0.316030  1.0  0.1118
  H  H53  1  0.586300  0.553400  0.312830  1.0  0.1088
  H  H54  1  0.537900  0.453000  0.454530  1.0  0.0994
  H  H55  1  0.691800  0.482900  0.461330  1.0  0.1226
  H  H56  1  0.831500  0.550700  0.465930  1.0  0.2835
  H  H57  1  0.228500  0.408400  0.742270  1.0  0.1322
  H  H58  1  0.497900  0.835200  0.740170  1.0  0.0882
  H  H59  1  0.595700  0.983600  0.714170  1.0  0.1239
  H  H60  1  0.643700  0.056600  0.861870  1.0  0.1124
  H  H61  1  0.555300  0.902800  0.884070  1.0  0.0925
  H  H62  1  0.835600  0.268200  0.649370  1.0  0.1116
  H  H63  1  0.967100  0.413700  0.646170  1.0  0.1085
  H  H64  1  0.915100  0.462100  0.787870  1.0  0.0989
  H  H65  1  0.791100  0.308200  0.794670  1.0  0.1224
  H  H66  1  0.719200  0.168500  0.799270  1.0  0.2839
  H  H67  1  0.591600  0.771500  0.257730  1.0  0.132
  H  H68  1  0.164800  0.502100  0.259830  1.0  0.0891
  H  H69  1  0.016400  0.404300  0.285830  1.0  0.1206
  H  H70  1  0.943400  0.356300  0.138130  1.0  0.1119
  H  H71  1  0.097200  0.444700  0.115930  1.0  0.0921
  H  H72  1  0.731800  0.164400  0.350630  1.0  0.1113
  H  H73  1  0.586300  0.032900  0.353830  1.0  0.1082
  H  H74  1  0.537900  0.084900  0.212130  1.0  0.0986
  H  H75  1  0.691800  0.208900  0.205330  1.0  0.1223
  H  H76  1  0.831500  0.280800  0.200730  1.0  0.2851
  H  H77  1  0.228500  0.820100  0.924400  1.0  0.1322
  H  H78  1  0.497900  0.662700  0.926500  1.0  0.0882
  H  H79  1  0.595700  0.612100  0.952500  1.0  0.1206
  H  H80  1  0.643700  0.587100  0.804800  1.0  0.1109
  H  H81  1  0.555300  0.652500  0.782600  1.0  0.0929
  H  H82  1  0.835600  0.567400  0.017300  1.0  0.1111
  H  H83  1  0.967100  0.553400  0.020500  1.0  0.1079
  H  H84  1  0.915100  0.453000  0.878800  1.0  0.0986
  H  H85  1  0.791100  0.482900  0.872000  1.0  0.1224
  H  H86  1  0.719200  0.550700  0.867400  1.0  0.2846
  H  H87  1  0.179900  0.408400  0.591070  1.0  0.1319
  H  H88  1  0.337300  0.835200  0.593170  1.0  0.0885
  H  H89  1  0.387900  0.983600  0.619170  1.0  0.122
  H  H90  1  0.412900  0.056600  0.471470  1.0  0.1129
  H  H91  1  0.347500  0.902800  0.449270  1.0  0.0937
  H  H92  1  0.432600  0.268200  0.683970  1.0  0.1111
  H  H93  1  0.446600  0.413700  0.687170  1.0  0.108
  H  H94  1  0.547000  0.462100  0.545470  1.0  0.098
  H  H95  1  0.517100  0.308200  0.538670  1.0  0.1225
  H  H96  1  0.449300  0.168500  0.534070  1.0  0.286
  H  H97  1  0.408400  0.228500  0.257730  1.0  0.1323
  H  H98  1  0.835200  0.497900  0.259830  1.0  0.0886
  H  H99  1  0.983600  0.595700  0.285830  1.0  0.1209
  H  H100  1  0.056600  0.643700  0.138130  1.0  0.1118
  H  H101  1  0.902800  0.555300  0.115930  1.0  0.0923
  H  H102  1  0.268200  0.835600  0.350630  1.0  0.1107
  H  H103  1  0.413700  0.967100  0.353830  1.0  0.1084
  H  H104  1  0.462100  0.915100  0.212130  1.0  0.0983
  H  H105  1  0.308200  0.791100  0.205330  1.0  0.1224
  H  H106  1  0.168500  0.719200  0.200730  1.0  0.2841
  H  H107  1  0.771500  0.179900  0.924400  1.0  0.1326
  H  H108  1  0.502100  0.337300  0.926500  1.0  0.0885
  H  H109  1  0.404300  0.387900  0.952500  1.0  0.1202
  H  H110  1  0.356300  0.412900  0.804800  1.0  0.1117
  H  H111  1  0.444700  0.347500  0.782600  1.0  0.0927
  H  H112  1  0.164400  0.432600  0.017300  1.0  0.1115
  H  H113  1  0.032900  0.446600  0.020500  1.0  0.1082
  H  H114  1  0.084900  0.547000  0.878800  1.0  0.099
  H  H115  1  0.208900  0.517100  0.872000  1.0  0.1218
  H  H116  1  0.280800  0.449300  0.867400  1.0  0.2858
  H  H117  1  0.820100  0.591600  0.591070  1.0  0.1317
  H  H118  1  0.662700  0.164800  0.593170  1.0  0.0883
  H  H119  1  0.612100  0.016400  0.619170  1.0  0.1226
  H  H120  1  0.587100  0.943400  0.471470  1.0  0.113
  H  H121  1  0.652500  0.097200  0.449270  1.0  0.0931
  H  H122  1  0.567400  0.731800  0.683970  1.0  0.1112
  H  H123  1  0.553400  0.586300  0.687170  1.0  0.108
  H  H124  1  0.453000  0.537900  0.545470  1.0  0.0988
  H  H125  1  0.482900  0.691800  0.538670  1.0  0.1229
  H  H126  1  0.550700  0.831500  0.534070  1.0  0.2868
  H  H127  1  0.675050  0.324950  0.000000  1.0  0.1107
  H  H128  1  0.649900  0.324950  0.333333  1.0  0.111
  H  H129  1  0.675050  0.350100  0.666667  1.0  0.111
  H  H130  1  0.324950  0.675050  0.000000  1.0  0.111
  H  H131  1  0.350100  0.675050  0.333333  1.0  0.1104
  H  H132  1  0.324950  0.649900  0.666667  1.0  0.1105
  C  C133  1  0.736990  0.325390  0.096540  1.0  0.7125
  C  C134  1  0.745400  0.283280  0.046400  1.0  -0.1447
  C  C135  1  0.793200  0.235600  0.045460  1.0  -0.0773
  C  C136  1  0.650200  0.530400  0.098840  1.0  0.2043
  C  C137  1  0.618700  0.588200  0.082810  1.0  -0.2114
  C  C138  1  0.597000  0.635450  0.118540  1.0  0.311
  C  C139  1  0.606000  0.617700  0.169150  1.0  -0.2114
  C  C140  1  0.642500  0.561700  0.182360  1.0  0.1933
  C  C141  1  0.563300  0.733200  0.059660  1.0  0.5344
  C  C142  1  0.538400  0.807860  0.057770  1.0  0.0154
  C  C143  1  0.550700  0.855400  0.012600  1.0  -0.0418
  C  C144  1  0.538800  0.932600  0.010150  1.0  -0.1326
  C  C145  1  0.506500  0.958750  0.051180  1.0  0.1226
  C  C146  1  0.482100  0.903200  0.093640  1.0  -0.1427
  C  C147  1  0.499000  0.827000  0.097830  1.0  -0.1717
  C  C148  1  0.588400  0.263010  0.429870  1.0  0.7118
  C  C149  1  0.537880  0.254600  0.379730  1.0  -0.1444
  C  C150  1  0.442400  0.206800  0.378790  1.0  -0.0767
  C  C151  1  0.880200  0.349800  0.432170  1.0  0.206
  C  C152  1  0.969500  0.381300  0.416140  1.0  -0.213
  C  C153  1  0.038450  0.403000  0.451870  1.0  0.3113
  C  C154  1  0.011700  0.394000  0.502480  1.0  -0.2114
  C  C155  1  0.919200  0.357500  0.515690  1.0  0.1923
  C  C156  1  0.169900  0.436700  0.392990  1.0  0.5294
  C  C157  1  0.269460  0.461600  0.391100  1.0  0.0176
  C  C158  1  0.304700  0.449300  0.345930  1.0  -0.0456
  C  C159  1  0.393800  0.461200  0.343480  1.0  -0.134
  C  C160  1  0.452250  0.493500  0.384510  1.0  0.123
  C  C161  1  0.421100  0.517900  0.426970  1.0  -0.1419
  C  C162  1  0.328000  0.501000  0.431160  1.0  -0.1712
  C  C163  1  0.674610  0.411600  0.763210  1.0  0.7144
  C  C164  1  0.716720  0.462120  0.713070  1.0  -0.1429
  C  C165  1  0.764400  0.557600  0.712130  1.0  -0.0748
  C  C166  1  0.469600  0.119800  0.765510  1.0  0.2083
  C  C167  1  0.411800  0.030500  0.749480  1.0  -0.2074
  C  C168  1  0.364550  0.961550  0.785210  1.0  0.3089
  C  C169  1  0.382300  0.988300  0.835820  1.0  -0.206
  C  C170  1  0.438300  0.080800  0.849030  1.0  0.1968
  C  C171  1  0.266800  0.830100  0.726330  1.0  0.5363
  C  C172  1  0.192140  0.730540  0.724440  1.0  0.017
  C  C173  1  0.144600  0.695300  0.679270  1.0  -0.0415
  C  C174  1  0.067400  0.606200  0.676820  1.0  -0.1346
  C  C175  1  0.041250  0.547750  0.717850  1.0  0.1223
  C  C176  1  0.096800  0.578900  0.760310  1.0  -0.1438
  C  C177  1  0.173000  0.672000  0.764500  1.0  -0.1696
  C  C178  1  0.263010  0.674610  0.096540  1.0  0.7114
  C  C179  1  0.254600  0.716720  0.046400  1.0  -0.1453
  C  C180  1  0.206800  0.764400  0.045460  1.0  -0.0767
  C  C181  1  0.349800  0.469600  0.098840  1.0  0.2055
  C  C182  1  0.381300  0.411800  0.082810  1.0  -0.2114
  C  C183  1  0.403000  0.364550  0.118540  1.0  0.3101
  C  C184  1  0.394000  0.382300  0.169150  1.0  -0.2099
  C  C185  1  0.357500  0.438300  0.182360  1.0  0.1944
  C  C186  1  0.436700  0.266800  0.059660  1.0  0.5338
  C  C187  1  0.461600  0.192140  0.057770  1.0  0.0143
  C  C188  1  0.449300  0.144600  0.012600  1.0  -0.0422
  C  C189  1  0.461200  0.067400  0.010150  1.0  -0.1278
  C  C190  1  0.493500  0.041250  0.051180  1.0  0.1218
  C  C191  1  0.517900  0.096800  0.093640  1.0  -0.1446
  C  C192  1  0.501000  0.173000  0.097830  1.0  -0.1711
  C  C193  1  0.411600  0.736990  0.429870  1.0  0.7116
  C  C194  1  0.462120  0.745400  0.379730  1.0  -0.1442
  C  C195  1  0.557600  0.793200  0.378790  1.0  -0.0783
  C  C196  1  0.119800  0.650200  0.432170  1.0  0.2055
  C  C197  1  0.030500  0.618700  0.416140  1.0  -0.2134
  C  C198  1  0.961550  0.597000  0.451870  1.0  0.312
  C  C199  1  0.988300  0.606000  0.502480  1.0  -0.2126
  C  C200  1  0.080800  0.642500  0.515690  1.0  0.1933
  C  C201  1  0.830100  0.563300  0.392990  1.0  0.5304
  C  C202  1  0.730540  0.538400  0.391100  1.0  0.0187
  C  C203  1  0.695300  0.550700  0.345930  1.0  -0.0454
  C  C204  1  0.606200  0.538800  0.343480  1.0  -0.1301
  C  C205  1  0.547750  0.506500  0.384510  1.0  0.1229
  C  C206  1  0.578900  0.482100  0.426970  1.0  -0.1441
  C  C207  1  0.672000  0.499000  0.431160  1.0  -0.1704
  C  C208  1  0.325390  0.588400  0.763210  1.0  0.7133
  C  C209  1  0.283280  0.537880  0.713070  1.0  -0.1426
  C  C210  1  0.235600  0.442400  0.712130  1.0  -0.0756
  C  C211  1  0.530400  0.880200  0.765510  1.0  0.208
  C  C212  1  0.588200  0.969500  0.749480  1.0  -0.2086
  C  C213  1  0.635450  0.038450  0.785210  1.0  0.3085
  C  C214  1  0.617700  0.011700  0.835820  1.0  -0.2075
  C  C215  1  0.561700  0.919200  0.849030  1.0  0.1964
  C  C216  1  0.733200  0.169900  0.726330  1.0  0.5368
  C  C217  1  0.807860  0.269460  0.724440  1.0  0.0162
  C  C218  1  0.855400  0.304700  0.679270  1.0  -0.0415
  C  C219  1  0.932600  0.393800  0.676820  1.0  -0.1294
  C  C220  1  0.958750  0.452250  0.717850  1.0  0.1227
  C  C221  1  0.903200  0.421100  0.760310  1.0  -0.1434
  C  C222  1  0.827000  0.328000  0.764500  1.0  -0.1692
  C  C223  1  0.411600  0.674610  0.236790  1.0  0.7126
  C  C224  1  0.462120  0.716720  0.286930  1.0  -0.1439
  C  C225  1  0.557600  0.764400  0.287870  1.0  -0.0779
  C  C226  1  0.119800  0.469600  0.234490  1.0  0.204
  C  C227  1  0.030500  0.411800  0.250520  1.0  -0.2119
  C  C228  1  0.961550  0.364550  0.214790  1.0  0.3095
  C  C229  1  0.988300  0.382300  0.164180  1.0  -0.2126
  C  C230  1  0.080800  0.438300  0.150970  1.0  0.1943
  C  C231  1  0.830100  0.266800  0.273670  1.0  0.5328
  C  C232  1  0.730540  0.192140  0.275560  1.0  0.0152
  C  C233  1  0.695300  0.144600  0.320730  1.0  -0.0419
  C  C234  1  0.606200  0.067400  0.323180  1.0  -0.1317
  C  C235  1  0.547750  0.041250  0.282150  1.0  0.1218
  C  C236  1  0.578900  0.096800  0.239690  1.0  -0.1429
  C  C237  1  0.672000  0.173000  0.235500  1.0  -0.1721
  C  C238  1  0.325390  0.736990  0.903460  1.0  0.7117
  C  C239  1  0.283280  0.745400  0.953600  1.0  -0.1444
  C  C240  1  0.235600  0.793200  0.954540  1.0  -0.0775
  C  C241  1  0.530400  0.650200  0.901160  1.0  0.2058
  C  C242  1  0.588200  0.618700  0.917190  1.0  -0.2133
  C  C243  1  0.635450  0.597000  0.881460  1.0  0.3114
  C  C244  1  0.617700  0.606000  0.830850  1.0  -0.2106
  C  C245  1  0.561700  0.642500  0.817640  1.0  0.1919
  C  C246  1  0.733200  0.563300  0.940340  1.0  0.5299
  C  C247  1  0.807860  0.538400  0.942230  1.0  0.0177
  C  C248  1  0.855400  0.550700  0.987400  1.0  -0.0448
  C  C249  1  0.932600  0.538800  0.989850  1.0  -0.1344
  C  C250  1  0.958750  0.506500  0.948820  1.0  0.123
  C  C251  1  0.903200  0.482100  0.906360  1.0  -0.1423
  C  C252  1  0.827000  0.499000  0.902170  1.0  -0.1718
  C  C253  1  0.263010  0.588400  0.570130  1.0  0.7146
  C  C254  1  0.254600  0.537880  0.620270  1.0  -0.1421
  C  C255  1  0.206800  0.442400  0.621210  1.0  -0.0766
  C  C256  1  0.349800  0.880200  0.567830  1.0  0.2079
  C  C257  1  0.381300  0.969500  0.583860  1.0  -0.2067
  C  C258  1  0.403000  0.038450  0.548130  1.0  0.3085
  C  C259  1  0.394000  0.011700  0.497520  1.0  -0.2077
  C  C260  1  0.357500  0.919200  0.484310  1.0  0.1956
  C  C261  1  0.436700  0.169900  0.607010  1.0  0.5356
  C  C262  1  0.461600  0.269460  0.608900  1.0  0.0159
  C  C263  1  0.449300  0.304700  0.654070  1.0  -0.0408
  C  C264  1  0.461200  0.393800  0.656520  1.0  -0.1343
  C  C265  1  0.493500  0.452250  0.615490  1.0  0.1223
  C  C266  1  0.517900  0.421100  0.573030  1.0  -0.1433
  C  C267  1  0.501000  0.328000  0.568840  1.0  -0.169
  C  C268  1  0.588400  0.325390  0.236790  1.0  0.7115
  C  C269  1  0.537880  0.283280  0.286930  1.0  -0.1445
  C  C270  1  0.442400  0.235600  0.287870  1.0  -0.0772
  C  C271  1  0.880200  0.530400  0.234490  1.0  0.2052
  C  C272  1  0.969500  0.588200  0.250520  1.0  -0.2112
  C  C273  1  0.038450  0.635450  0.214790  1.0  0.3114
  C  C274  1  0.011700  0.617700  0.164180  1.0  -0.2103
  C  C275  1  0.919200  0.561700  0.150970  1.0  0.1927
  C  C276  1  0.169900  0.733200  0.273670  1.0  0.5333
  C  C277  1  0.269460  0.807860  0.275560  1.0  0.0149
  C  C278  1  0.304700  0.855400  0.320730  1.0  -0.0417
  C  C279  1  0.393800  0.932600  0.323180  1.0  -0.1276
  C  C280  1  0.452250  0.958750  0.282150  1.0  0.1224
  C  C281  1  0.421100  0.903200  0.239690  1.0  -0.1442
  C  C282  1  0.328000  0.827000  0.235500  1.0  -0.1709
  C  C283  1  0.674610  0.263010  0.903460  1.0  0.7119
  C  C284  1  0.716720  0.254600  0.953600  1.0  -0.1434
  C  C285  1  0.764400  0.206800  0.954540  1.0  -0.0776
  C  C286  1  0.469600  0.349800  0.901160  1.0  0.2041
  C  C287  1  0.411800  0.381300  0.917190  1.0  -0.2135
  C  C288  1  0.364550  0.403000  0.881460  1.0  0.3106
  C  C289  1  0.382300  0.394000  0.830850  1.0  -0.2132
  C  C290  1  0.438300  0.357500  0.817640  1.0  0.1931
  C  C291  1  0.266800  0.436700  0.940340  1.0  0.5298
  C  C292  1  0.192140  0.461600  0.942230  1.0  0.0179
  C  C293  1  0.144600  0.449300  0.987400  1.0  -0.0457
  C  C294  1  0.067400  0.461200  0.989850  1.0  -0.1293
  C  C295  1  0.041250  0.493500  0.948820  1.0  0.1226
  C  C296  1  0.096800  0.517900  0.906360  1.0  -0.1442
  C  C297  1  0.173000  0.501000  0.902170  1.0  -0.1705
  C  C298  1  0.736990  0.411600  0.570130  1.0  0.7136
  C  C299  1  0.745400  0.462120  0.620270  1.0  -0.142
  C  C300  1  0.793200  0.557600  0.621210  1.0  -0.074
  C  C301  1  0.650200  0.119800  0.567830  1.0  0.207
  C  C302  1  0.618700  0.030500  0.583860  1.0  -0.2092
  C  C303  1  0.597000  0.961550  0.548130  1.0  0.3083
  C  C304  1  0.606000  0.988300  0.497520  1.0  -0.209
  C  C305  1  0.642500  0.080800  0.484310  1.0  0.197
  C  C306  1  0.563300  0.830100  0.607010  1.0  0.5357
  C  C307  1  0.538400  0.730540  0.608900  1.0  0.0162
  C  C308  1  0.550700  0.695300  0.654070  1.0  -0.0412
  C  C309  1  0.538800  0.606200  0.656520  1.0  -0.1294
  C  C310  1  0.506500  0.547750  0.615490  1.0  0.1228
  C  C311  1  0.482100  0.578900  0.573030  1.0  -0.1432
  C  C312  1  0.499000  0.672000  0.568840  1.0  -0.1695
  C  C313  1  0.707550  0.292450  0.000000  1.0  0.0026
  C  C314  1  0.800900  0.199100  0.000000  1.0  0.1153
  C  C315  1  0.584900  0.292450  0.333333  1.0  0.0024
  C  C316  1  0.398200  0.199100  0.333333  1.0  0.1122
  C  C317  1  0.707550  0.415100  0.666667  1.0  0.0069
  C  C318  1  0.800900  0.601800  0.666667  1.0  0.1193
  C  C319  1  0.292450  0.707550  0.000000  1.0  0.002
  C  C320  1  0.199100  0.800900  0.000000  1.0  0.1126
  C  C321  1  0.415100  0.707550  0.333333  1.0  0.0031
  C  C322  1  0.601800  0.800900  0.333333  1.0  0.1146
  C  C323  1  0.292450  0.584900  0.666667  1.0  0.0052
  C  C324  1  0.199100  0.398200  0.666667  1.0  0.1194
  N  N325  1  0.663980  0.517150  0.147800  1.0  -0.3348
  N  N326  1  0.568050  0.698810  0.106570  1.0  -0.3529
  N  N327  1  0.853170  0.336020  0.481130  1.0  -0.3346
  N  N328  1  0.130760  0.431950  0.439900  1.0  -0.3556
  N  N329  1  0.482850  0.146830  0.814470  1.0  -0.3309
  N  N330  1  0.301190  0.869240  0.773240  1.0  -0.3493
  N  N331  1  0.336020  0.482850  0.147800  1.0  -0.3357
  N  N332  1  0.431950  0.301190  0.106570  1.0  -0.3519
  N  N333  1  0.146830  0.663980  0.481130  1.0  -0.3339
  N  N334  1  0.869240  0.568050  0.439900  1.0  -0.3537
  N  N335  1  0.517150  0.853170  0.814470  1.0  -0.3331
  N  N336  1  0.698810  0.130760  0.773240  1.0  -0.3521
  N  N337  1  0.146830  0.482850  0.185530  1.0  -0.3369
  N  N338  1  0.869240  0.301190  0.226760  1.0  -0.3528
  N  N339  1  0.517150  0.663980  0.852200  1.0  -0.3335
  N  N340  1  0.698810  0.568050  0.893430  1.0  -0.3538
  N  N341  1  0.336020  0.853170  0.518870  1.0  -0.3327
  N  N342  1  0.431950  0.130760  0.560100  1.0  -0.3511
  N  N343  1  0.853170  0.517150  0.185530  1.0  -0.3348
  N  N344  1  0.130760  0.698810  0.226760  1.0  -0.3519
  N  N345  1  0.482850  0.336020  0.852200  1.0  -0.3351
  N  N346  1  0.301190  0.431950  0.893430  1.0  -0.3553
  N  N347  1  0.663980  0.146830  0.518870  1.0  -0.3321
  N  N348  1  0.568050  0.869240  0.560100  1.0  -0.3524
  N  N349  1  0.850950  0.149050  0.000000  1.0  0.0496
  N  N350  1  0.298100  0.149050  0.333333  1.0  0.0474
  N  N351  1  0.850950  0.701900  0.666667  1.0  0.0514
  N  N352  1  0.149050  0.850950  0.000000  1.0  0.0492
  N  N353  1  0.701900  0.850950  0.333333  1.0  0.0452
  N  N354  1  0.149050  0.298100  0.666667  1.0  0.0504
  O  O355  1  0.707250  0.380540  0.095430  1.0  -0.5611
  O  O356  1  0.763470  0.303690  0.136600  1.0  -0.5936
  O  O357  1  0.835600  0.090400  0.959800  1.0  -0.4559
  O  O358  1  0.579300  0.703330  0.020430  1.0  -0.5229
  O  O359  1  0.673290  0.292750  0.428760  1.0  -0.5629
  O  O360  1  0.540220  0.236530  0.469930  1.0  -0.5926
  O  O361  1  0.254800  0.164400  0.293130  1.0  -0.4578
  O  O362  1  0.124030  0.420700  0.353760  1.0  -0.5186
  O  O363  1  0.619460  0.326710  0.762100  1.0  -0.5643
  O  O364  1  0.696310  0.459780  0.803270  1.0  -0.5955
  O  O365  1  0.909600  0.745200  0.626470  1.0  -0.4592
  O  O366  1  0.296670  0.875970  0.687100  1.0  -0.5206
  O  O367  1  0.292750  0.619460  0.095430  1.0  -0.5606
  O  O368  1  0.236530  0.696310  0.136600  1.0  -0.5934
  O  O369  1  0.164400  0.909600  0.959800  1.0  -0.4579
  O  O370  1  0.420700  0.296670  0.020430  1.0  -0.5205
  O  O371  1  0.326710  0.707250  0.428760  1.0  -0.5631
  O  O372  1  0.459780  0.763470  0.469930  1.0  -0.593
  O  O373  1  0.745200  0.835600  0.293130  1.0  -0.4546
  O  O374  1  0.875970  0.579300  0.353760  1.0  -0.5209
  O  O375  1  0.380540  0.673290  0.762100  1.0  -0.5632
  O  O376  1  0.303690  0.540220  0.803270  1.0  -0.5963
  O  O377  1  0.090400  0.254800  0.626470  1.0  -0.4631
  O  O378  1  0.703330  0.124030  0.687100  1.0  -0.5211
  O  O379  1  0.326710  0.619460  0.237900  1.0  -0.5604
  O  O380  1  0.459780  0.696310  0.196730  1.0  -0.5991
  O  O381  1  0.745200  0.909600  0.373530  1.0  -0.4579
  O  O382  1  0.875970  0.296670  0.312900  1.0  -0.5219
  O  O383  1  0.380540  0.707250  0.904570  1.0  -0.5626
  O  O384  1  0.303690  0.763470  0.863400  1.0  -0.5955
  O  O385  1  0.090400  0.835600  0.040200  1.0  -0.458
  O  O386  1  0.703330  0.579300  0.979570  1.0  -0.5185
  O  O387  1  0.292750  0.673290  0.571240  1.0  -0.5642
  O  O388  1  0.236530  0.540220  0.530070  1.0  -0.5938
  O  O389  1  0.164400  0.254800  0.706870  1.0  -0.4628
  O  O390  1  0.420700  0.124030  0.646240  1.0  -0.5193
  O  O391  1  0.673290  0.380540  0.237900  1.0  -0.5609
  O  O392  1  0.540220  0.303690  0.196730  1.0  -0.5994
  O  O393  1  0.254800  0.090400  0.373530  1.0  -0.4575
  O  O394  1  0.124030  0.703330  0.312900  1.0  -0.5198
  O  O395  1  0.619460  0.292750  0.904570  1.0  -0.563
  O  O396  1  0.696310  0.236530  0.863400  1.0  -0.5941
  O  O397  1  0.909600  0.164400  0.040200  1.0  -0.4577
  O  O398  1  0.296670  0.420700  0.979570  1.0  -0.5192
  O  O399  1  0.707250  0.326710  0.571240  1.0  -0.5633
  O  O400  1  0.763470  0.459780  0.530070  1.0  -0.5935
  O  O401  1  0.835600  0.745200  0.706870  1.0  -0.4614
  O  O402  1  0.579300  0.875970  0.646240  1.0  -0.5201
