# generated using pymatgen
data_ZnH23C32N5O6
_symmetry_space_group_name_H-M   'P 1'
_cell_length_a   16.57640000
_cell_length_b   16.57640000
_cell_length_c   25.25040000
_cell_angle_alpha   90.00000000
_cell_angle_beta   90.00000000
_cell_angle_gamma   120.00000000
_symmetry_Int_Tables_number   1
_chemical_formula_structural   ZnH23C32N5O6
_chemical_formula_sum   'Zn6 H138 C192 N30 O36'
_cell_volume   6008.68351875
_cell_formula_units_Z   6
loop_
 _symmetry_equiv_pos_site_id
 _symmetry_equiv_pos_as_xyz
  1  'x, y, z'
loop_
 _atom_site_type_symbol
 _atom_site_label
 _atom_site_symmetry_multiplicity
 _atom_site_fract_x
 _atom_site_fract_y
 _atom_site_fract_z
 _atom_site_occupancy
 _atom_site_charge
  Zn  Zn1  1  0.714020  0.285970  0.000000  1.0  0.8889
  Zn  Zn2  1  0.571950  0.285970  0.666667  1.0  0.8874
  Zn  Zn3  1  0.714020  0.428040  0.333333  1.0  0.8791
  Zn  Zn4  1  0.285980  0.714030  0.000000  1.0  0.8867
  Zn  Zn5  1  0.428050  0.714030  0.666667  1.0  0.8862
  Zn  Zn6  1  0.285980  0.571960  0.333333  1.0  0.8795
  H  H7  1  0.820400  0.594600  0.910800  1.0  0.1035
  H  H8  1  0.641700  0.099100  0.053100  1.0  0.0589
  H  H9  1  0.583000  0.944500  0.031500  1.0  0.0933
  H  H10  1  0.636700  0.021700  0.879500  1.0  0.1057
  H  H11  1  0.682300  0.169800  0.905800  1.0  0.0617
  H  H12  1  0.485200  0.696100  0.958200  1.0  0.1566
  H  H13  1  0.439500  0.541300  0.952000  1.0  0.0551
  H  H14  1  0.574200  0.587300  0.823500  1.0  0.0637
  H  H15  1  0.598600  0.734000  0.823500  1.0  0.0728
  H  H16  1  0.545200  0.832800  0.966700  1.0  0.2227
  H  H17  1  0.860300  0.738300  0.804400  1.0  0.3522
  H  H18  1  0.774200  0.179600  0.577470  1.0  0.1042
  H  H19  1  0.457400  0.358300  0.719770  1.0  0.0615
  H  H20  1  0.361500  0.417000  0.698170  1.0  0.0905
  H  H21  1  0.385000  0.363300  0.546170  1.0  0.1055
  H  H22  1  0.487500  0.317700  0.572470  1.0  0.0613
  H  H23  1  0.210900  0.514800  0.624870  1.0  0.1568
  H  H24  1  0.101800  0.560500  0.618670  1.0  0.0551
  H  H25  1  0.013100  0.425800  0.490170  1.0  0.0627
  H  H26  1  0.135400  0.401400  0.490170  1.0  0.0727
  H  H27  1  0.287600  0.454800  0.633370  1.0  0.2203
  H  H28  1  0.878000  0.139700  0.471070  1.0  0.3505
  H  H29  1  0.405400  0.225800  0.244130  1.0  0.1028
  H  H30  1  0.900900  0.542600  0.386430  1.0  0.06
  H  H31  1  0.055500  0.638500  0.364830  1.0  0.0927
  H  H32  1  0.978300  0.615000  0.212830  1.0  0.1049
  H  H33  1  0.830200  0.512500  0.239130  1.0  0.0621
  H  H34  1  0.303900  0.789100  0.291530  1.0  0.1565
  H  H35  1  0.458700  0.898200  0.285330  1.0  0.0553
  H  H36  1  0.412700  0.986900  0.156830  1.0  0.0637
  H  H37  1  0.266000  0.864600  0.156830  1.0  0.0723
  H  H38  1  0.167200  0.712400  0.300030  1.0  0.2207
  H  H39  1  0.261700  0.122000  0.137730  1.0  0.3516
  H  H40  1  0.179600  0.405400  0.910800  1.0  0.1012
  H  H41  1  0.358300  0.900900  0.053100  1.0  0.0618
  H  H42  1  0.417000  0.055500  0.031500  1.0  0.092
  H  H43  1  0.363300  0.978300  0.879500  1.0  0.1058
  H  H44  1  0.317700  0.830200  0.905800  1.0  0.0615
  H  H45  1  0.514800  0.303900  0.958200  1.0  0.1573
  H  H46  1  0.560500  0.458700  0.952000  1.0  0.0547
  H  H47  1  0.425800  0.412700  0.823500  1.0  0.0633
  H  H48  1  0.401400  0.266000  0.823500  1.0  0.0717
  H  H49  1  0.454800  0.167200  0.966700  1.0  0.2207
  H  H50  1  0.139700  0.261700  0.804400  1.0  0.3518
  H  H51  1  0.225800  0.820400  0.577470  1.0  0.1037
  H  H52  1  0.542600  0.641700  0.719770  1.0  0.0593
  H  H53  1  0.638500  0.583000  0.698170  1.0  0.0905
  H  H54  1  0.615000  0.636700  0.546170  1.0  0.1047
  H  H55  1  0.512500  0.682300  0.572470  1.0  0.0619
  H  H56  1  0.789100  0.485200  0.624870  1.0  0.1571
  H  H57  1  0.898200  0.439500  0.618670  1.0  0.0558
  H  H58  1  0.986900  0.574200  0.490170  1.0  0.063
  H  H59  1  0.864600  0.598600  0.490170  1.0  0.0723
  H  H60  1  0.712400  0.545200  0.633370  1.0  0.2207
  H  H61  1  0.122000  0.860300  0.471070  1.0  0.3503
  H  H62  1  0.594600  0.774200  0.244130  1.0  0.1027
  H  H63  1  0.099100  0.457400  0.386430  1.0  0.061
  H  H64  1  0.944500  0.361500  0.364830  1.0  0.0915
  H  H65  1  0.021700  0.385000  0.212830  1.0  0.1047
  H  H66  1  0.169800  0.487500  0.239130  1.0  0.062
  H  H67  1  0.696100  0.210900  0.291530  1.0  0.1562
  H  H68  1  0.541300  0.101800  0.285330  1.0  0.0553
  H  H69  1  0.587300  0.013100  0.156830  1.0  0.0636
  H  H70  1  0.734000  0.135400  0.156830  1.0  0.0727
  H  H71  1  0.832800  0.287600  0.300030  1.0  0.221
  H  H72  1  0.738300  0.878000  0.137730  1.0  0.3517
  H  H73  1  0.225800  0.405400  0.755870  1.0  0.1021
  H  H74  1  0.542600  0.900900  0.613570  1.0  0.0633
  H  H75  1  0.638500  0.055500  0.635170  1.0  0.0922
  H  H76  1  0.615000  0.978300  0.787170  1.0  0.1066
  H  H77  1  0.512500  0.830200  0.760870  1.0  0.0617
  H  H78  1  0.789100  0.303900  0.708470  1.0  0.1556
  H  H79  1  0.898200  0.458700  0.714670  1.0  0.0546
  H  H80  1  0.986900  0.412700  0.843170  1.0  0.0639
  H  H81  1  0.864600  0.266000  0.843170  1.0  0.0711
  H  H82  1  0.712400  0.167200  0.699970  1.0  0.2231
  H  H83  1  0.122000  0.261700  0.862270  1.0  0.352
  H  H84  1  0.594600  0.820400  0.089200  1.0  0.1033
  H  H85  1  0.099100  0.641700  0.946900  1.0  0.0621
  H  H86  1  0.944500  0.583000  0.968500  1.0  0.0891
  H  H87  1  0.021700  0.636700  0.120500  1.0  0.1062
  H  H88  1  0.169800  0.682300  0.094200  1.0  0.0611
  H  H89  1  0.696100  0.485200  0.041800  1.0  0.1555
  H  H90  1  0.541300  0.439500  0.048000  1.0  0.0554
  H  H91  1  0.587300  0.574200  0.176500  1.0  0.0627
  H  H92  1  0.734000  0.598600  0.176500  1.0  0.0723
  H  H93  1  0.832800  0.545200  0.033300  1.0  0.2205
  H  H94  1  0.738300  0.860300  0.195600  1.0  0.3513
  H  H95  1  0.179600  0.774200  0.422530  1.0  0.1039
  H  H96  1  0.358300  0.457400  0.280230  1.0  0.0618
  H  H97  1  0.417000  0.361500  0.301830  1.0  0.0926
  H  H98  1  0.363300  0.385000  0.453830  1.0  0.1054
  H  H99  1  0.317700  0.487500  0.427530  1.0  0.0615
  H  H100  1  0.514800  0.210900  0.375130  1.0  0.1552
  H  H101  1  0.560500  0.101800  0.381330  1.0  0.0548
  H  H102  1  0.425800  0.013100  0.509830  1.0  0.0638
  H  H103  1  0.401400  0.135400  0.509830  1.0  0.0725
  H  H104  1  0.454800  0.287600  0.366630  1.0  0.2225
  H  H105  1  0.139700  0.878000  0.528930  1.0  0.3528
  H  H106  1  0.774200  0.594600  0.755870  1.0  0.1023
  H  H107  1  0.457400  0.099100  0.613570  1.0  0.0626
  H  H108  1  0.361500  0.944500  0.635170  1.0  0.092
  H  H109  1  0.385000  0.021700  0.787170  1.0  0.1061
  H  H110  1  0.487500  0.169800  0.760870  1.0  0.0611
  H  H111  1  0.210900  0.696100  0.708470  1.0  0.1559
  H  H112  1  0.101800  0.541300  0.714670  1.0  0.0549
  H  H113  1  0.013100  0.587300  0.843170  1.0  0.0635
  H  H114  1  0.135400  0.734000  0.843170  1.0  0.0726
  H  H115  1  0.287600  0.832800  0.699970  1.0  0.2207
  H  H116  1  0.878000  0.738300  0.862270  1.0  0.3519
  H  H117  1  0.405400  0.179600  0.089200  1.0  0.1033
  H  H118  1  0.900900  0.358300  0.946900  1.0  0.0615
  H  H119  1  0.055500  0.417000  0.968500  1.0  0.0897
  H  H120  1  0.978300  0.363300  0.120500  1.0  0.106
  H  H121  1  0.830200  0.317700  0.094200  1.0  0.0618
  H  H122  1  0.303900  0.514800  0.041800  1.0  0.1558
  H  H123  1  0.458700  0.560500  0.048000  1.0  0.0552
  H  H124  1  0.412700  0.425800  0.176500  1.0  0.0633
  H  H125  1  0.266000  0.401400  0.176500  1.0  0.0716
  H  H126  1  0.167200  0.454800  0.033300  1.0  0.2225
  H  H127  1  0.261700  0.139700  0.195600  1.0  0.3517
  H  H128  1  0.820400  0.225800  0.422530  1.0  0.1024
  H  H129  1  0.641700  0.542600  0.280230  1.0  0.0607
  H  H130  1  0.583000  0.638500  0.301830  1.0  0.0921
  H  H131  1  0.636700  0.615000  0.453830  1.0  0.1053
  H  H132  1  0.682300  0.512500  0.427530  1.0  0.0619
  H  H133  1  0.485200  0.789100  0.375130  1.0  0.1545
  H  H134  1  0.439500  0.898200  0.381330  1.0  0.0552
  H  H135  1  0.574200  0.986900  0.509830  1.0  0.0636
  H  H136  1  0.598600  0.864600  0.509830  1.0  0.0723
  H  H137  1  0.545200  0.712400  0.366630  1.0  0.2215
  H  H138  1  0.860300  0.122000  0.528930  1.0  0.3512
  H  H139  1  0.676400  0.352800  0.833330  1.0  0.0924
  H  H140  1  0.676400  0.323600  0.500000  1.0  0.0912
  H  H141  1  0.647200  0.323600  0.166670  1.0  0.0931
  H  H142  1  0.323600  0.647200  0.833330  1.0  0.0919
  H  H143  1  0.323600  0.676400  0.500000  1.0  0.0918
  H  H144  1  0.352800  0.676400  0.166670  1.0  0.0923
  C  C145  1  0.741500  0.414870  0.930370  1.0  0.686
  C  C146  1  0.749060  0.465040  0.879200  1.0  -0.1725
  C  C147  1  0.795720  0.562330  0.879400  1.0  -0.1627
  C  C148  1  0.638410  0.082860  0.017600  1.0  0.1701
  C  C149  1  0.604860  0.989240  0.004850  1.0  -0.2389
  C  C150  1  0.604230  0.963530  0.953250  1.0  0.2596
  C  C151  1  0.635260  0.034720  0.915210  1.0  -0.2715
  C  C152  1  0.663410  0.123810  0.931620  1.0  0.1764
  C  C153  1  0.588240  0.836750  0.897030  1.0  0.4648
  C  C154  1  0.555860  0.734590  0.894820  1.0  0.2666
  C  C155  1  0.505800  0.675870  0.929620  1.0  -0.1647
  C  C156  1  0.480300  0.582100  0.926740  1.0  -0.2062
  C  C157  1  0.511620  0.548900  0.889690  1.0  0.3062
  C  C158  1  0.554500  0.607200  0.852640  1.0  -0.1696
  C  C159  1  0.572900  0.697400  0.853530  1.0  -0.1453
  C  C160  1  0.673370  0.258500  0.597040  1.0  0.6807
  C  C161  1  0.715980  0.250940  0.545870  1.0  -0.1735
  C  C162  1  0.766610  0.204280  0.546070  1.0  -0.165
  C  C163  1  0.444450  0.361590  0.684270  1.0  0.1649
  C  C164  1  0.384380  0.395140  0.671520  1.0  -0.2383
  C  C165  1  0.359300  0.395770  0.619920  1.0  0.2586
  C  C166  1  0.399460  0.364740  0.581880  1.0  -0.2751
  C  C167  1  0.460400  0.336590  0.598290  1.0  0.1761
  C  C168  1  0.248510  0.411760  0.563700  1.0  0.4607
  C  C169  1  0.178730  0.444140  0.561490  1.0  0.2675
  C  C170  1  0.170070  0.494200  0.596290  1.0  -0.1651
  C  C171  1  0.101800  0.519700  0.593410  1.0  -0.1956
  C  C172  1  0.037280  0.488380  0.556360  1.0  0.304
  C  C173  1  0.052700  0.445500  0.519310  1.0  -0.1796
  C  C174  1  0.124500  0.427100  0.520200  1.0  -0.1467
  C  C175  1  0.585130  0.326630  0.263700  1.0  0.6809
  C  C176  1  0.534960  0.284020  0.212530  1.0  -0.1712
  C  C177  1  0.437670  0.233390  0.212730  1.0  -0.1641
  C  C178  1  0.917140  0.555550  0.350930  1.0  0.1632
  C  C179  1  0.010760  0.615620  0.338180  1.0  -0.2381
  C  C180  1  0.036470  0.640700  0.286580  1.0  0.2576
  C  C181  1  0.965280  0.600540  0.248540  1.0  -0.2761
  C  C182  1  0.876190  0.539600  0.264950  1.0  0.1766
  C  C183  1  0.163250  0.751490  0.230360  1.0  0.4643
  C  C184  1  0.265410  0.821270  0.228150  1.0  0.2631
  C  C185  1  0.324130  0.829930  0.262950  1.0  -0.164
  C  C186  1  0.417900  0.898200  0.260070  1.0  -0.1982
  C  C187  1  0.451100  0.962720  0.223020  1.0  0.304
  C  C188  1  0.392800  0.947300  0.185970  1.0  -0.1695
  C  C189  1  0.302600  0.875500  0.186860  1.0  -0.1445
  C  C190  1  0.258500  0.585130  0.930370  1.0  0.6813
  C  C191  1  0.250940  0.534960  0.879200  1.0  -0.1726
  C  C192  1  0.204280  0.437670  0.879400  1.0  -0.1643
  C  C193  1  0.361590  0.917140  0.017600  1.0  0.1689
  C  C194  1  0.395140  0.010760  0.004850  1.0  -0.233
  C  C195  1  0.395770  0.036470  0.953250  1.0  0.2598
  C  C196  1  0.364740  0.965280  0.915210  1.0  -0.2734
  C  C197  1  0.336590  0.876190  0.931620  1.0  0.1771
  C  C198  1  0.411760  0.163250  0.897030  1.0  0.4636
  C  C199  1  0.444140  0.265410  0.894820  1.0  0.2689
  C  C200  1  0.494200  0.324130  0.929620  1.0  -0.1643
  C  C201  1  0.519700  0.417900  0.926740  1.0  -0.1956
  C  C202  1  0.488380  0.451100  0.889690  1.0  0.3038
  C  C203  1  0.445500  0.392800  0.852640  1.0  -0.1768
  C  C204  1  0.427100  0.302600  0.853530  1.0  -0.1481
  C  C205  1  0.326630  0.741500  0.597040  1.0  0.6819
  C  C206  1  0.284020  0.749060  0.545870  1.0  -0.1717
  C  C207  1  0.233390  0.795720  0.546070  1.0  -0.1638
  C  C208  1  0.555550  0.638410  0.684270  1.0  0.1637
  C  C209  1  0.615620  0.604860  0.671520  1.0  -0.2373
  C  C210  1  0.640700  0.604230  0.619920  1.0  0.2584
  C  C211  1  0.600540  0.635260  0.581880  1.0  -0.2757
  C  C212  1  0.539600  0.663410  0.598290  1.0  0.1777
  C  C213  1  0.751490  0.588240  0.563700  1.0  0.4603
  C  C214  1  0.821270  0.555860  0.561490  1.0  0.2688
  C  C215  1  0.829930  0.505800  0.596290  1.0  -0.165
  C  C216  1  0.898200  0.480300  0.593410  1.0  -0.2026
  C  C217  1  0.962720  0.511620  0.556360  1.0  0.3027
  C  C218  1  0.947300  0.554500  0.519310  1.0  -0.1719
  C  C219  1  0.875500  0.572900  0.520200  1.0  -0.1484
  C  C220  1  0.414870  0.673370  0.263700  1.0  0.6812
  C  C221  1  0.465040  0.715980  0.212530  1.0  -0.1719
  C  C222  1  0.562330  0.766610  0.212730  1.0  -0.1639
  C  C223  1  0.082860  0.444450  0.350930  1.0  0.1642
  C  C224  1  0.989240  0.384380  0.338180  1.0  -0.2367
  C  C225  1  0.963530  0.359300  0.286580  1.0  0.2589
  C  C226  1  0.034720  0.399460  0.248540  1.0  -0.2728
  C  C227  1  0.123810  0.460400  0.264950  1.0  0.1762
  C  C228  1  0.836750  0.248510  0.230360  1.0  0.4627
  C  C229  1  0.734590  0.178730  0.228150  1.0  0.264
  C  C230  1  0.675870  0.170070  0.262950  1.0  -0.1634
  C  C231  1  0.582100  0.101800  0.260070  1.0  -0.1962
  C  C232  1  0.548900  0.037280  0.223020  1.0  0.3044
  C  C233  1  0.607200  0.052700  0.185970  1.0  -0.1763
  C  C234  1  0.697400  0.124500  0.186860  1.0  -0.1466
  C  C235  1  0.326630  0.585130  0.736300  1.0  0.6825
  C  C236  1  0.284020  0.534960  0.787470  1.0  -0.1721
  C  C237  1  0.233390  0.437670  0.787270  1.0  -0.164
  C  C238  1  0.555550  0.917140  0.649070  1.0  0.1702
  C  C239  1  0.615620  0.010760  0.661820  1.0  -0.2379
  C  C240  1  0.640700  0.036470  0.713420  1.0  0.2593
  C  C241  1  0.600540  0.965280  0.751460  1.0  -0.2734
  C  C242  1  0.539600  0.876190  0.735050  1.0  0.177
  C  C243  1  0.751490  0.163250  0.769640  1.0  0.4637
  C  C244  1  0.821270  0.265410  0.771850  1.0  0.2679
  C  C245  1  0.829930  0.324130  0.737050  1.0  -0.1629
  C  C246  1  0.898200  0.417900  0.739930  1.0  -0.206
  C  C247  1  0.962720  0.451100  0.776980  1.0  0.3062
  C  C248  1  0.947300  0.392800  0.814030  1.0  -0.1693
  C  C249  1  0.875500  0.302600  0.813140  1.0  -0.1434
  C  C250  1  0.414870  0.741500  0.069630  1.0  0.6821
  C  C251  1  0.465040  0.749060  0.120800  1.0  -0.173
  C  C252  1  0.562330  0.795720  0.120600  1.0  -0.1647
  C  C253  1  0.082860  0.638410  0.982400  1.0  0.1664
  C  C254  1  0.989240  0.604860  0.995150  1.0  -0.2375
  C  C255  1  0.963530  0.604230  0.046750  1.0  0.2587
  C  C256  1  0.034720  0.635260  0.084790  1.0  -0.2763
  C  C257  1  0.123810  0.663410  0.068380  1.0  0.1751
  C  C258  1  0.836750  0.588240  0.102970  1.0  0.4585
  C  C259  1  0.734590  0.555860  0.105180  1.0  0.2687
  C  C260  1  0.675870  0.505800  0.070380  1.0  -0.1635
  C  C261  1  0.582100  0.480300  0.073260  1.0  -0.1971
  C  C262  1  0.548900  0.511620  0.110310  1.0  0.3046
  C  C263  1  0.607200  0.554500  0.147360  1.0  -0.179
  C  C264  1  0.697400  0.572900  0.146470  1.0  -0.1459
  C  C265  1  0.258500  0.673370  0.402960  1.0  0.6827
  C  C266  1  0.250940  0.715980  0.454130  1.0  -0.1734
  C  C267  1  0.204280  0.766610  0.453930  1.0  -0.1652
  C  C268  1  0.361590  0.444450  0.315730  1.0  0.1632
  C  C269  1  0.395140  0.384380  0.328480  1.0  -0.2391
  C  C270  1  0.395770  0.359300  0.380080  1.0  0.2577
  C  C271  1  0.364740  0.399460  0.418120  1.0  -0.2759
  C  C272  1  0.336590  0.460400  0.401710  1.0  0.175
  C  C273  1  0.411760  0.248510  0.436300  1.0  0.4634
  C  C274  1  0.444140  0.178730  0.438510  1.0  0.2643
  C  C275  1  0.494200  0.170070  0.403710  1.0  -0.1637
  C  C276  1  0.519700  0.101800  0.406590  1.0  -0.1961
  C  C277  1  0.488380  0.037280  0.443640  1.0  0.304
  C  C278  1  0.445500  0.052700  0.480690  1.0  -0.1686
  C  C279  1  0.427100  0.124500  0.479800  1.0  -0.1493
  C  C280  1  0.673370  0.414870  0.736300  1.0  0.6828
  C  C281  1  0.715980  0.465040  0.787470  1.0  -0.1721
  C  C282  1  0.766610  0.562330  0.787270  1.0  -0.1642
  C  C283  1  0.444450  0.082860  0.649070  1.0  0.1688
  C  C284  1  0.384380  0.989240  0.661820  1.0  -0.2361
  C  C285  1  0.359300  0.963530  0.713420  1.0  0.2599
  C  C286  1  0.399460  0.034720  0.751460  1.0  -0.2725
  C  C287  1  0.460400  0.123810  0.735050  1.0  0.178
  C  C288  1  0.248510  0.836750  0.769640  1.0  0.4625
  C  C289  1  0.178730  0.734590  0.771850  1.0  0.2692
  C  C290  1  0.170070  0.675870  0.737050  1.0  -0.1652
  C  C291  1  0.101800  0.582100  0.739930  1.0  -0.1979
  C  C292  1  0.037280  0.548900  0.776980  1.0  0.3048
  C  C293  1  0.052700  0.607200  0.814030  1.0  -0.1763
  C  C294  1  0.124500  0.697400  0.813140  1.0  -0.1491
  C  C295  1  0.585130  0.258500  0.069630  1.0  0.6814
  C  C296  1  0.534960  0.250940  0.120800  1.0  -0.1715
  C  C297  1  0.437670  0.204280  0.120600  1.0  -0.166
  C  C298  1  0.917140  0.361590  0.982400  1.0  0.1632
  C  C299  1  0.010760  0.395140  0.995150  1.0  -0.239
  C  C300  1  0.036470  0.395770  0.046750  1.0  0.2589
  C  C301  1  0.965280  0.364740  0.084790  1.0  -0.2772
  C  C302  1  0.876190  0.336590  0.068380  1.0  0.1753
  C  C303  1  0.163250  0.411760  0.102970  1.0  0.4594
  C  C304  1  0.265410  0.444140  0.105180  1.0  0.2662
  C  C305  1  0.324130  0.494200  0.070380  1.0  -0.1641
  C  C306  1  0.417900  0.519700  0.073260  1.0  -0.1973
  C  C307  1  0.451100  0.488380  0.110310  1.0  0.3028
  C  C308  1  0.392800  0.445500  0.147360  1.0  -0.1775
  C  C309  1  0.302600  0.427100  0.146470  1.0  -0.1461
  C  C310  1  0.741500  0.326630  0.402960  1.0  0.6807
  C  C311  1  0.749060  0.284020  0.454130  1.0  -0.1715
  C  C312  1  0.795720  0.233390  0.453930  1.0  -0.1635
  C  C313  1  0.638410  0.555550  0.315730  1.0  0.1653
  C  C314  1  0.604860  0.615620  0.328480  1.0  -0.2364
  C  C315  1  0.604230  0.640700  0.380080  1.0  0.2581
  C  C316  1  0.635260  0.600540  0.418120  1.0  -0.2744
  C  C317  1  0.663410  0.539600  0.401710  1.0  0.1746
  C  C318  1  0.588240  0.751490  0.436300  1.0  0.4623
  C  C319  1  0.555860  0.821270  0.438510  1.0  0.2639
  C  C320  1  0.505800  0.829930  0.403710  1.0  -0.1634
  C  C321  1  0.480300  0.898200  0.406590  1.0  -0.2056
  C  C322  1  0.511620  0.962720  0.443640  1.0  0.3056
  C  C323  1  0.554500  0.947300  0.480690  1.0  -0.1701
  C  C324  1  0.572900  0.875500  0.479800  1.0  -0.1424
  C  C325  1  0.708840  0.417680  0.833330  1.0  0.0055
  C  C326  1  0.805360  0.610720  0.833330  1.0  0.299
  C  C327  1  0.708840  0.291160  0.500000  1.0  0.0044
  C  C328  1  0.805360  0.194640  0.500000  1.0  0.2935
  C  C329  1  0.582320  0.291160  0.166670  1.0  0.0041
  C  C330  1  0.389280  0.194640  0.166670  1.0  0.2962
  C  C331  1  0.291160  0.582320  0.833330  1.0  0.005
  C  C332  1  0.194640  0.389280  0.833330  1.0  0.2995
  C  C333  1  0.291160  0.708840  0.500000  1.0  0.004
  C  C334  1  0.194640  0.805360  0.500000  1.0  0.2956
  C  C335  1  0.417680  0.708840  0.166670  1.0  0.0041
  C  C336  1  0.610720  0.805360  0.166670  1.0  0.2941
  N  N337  1  0.665550  0.149010  0.981880  1.0  -0.3479
  N  N338  1  0.575310  0.872260  0.941970  1.0  -0.2983
  N  N339  1  0.483460  0.334450  0.648550  1.0  -0.3491
  N  N340  1  0.296950  0.424690  0.608640  1.0  -0.3004
  N  N341  1  0.850990  0.516540  0.315210  1.0  -0.3499
  N  N342  1  0.127740  0.703050  0.275300  1.0  -0.3025
  N  N343  1  0.334450  0.850990  0.981880  1.0  -0.3509
  N  N344  1  0.424690  0.127740  0.941970  1.0  -0.2991
  N  N345  1  0.516540  0.665550  0.648550  1.0  -0.3475
  N  N346  1  0.703050  0.575310  0.608640  1.0  -0.3009
  N  N347  1  0.149010  0.483460  0.315210  1.0  -0.3506
  N  N348  1  0.872260  0.296950  0.275300  1.0  -0.2994
  N  N349  1  0.516540  0.850990  0.684790  1.0  -0.3506
  N  N350  1  0.703050  0.127740  0.724700  1.0  -0.2993
  N  N351  1  0.149010  0.665550  0.018120  1.0  -0.3484
  N  N352  1  0.872260  0.575310  0.058030  1.0  -0.3009
  N  N353  1  0.334450  0.483460  0.351450  1.0  -0.3498
  N  N354  1  0.424690  0.296950  0.391360  1.0  -0.3029
  N  N355  1  0.483460  0.149010  0.684790  1.0  -0.3493
  N  N356  1  0.296950  0.872260  0.724700  1.0  -0.2993
  N  N357  1  0.850990  0.334450  0.018120  1.0  -0.3496
  N  N358  1  0.127740  0.424690  0.058030  1.0  -0.3017
  N  N359  1  0.665550  0.516540  0.351450  1.0  -0.3502
  N  N360  1  0.575310  0.703050  0.391360  1.0  -0.3002
  N  N361  1  0.854130  0.708260  0.833330  1.0  -0.7514
  N  N362  1  0.854130  0.145880  0.500000  1.0  -0.7512
  N  N363  1  0.291750  0.145880  0.166670  1.0  -0.7516
  N  N364  1  0.145870  0.291740  0.833330  1.0  -0.7524
  N  N365  1  0.145870  0.854120  0.500000  1.0  -0.7529
  N  N366  1  0.708250  0.854120  0.166670  1.0  -0.7531
  O  O367  1  0.709290  0.329930  0.928270  1.0  -0.5813
  O  O368  1  0.767610  0.459950  0.972400  1.0  -0.631
  O  O369  1  0.621250  0.884830  0.858430  1.0  -0.5274
  O  O370  1  0.620640  0.290710  0.594940  1.0  -0.5799
  O  O371  1  0.692340  0.232390  0.639070  1.0  -0.6329
  O  O372  1  0.263580  0.378750  0.525100  1.0  -0.528
  O  O373  1  0.670070  0.379360  0.261600  1.0  -0.58
  O  O374  1  0.540050  0.307660  0.305730  1.0  -0.6324
  O  O375  1  0.115170  0.736420  0.191760  1.0  -0.5269
  O  O376  1  0.290710  0.670070  0.928270  1.0  -0.5807
  O  O377  1  0.232390  0.540050  0.972400  1.0  -0.6311
  O  O378  1  0.378750  0.115170  0.858430  1.0  -0.5285
  O  O379  1  0.379360  0.709290  0.594940  1.0  -0.5808
  O  O380  1  0.307660  0.767610  0.639070  1.0  -0.6325
  O  O381  1  0.736420  0.621250  0.525100  1.0  -0.5263
  O  O382  1  0.329930  0.620640  0.261600  1.0  -0.5798
  O  O383  1  0.459950  0.692340  0.305730  1.0  -0.6326
  O  O384  1  0.884830  0.263580  0.191760  1.0  -0.5288
  O  O385  1  0.379360  0.670070  0.738400  1.0  -0.5799
  O  O386  1  0.307660  0.540050  0.694270  1.0  -0.6329
  O  O387  1  0.736420  0.115170  0.808240  1.0  -0.5263
  O  O388  1  0.329930  0.709290  0.071730  1.0  -0.5795
  O  O389  1  0.459950  0.767610  0.027600  1.0  -0.6348
  O  O390  1  0.884830  0.621250  0.141570  1.0  -0.5252
  O  O391  1  0.290710  0.620640  0.405060  1.0  -0.5798
  O  O392  1  0.232390  0.692340  0.360930  1.0  -0.6344
  O  O393  1  0.378750  0.263580  0.474900  1.0  -0.5239
  O  O394  1  0.620640  0.329930  0.738400  1.0  -0.5813
  O  O395  1  0.692340  0.459950  0.694270  1.0  -0.6323
  O  O396  1  0.263580  0.884830  0.808240  1.0  -0.5257
  O  O397  1  0.670070  0.290710  0.071730  1.0  -0.5804
  O  O398  1  0.540050  0.232390  0.027600  1.0  -0.6345
  O  O399  1  0.115170  0.378750  0.141570  1.0  -0.5257
  O  O400  1  0.709290  0.379360  0.405060  1.0  -0.5789
  O  O401  1  0.767610  0.307660  0.360930  1.0  -0.6338
  O  O402  1  0.621250  0.736420  0.474900  1.0  -0.5267
