# generated using pymatgen
data_Mn3H36C66O13
_symmetry_space_group_name_H-M   'P 1'
_cell_length_a   20.09620000
_cell_length_b   20.09620000
_cell_length_c   26.91450000
_cell_angle_alpha   90.00000000
_cell_angle_beta   90.00000000
_cell_angle_gamma   120.00000000
_symmetry_Int_Tables_number   1
_chemical_formula_structural   Mn3H36C66O13
_chemical_formula_sum   'Mn6 H72 C132 O26'
_cell_volume   9413.36365001
_cell_formula_units_Z   2
loop_
 _symmetry_equiv_pos_site_id
 _symmetry_equiv_pos_as_xyz
  1  'x, y, z'
loop_
 _atom_site_type_symbol
 _atom_site_label
 _atom_site_symmetry_multiplicity
 _atom_site_fract_x
 _atom_site_fract_y
 _atom_site_fract_z
 _atom_site_occupancy
 _atom_site_charge
  Mn  Mn1  1  0.367220  0.783350  0.250000  1.0  1.1443
  Mn  Mn2  1  0.416130  0.632770  0.250000  1.0  1.1426
  Mn  Mn3  1  0.216640  0.583860  0.250000  1.0  1.144
  Mn  Mn4  1  0.583870  0.216650  0.750000  1.0  1.1426
  Mn  Mn5  1  0.783360  0.367230  0.750000  1.0  1.1429
  Mn  Mn6  1  0.632780  0.416140  0.750000  1.0  1.1444
  H  H7  1  0.250900  0.842800  0.367000  1.0  0.098
  H  H8  1  0.181000  0.868300  0.423200  1.0  0.1196
  H  H9  1  0.016100  0.647000  0.420000  1.0  0.1165
  H  H10  1  0.085800  0.623000  0.360700  1.0  0.1118
  H  H11  1  0.077300  0.883200  0.444600  1.0  0.1117
  H  H12  1  0.591900  0.749100  0.367000  1.0  0.0972
  H  H13  1  0.687300  0.819000  0.423200  1.0  0.1198
  H  H14  1  0.630900  0.983900  0.420000  1.0  0.1168
  H  H15  1  0.537200  0.914200  0.360700  1.0  0.1116
  H  H16  1  0.805900  0.922700  0.444600  1.0  0.112
  H  H17  1  0.157200  0.408100  0.367000  1.0  0.0973
  H  H18  1  0.131700  0.312700  0.423200  1.0  0.1205
  H  H19  1  0.353000  0.369100  0.420000  1.0  0.1146
  H  H20  1  0.377000  0.462800  0.360700  1.0  0.113
  H  H21  1  0.116800  0.194100  0.444600  1.0  0.1117
  H  H22  1  0.250900  0.842800  0.133000  1.0  0.0974
  H  H23  1  0.181000  0.868300  0.076800  1.0  0.1199
  H  H24  1  0.016100  0.647000  0.080000  1.0  0.1169
  H  H25  1  0.085800  0.623000  0.139300  1.0  0.1115
  H  H26  1  0.077300  0.883200  0.055400  1.0  0.1118
  H  H27  1  0.591900  0.749100  0.133000  1.0  0.0966
  H  H28  1  0.687300  0.819000  0.076800  1.0  0.12
  H  H29  1  0.630900  0.983900  0.080000  1.0  0.1172
  H  H30  1  0.537200  0.914200  0.139300  1.0  0.111
  H  H31  1  0.805900  0.922700  0.055400  1.0  0.1127
  H  H32  1  0.157200  0.408100  0.133000  1.0  0.0968
  H  H33  1  0.131700  0.312700  0.076800  1.0  0.1207
  H  H34  1  0.353000  0.369100  0.080000  1.0  0.1151
  H  H35  1  0.377000  0.462800  0.139300  1.0  0.1123
  H  H36  1  0.116800  0.194100  0.055400  1.0  0.1122
  H  H37  1  0.408100  0.157200  0.633000  1.0  0.0971
  H  H38  1  0.312700  0.131700  0.576800  1.0  0.1198
  H  H39  1  0.369100  0.353000  0.580000  1.0  0.1158
  H  H40  1  0.462800  0.377000  0.639300  1.0  0.1112
  H  H41  1  0.194100  0.116800  0.555400  1.0  0.1124
  H  H42  1  0.842800  0.250900  0.633000  1.0  0.0969
  H  H43  1  0.868300  0.181000  0.576800  1.0  0.1205
  H  H44  1  0.647000  0.016100  0.580000  1.0  0.1167
  H  H45  1  0.623000  0.085800  0.639300  1.0  0.1124
  H  H46  1  0.883200  0.077300  0.555400  1.0  0.1122
  H  H47  1  0.749100  0.591900  0.633000  1.0  0.0967
  H  H48  1  0.819000  0.687300  0.576800  1.0  0.121
  H  H49  1  0.983900  0.630900  0.580000  1.0  0.1168
  H  H50  1  0.914200  0.537200  0.639300  1.0  0.1119
  H  H51  1  0.922700  0.805900  0.555400  1.0  0.1122
  H  H52  1  0.408100  0.157200  0.867000  1.0  0.0975
  H  H53  1  0.312700  0.131700  0.923200  1.0  0.1195
  H  H54  1  0.369100  0.353000  0.920000  1.0  0.1159
  H  H55  1  0.462800  0.377000  0.860700  1.0  0.1112
  H  H56  1  0.194100  0.116800  0.944600  1.0  0.1118
  H  H57  1  0.842800  0.250900  0.867000  1.0  0.0977
  H  H58  1  0.868300  0.181000  0.923200  1.0  0.1203
  H  H59  1  0.647000  0.016100  0.920000  1.0  0.1162
  H  H60  1  0.623000  0.085800  0.860700  1.0  0.1126
  H  H61  1  0.883200  0.077300  0.944600  1.0  0.1119
  H  H62  1  0.749100  0.591900  0.867000  1.0  0.0971
  H  H63  1  0.819000  0.687300  0.923200  1.0  0.1207
  H  H64  1  0.983900  0.630900  0.920000  1.0  0.1163
  H  H65  1  0.914200  0.537200  0.860700  1.0  0.1121
  H  H66  1  0.922700  0.805900  0.944600  1.0  0.112
  H  H67  1  0.000000  0.672400  0.500000  1.0  0.1083
  H  H68  1  0.672400  0.000000  0.500000  1.0  0.1089
  H  H69  1  0.327600  0.327600  0.500000  1.0  0.1078
  H  H70  1  0.000000  0.672400  0.000000  1.0  0.1083
  H  H71  1  0.672400  0.000000  0.000000  1.0  0.1089
  H  H72  1  0.327600  0.327600  0.000000  1.0  0.1078
  H  H73  1  0.884700  0.884700  0.500000  1.0  0.1075
  H  H74  1  0.000000  0.115300  0.500000  1.0  0.1079
  H  H75  1  0.115300  0.000000  0.500000  1.0  0.1072
  H  H76  1  0.884700  0.884700  0.000000  1.0  0.1075
  H  H77  1  0.000000  0.115300  0.000000  1.0  0.1079
  H  H78  1  0.115300  0.000000  0.000000  1.0  0.1072
  C  C79  1  0.222150  0.713720  0.320120  1.0  0.7314
  C  C80  1  0.177550  0.731100  0.358440  1.0  -0.1245
  C  C81  1  0.203450  0.802880  0.377470  1.0  -0.028
  C  C82  1  0.161780  0.818400  0.411640  1.0  -0.1404
  C  C83  1  0.091980  0.760720  0.428740  1.0  0.065
  C  C84  1  0.063410  0.686660  0.409300  1.0  -0.1403
  C  C85  1  0.105610  0.672050  0.373950  1.0  -0.0507
  C  C86  1  0.045010  0.774520  0.465670  1.0  -0.0074
  C  C87  1  0.045850  0.844370  0.466570  1.0  -0.0904
  C  C88  1  0.491570  0.777850  0.320120  1.0  0.732
  C  C89  1  0.553550  0.822450  0.358440  1.0  -0.1237
  C  C90  1  0.599430  0.796550  0.377470  1.0  -0.0292
  C  C91  1  0.656620  0.838220  0.411640  1.0  -0.1416
  C  C92  1  0.668740  0.908020  0.428740  1.0  0.0654
  C  C93  1  0.623250  0.936590  0.409300  1.0  -0.1402
  C  C94  1  0.566440  0.894390  0.373950  1.0  -0.0521
  C  C95  1  0.729510  0.954990  0.465670  1.0  -0.0077
  C  C96  1  0.798520  0.954150  0.466570  1.0  -0.0909
  C  C97  1  0.286280  0.508430  0.320120  1.0  0.7318
  C  C98  1  0.268900  0.446450  0.358440  1.0  -0.1232
  C  C99  1  0.197120  0.400570  0.377470  1.0  -0.0237
  C  C100  1  0.181600  0.343380  0.411640  1.0  -0.1394
  C  C101  1  0.239280  0.331260  0.428740  1.0  0.0657
  C  C102  1  0.313340  0.376750  0.409300  1.0  -0.1375
  C  C103  1  0.327950  0.433560  0.373950  1.0  -0.0515
  C  C104  1  0.225480  0.270490  0.465670  1.0  -0.0072
  C  C105  1  0.155630  0.201480  0.466570  1.0  -0.0924
  C  C106  1  0.222150  0.713720  0.179880  1.0  0.7312
  C  C107  1  0.177550  0.731100  0.141560  1.0  -0.1237
  C  C108  1  0.203450  0.802880  0.122530  1.0  -0.0282
  C  C109  1  0.161780  0.818400  0.088360  1.0  -0.1409
  C  C110  1  0.091980  0.760720  0.071260  1.0  0.065
  C  C111  1  0.063410  0.686660  0.090700  1.0  -0.1403
  C  C112  1  0.105610  0.672050  0.126050  1.0  -0.0509
  C  C113  1  0.045010  0.774520  0.034330  1.0  -0.0078
  C  C114  1  0.045850  0.844370  0.033430  1.0  -0.0902
  C  C115  1  0.491570  0.777850  0.179880  1.0  0.7316
  C  C116  1  0.553550  0.822450  0.141560  1.0  -0.1226
  C  C117  1  0.599430  0.796550  0.122530  1.0  -0.0295
  C  C118  1  0.656620  0.838220  0.088360  1.0  -0.1418
  C  C119  1  0.668740  0.908020  0.071260  1.0  0.0654
  C  C120  1  0.623250  0.936590  0.090700  1.0  -0.1404
  C  C121  1  0.566440  0.894390  0.126050  1.0  -0.0521
  C  C122  1  0.729510  0.954990  0.034330  1.0  -0.0079
  C  C123  1  0.798520  0.954150  0.033430  1.0  -0.0909
  C  C124  1  0.286280  0.508430  0.179880  1.0  0.7314
  C  C125  1  0.268900  0.446450  0.141560  1.0  -0.1223
  C  C126  1  0.197120  0.400570  0.122530  1.0  -0.0235
  C  C127  1  0.181600  0.343380  0.088360  1.0  -0.1393
  C  C128  1  0.239280  0.331260  0.071260  1.0  0.0658
  C  C129  1  0.313340  0.376750  0.090700  1.0  -0.1381
  C  C130  1  0.327950  0.433560  0.126050  1.0  -0.0511
  C  C131  1  0.225480  0.270490  0.034330  1.0  -0.0075
  C  C132  1  0.155630  0.201480  0.033430  1.0  -0.0926
  C  C133  1  0.508430  0.286280  0.679880  1.0  0.7313
  C  C134  1  0.446450  0.268900  0.641560  1.0  -0.1237
  C  C135  1  0.400570  0.197120  0.622530  1.0  -0.029
  C  C136  1  0.343380  0.181600  0.588360  1.0  -0.1411
  C  C137  1  0.331260  0.239280  0.571260  1.0  0.065
  C  C138  1  0.376750  0.313340  0.590700  1.0  -0.1415
  C  C139  1  0.433560  0.327950  0.626050  1.0  -0.0511
  C  C140  1  0.270490  0.225480  0.534330  1.0  -0.0078
  C  C141  1  0.201480  0.155630  0.533430  1.0  -0.0901
  C  C142  1  0.713720  0.222150  0.679880  1.0  0.7317
  C  C143  1  0.731100  0.177550  0.641560  1.0  -0.1222
  C  C144  1  0.802880  0.203450  0.622530  1.0  -0.0282
  C  C145  1  0.818400  0.161780  0.588360  1.0  -0.1419
  C  C146  1  0.760720  0.091980  0.571260  1.0  0.0657
  C  C147  1  0.686660  0.063410  0.590700  1.0  -0.1407
  C  C148  1  0.672050  0.105610  0.626050  1.0  -0.0516
  C  C149  1  0.774520  0.045010  0.534330  1.0  -0.0077
  C  C150  1  0.844370  0.045850  0.533430  1.0  -0.0914
  C  C151  1  0.777850  0.491570  0.679880  1.0  0.7315
  C  C152  1  0.822450  0.553550  0.641560  1.0  -0.1222
  C  C153  1  0.796550  0.599430  0.622530  1.0  -0.0234
  C  C154  1  0.838220  0.656620  0.588360  1.0  -0.1388
  C  C155  1  0.908020  0.668740  0.571260  1.0  0.0658
  C  C156  1  0.936590  0.623250  0.590700  1.0  -0.1381
  C  C157  1  0.894390  0.566440  0.626050  1.0  -0.0506
  C  C158  1  0.954990  0.729510  0.534330  1.0  -0.0077
  C  C159  1  0.954150  0.798520  0.533430  1.0  -0.0929
  C  C160  1  0.508430  0.286280  0.820120  1.0  0.7315
  C  C161  1  0.446450  0.268900  0.858440  1.0  -0.1244
  C  C162  1  0.400570  0.197120  0.877470  1.0  -0.0289
  C  C163  1  0.343380  0.181600  0.911640  1.0  -0.1412
  C  C164  1  0.331260  0.239280  0.928740  1.0  0.065
  C  C165  1  0.376750  0.313340  0.909300  1.0  -0.1411
  C  C166  1  0.433560  0.327950  0.873950  1.0  -0.052
  C  C167  1  0.270490  0.225480  0.965670  1.0  -0.0074
  C  C168  1  0.201480  0.155630  0.966570  1.0  -0.0894
  C  C169  1  0.713720  0.222150  0.820120  1.0  0.7322
  C  C170  1  0.731100  0.177550  0.858440  1.0  -0.1231
  C  C171  1  0.802880  0.203450  0.877470  1.0  -0.0282
  C  C172  1  0.818400  0.161780  0.911640  1.0  -0.1418
  C  C173  1  0.760720  0.091980  0.928740  1.0  0.0656
  C  C174  1  0.686660  0.063410  0.909300  1.0  -0.1409
  C  C175  1  0.672050  0.105610  0.873950  1.0  -0.052
  C  C176  1  0.774520  0.045010  0.965670  1.0  -0.0074
  C  C177  1  0.844370  0.045850  0.966570  1.0  -0.0914
  C  C178  1  0.777850  0.491570  0.820120  1.0  0.7319
  C  C179  1  0.822450  0.553550  0.858440  1.0  -0.1235
  C  C180  1  0.796550  0.599430  0.877470  1.0  -0.0235
  C  C181  1  0.838220  0.656620  0.911640  1.0  -0.1392
  C  C182  1  0.908020  0.668740  0.928740  1.0  0.0657
  C  C183  1  0.936590  0.623250  0.909300  1.0  -0.1376
  C  C184  1  0.894390  0.566440  0.873950  1.0  -0.0511
  C  C185  1  0.954990  0.729510  0.965670  1.0  -0.0075
  C  C186  1  0.954150  0.798520  0.966570  1.0  -0.0926
  C  C187  1  0.000000  0.718680  0.500000  1.0  -0.1077
  C  C188  1  0.000000  0.856550  0.500000  1.0  0.0619
  C  C189  1  0.000000  0.929880  0.500000  1.0  0.0552
  C  C190  1  0.718680  0.000000  0.500000  1.0  -0.1086
  C  C191  1  0.856550  0.000000  0.500000  1.0  0.0614
  C  C192  1  0.929880  0.000000  0.500000  1.0  0.0542
  C  C193  1  0.281320  0.281320  0.500000  1.0  -0.106
  C  C194  1  0.143450  0.143450  0.500000  1.0  0.0617
  C  C195  1  0.070120  0.070120  0.500000  1.0  0.0557
  C  C196  1  0.000000  0.718680  0.000000  1.0  -0.1077
  C  C197  1  0.000000  0.856550  0.000000  1.0  0.0619
  C  C198  1  0.000000  0.929880  0.000000  1.0  0.0552
  C  C199  1  0.718680  0.000000  0.000000  1.0  -0.1086
  C  C200  1  0.856550  0.000000  0.000000  1.0  0.0614
  C  C201  1  0.929880  0.000000  0.000000  1.0  0.0542
  C  C202  1  0.281320  0.281320  0.000000  1.0  -0.106
  C  C203  1  0.143450  0.143450  0.000000  1.0  0.0617
  C  C204  1  0.070120  0.070120  0.000000  1.0  0.0557
  C  C205  1  0.931020  0.931020  0.500000  1.0  -0.07
  C  C206  1  0.000000  0.068980  0.500000  1.0  -0.0696
  C  C207  1  0.068980  0.000000  0.500000  1.0  -0.0735
  C  C208  1  0.931020  0.931020  0.000000  1.0  -0.07
  C  C209  1  0.000000  0.068980  0.000000  1.0  -0.0696
  C  C210  1  0.068980  0.000000  0.000000  1.0  -0.0735
  O  O211  1  0.284170  0.769140  0.306500  1.0  -0.643
  O  O212  1  0.193210  0.645730  0.306450  1.0  -0.6233
  O  O213  1  0.484970  0.715830  0.306500  1.0  -0.6432
  O  O214  1  0.452520  0.806790  0.306450  1.0  -0.6221
  O  O215  1  0.230860  0.515030  0.306500  1.0  -0.6434
  O  O216  1  0.354270  0.547480  0.306450  1.0  -0.6248
  O  O217  1  0.284170  0.769140  0.193500  1.0  -0.6432
  O  O218  1  0.193210  0.645730  0.193550  1.0  -0.623
  O  O219  1  0.484970  0.715830  0.193500  1.0  -0.6434
  O  O220  1  0.452520  0.806790  0.193550  1.0  -0.6222
  O  O221  1  0.230860  0.515030  0.193500  1.0  -0.6436
  O  O222  1  0.354270  0.547480  0.193550  1.0  -0.6251
  O  O223  1  0.515030  0.230860  0.693500  1.0  -0.643
  O  O224  1  0.547480  0.354270  0.693550  1.0  -0.6244
  O  O225  1  0.769140  0.284170  0.693500  1.0  -0.6439
  O  O226  1  0.645730  0.193210  0.693550  1.0  -0.622
  O  O227  1  0.715830  0.484970  0.693500  1.0  -0.6438
  O  O228  1  0.806790  0.452520  0.693550  1.0  -0.6246
  O  O229  1  0.515030  0.230860  0.806500  1.0  -0.6427
  O  O230  1  0.547480  0.354270  0.806450  1.0  -0.6242
  O  O231  1  0.769140  0.284170  0.806500  1.0  -0.6434
  O  O232  1  0.645730  0.193210  0.806450  1.0  -0.6218
  O  O233  1  0.715830  0.484970  0.806500  1.0  -0.6436
  O  O234  1  0.806790  0.452520  0.806450  1.0  -0.6242
  O  O235  1  0.333333  0.666667  0.250000  1.0  -0.9346
  O  O236  1  0.666667  0.333333  0.750000  1.0  -0.9346
