# generated using pymatgen
data_CoH14C18(NO2)2
_symmetry_space_group_name_H-M   'P 1'
_cell_length_a   10.01960000
_cell_length_b   13.56340000
_cell_length_c   17.58110000
_cell_angle_alpha   71.96800000
_cell_angle_beta   83.62500000
_cell_angle_gamma   78.83300000
_symmetry_Int_Tables_number   1
_chemical_formula_structural   CoH14C18(NO2)2
_chemical_formula_sum   'Co3 H42 C54 N6 O12'
_cell_volume   2225.55789345
_cell_formula_units_Z   3
loop_
 _symmetry_equiv_pos_site_id
 _symmetry_equiv_pos_as_xyz
  1  'x, y, z'
loop_
 _atom_site_type_symbol
 _atom_site_label
 _atom_site_symmetry_multiplicity
 _atom_site_fract_x
 _atom_site_fract_y
 _atom_site_fract_z
 _atom_site_occupancy
 _atom_site_charge
  Co  Co1  1  0.800280  0.508200  0.570220  1.0  0.9411
  Co  Co2  1  0.199720  0.491800  0.429780  1.0  0.9388
  Co  Co3  1  0.000000  0.500000  0.000000  1.0  0.8502
  H  H4  1  0.348100  0.487600  0.574500  1.0  0.0926
  H  H5  1  0.068200  0.492400  0.755100  1.0  0.0989
  H  H6  1  0.455000  0.514400  0.779200  1.0  0.1071
  H  H7  1  0.607600  0.359100  0.559700  1.0  0.0691
  H  H8  1  0.610900  0.195400  0.548800  1.0  0.1049
  H  H9  1  0.014900  0.145400  0.552600  1.0  0.1103
  H  H10  1  0.001000  0.310600  0.563000  1.0  0.0697
  H  H11  1  0.854900  0.039500  0.490500  1.0  0.1048
  H  H12  1  0.892700  0.992800  0.580100  1.0  0.0974
  H  H13  1  0.626700  0.033700  0.526500  1.0  0.0811
  H  H14  1  0.655600  0.999200  0.617800  1.0  0.0875
  H  H15  1  0.859300  0.647900  0.668800  1.0  0.0863
  H  H16  1  0.810000  0.819000  0.672000  1.0  0.1276
  H  H17  1  0.640600  0.899000  0.462400  1.0  0.121
  H  H18  1  0.689100  0.725900  0.465700  1.0  0.0771
  H  H19  1  0.170500  0.677400  0.936300  1.0  0.0844
  H  H20  1  0.159900  0.851800  0.921900  1.0  0.1236
  H  H21  1  0.790500  0.860100  0.029700  1.0  0.1252
  H  H22  1  0.807700  0.686100  0.042000  1.0  0.0836
  H  H23  1  0.873500  0.024000  0.974800  1.0  0.0692
  H  H24  1  0.007800  0.026400  0.920100  1.0  0.0791
  H  H25  1  0.651900  0.512400  0.425500  1.0  0.0955
  H  H26  1  0.931800  0.507600  0.244900  1.0  0.0994
  H  H27  1  0.545000  0.485600  0.220800  1.0  0.1082
  H  H28  1  0.392400  0.640900  0.440300  1.0  0.0689
  H  H29  1  0.389100  0.804600  0.451200  1.0  0.1052
  H  H30  1  0.985100  0.854600  0.447400  1.0  0.1102
  H  H31  1  0.999000  0.689400  0.437000  1.0  0.0692
  H  H32  1  0.145100  0.960500  0.509500  1.0  0.1066
  H  H33  1  0.107300  0.007200  0.419900  1.0  0.0974
  H  H34  1  0.373300  0.966300  0.473500  1.0  0.0812
  H  H35  1  0.344400  0.000800  0.382200  1.0  0.0868
  H  H36  1  0.140700  0.352100  0.331200  1.0  0.0855
  H  H37  1  0.190000  0.181000  0.328000  1.0  0.1277
  H  H38  1  0.359400  0.101000  0.537600  1.0  0.1211
  H  H39  1  0.310900  0.274100  0.534300  1.0  0.0775
  H  H40  1  0.829500  0.322600  0.063700  1.0  0.0842
  H  H41  1  0.840100  0.148200  0.078100  1.0  0.1234
  H  H42  1  0.209500  0.139900  0.970300  1.0  0.1256
  H  H43  1  0.192300  0.313900  0.958000  1.0  0.0841
  H  H44  1  0.126500  0.976000  0.025200  1.0  0.0654
  H  H45  1  0.992200  0.973600  0.079900  1.0  0.0799
  C  C46  1  0.423100  0.504100  0.670910  1.0  -0.1536
  C  C47  1  0.325000  0.491630  0.626280  1.0  0.0034
  C  C48  1  0.193200  0.485150  0.658060  1.0  -0.1441
  C  C49  1  0.157600  0.493890  0.734440  1.0  0.0092
  C  C50  1  0.255900  0.504900  0.780580  1.0  -0.1515
  C  C51  1  0.388800  0.508700  0.748430  1.0  0.0138
  C  C52  1  0.564700  0.509730  0.634880  1.0  0.641
  C  C53  1  0.218600  0.511600  0.864210  1.0  0.6808
  C  C54  1  0.691200  0.315300  0.558780  1.0  0.1922
  C  C55  1  0.692500  0.216400  0.552300  1.0  -0.2622
  C  C56  1  0.813800  0.148400  0.550910  1.0  0.1237
  C  C57  1  0.929900  0.187100  0.554400  1.0  -0.2226
  C  C58  1  0.920800  0.287000  0.560730  1.0  0.1884
  C  C59  1  0.823800  0.039100  0.544800  1.0  -0.257
  C  C60  1  0.693000  0.993700  0.565700  1.0  -0.198
  C  C61  1  0.813100  0.698800  0.627170  1.0  0.165
  C  C62  1  0.784900  0.801900  0.628900  1.0  -0.195
  C  C63  1  0.719300  0.879500  0.567000  1.0  0.1243
  C  C64  1  0.684300  0.849300  0.505600  1.0  -0.2439
  C  C65  1  0.714100  0.744700  0.508040  1.0  0.1672
  C  C66  1  0.092700  0.713700  0.955900  1.0  0.169
  C  C67  1  0.087600  0.818600  0.948000  1.0  -0.1584
  C  C68  1  0.870200  0.824400  0.011400  1.0  -0.2169
  C  C69  1  0.880800  0.719700  0.017600  1.0  0.167
  C  C70  1  0.975300  0.875300  0.978800  1.0  0.1387
  C  C71  1  0.968400  0.991700  0.972100  1.0  -0.1216
  C  C72  1  0.089600  0.469010  0.608880  1.0  0.6973
  C  C73  1  0.576900  0.495900  0.329090  1.0  -0.1526
  C  C74  1  0.675000  0.508370  0.373720  1.0  0.0036
  C  C75  1  0.806800  0.514850  0.341940  1.0  -0.1471
  C  C76  1  0.842400  0.506110  0.265560  1.0  0.0098
  C  C77  1  0.744100  0.495100  0.219420  1.0  -0.1525
  C  C78  1  0.611200  0.491300  0.251570  1.0  0.013
  C  C79  1  0.435300  0.490270  0.365120  1.0  0.6385
  C  C80  1  0.781400  0.488400  0.135790  1.0  0.6783
  C  C81  1  0.308800  0.684700  0.441220  1.0  0.1913
  C  C82  1  0.307500  0.783600  0.447700  1.0  -0.2601
  C  C83  1  0.186200  0.851600  0.449090  1.0  0.125
  C  C84  1  0.070100  0.812900  0.445600  1.0  -0.2224
  C  C85  1  0.079200  0.713000  0.439270  1.0  0.1859
  C  C86  1  0.176200  0.960900  0.455200  1.0  -0.2573
  C  C87  1  0.307000  0.006300  0.434300  1.0  -0.1985
  C  C88  1  0.186900  0.301200  0.372830  1.0  0.1658
  C  C89  1  0.215100  0.198100  0.371100  1.0  -0.1943
  C  C90  1  0.280700  0.120500  0.433000  1.0  0.1247
  C  C91  1  0.315700  0.150700  0.494400  1.0  -0.2432
  C  C92  1  0.285900  0.255300  0.491960  1.0  0.1694
  C  C93  1  0.907300  0.286300  0.044100  1.0  0.1688
  C  C94  1  0.912400  0.181400  0.052000  1.0  -0.1673
  C  C95  1  0.129800  0.175600  0.988600  1.0  -0.2171
  C  C96  1  0.119200  0.280300  0.982400  1.0  0.1679
  C  C97  1  0.024700  0.124700  0.021200  1.0  0.1374
  C  C98  1  0.031600  0.008300  0.027900  1.0  -0.1234
  C  C99  1  0.910400  0.530990  0.391120  1.0  0.6987
  N  N100  1  0.803560  0.351540  0.563790  1.0  -0.3416
  N  N101  1  0.776490  0.669540  0.567710  1.0  -0.3263
  N  N102  1  0.990900  0.662260  0.990310  1.0  -0.3542
  N  N103  1  0.196440  0.648460  0.436210  1.0  -0.3416
  N  N104  1  0.223510  0.330460  0.432290  1.0  -0.3266
  N  N105  1  0.009100  0.337740  0.009690  1.0  -0.3557
  O  O106  1  0.664030  0.480870  0.679750  1.0  -0.5577
  O  O107  1  0.583390  0.540370  0.560350  1.0  -0.5612
  O  O108  1  0.094860  0.521330  0.886270  1.0  -0.6183
  O  O109  1  0.315010  0.502500  0.908080  1.0  -0.5341
  O  O110  1  0.967610  0.476140  0.635420  1.0  -0.6003
  O  O111  1  0.132170  0.446110  0.545780  1.0  -0.6209
  O  O112  1  0.335970  0.519130  0.320250  1.0  -0.5556
  O  O113  1  0.416610  0.459630  0.439650  1.0  -0.5615
  O  O114  1  0.905140  0.478670  0.113730  1.0  -0.6187
  O  O115  1  0.684990  0.497500  0.091920  1.0  -0.5357
  O  O116  1  0.032390  0.523860  0.364580  1.0  -0.6029
  O  O117  1  0.867830  0.553890  0.454220  1.0  -0.6198
