# generated using pymatgen
data_In3H36C66O13
_symmetry_space_group_name_H-M   'P 1'
_cell_length_a   19.43560000
_cell_length_b   19.43560000
_cell_length_c   27.89300000
_cell_angle_alpha   90.00000000
_cell_angle_beta   90.00000000
_cell_angle_gamma   120.00000000
_symmetry_Int_Tables_number   1
_chemical_formula_structural   In3H36C66O13
_chemical_formula_sum   'In6 H72 C132 O26'
_cell_volume   9124.76657221
_cell_formula_units_Z   2
loop_
 _symmetry_equiv_pos_site_id
 _symmetry_equiv_pos_as_xyz
  1  'x, y, z'
loop_
 _atom_site_type_symbol
 _atom_site_label
 _atom_site_symmetry_multiplicity
 _atom_site_fract_x
 _atom_site_fract_y
 _atom_site_fract_z
 _atom_site_occupancy
 _atom_site_charge
  In  In1  1  0.364010  0.782830  0.250000  1.0  1.5584
  In  In2  1  0.418820  0.635990  0.250000  1.0  1.5561
  In  In3  1  0.217170  0.581180  0.250000  1.0  1.5581
  In  In4  1  0.581180  0.217170  0.750000  1.0  1.5572
  In  In5  1  0.782830  0.364010  0.750000  1.0  1.5563
  In  In6  1  0.635990  0.418820  0.750000  1.0  1.5582
  H  H7  1  0.250000  0.840300  0.366300  1.0  0.1004
  H  H8  1  0.182800  0.864400  0.424800  1.0  0.1098
  H  H9  1  0.011800  0.637100  0.420600  1.0  0.1079
  H  H10  1  0.084300  0.611300  0.364900  1.0  0.1002
  H  H11  1  0.076600  0.878600  0.444800  1.0  0.1012
  H  H12  1  0.590300  0.750000  0.366300  1.0  0.1003
  H  H13  1  0.681600  0.817200  0.424800  1.0  0.1107
  H  H14  1  0.625300  0.988200  0.420600  1.0  0.108
  H  H15  1  0.527000  0.915700  0.364900  1.0  0.1018
  H  H16  1  0.802000  0.923400  0.444800  1.0  0.1016
  H  H17  1  0.159700  0.409700  0.366300  1.0  0.0997
  H  H18  1  0.135600  0.318400  0.424800  1.0  0.1103
  H  H19  1  0.362900  0.374700  0.420600  1.0  0.1074
  H  H20  1  0.388700  0.473000  0.364900  1.0  0.102
  H  H21  1  0.121400  0.198000  0.444800  1.0  0.102
  H  H22  1  0.250000  0.840300  0.133700  1.0  0.1002
  H  H23  1  0.182800  0.864400  0.075200  1.0  0.11
  H  H24  1  0.011800  0.637100  0.079400  1.0  0.1083
  H  H25  1  0.084300  0.611300  0.135100  1.0  0.1002
  H  H26  1  0.076600  0.878600  0.055200  1.0  0.1017
  H  H27  1  0.590300  0.750000  0.133700  1.0  0.1001
  H  H28  1  0.681600  0.817200  0.075200  1.0  0.1107
  H  H29  1  0.625300  0.988200  0.079400  1.0  0.1081
  H  H30  1  0.527000  0.915700  0.135100  1.0  0.1013
  H  H31  1  0.802000  0.923400  0.055200  1.0  0.1024
  H  H32  1  0.159700  0.409700  0.133700  1.0  0.0997
  H  H33  1  0.135600  0.318400  0.075200  1.0  0.1102
  H  H34  1  0.362900  0.374700  0.079400  1.0  0.1077
  H  H35  1  0.388700  0.473000  0.135100  1.0  0.1016
  H  H36  1  0.121400  0.198000  0.055200  1.0  0.1025
  H  H37  1  0.409700  0.159700  0.633700  1.0  0.1001
  H  H38  1  0.318400  0.135600  0.575200  1.0  0.11
  H  H39  1  0.374700  0.362900  0.579400  1.0  0.1085
  H  H40  1  0.473000  0.388700  0.635100  1.0  0.1004
  H  H41  1  0.198000  0.121400  0.555200  1.0  0.1021
  H  H42  1  0.840300  0.250000  0.633700  1.0  0.1002
  H  H43  1  0.864400  0.182800  0.575200  1.0  0.1112
  H  H44  1  0.637100  0.011800  0.579400  1.0  0.108
  H  H45  1  0.611300  0.084300  0.635100  1.0  0.1013
  H  H46  1  0.878600  0.076600  0.555200  1.0  0.1024
  H  H47  1  0.750000  0.590300  0.633700  1.0  0.0995
  H  H48  1  0.817200  0.681600  0.575200  1.0  0.1104
  H  H49  1  0.988200  0.625300  0.579400  1.0  0.1079
  H  H50  1  0.915700  0.527000  0.635100  1.0  0.1018
  H  H51  1  0.923400  0.802000  0.555200  1.0  0.1022
  H  H52  1  0.409700  0.159700  0.866300  1.0  0.0999
  H  H53  1  0.318400  0.135600  0.924800  1.0  0.1097
  H  H54  1  0.374700  0.362900  0.920600  1.0  0.1075
  H  H55  1  0.473000  0.388700  0.864900  1.0  0.1013
  H  H56  1  0.198000  0.121400  0.944800  1.0  0.1014
  H  H57  1  0.840300  0.250000  0.866300  1.0  0.1004
  H  H58  1  0.864400  0.182800  0.924800  1.0  0.1111
  H  H59  1  0.637100  0.011800  0.920600  1.0  0.1068
  H  H60  1  0.611300  0.084300  0.864900  1.0  0.1013
  H  H61  1  0.878600  0.076600  0.944800  1.0  0.1018
  H  H62  1  0.750000  0.590300  0.866300  1.0  0.0996
  H  H63  1  0.817200  0.681600  0.924800  1.0  0.1102
  H  H64  1  0.988200  0.625300  0.920600  1.0  0.1073
  H  H65  1  0.915700  0.527000  0.864900  1.0  0.1018
  H  H66  1  0.923400  0.802000  0.944800  1.0  0.102
  H  H67  1  0.000000  0.662200  0.500000  1.0  0.1065
  H  H68  1  0.662200  0.000000  0.500000  1.0  0.1083
  H  H69  1  0.337800  0.337800  0.500000  1.0  0.1061
  H  H70  1  0.000000  0.662200  0.000000  1.0  0.1065
  H  H71  1  0.662200  0.000000  0.000000  1.0  0.1083
  H  H72  1  0.337800  0.337800  0.000000  1.0  0.1061
  H  H73  1  0.881800  0.881800  0.500000  1.0  0.0979
  H  H74  1  0.000000  0.118200  0.500000  1.0  0.0981
  H  H75  1  0.118200  0.000000  0.500000  1.0  0.0968
  H  H76  1  0.881800  0.881800  0.000000  1.0  0.0979
  H  H77  1  0.000000  0.118200  0.000000  1.0  0.0981
  H  H78  1  0.118200  0.000000  0.000000  1.0  0.0968
  C  C79  1  0.216330  0.709030  0.319400  1.0  0.7409
  C  C80  1  0.172970  0.723560  0.358130  1.0  -0.1466
  C  C81  1  0.202100  0.798850  0.377440  1.0  -0.0359
  C  C82  1  0.161950  0.813370  0.412490  1.0  -0.1706
  C  C83  1  0.091240  0.753510  0.429780  1.0  0.0611
  C  C84  1  0.060890  0.677900  0.410410  1.0  -0.1478
  C  C85  1  0.103290  0.662840  0.375940  1.0  -0.0479
  C  C86  1  0.045250  0.768340  0.466230  1.0  -0.0031
  C  C87  1  0.045550  0.839250  0.466860  1.0  -0.1095
  C  C88  1  0.492700  0.783670  0.319400  1.0  0.7407
  C  C89  1  0.550590  0.827030  0.358130  1.0  -0.1461
  C  C90  1  0.596750  0.797900  0.377440  1.0  -0.0376
  C  C91  1  0.651420  0.838050  0.412490  1.0  -0.1718
  C  C92  1  0.662270  0.908760  0.429780  1.0  0.0611
  C  C93  1  0.617010  0.939110  0.410410  1.0  -0.1457
  C  C94  1  0.559550  0.896710  0.375940  1.0  -0.0483
  C  C95  1  0.723090  0.954750  0.466230  1.0  -0.002
  C  C96  1  0.793700  0.954450  0.466860  1.0  -0.1095
  C  C97  1  0.290970  0.507300  0.319400  1.0  0.7407
  C  C98  1  0.276440  0.449410  0.358130  1.0  -0.1448
  C  C99  1  0.201150  0.403250  0.377440  1.0  -0.0348
  C  C100  1  0.186630  0.348580  0.412490  1.0  -0.1678
  C  C101  1  0.246490  0.337730  0.429780  1.0  0.0616
  C  C102  1  0.322100  0.382990  0.410410  1.0  -0.1446
  C  C103  1  0.337160  0.440450  0.375940  1.0  -0.0471
  C  C104  1  0.231660  0.276910  0.466230  1.0  -0.0016
  C  C105  1  0.160750  0.206300  0.466860  1.0  -0.1105
  C  C106  1  0.216330  0.709030  0.180600  1.0  0.7403
  C  C107  1  0.172970  0.723560  0.141870  1.0  -0.1469
  C  C108  1  0.202100  0.798850  0.122560  1.0  -0.0355
  C  C109  1  0.161950  0.813370  0.087510  1.0  -0.1705
  C  C110  1  0.091240  0.753510  0.070220  1.0  0.0608
  C  C111  1  0.060890  0.677900  0.089590  1.0  -0.1472
  C  C112  1  0.103290  0.662840  0.124060  1.0  -0.048
  C  C113  1  0.045250  0.768340  0.033770  1.0  -0.0035
  C  C114  1  0.045550  0.839250  0.033140  1.0  -0.1091
  C  C115  1  0.492700  0.783670  0.180600  1.0  0.7399
  C  C116  1  0.550590  0.827030  0.141870  1.0  -0.1457
  C  C117  1  0.596750  0.797900  0.122560  1.0  -0.0374
  C  C118  1  0.651420  0.838050  0.087510  1.0  -0.1716
  C  C119  1  0.662270  0.908760  0.070220  1.0  0.0609
  C  C120  1  0.617010  0.939110  0.089590  1.0  -0.145
  C  C121  1  0.559550  0.896710  0.124060  1.0  -0.0484
  C  C122  1  0.723090  0.954750  0.033770  1.0  -0.0024
  C  C123  1  0.793700  0.954450  0.033140  1.0  -0.1092
  C  C124  1  0.290970  0.507300  0.180600  1.0  0.7401
  C  C125  1  0.276440  0.449410  0.141870  1.0  -0.1451
  C  C126  1  0.201150  0.403250  0.122560  1.0  -0.0345
  C  C127  1  0.186630  0.348580  0.087510  1.0  -0.1674
  C  C128  1  0.246490  0.337730  0.070220  1.0  0.0613
  C  C129  1  0.322100  0.382990  0.089590  1.0  -0.1448
  C  C130  1  0.337160  0.440450  0.124060  1.0  -0.0469
  C  C131  1  0.231660  0.276910  0.033770  1.0  -0.002
  C  C132  1  0.160750  0.206300  0.033140  1.0  -0.1105
  C  C133  1  0.507300  0.290970  0.680600  1.0  0.7402
  C  C134  1  0.449410  0.276440  0.641870  1.0  -0.1469
  C  C135  1  0.403250  0.201150  0.622560  1.0  -0.0373
  C  C136  1  0.348580  0.186630  0.587510  1.0  -0.1689
  C  C137  1  0.337730  0.246490  0.570220  1.0  0.0608
  C  C138  1  0.382990  0.322100  0.589590  1.0  -0.1472
  C  C139  1  0.440450  0.337160  0.624060  1.0  -0.0483
  C  C140  1  0.276910  0.231660  0.533770  1.0  -0.0035
  C  C141  1  0.206300  0.160750  0.533140  1.0  -0.1091
  C  C142  1  0.709030  0.216330  0.680600  1.0  0.74
  C  C143  1  0.723560  0.172970  0.641870  1.0  -0.146
  C  C144  1  0.798850  0.202100  0.622560  1.0  -0.0365
  C  C145  1  0.813370  0.161950  0.587510  1.0  -0.1725
  C  C146  1  0.753510  0.091240  0.570220  1.0  0.0611
  C  C147  1  0.677900  0.060890  0.589590  1.0  -0.146
  C  C148  1  0.662840  0.103290  0.624060  1.0  -0.0479
  C  C149  1  0.768340  0.045250  0.533770  1.0  -0.0025
  C  C150  1  0.839250  0.045550  0.533140  1.0  -0.1096
  C  C151  1  0.783670  0.492700  0.680600  1.0  0.7398
  C  C152  1  0.827030  0.550590  0.641870  1.0  -0.1447
  C  C153  1  0.797900  0.596750  0.622560  1.0  -0.0342
  C  C154  1  0.838050  0.651420  0.587510  1.0  -0.1676
  C  C155  1  0.908760  0.662270  0.570220  1.0  0.061
  C  C156  1  0.939110  0.617010  0.589590  1.0  -0.1449
  C  C157  1  0.896710  0.559550  0.624060  1.0  -0.0472
  C  C158  1  0.954750  0.723090  0.533770  1.0  -0.002
  C  C159  1  0.954450  0.793700  0.533140  1.0  -0.1106
  C  C160  1  0.507300  0.290970  0.819400  1.0  0.7408
  C  C161  1  0.449410  0.276440  0.858130  1.0  -0.1465
  C  C162  1  0.403250  0.201150  0.877440  1.0  -0.0375
  C  C163  1  0.348580  0.186630  0.912490  1.0  -0.1694
  C  C164  1  0.337730  0.246490  0.929780  1.0  0.0611
  C  C165  1  0.382990  0.322100  0.910410  1.0  -0.1475
  C  C166  1  0.440450  0.337160  0.875940  1.0  -0.0488
  C  C167  1  0.276910  0.231660  0.966230  1.0  -0.0031
  C  C168  1  0.206300  0.160750  0.966860  1.0  -0.1092
  C  C169  1  0.709030  0.216330  0.819400  1.0  0.7408
  C  C170  1  0.723560  0.172970  0.858130  1.0  -0.1457
  C  C171  1  0.798850  0.202100  0.877440  1.0  -0.0366
  C  C172  1  0.813370  0.161950  0.912490  1.0  -0.173
  C  C173  1  0.753510  0.091240  0.929780  1.0  0.0613
  C  C174  1  0.677900  0.060890  0.910410  1.0  -0.1468
  C  C175  1  0.662840  0.103290  0.875940  1.0  -0.0481
  C  C176  1  0.768340  0.045250  0.966230  1.0  -0.0021
  C  C177  1  0.839250  0.045550  0.966860  1.0  -0.11
  C  C178  1  0.783670  0.492700  0.819400  1.0  0.7405
  C  C179  1  0.827030  0.550590  0.858130  1.0  -0.1451
  C  C180  1  0.797900  0.596750  0.877440  1.0  -0.0346
  C  C181  1  0.838050  0.651420  0.912490  1.0  -0.168
  C  C182  1  0.908760  0.662270  0.929780  1.0  0.0612
  C  C183  1  0.939110  0.617010  0.910410  1.0  -0.1449
  C  C184  1  0.896710  0.559550  0.875940  1.0  -0.0475
  C  C185  1  0.954750  0.723090  0.966230  1.0  -0.0018
  C  C186  1  0.954450  0.793700  0.966860  1.0  -0.1104
  C  C187  1  0.000000  0.710070  0.500000  1.0  -0.1243
  C  C188  1  0.000000  0.853030  0.500000  1.0  0.0508
  C  C189  1  0.000000  0.929330  0.500000  1.0  0.0631
  C  C190  1  0.710070  0.000000  0.500000  1.0  -0.127
  C  C191  1  0.853030  0.000000  0.500000  1.0  0.0498
  C  C192  1  0.929330  0.000000  0.500000  1.0  0.0622
  C  C193  1  0.289930  0.289930  0.500000  1.0  -0.1222
  C  C194  1  0.146970  0.146970  0.500000  1.0  0.0503
  C  C195  1  0.070670  0.070670  0.500000  1.0  0.0626
  C  C196  1  0.000000  0.710070  0.000000  1.0  -0.1243
  C  C197  1  0.000000  0.853030  0.000000  1.0  0.0508
  C  C198  1  0.000000  0.929330  0.000000  1.0  0.0631
  C  C199  1  0.710070  0.000000  0.000000  1.0  -0.127
  C  C200  1  0.853030  0.000000  0.000000  1.0  0.0498
  C  C201  1  0.929330  0.000000  0.000000  1.0  0.0622
  C  C202  1  0.289930  0.289930  0.000000  1.0  -0.1222
  C  C203  1  0.146970  0.146970  0.000000  1.0  0.0503
  C  C204  1  0.070670  0.070670  0.000000  1.0  0.0626
  C  C205  1  0.929660  0.929660  0.500000  1.0  -0.1312
  C  C206  1  0.000000  0.070340  0.500000  1.0  -0.1305
  C  C207  1  0.070340  0.000000  0.500000  1.0  -0.1339
  C  C208  1  0.929660  0.929660  0.000000  1.0  -0.1312
  C  C209  1  0.000000  0.070340  0.000000  1.0  -0.1305
  C  C210  1  0.070340  0.000000  0.000000  1.0  -0.1339
  O  O211  1  0.278910  0.767140  0.304700  1.0  -0.6472
  O  O212  1  0.185790  0.639330  0.304590  1.0  -0.6499
  O  O213  1  0.488230  0.721090  0.304700  1.0  -0.6504
  O  O214  1  0.453540  0.814210  0.304590  1.0  -0.6478
  O  O215  1  0.232860  0.511770  0.304700  1.0  -0.6474
  O  O216  1  0.360670  0.546460  0.304590  1.0  -0.6492
  O  O217  1  0.278910  0.767140  0.195300  1.0  -0.6474
  O  O218  1  0.185790  0.639330  0.195410  1.0  -0.6496
  O  O219  1  0.488230  0.721090  0.195300  1.0  -0.651
  O  O220  1  0.453540  0.814210  0.195410  1.0  -0.6478
  O  O221  1  0.232860  0.511770  0.195300  1.0  -0.6474
  O  O222  1  0.360670  0.546460  0.195410  1.0  -0.6496
  O  O223  1  0.511770  0.232860  0.695300  1.0  -0.6487
  O  O224  1  0.546460  0.360670  0.695410  1.0  -0.6501
  O  O225  1  0.767140  0.278910  0.695300  1.0  -0.651
  O  O226  1  0.639330  0.185790  0.695410  1.0  -0.6479
  O  O227  1  0.721090  0.488230  0.695300  1.0  -0.6477
  O  O228  1  0.814210  0.453540  0.695410  1.0  -0.6494
  O  O229  1  0.511770  0.232860  0.804700  1.0  -0.6485
  O  O230  1  0.546460  0.360670  0.804590  1.0  -0.6503
  O  O231  1  0.767140  0.278910  0.804700  1.0  -0.6506
  O  O232  1  0.639330  0.185790  0.804590  1.0  -0.648
  O  O233  1  0.721090  0.488230  0.804700  1.0  -0.6475
  O  O234  1  0.814210  0.453540  0.804590  1.0  -0.6491
  O  O235  1  0.333333  0.666667  0.250000  1.0  -1.0581
  O  O236  1  0.666667  0.333333  0.750000  1.0  -1.0581
