# generated using pymatgen
data_CuH2(CO)4
_symmetry_space_group_name_H-M   'P 1'
_cell_length_a   4.76110000
_cell_length_b   17.66650000
_cell_length_c   17.66650000
_cell_angle_alpha   88.95960000
_cell_angle_beta   82.25590000
_cell_angle_gamma   82.25580000
_symmetry_Int_Tables_number   1
_chemical_formula_structural   CuH2(CO)4
_chemical_formula_sum   'Cu8 H16 C32 O32'
_cell_volume   1458.98278224
_cell_formula_units_Z   8
loop_
 _symmetry_equiv_pos_site_id
 _symmetry_equiv_pos_as_xyz
  1  'x, y, z'
loop_
 _atom_site_type_symbol
 _atom_site_label
 _atom_site_symmetry_multiplicity
 _atom_site_fract_x
 _atom_site_fract_y
 _atom_site_fract_z
 _atom_site_occupancy
 _atom_site_charge
  Cu  Cu1  1  0.972730  0.964210  0.732650  1.0  0.8675
  Cu  Cu2  1  0.169590  0.535790  0.767350  1.0  0.8681
  Cu  Cu3  1  0.705390  0.267340  0.464210  1.0  0.8656
  Cu  Cu4  1  0.936930  0.232660  0.035790  1.0  0.8653
  Cu  Cu5  1  0.027270  0.035790  0.267350  1.0  0.8686
  Cu  Cu6  1  0.830410  0.464210  0.232650  1.0  0.868
  Cu  Cu7  1  0.294610  0.732660  0.535790  1.0  0.8671
  Cu  Cu8  1  0.063070  0.767340  0.964210  1.0  0.8674
  H  H9  1  0.353000  0.063000  0.928600  1.0  0.1377
  H  H10  1  0.801600  0.047000  0.026600  1.0  0.117
  H  H11  1  0.844600  0.437000  0.571400  1.0  0.137
  H  H12  1  0.375200  0.453000  0.473400  1.0  0.1176
  H  H13  1  0.281600  0.071400  0.563000  1.0  0.1365
  H  H14  1  0.828200  0.973400  0.547000  1.0  0.1174
  H  H15  1  0.416000  0.428600  0.937000  1.0  0.1378
  H  H16  1  0.848600  0.526600  0.953000  1.0  0.1186
  H  H17  1  0.647000  0.937000  0.071400  1.0  0.1368
  H  H18  1  0.198400  0.953000  0.973400  1.0  0.1162
  H  H19  1  0.155400  0.563000  0.428600  1.0  0.1361
  H  H20  1  0.624800  0.547000  0.526600  1.0  0.1171
  H  H21  1  0.718400  0.928600  0.437000  1.0  0.136
  H  H22  1  0.171800  0.026600  0.453000  1.0  0.1173
  H  H23  1  0.584000  0.571400  0.063000  1.0  0.1369
  H  H24  1  0.151400  0.473400  0.047000  1.0  0.1175
  C  C25  1  0.743030  0.018880  0.875060  1.0  0.6566
  C  C26  1  0.517100  0.025440  0.943560  1.0  -0.131
  C  C27  1  0.599500  0.048170  0.021830  1.0  -0.1381
  C  C28  1  0.439750  0.123330  0.053170  1.0  0.6784
  C  C29  1  0.136970  0.481120  0.624940  1.0  0.6632
  C  C30  1  0.986100  0.474560  0.556440  1.0  -0.1299
  C  C31  1  0.169500  0.451830  0.478170  1.0  -0.1392
  C  C32  1  0.116250  0.376670  0.446830  1.0  0.6795
  C  C33  1  0.618090  0.124940  0.518880  1.0  0.6576
  C  C34  1  0.460660  0.056440  0.525440  1.0  -0.1319
  C  C35  1  0.621330  0.978170  0.548170  1.0  -0.1356
  C  C36  1  0.492920  0.946830  0.623330  1.0  0.6811
  C  C37  1  0.761910  0.375060  0.981120  1.0  0.6563
  C  C38  1  0.542540  0.443560  0.974560  1.0  -0.1324
  C  C39  1  0.647670  0.521830  0.951830  1.0  -0.1365
  C  C40  1  0.563080  0.553170  0.876670  1.0  0.6808
  C  C41  1  0.256970  0.981120  0.124940  1.0  0.6599
  C  C42  1  0.482900  0.974560  0.056440  1.0  -0.1307
  C  C43  1  0.400500  0.951830  0.978170  1.0  -0.1401
  C  C44  1  0.560250  0.876670  0.946830  1.0  0.6796
  C  C45  1  0.863030  0.518880  0.375060  1.0  0.6567
  C  C46  1  0.013900  0.525440  0.443560  1.0  -0.1319
  C  C47  1  0.830500  0.548170  0.521830  1.0  -0.1399
  C  C48  1  0.883750  0.623330  0.553170  1.0  0.6784
  C  C49  1  0.381910  0.875060  0.481120  1.0  0.657
  C  C50  1  0.539340  0.943560  0.474560  1.0  -0.1316
  C  C51  1  0.378670  0.021830  0.451830  1.0  -0.1372
  C  C52  1  0.507080  0.053170  0.376670  1.0  0.6801
  C  C53  1  0.238090  0.624940  0.018880  1.0  0.656
  C  C54  1  0.457460  0.556440  0.025440  1.0  -0.1316
  C  C55  1  0.352330  0.478170  0.048170  1.0  -0.1377
  C  C56  1  0.436920  0.446830  0.123330  1.0  0.6817
  O  O57  1  0.930800  0.062560  0.867840  1.0  -0.5121
  O  O58  1  0.714800  0.969830  0.825570  1.0  -0.563
  O  O59  1  0.555970  0.165720  0.092740  1.0  -0.5323
  O  O60  1  0.188740  0.138590  0.035330  1.0  -0.5787
  O  O61  1  0.361200  0.437440  0.632160  1.0  -0.5111
  O  O62  1  0.010200  0.530170  0.674430  1.0  -0.5604
  O  O63  1  0.314430  0.334280  0.407260  1.0  -0.542
  O  O64  1  0.862660  0.361410  0.464670  1.0  -0.5799
  O  O65  1  0.798640  0.132160  0.562560  1.0  -0.5142
  O  O66  1  0.540370  0.174430  0.469830  1.0  -0.559
  O  O67  1  0.648710  0.907260  0.665720  1.0  -0.534
  O  O68  1  0.224070  0.964670  0.638590  1.0  -0.5791
  O  O69  1  0.993360  0.367840  0.937440  1.0  -0.5159
  O  O70  1  0.684630  0.325570  0.030170  1.0  -0.5589
  O  O71  1  0.721690  0.592740  0.834280  1.0  -0.5404
  O  O72  1  0.327330  0.535330  0.861410  1.0  -0.5779
  O  O73  1  0.069200  0.937440  0.132160  1.0  -0.5115
  O  O74  1  0.285200  0.030170  0.174430  1.0  -0.5621
  O  O75  1  0.444030  0.834280  0.907260  1.0  -0.5405
  O  O76  1  0.811260  0.861410  0.964670  1.0  -0.5787
  O  O77  1  0.638800  0.562560  0.367840  1.0  -0.5105
  O  O78  1  0.989800  0.469830  0.325570  1.0  -0.5613
  O  O79  1  0.685570  0.665720  0.592740  1.0  -0.5367
  O  O80  1  0.137340  0.638590  0.535330  1.0  -0.5778
  O  O81  1  0.201360  0.867840  0.437440  1.0  -0.5144
  O  O82  1  0.459630  0.825570  0.530170  1.0  -0.5598
  O  O83  1  0.351290  0.092740  0.334280  1.0  -0.5375
  O  O84  1  0.775930  0.035330  0.361410  1.0  -0.5801
  O  O85  1  0.006640  0.632160  0.062560  1.0  -0.5133
  O  O86  1  0.315370  0.674430  0.969830  1.0  -0.5585
  O  O87  1  0.278310  0.407260  0.165720  1.0  -0.5397
  O  O88  1  0.672670  0.464670  0.138590  1.0  -0.5773
