# generated using pymatgen
data_AgH8C9S5N2
_symmetry_space_group_name_H-M   'P 1'
_cell_length_a   9.86180000
_cell_length_b   11.70500000
_cell_length_c   17.55770000
_cell_angle_alpha   78.36600000
_cell_angle_beta   84.12000000
_cell_angle_gamma   84.76900000
_symmetry_Int_Tables_number   1
_chemical_formula_structural   AgH8C9S5N2
_chemical_formula_sum   'Ag4 H32 C36 S20 N8'
_cell_volume   1969.46694285
_cell_formula_units_Z   4
loop_
 _symmetry_equiv_pos_site_id
 _symmetry_equiv_pos_as_xyz
  1  'x, y, z'
loop_
 _atom_site_type_symbol
 _atom_site_label
 _atom_site_symmetry_multiplicity
 _atom_site_fract_x
 _atom_site_fract_y
 _atom_site_fract_z
 _atom_site_occupancy
 _atom_site_charge
  Ag  Ag1  1  0.430700  0.115950  0.934730  1.0  0.219
  Ag  Ag2  1  0.240970  0.099750  0.520750  1.0  0.4146
  Ag  Ag3  1  0.569300  0.884050  0.065270  1.0  0.2191
  Ag  Ag4  1  0.759030  0.900250  0.479250  1.0  0.4149
  H  H5  1  0.248000  0.287000  0.772000  1.0  0.1759
  H  H6  1  0.128000  0.297000  0.838000  1.0  0.1709
  H  H7  1  0.044000  0.371000  0.718000  1.0  0.2379
  H  H8  1  0.965000  0.267000  0.756000  1.0  0.1025
  H  H9  1  0.883000  0.833000  0.780000  1.0  0.1493
  H  H10  1  0.004000  0.757000  0.753000  1.0  0.3087
  H  H11  1  0.101000  0.922000  0.680000  1.0  0.2732
  H  H12  1  0.992000  0.001000  0.710000  1.0  0.1245
  H  H13  1  0.456000  0.921000  0.780000  1.0  0.1633
  H  H14  1  0.371000  0.810000  0.790000  1.0  0.1607
  H  H15  1  0.511000  0.747000  0.689000  1.0  0.131
  H  H16  1  0.594000  0.853000  0.679000  1.0  0.2498
  H  H17  1  0.750000  0.393000  0.707000  1.0  0.1279
  H  H18  1  0.838000  0.490000  0.652000  1.0  0.1889
  H  H19  1  0.559000  0.519000  0.655000  1.0  0.1902
  H  H20  1  0.649000  0.466000  0.593000  1.0  0.1358
  H  H21  1  0.752000  0.713000  0.228000  1.0  0.175
  H  H22  1  0.872000  0.703000  0.162000  1.0  0.1691
  H  H23  1  0.956000  0.629000  0.282000  1.0  0.2315
  H  H24  1  0.035000  0.733000  0.244000  1.0  0.1005
  H  H25  1  0.117000  0.167000  0.220000  1.0  0.1462
  H  H26  1  0.996000  0.243000  0.247000  1.0  0.3122
  H  H27  1  0.899000  0.078000  0.320000  1.0  0.2829
  H  H28  1  0.008000  0.999000  0.290000  1.0  0.1262
  H  H29  1  0.544000  0.079000  0.220000  1.0  0.1604
  H  H30  1  0.629000  0.190000  0.210000  1.0  0.1627
  H  H31  1  0.489000  0.253000  0.311000  1.0  0.1285
  H  H32  1  0.406000  0.147000  0.321000  1.0  0.254
  H  H33  1  0.250000  0.607000  0.293000  1.0  0.1265
  H  H34  1  0.162000  0.510000  0.348000  1.0  0.195
  H  H35  1  0.441000  0.481000  0.345000  1.0  0.1912
  H  H36  1  0.351000  0.534000  0.407000  1.0  0.136
  C  C37  1  0.795500  0.060500  0.958600  1.0  -0.0006
  C  C38  1  0.029100  0.062600  0.874800  1.0  -0.055
  C  C39  1  0.985400  0.954200  0.878900  1.0  -0.0822
  C  C40  1  0.156400  0.259700  0.794800  1.0  -0.2964
  C  C41  1  0.051900  0.291300  0.734500  1.0  -0.2344
  C  C42  1  0.089700  0.238400  0.666400  1.0  0.3138
  C  C43  1  0.978200  0.829000  0.763500  1.0  -0.3477
  C  C44  1  0.010700  0.927200  0.695200  1.0  -0.2982
  C  C45  1  0.934000  0.924200  0.628600  1.0  0.2797
  C  C46  1  0.427200  0.420000  0.906600  1.0  -0.0212
  C  C47  1  0.536300  0.617500  0.851900  1.0  -0.0598
  C  C48  1  0.613100  0.538200  0.816500  1.0  -0.0786
  C  C49  1  0.456600  0.839800  0.774700  1.0  -0.3445
  C  C50  1  0.509900  0.825600  0.692200  1.0  -0.2227
  C  C51  1  0.422800  0.894300  0.634100  1.0  0.3108
  C  C52  1  0.757300  0.480900  0.682500  1.0  -0.2894
  C  C53  1  0.644200  0.518300  0.627600  1.0  -0.2785
  C  C54  1  0.658300  0.634900  0.579500  1.0  0.3227
  C  C55  1  0.204500  0.939500  0.041400  1.0  -0.0005
  C  C56  1  0.970900  0.937400  0.125200  1.0  -0.0564
  C  C57  1  0.014600  0.045800  0.121100  1.0  -0.0793
  C  C58  1  0.843600  0.740300  0.205200  1.0  -0.2997
  C  C59  1  0.948100  0.708700  0.265500  1.0  -0.2345
  C  C60  1  0.910300  0.761600  0.333600  1.0  0.3103
  C  C61  1  0.021800  0.171000  0.236500  1.0  -0.3454
  C  C62  1  0.989300  0.072800  0.304800  1.0  -0.2978
  C  C63  1  0.066000  0.075800  0.371400  1.0  0.2798
  C  C64  1  0.572800  0.580000  0.093400  1.0  -0.02
  C  C65  1  0.463700  0.382500  0.148100  1.0  -0.0617
  C  C66  1  0.386900  0.461800  0.183500  1.0  -0.0778
  C  C67  1  0.543400  0.160200  0.225300  1.0  -0.3458
  C  C68  1  0.490100  0.174400  0.307800  1.0  -0.223
  C  C69  1  0.577200  0.105700  0.365900  1.0  0.3136
  C  C70  1  0.242700  0.519100  0.317500  1.0  -0.2906
  C  C71  1  0.355800  0.481700  0.372400  1.0  -0.2824
  C  C72  1  0.341700  0.365100  0.420500  1.0  0.3231
  S  S73  1  0.829420  0.927430  0.932790  1.0  0.0597
  S  S74  1  0.921740  0.155010  0.924740  1.0  0.0388
  S  S75  1  0.656560  0.096320  0.015220  1.0  -0.2916
  S  S76  1  0.188920  0.103780  0.829840  1.0  0.0424
  S  S77  1  0.077230  0.837810  0.843740  1.0  0.0255
  S  S78  1  0.565590  0.394240  0.843370  1.0  0.0352
  S  S79  1  0.400180  0.563440  0.916450  1.0  0.0232
  S  S80  1  0.329990  0.314870  0.956570  1.0  -0.3013
  S  S81  1  0.572730  0.763780  0.845280  1.0  0.0449
  S  S82  1  0.763010  0.569970  0.755760  1.0  0.0204
  S  S83  1  0.170580  0.072570  0.067210  1.0  0.0569
  S  S84  1  0.078260  0.844990  0.075260  1.0  0.0395
  S  S85  1  0.343440  0.903680  0.984780  1.0  -0.29
  S  S86  1  0.811080  0.896220  0.170160  1.0  0.0444
  S  S87  1  0.922770  0.162190  0.156260  1.0  0.0276
  S  S88  1  0.434410  0.605760  0.156630  1.0  0.0341
  S  S89  1  0.599820  0.436560  0.083550  1.0  0.0255
  S  S90  1  0.670010  0.685130  0.043430  1.0  -0.2982
  S  S91  1  0.427270  0.236220  0.154720  1.0  0.0499
  S  S92  1  0.236990  0.430030  0.244240  1.0  0.0219
  N  N93  1  0.119100  0.193900  0.614500  1.0  -0.4801
  N  N94  1  0.875200  0.922000  0.576900  1.0  -0.4675
  N  N95  1  0.356600  0.951100  0.590200  1.0  -0.4482
  N  N96  1  0.667600  0.725700  0.542600  1.0  -0.4553
  N  N97  1  0.880900  0.806100  0.385500  1.0  -0.4768
  N  N98  1  0.124800  0.078000  0.423100  1.0  -0.4662
  N  N99  1  0.643400  0.048900  0.409800  1.0  -0.4463
  N  N100  1  0.332400  0.274300  0.457400  1.0  -0.4543
