# generated using pymatgen
data_KCo3H8(C6O7)2
_symmetry_space_group_name_H-M   'P 1'
_cell_length_a   13.00050000
_cell_length_b   13.00050000
_cell_length_c   30.20020000
_cell_angle_alpha   90.00000000
_cell_angle_beta   90.00000000
_cell_angle_gamma   90.00000000
_symmetry_Int_Tables_number   1
_chemical_formula_structural   KCo3H8(C6O7)2
_chemical_formula_sum   'K8 Co24 H64 C96 O112'
_cell_volume   5104.22641015
_cell_formula_units_Z   8
loop_
 _symmetry_equiv_pos_site_id
 _symmetry_equiv_pos_as_xyz
  1  'x, y, z'
loop_
 _atom_site_type_symbol
 _atom_site_label
 _atom_site_symmetry_multiplicity
 _atom_site_fract_x
 _atom_site_fract_y
 _atom_site_fract_z
 _atom_site_occupancy
 _atom_site_charge
  K  K1  1  0.750000  0.836900  0.375000  1.0  0.9484
  K  K2  1  0.250000  0.336900  0.875000  1.0  0.9484
  K  K3  1  0.250000  0.163100  0.375000  1.0  0.9478
  K  K4  1  0.750000  0.663100  0.875000  1.0  0.9478
  K  K5  1  0.836900  0.250000  0.625000  1.0  0.9494
  K  K6  1  0.163100  0.750000  0.625000  1.0  0.9526
  K  K7  1  0.663100  0.250000  0.125000  1.0  0.9526
  K  K8  1  0.336900  0.750000  0.125000  1.0  0.9494
  Co  Co9  1  0.895400  0.951310  0.459640  1.0  1.0583
  Co  Co10  1  0.395400  0.451310  0.959640  1.0  1.0583
  Co  Co11  1  0.104600  0.048690  0.459640  1.0  1.0526
  Co  Co12  1  0.604600  0.548690  0.959640  1.0  1.0526
  Co  Co13  1  0.951310  0.104600  0.540360  1.0  1.0585
  Co  Co14  1  0.451310  0.604600  0.040360  1.0  1.0585
  Co  Co15  1  0.048690  0.895400  0.540360  1.0  1.0557
  Co  Co16  1  0.548690  0.395400  0.040360  1.0  1.0557
  Co  Co17  1  0.604600  0.951310  0.290360  1.0  1.056
  Co  Co18  1  0.104600  0.451310  0.790360  1.0  1.056
  Co  Co19  1  0.395400  0.048690  0.290360  1.0  1.0581
  Co  Co20  1  0.895400  0.548690  0.790360  1.0  1.0581
  Co  Co21  1  0.548690  0.104600  0.209640  1.0  1.0526
  Co  Co22  1  0.048690  0.604600  0.709640  1.0  1.0526
  Co  Co23  1  0.451310  0.895400  0.209640  1.0  1.0579
  Co  Co24  1  0.951310  0.395400  0.709640  1.0  1.0579
  Co  Co25  1  0.000000  0.000000  0.307810  1.0  1.126
  Co  Co26  1  0.500000  0.500000  0.807810  1.0  1.126
  Co  Co27  1  0.000000  0.000000  0.692190  1.0  1.1252
  Co  Co28  1  0.500000  0.500000  0.192190  1.0  1.1252
  Co  Co29  1  0.500000  0.000000  0.442190  1.0  1.1249
  Co  Co30  1  0.000000  0.500000  0.942190  1.0  1.1249
  Co  Co31  1  0.500000  0.000000  0.057810  1.0  1.1256
  Co  Co32  1  0.000000  0.500000  0.557810  1.0  1.1256
  H  H33  1  0.217100  0.856100  0.419200  1.0  0.1121
  H  H34  1  0.158100  0.770100  0.391600  1.0  0.1126
  H  H35  1  0.194600  0.772600  0.489900  1.0  0.1246
  H  H36  1  0.169700  0.681000  0.458600  1.0  0.1221
  H  H37  1  0.717100  0.356100  0.919200  1.0  0.1121
  H  H38  1  0.658100  0.270100  0.891600  1.0  0.1126
  H  H39  1  0.694600  0.272600  0.989900  1.0  0.1246
  H  H40  1  0.669700  0.181000  0.958600  1.0  0.1221
  H  H41  1  0.782900  0.143900  0.419200  1.0  0.112
  H  H42  1  0.841900  0.229900  0.391600  1.0  0.1152
  H  H43  1  0.805400  0.227400  0.489900  1.0  0.1251
  H  H44  1  0.830300  0.319000  0.458600  1.0  0.1241
  H  H45  1  0.282900  0.643900  0.919200  1.0  0.112
  H  H46  1  0.341900  0.729900  0.891600  1.0  0.1152
  H  H47  1  0.305400  0.727400  0.989900  1.0  0.1251
  H  H48  1  0.330300  0.819000  0.958600  1.0  0.1241
  H  H49  1  0.856100  0.782900  0.580800  1.0  0.1121
  H  H50  1  0.770100  0.841900  0.608400  1.0  0.1134
  H  H51  1  0.772600  0.805400  0.510100  1.0  0.1252
  H  H52  1  0.681000  0.830300  0.541400  1.0  0.1243
  H  H53  1  0.356100  0.282900  0.080800  1.0  0.1121
  H  H54  1  0.270100  0.341900  0.108400  1.0  0.1134
  H  H55  1  0.272600  0.305400  0.010100  1.0  0.1252
  H  H56  1  0.181000  0.330300  0.041400  1.0  0.1243
  H  H57  1  0.143900  0.217100  0.580800  1.0  0.1126
  H  H58  1  0.229900  0.158100  0.608400  1.0  0.1132
  H  H59  1  0.227400  0.194600  0.510100  1.0  0.1253
  H  H60  1  0.319000  0.169700  0.541400  1.0  0.1231
  H  H61  1  0.643900  0.717100  0.080800  1.0  0.1126
  H  H62  1  0.729900  0.658100  0.108400  1.0  0.1132
  H  H63  1  0.727400  0.694600  0.010100  1.0  0.1253
  H  H64  1  0.819000  0.669700  0.041400  1.0  0.1231
  H  H65  1  0.282900  0.856100  0.330800  1.0  0.1121
  H  H66  1  0.341900  0.770100  0.358400  1.0  0.114
  H  H67  1  0.305400  0.772600  0.260100  1.0  0.1241
  H  H68  1  0.330300  0.681000  0.291400  1.0  0.1234
  H  H69  1  0.782900  0.356100  0.830800  1.0  0.1121
  H  H70  1  0.841900  0.270100  0.858400  1.0  0.114
  H  H71  1  0.805400  0.272600  0.760100  1.0  0.1241
  H  H72  1  0.830300  0.181000  0.791400  1.0  0.1234
  H  H73  1  0.717100  0.143900  0.330800  1.0  0.1123
  H  H74  1  0.658100  0.229900  0.358400  1.0  0.1152
  H  H75  1  0.694600  0.227400  0.260100  1.0  0.126
  H  H76  1  0.669700  0.319000  0.291400  1.0  0.1221
  H  H77  1  0.217100  0.643900  0.830800  1.0  0.1123
  H  H78  1  0.158100  0.729900  0.858400  1.0  0.1152
  H  H79  1  0.194600  0.727400  0.760100  1.0  0.126
  H  H80  1  0.169700  0.819000  0.791400  1.0  0.1221
  H  H81  1  0.643900  0.782900  0.169200  1.0  0.1124
  H  H82  1  0.729900  0.841900  0.141600  1.0  0.1129
  H  H83  1  0.727400  0.805400  0.239900  1.0  0.1246
  H  H84  1  0.819000  0.830300  0.208600  1.0  0.1218
  H  H85  1  0.143900  0.282900  0.669200  1.0  0.1124
  H  H86  1  0.229900  0.341900  0.641600  1.0  0.1129
  H  H87  1  0.227400  0.305400  0.739900  1.0  0.1246
  H  H88  1  0.319000  0.330300  0.708600  1.0  0.1218
  H  H89  1  0.356100  0.217100  0.169200  1.0  0.113
  H  H90  1  0.270100  0.158100  0.141600  1.0  0.1125
  H  H91  1  0.272600  0.194600  0.239900  1.0  0.1252
  H  H92  1  0.181000  0.169700  0.208600  1.0  0.124
  H  H93  1  0.856100  0.717100  0.669200  1.0  0.113
  H  H94  1  0.770100  0.658100  0.641600  1.0  0.1125
  H  H95  1  0.772600  0.694600  0.739900  1.0  0.1252
  H  H96  1  0.681000  0.669700  0.708600  1.0  0.124
  C  C97  1  0.106500  0.915900  0.378300  1.0  0.7284
  C  C98  1  0.150200  0.832800  0.408200  1.0  -0.2424
  C  C99  1  0.077100  0.809000  0.448300  1.0  0.2721
  C  C100  1  0.140000  0.733500  0.476700  1.0  -0.285
  C  C101  1  0.080100  0.684100  0.513500  1.0  0.7427
  C  C102  1  0.978500  0.755700  0.431400  1.0  0.6733
  C  C103  1  0.606500  0.415900  0.878300  1.0  0.7284
  C  C104  1  0.650200  0.332800  0.908200  1.0  -0.2424
  C  C105  1  0.577100  0.309000  0.948300  1.0  0.2721
  C  C106  1  0.640000  0.233500  0.976700  1.0  -0.285
  C  C107  1  0.580100  0.184100  0.013500  1.0  0.7427
  C  C108  1  0.478500  0.255700  0.931400  1.0  0.6733
  C  C109  1  0.893500  0.084100  0.378300  1.0  0.7295
  C  C110  1  0.849800  0.167200  0.408200  1.0  -0.2417
  C  C111  1  0.922900  0.191000  0.448300  1.0  0.2706
  C  C112  1  0.860000  0.266500  0.476700  1.0  -0.2881
  C  C113  1  0.919900  0.315900  0.513500  1.0  0.7418
  C  C114  1  0.021500  0.244300  0.431400  1.0  0.6697
  C  C115  1  0.393500  0.584100  0.878300  1.0  0.7295
  C  C116  1  0.349800  0.667200  0.908200  1.0  -0.2417
  C  C117  1  0.422900  0.691000  0.948300  1.0  0.2706
  C  C118  1  0.360000  0.766500  0.976700  1.0  -0.2881
  C  C119  1  0.419900  0.815900  0.013500  1.0  0.7418
  C  C120  1  0.521500  0.744300  0.931400  1.0  0.6697
  C  C121  1  0.915900  0.893500  0.621700  1.0  0.7283
  C  C122  1  0.832800  0.849800  0.591800  1.0  -0.2434
  C  C123  1  0.809000  0.922900  0.551700  1.0  0.2737
  C  C124  1  0.733500  0.860000  0.523300  1.0  -0.2883
  C  C125  1  0.684100  0.919900  0.486500  1.0  0.7368
  C  C126  1  0.755700  0.021500  0.568600  1.0  0.6746
  C  C127  1  0.415900  0.393500  0.121700  1.0  0.7283
  C  C128  1  0.332800  0.349800  0.091800  1.0  -0.2434
  C  C129  1  0.309000  0.422900  0.051700  1.0  0.2737
  C  C130  1  0.233500  0.360000  0.023300  1.0  -0.2883
  C  C131  1  0.184100  0.419900  0.986500  1.0  0.7368
  C  C132  1  0.255700  0.521500  0.068600  1.0  0.6746
  C  C133  1  0.084100  0.106500  0.621700  1.0  0.7294
  C  C134  1  0.167200  0.150200  0.591800  1.0  -0.2426
  C  C135  1  0.191000  0.077100  0.551700  1.0  0.2751
  C  C136  1  0.266500  0.140000  0.523300  1.0  -0.2857
  C  C137  1  0.315900  0.080100  0.486500  1.0  0.7359
  C  C138  1  0.244300  0.978500  0.568600  1.0  0.6739
  C  C139  1  0.584100  0.606500  0.121700  1.0  0.7294
  C  C140  1  0.667200  0.650200  0.091800  1.0  -0.2426
  C  C141  1  0.691000  0.577100  0.051700  1.0  0.2751
  C  C142  1  0.766500  0.640000  0.023300  1.0  -0.2857
  C  C143  1  0.815900  0.580100  0.986500  1.0  0.7359
  C  C144  1  0.744300  0.478500  0.068600  1.0  0.6739
  C  C145  1  0.393500  0.915900  0.371700  1.0  0.7304
  C  C146  1  0.349800  0.832800  0.341800  1.0  -0.2414
  C  C147  1  0.422900  0.809000  0.301700  1.0  0.2739
  C  C148  1  0.360000  0.733500  0.273300  1.0  -0.2858
  C  C149  1  0.419900  0.684100  0.236500  1.0  0.7442
  C  C150  1  0.521500  0.755700  0.318600  1.0  0.6726
  C  C151  1  0.893500  0.415900  0.871700  1.0  0.7304
  C  C152  1  0.849800  0.332800  0.841800  1.0  -0.2414
  C  C153  1  0.922900  0.309000  0.801700  1.0  0.2739
  C  C154  1  0.860000  0.233500  0.773300  1.0  -0.2858
  C  C155  1  0.919900  0.184100  0.736500  1.0  0.7442
  C  C156  1  0.021500  0.255700  0.818600  1.0  0.6726
  C  C157  1  0.606500  0.084100  0.371700  1.0  0.7292
  C  C158  1  0.650200  0.167200  0.341800  1.0  -0.2431
  C  C159  1  0.577100  0.191000  0.301700  1.0  0.2714
  C  C160  1  0.640000  0.266500  0.273300  1.0  -0.2847
  C  C161  1  0.580100  0.315900  0.236500  1.0  0.7429
  C  C162  1  0.478500  0.244300  0.318600  1.0  0.672
  C  C163  1  0.106500  0.584100  0.871700  1.0  0.7292
  C  C164  1  0.150200  0.667200  0.841800  1.0  -0.2431
  C  C165  1  0.077100  0.691000  0.801700  1.0  0.2714
  C  C166  1  0.140000  0.766500  0.773300  1.0  -0.2847
  C  C167  1  0.080100  0.815900  0.736500  1.0  0.7429
  C  C168  1  0.978500  0.744300  0.818600  1.0  0.672
  C  C169  1  0.584100  0.893500  0.128300  1.0  0.7288
  C  C170  1  0.667200  0.849800  0.158200  1.0  -0.2426
  C  C171  1  0.691000  0.922900  0.198300  1.0  0.2733
  C  C172  1  0.766500  0.860000  0.226700  1.0  -0.2854
  C  C173  1  0.815900  0.919900  0.263500  1.0  0.7352
  C  C174  1  0.744300  0.021500  0.181400  1.0  0.6712
  C  C175  1  0.084100  0.393500  0.628300  1.0  0.7288
  C  C176  1  0.167200  0.349800  0.658200  1.0  -0.2426
  C  C177  1  0.191000  0.422900  0.698300  1.0  0.2733
  C  C178  1  0.266500  0.360000  0.726700  1.0  -0.2854
  C  C179  1  0.315900  0.419900  0.763500  1.0  0.7352
  C  C180  1  0.244300  0.521500  0.681400  1.0  0.6712
  C  C181  1  0.415900  0.106500  0.128300  1.0  0.728
  C  C182  1  0.332800  0.150200  0.158200  1.0  -0.2433
  C  C183  1  0.309000  0.077100  0.198300  1.0  0.2731
  C  C184  1  0.233500  0.140000  0.226700  1.0  -0.2891
  C  C185  1  0.184100  0.080100  0.263500  1.0  0.7357
  C  C186  1  0.255700  0.978500  0.181400  1.0  0.6747
  C  C187  1  0.915900  0.606500  0.628300  1.0  0.728
  C  C188  1  0.832800  0.650200  0.658200  1.0  -0.2433
  C  C189  1  0.809000  0.577100  0.698300  1.0  0.2731
  C  C190  1  0.733500  0.640000  0.726700  1.0  -0.2891
  C  C191  1  0.684100  0.580100  0.763500  1.0  0.7357
  C  C192  1  0.755700  0.478500  0.681400  1.0  0.6747
  O  O193  1  0.109600  0.009300  0.390710  1.0  -0.6954
  O  O194  1  0.069700  0.889300  0.340920  1.0  -0.5913
  O  O195  1  0.054300  0.901100  0.471280  1.0  -0.7902
  O  O196  1  0.895200  0.801100  0.437680  1.0  -0.6381
  O  O197  1  0.990700  0.671400  0.414400  1.0  -0.5014
  O  O198  1  0.037300  0.736800  0.541930  1.0  -0.6226
  O  O199  1  0.075300  0.584800  0.514300  1.0  -0.6136
  O  O200  1  0.609600  0.509300  0.890710  1.0  -0.6954
  O  O201  1  0.569700  0.389300  0.840920  1.0  -0.5913
  O  O202  1  0.554300  0.401100  0.971280  1.0  -0.7902
  O  O203  1  0.395200  0.301100  0.937680  1.0  -0.6381
  O  O204  1  0.490700  0.171400  0.914400  1.0  -0.5014
  O  O205  1  0.537300  0.236800  0.041930  1.0  -0.6226
  O  O206  1  0.575300  0.084800  0.014300  1.0  -0.6136
  O  O207  1  0.890400  0.990700  0.390710  1.0  -0.6964
  O  O208  1  0.930300  0.110700  0.340920  1.0  -0.5925
  O  O209  1  0.945700  0.098900  0.471280  1.0  -0.7893
  O  O210  1  0.104800  0.198900  0.437680  1.0  -0.6369
  O  O211  1  0.009300  0.328600  0.414400  1.0  -0.5021
  O  O212  1  0.962700  0.263200  0.541930  1.0  -0.6234
  O  O213  1  0.924700  0.415200  0.514300  1.0  -0.6118
  O  O214  1  0.390400  0.490700  0.890710  1.0  -0.6964
  O  O215  1  0.430300  0.610700  0.840920  1.0  -0.5925
  O  O216  1  0.445700  0.598900  0.971280  1.0  -0.7893
  O  O217  1  0.604800  0.698900  0.937680  1.0  -0.6369
  O  O218  1  0.509300  0.828600  0.914400  1.0  -0.5021
  O  O219  1  0.462700  0.763200  0.041930  1.0  -0.6234
  O  O220  1  0.424700  0.915200  0.014300  1.0  -0.6118
  O  O221  1  0.009300  0.890400  0.609290  1.0  -0.6937
  O  O222  1  0.889300  0.930300  0.659080  1.0  -0.5916
  O  O223  1  0.901100  0.945700  0.528720  1.0  -0.7889
  O  O224  1  0.801100  0.104800  0.562320  1.0  -0.6441
  O  O225  1  0.671400  0.009300  0.585600  1.0  -0.5027
  O  O226  1  0.736800  0.962700  0.458070  1.0  -0.6197
  O  O227  1  0.584800  0.924700  0.485700  1.0  -0.6129
  O  O228  1  0.509300  0.390400  0.109290  1.0  -0.6937
  O  O229  1  0.389300  0.430300  0.159080  1.0  -0.5916
  O  O230  1  0.401100  0.445700  0.028720  1.0  -0.7889
  O  O231  1  0.301100  0.604800  0.062320  1.0  -0.6441
  O  O232  1  0.171400  0.509300  0.085600  1.0  -0.5027
  O  O233  1  0.236800  0.462700  0.958070  1.0  -0.6197
  O  O234  1  0.084800  0.424700  0.985700  1.0  -0.6129
  O  O235  1  0.990700  0.109600  0.609290  1.0  -0.6935
  O  O236  1  0.110700  0.069700  0.659080  1.0  -0.5915
  O  O237  1  0.098900  0.054300  0.528720  1.0  -0.7884
  O  O238  1  0.198900  0.895200  0.562320  1.0  -0.6425
  O  O239  1  0.328600  0.990700  0.585600  1.0  -0.5018
  O  O240  1  0.263200  0.037300  0.458070  1.0  -0.62
  O  O241  1  0.415200  0.075300  0.485700  1.0  -0.6137
  O  O242  1  0.490700  0.609600  0.109290  1.0  -0.6935
  O  O243  1  0.610700  0.569700  0.159080  1.0  -0.5915
  O  O244  1  0.598900  0.554300  0.028720  1.0  -0.7884
  O  O245  1  0.698900  0.395200  0.062320  1.0  -0.6425
  O  O246  1  0.828600  0.490700  0.085600  1.0  -0.5018
  O  O247  1  0.763200  0.537300  0.958070  1.0  -0.62
  O  O248  1  0.915200  0.575300  0.985700  1.0  -0.6137
  O  O249  1  0.390400  0.009300  0.359290  1.0  -0.6963
  O  O250  1  0.430300  0.889300  0.409080  1.0  -0.5905
  O  O251  1  0.445700  0.901100  0.278720  1.0  -0.7896
  O  O252  1  0.604800  0.801100  0.312320  1.0  -0.6388
  O  O253  1  0.509300  0.671400  0.335600  1.0  -0.5013
  O  O254  1  0.462700  0.736800  0.208070  1.0  -0.6221
  O  O255  1  0.424700  0.584800  0.235700  1.0  -0.6139
  O  O256  1  0.890400  0.509300  0.859290  1.0  -0.6963
  O  O257  1  0.930300  0.389300  0.909080  1.0  -0.5905
  O  O258  1  0.945700  0.401100  0.778720  1.0  -0.7896
  O  O259  1  0.104800  0.301100  0.812320  1.0  -0.6388
  O  O260  1  0.009300  0.171400  0.835600  1.0  -0.5013
  O  O261  1  0.962700  0.236800  0.708070  1.0  -0.6221
  O  O262  1  0.924700  0.084800  0.735700  1.0  -0.6139
  O  O263  1  0.609600  0.990700  0.359290  1.0  -0.6961
  O  O264  1  0.569700  0.110700  0.409080  1.0  -0.591
  O  O265  1  0.554300  0.098900  0.278720  1.0  -0.7889
  O  O266  1  0.395200  0.198900  0.312320  1.0  -0.6415
  O  O267  1  0.490700  0.328600  0.335600  1.0  -0.5011
  O  O268  1  0.537300  0.263200  0.208070  1.0  -0.6226
  O  O269  1  0.575300  0.415200  0.235700  1.0  -0.6102
  O  O270  1  0.109600  0.490700  0.859290  1.0  -0.6961
  O  O271  1  0.069700  0.610700  0.909080  1.0  -0.591
  O  O272  1  0.054300  0.598900  0.778720  1.0  -0.7889
  O  O273  1  0.895200  0.698900  0.812320  1.0  -0.6415
  O  O274  1  0.990700  0.828600  0.835600  1.0  -0.5011
  O  O275  1  0.037300  0.763200  0.708070  1.0  -0.6226
  O  O276  1  0.075300  0.915200  0.735700  1.0  -0.6102
  O  O277  1  0.490700  0.890400  0.140710  1.0  -0.6935
  O  O278  1  0.610700  0.930300  0.090920  1.0  -0.5925
  O  O279  1  0.598900  0.945700  0.221280  1.0  -0.7885
  O  O280  1  0.698900  0.104800  0.187680  1.0  -0.6402
  O  O281  1  0.828600  0.009300  0.164400  1.0  -0.502
  O  O282  1  0.763200  0.962700  0.291930  1.0  -0.6212
  O  O283  1  0.915200  0.924700  0.264300  1.0  -0.6147
  O  O284  1  0.990700  0.390400  0.640710  1.0  -0.6935
  O  O285  1  0.110700  0.430300  0.590920  1.0  -0.5925
  O  O286  1  0.098900  0.445700  0.721280  1.0  -0.7885
  O  O287  1  0.198900  0.604800  0.687680  1.0  -0.6402
  O  O288  1  0.328600  0.509300  0.664400  1.0  -0.502
  O  O289  1  0.263200  0.462700  0.791930  1.0  -0.6212
  O  O290  1  0.415200  0.424700  0.764300  1.0  -0.6147
  O  O291  1  0.509300  0.109600  0.140710  1.0  -0.6931
  O  O292  1  0.389300  0.069700  0.090920  1.0  -0.593
  O  O293  1  0.401100  0.054300  0.221280  1.0  -0.7897
  O  O294  1  0.301100  0.895200  0.187680  1.0  -0.6417
  O  O295  1  0.171400  0.990700  0.164400  1.0  -0.5028
  O  O296  1  0.236800  0.037300  0.291930  1.0  -0.6211
  O  O297  1  0.084800  0.075300  0.264300  1.0  -0.6141
  O  O298  1  0.009300  0.609600  0.640710  1.0  -0.6931
  O  O299  1  0.889300  0.569700  0.590920  1.0  -0.593
  O  O300  1  0.901100  0.554300  0.721280  1.0  -0.7897
  O  O301  1  0.801100  0.395200  0.687680  1.0  -0.6417
  O  O302  1  0.671400  0.490700  0.664400  1.0  -0.5028
  O  O303  1  0.736800  0.537300  0.791930  1.0  -0.6211
  O  O304  1  0.584800  0.575300  0.764300  1.0  -0.6141
