# generated using pymatgen
data_KCo3H8(C6O7)2
_symmetry_space_group_name_H-M   'P 1'
_cell_length_a   12.90640000
_cell_length_b   12.90640000
_cell_length_c   17.66140000
_cell_angle_alpha   111.43100000
_cell_angle_beta   111.43100000
_cell_angle_gamma   90.00000000
_symmetry_Int_Tables_number   1
_chemical_formula_structural   KCo3H8(C6O7)2
_chemical_formula_sum   'K4 Co12 H32 C48 O56'
_cell_volume   2518.75334336
_cell_formula_units_Z   4
loop_
 _symmetry_equiv_pos_site_id
 _symmetry_equiv_pos_as_xyz
  1  'x, y, z'
loop_
 _atom_site_type_symbol
 _atom_site_label
 _atom_site_symmetry_multiplicity
 _atom_site_fract_x
 _atom_site_fract_y
 _atom_site_fract_z
 _atom_site_occupancy
 _atom_site_charge
  K  K1  1  0.625000  0.710410  0.750000  1.0  0.9692
  K  K2  1  0.125000  0.039590  0.750000  1.0  0.9696
  K  K3  1  0.289590  0.875000  0.250000  1.0  0.9705
  K  K4  1  0.960410  0.375000  0.250000  1.0  0.9703
  Co  Co5  1  0.855010  0.910190  0.919340  1.0  1.1824
  Co  Co6  1  0.064330  0.009150  0.919340  1.0  1.1803
  Co  Co7  1  0.089810  0.935670  0.080660  1.0  1.1827
  Co  Co8  1  0.990850  0.144990  0.080660  1.0  1.1845
  Co  Co9  1  0.185670  0.839810  0.580660  1.0  1.1862
  Co  Co10  1  0.394990  0.740850  0.580660  1.0  1.1816
  Co  Co11  1  0.259150  0.814330  0.419340  1.0  1.1802
  Co  Co12  1  0.160190  0.605010  0.419340  1.0  1.182
  Co  Co13  1  0.442130  0.942130  0.884260  1.0  1.1552
  Co  Co14  1  0.057870  0.557870  0.115740  1.0  1.1558
  Co  Co15  1  0.807870  0.807870  0.615740  1.0  1.1558
  Co  Co16  1  0.192130  0.192130  0.384260  1.0  1.1552
  H  H17  1  0.719100  0.870900  0.084200  1.0  0.175
  H  H18  1  0.778500  0.808200  0.021000  1.0  0.1551
  H  H19  1  0.936800  0.864100  0.162600  1.0  0.1581
  H  H20  1  0.880200  0.949200  0.218600  1.0  0.1604
  H  H21  1  0.365100  0.213300  0.084200  1.0  0.1754
  H  H22  1  0.242500  0.212800  0.021000  1.0  0.1623
  H  H23  1  0.225800  0.298500  0.162600  1.0  0.1562
  H  H24  1  0.338400  0.269400  0.218600  1.0  0.1624
  H  H25  1  0.129100  0.634900  0.915800  1.0  0.1773
  H  H26  1  0.191800  0.757500  0.979000  1.0  0.1644
  H  H27  1  0.135900  0.774200  0.837400  1.0  0.1584
  H  H28  1  0.050800  0.661600  0.781400  1.0  0.1483
  H  H29  1  0.786700  0.280900  0.915800  1.0  0.1723
  H  H30  1  0.787200  0.221500  0.979000  1.0  0.1634
  H  H31  1  0.701500  0.063200  0.837400  1.0  0.1562
  H  H32  1  0.730600  0.119800  0.781400  1.0  0.16
  H  H33  1  0.884900  0.879100  0.415800  1.0  0.178
  H  H34  1  0.007500  0.941800  0.479000  1.0  0.1654
  H  H35  1  0.024200  0.885900  0.337400  1.0  0.1559
  H  H36  1  0.911600  0.800800  0.281400  1.0  0.1623
  H  H37  1  0.530900  0.536700  0.415800  1.0  0.1661
  H  H38  1  0.471500  0.537200  0.479000  1.0  0.1559
  H  H39  1  0.313200  0.451500  0.337400  1.0  0.1561
  H  H40  1  0.369800  0.480600  0.281400  1.0  0.1606
  H  H41  1  0.463300  0.115100  0.584200  1.0  0.177
  H  H42  1  0.462800  0.992500  0.521000  1.0  0.1614
  H  H43  1  0.548500  0.975800  0.662600  1.0  0.1552
  H  H44  1  0.519400  0.088400  0.718600  1.0  0.1593
  H  H45  1  0.120900  0.469100  0.584200  1.0  0.1729
  H  H46  1  0.058200  0.528500  0.521000  1.0  0.1653
  H  H47  1  0.114100  0.686800  0.662600  1.0  0.161
  H  H48  1  0.199200  0.630200  0.718600  1.0  0.1576
  C  C49  1  0.669140  0.903760  0.973300  1.0  0.7514
  C  C50  1  0.754510  0.879380  0.046480  1.0  -0.4511
  C  C51  1  0.859700  0.971690  0.104020  1.0  0.3443
  C  C52  1  0.925630  0.942200  0.184200  1.0  -0.448
  C  C53  1  0.038240  0.014330  0.243840  1.0  0.7691
  C  C54  1  0.823180  0.087010  0.135940  1.0  0.5735
  C  C55  1  0.304160  0.069540  0.973300  1.0  0.7522
  C  C56  1  0.291970  0.167100  0.046480  1.0  -0.4554
  C  C57  1  0.244320  0.132330  0.104020  1.0  0.3439
  C  C58  1  0.258570  0.242000  0.184200  1.0  -0.4419
  C  C59  1  0.205600  0.229510  0.243840  1.0  0.7741
  C  C60  1  0.312760  0.048930  0.135940  1.0  0.5761
  C  C61  1  0.096240  0.695840  0.026700  1.0  0.7548
  C  C62  1  0.120620  0.708030  0.953520  1.0  -0.4544
  C  C63  1  0.028310  0.755680  0.895980  1.0  0.3421
  C  C64  1  0.057800  0.741430  0.815800  1.0  -0.4386
  C  C65  1  0.985670  0.794400  0.756160  1.0  0.7704
  C  C66  1  0.912990  0.687240  0.864060  1.0  0.5746
  C  C67  1  0.930460  0.330860  0.026700  1.0  0.754
  C  C68  1  0.832900  0.245490  0.953520  1.0  -0.4559
  C  C69  1  0.867670  0.140300  0.895980  1.0  0.3424
  C  C70  1  0.758000  0.074370  0.815800  1.0  -0.4467
  C  C71  1  0.770490  0.961760  0.756160  1.0  0.7719
  C  C72  1  0.951070  0.176820  0.864060  1.0  0.5805
  C  C73  1  0.945840  0.846240  0.526700  1.0  0.7532
  C  C74  1  0.958030  0.870620  0.453520  1.0  -0.4587
  C  C75  1  0.005680  0.778310  0.395980  1.0  0.3432
  C  C76  1  0.991430  0.807800  0.315800  1.0  -0.4458
  C  C77  1  0.044400  0.735670  0.256160  1.0  0.7722
  C  C78  1  0.937240  0.662990  0.364060  1.0  0.5713
  C  C79  1  0.580860  0.680460  0.526700  1.0  0.7461
  C  C80  1  0.495490  0.582900  0.453520  1.0  -0.4546
  C  C81  1  0.390300  0.617670  0.395980  1.0  0.3452
  C  C82  1  0.324370  0.508000  0.315800  1.0  -0.4442
  C  C83  1  0.211760  0.520490  0.256160  1.0  0.7695
  C  C84  1  0.426820  0.701070  0.364060  1.0  0.5758
  C  C85  1  0.319540  0.054160  0.473300  1.0  0.7553
  C  C86  1  0.417100  0.041970  0.546480  1.0  -0.4527
  C  C87  1  0.382330  0.994320  0.604020  1.0  0.3402
  C  C88  1  0.492000  0.008570  0.684200  1.0  -0.4423
  C  C89  1  0.479510  0.955600  0.743840  1.0  0.7744
  C  C90  1  0.298930  0.062760  0.635940  1.0  0.5757
  C  C91  1  0.153760  0.419140  0.473300  1.0  0.755
  C  C92  1  0.129380  0.504510  0.546480  1.0  -0.4503
  C  C93  1  0.221690  0.609700  0.604020  1.0  0.3432
  C  C94  1  0.192200  0.675630  0.684200  1.0  -0.4454
  C  C95  1  0.264330  0.788240  0.743840  1.0  0.7698
  C  C96  1  0.337010  0.573180  0.635940  1.0  0.574
  O  O97  1  0.694310  0.918550  0.915240  1.0  -0.6482
  O  O98  1  0.568600  0.904870  0.970800  1.0  -0.5728
  O  O99  1  0.118300  0.999390  0.218040  1.0  -0.7086
  O  O100  1  0.048360  0.087850  0.317780  1.0  -0.5864
  O  O101  1  0.862240  0.167030  0.123320  1.0  -0.6538
  O  O102  1  0.751530  0.096330  0.170220  1.0  -0.5006
  O  O103  1  0.928940  0.973870  0.057340  1.0  -0.7688
  O  O104  1  0.220930  0.996690  0.915240  1.0  -0.6477
  O  O105  1  0.402200  0.065930  0.970800  1.0  -0.5727
  O  O106  1  0.099740  0.218650  0.218040  1.0  -0.7133
  O  O107  1  0.269420  0.229930  0.317780  1.0  -0.5851
  O  O108  1  0.261080  0.956290  0.123320  1.0  -0.6538
  O  O109  1  0.418690  0.073890  0.170220  1.0  -0.5007
  O  O110  1  0.128400  0.083470  0.057340  1.0  -0.7697
  O  O111  1  0.081450  0.779070  0.084760  1.0  -0.6503
  O  O112  1  0.095130  0.597800  0.029200  1.0  -0.5723
  O  O113  1  0.000610  0.900260  0.781960  1.0  -0.7149
  O  O114  1  0.912150  0.730580  0.682220  1.0  -0.583
  O  O115  1  0.832970  0.738920  0.876680  1.0  -0.6542
  O  O116  1  0.903670  0.581310  0.829780  1.0  -0.5003
  O  O117  1  0.026130  0.871600  0.942660  1.0  -0.7687
  O  O118  1  0.003310  0.305690  0.084760  1.0  -0.6482
  O  O119  1  0.934070  0.431400  0.029200  1.0  -0.5744
  O  O120  1  0.781350  0.881700  0.781960  1.0  -0.713
  O  O121  1  0.770070  0.951640  0.682220  1.0  -0.5831
  O  O122  1  0.043710  0.137760  0.876680  1.0  -0.6537
  O  O123  1  0.926110  0.248470  0.829780  1.0  -0.4977
  O  O124  1  0.916530  0.071060  0.942660  1.0  -0.7691
  O  O125  1  0.029070  0.831450  0.584760  1.0  -0.6476
  O  O126  1  0.847800  0.845130  0.529200  1.0  -0.5723
  O  O127  1  0.150260  0.750610  0.281960  1.0  -0.7133
  O  O128  1  0.980580  0.662150  0.182220  1.0  -0.5831
  O  O129  1  0.988920  0.582970  0.376680  1.0  -0.6506
  O  O130  1  0.831310  0.653670  0.329780  1.0  -0.4965
  O  O131  1  0.121600  0.776130  0.442660  1.0  -0.7699
  O  O132  1  0.555690  0.753310  0.584760  1.0  -0.6476
  O  O133  1  0.681400  0.684070  0.529200  1.0  -0.5718
  O  O134  1  0.131700  0.531350  0.281960  1.0  -0.7113
  O  O135  1  0.201640  0.520070  0.182220  1.0  -0.5854
  O  O136  1  0.387760  0.793710  0.376680  1.0  -0.6541
  O  O137  1  0.498470  0.676110  0.329780  1.0  -0.5015
  O  O138  1  0.321060  0.666530  0.442660  1.0  -0.7683
  O  O139  1  0.246690  0.970930  0.415240  1.0  -0.6491
  O  O140  1  0.315930  0.152200  0.470800  1.0  -0.572
  O  O141  1  0.468650  0.849740  0.718040  1.0  -0.7142
  O  O142  1  0.479930  0.019420  0.817780  1.0  -0.5846
  O  O143  1  0.206290  0.011080  0.623320  1.0  -0.6539
  O  O144  1  0.323890  0.168690  0.670220  1.0  -0.5016
  O  O145  1  0.333470  0.878400  0.557340  1.0  -0.7687
  O  O146  1  0.168550  0.444310  0.415240  1.0  -0.6493
  O  O147  1  0.154870  0.318600  0.470800  1.0  -0.5752
  O  O148  1  0.249390  0.868300  0.718040  1.0  -0.7113
  O  O149  1  0.337850  0.798360  0.817780  1.0  -0.5872
  O  O150  1  0.417030  0.612240  0.623320  1.0  -0.654
  O  O151  1  0.346330  0.501530  0.670220  1.0  -0.503
  O  O152  1  0.223870  0.678940  0.557340  1.0  -0.7674
