# generated using pymatgen
data_CuH9C10IN2
_symmetry_space_group_name_H-M   'P 1'
_cell_length_a   13.12610000
_cell_length_b   17.13150000
_cell_length_c   17.13150000
_cell_angle_alpha   81.56050000
_cell_angle_beta   67.47420000
_cell_angle_gamma   67.47430000
_symmetry_Int_Tables_number   1
_chemical_formula_structural   CuH9C10IN2
_chemical_formula_sum   'Cu8 H72 C80 I8 N16'
_cell_volume   3286.96731122
_cell_formula_units_Z   8
loop_
 _symmetry_equiv_pos_site_id
 _symmetry_equiv_pos_as_xyz
  1  'x, y, z'
loop_
 _atom_site_type_symbol
 _atom_site_label
 _atom_site_symmetry_multiplicity
 _atom_site_fract_x
 _atom_site_fract_y
 _atom_site_fract_z
 _atom_site_occupancy
 _atom_site_charge
  Cu  Cu1  1  0.366950  0.250000  0.766100  1.0  0.2388
  Cu  Cu2  1  0.883050  0.250000  0.733900  1.0  0.2391
  Cu  Cu3  1  0.633050  0.233900  0.750000  1.0  0.2362
  Cu  Cu4  1  0.116950  0.266100  0.750000  1.0  0.2368
  Cu  Cu5  1  0.633050  0.750000  0.233900  1.0  0.2391
  Cu  Cu6  1  0.116950  0.750000  0.266100  1.0  0.2388
  Cu  Cu7  1  0.366950  0.766100  0.250000  1.0  0.2367
  Cu  Cu8  1  0.883050  0.733900  0.250000  1.0  0.2362
  H  H9  1  0.210200  0.182500  0.945700  1.0  0.1079
  H  H10  1  0.257300  0.145900  0.856500  1.0  0.0886
  H  H11  1  0.267500  0.016000  0.902400  1.0  0.0807
  H  H12  1  0.146200  0.075000  0.958600  1.0  0.0849
  H  H13  1  0.838400  0.317500  0.554300  1.0  0.1075
  H  H14  1  0.759700  0.354100  0.643500  1.0  0.0889
  H  H15  1  0.685900  0.484000  0.597600  1.0  0.0828
  H  H16  1  0.679800  0.425000  0.541400  1.0  0.0843
  H  H17  1  0.655900  0.054300  0.682500  1.0  0.1097
  H  H18  1  0.613800  0.143500  0.645900  1.0  0.0888
  H  H19  1  0.669900  0.097600  0.516000  1.0  0.0804
  H  H20  1  0.604800  0.041400  0.575000  1.0  0.0848
  H  H21  1  0.892700  0.445700  0.817500  1.0  0.1099
  H  H22  1  0.903200  0.356500  0.854100  1.0  0.085
  H  H23  1  0.783500  0.402400  0.984000  1.0  0.0827
  H  H24  1  0.721200  0.458600  0.925000  1.0  0.0847
  H  H25  1  0.161600  0.445700  0.682500  1.0  0.11
  H  H26  1  0.240300  0.356500  0.645900  1.0  0.0862
  H  H27  1  0.314100  0.402400  0.516000  1.0  0.0818
  H  H28  1  0.320200  0.458600  0.575000  1.0  0.084
  H  H29  1  0.789800  0.054300  0.817500  1.0  0.1101
  H  H30  1  0.742700  0.143500  0.854100  1.0  0.0887
  H  H31  1  0.732500  0.097600  0.984000  1.0  0.0803
  H  H32  1  0.853800  0.041400  0.925000  1.0  0.0843
  H  H33  1  0.107300  0.182500  0.554300  1.0  0.1119
  H  H34  1  0.096800  0.145900  0.643500  1.0  0.0895
  H  H35  1  0.216500  0.016000  0.597600  1.0  0.0821
  H  H36  1  0.278800  0.075000  0.541400  1.0  0.0844
  H  H37  1  0.344100  0.317500  0.945700  1.0  0.1084
  H  H38  1  0.386200  0.354100  0.856500  1.0  0.0909
  H  H39  1  0.330100  0.484000  0.902400  1.0  0.0817
  H  H40  1  0.395200  0.425000  0.958600  1.0  0.0847
  H  H41  1  0.789800  0.817500  0.054300  1.0  0.1084
  H  H42  1  0.742700  0.854100  0.143500  1.0  0.0891
  H  H43  1  0.732500  0.984000  0.097600  1.0  0.0814
  H  H44  1  0.853800  0.925000  0.041400  1.0  0.0846
  H  H45  1  0.161600  0.682500  0.445700  1.0  0.1071
  H  H46  1  0.240300  0.645900  0.356500  1.0  0.0906
  H  H47  1  0.314100  0.516000  0.402400  1.0  0.0822
  H  H48  1  0.320200  0.575000  0.458600  1.0  0.0842
  H  H49  1  0.344100  0.945700  0.317500  1.0  0.1097
  H  H50  1  0.386200  0.856500  0.354100  1.0  0.0866
  H  H51  1  0.330100  0.902400  0.484000  1.0  0.0816
  H  H52  1  0.395200  0.958600  0.425000  1.0  0.0842
  H  H53  1  0.107300  0.554300  0.182500  1.0  0.1095
  H  H54  1  0.096800  0.643500  0.145900  1.0  0.0879
  H  H55  1  0.216500  0.597600  0.016000  1.0  0.0816
  H  H56  1  0.278800  0.541400  0.075000  1.0  0.0847
  H  H57  1  0.838400  0.554300  0.317500  1.0  0.1109
  H  H58  1  0.759700  0.643500  0.354100  1.0  0.089
  H  H59  1  0.685900  0.597600  0.484000  1.0  0.082
  H  H60  1  0.679800  0.541400  0.425000  1.0  0.084
  H  H61  1  0.210200  0.945700  0.182500  1.0  0.1094
  H  H62  1  0.257300  0.856500  0.145900  1.0  0.0856
  H  H63  1  0.267500  0.902400  0.016000  1.0  0.08
  H  H64  1  0.146200  0.958600  0.075000  1.0  0.0847
  H  H65  1  0.892700  0.817500  0.445700  1.0  0.1123
  H  H66  1  0.903200  0.854100  0.356500  1.0  0.0887
  H  H67  1  0.783500  0.984000  0.402400  1.0  0.0812
  H  H68  1  0.721200  0.925000  0.458600  1.0  0.0846
  H  H69  1  0.655900  0.682500  0.054300  1.0  0.1078
  H  H70  1  0.613800  0.645900  0.143500  1.0  0.0892
  H  H71  1  0.669900  0.516000  0.097600  1.0  0.0822
  H  H72  1  0.604800  0.575000  0.041400  1.0  0.0846
  H  H73  1  0.207800  0.065100  0.065100  1.0  0.0757
  H  H74  1  0.838000  0.434900  0.434900  1.0  0.0757
  H  H75  1  0.772900  0.934900  0.565100  1.0  0.075
  H  H76  1  0.772900  0.565100  0.934900  1.0  0.0773
  H  H77  1  0.162000  0.565100  0.565100  1.0  0.0754
  H  H78  1  0.792200  0.934900  0.934900  1.0  0.0753
  H  H79  1  0.227100  0.065100  0.434900  1.0  0.0747
  H  H80  1  0.227100  0.434900  0.065100  1.0  0.0767
  C  C81  1  0.386700  0.119500  0.901700  1.0  0.2312
  C  C82  1  0.441300  0.059100  0.952700  1.0  -0.0684
  C  C83  1  0.263200  0.134300  0.911100  1.0  -0.2122
  C  C84  1  0.229800  0.058500  0.944700  1.0  -0.1178
  C  C85  1  0.907900  0.380500  0.598300  1.0  0.2331
  C  C86  1  0.953100  0.440900  0.547300  1.0  -0.0691
  C  C87  1  0.808600  0.365700  0.588900  1.0  -0.2107
  C  C88  1  0.733000  0.441500  0.555300  1.0  -0.1182
  C  C89  1  0.788400  0.098300  0.619500  1.0  0.231
  C  C90  1  0.894000  0.047300  0.559100  1.0  -0.0687
  C  C91  1  0.674300  0.088900  0.634300  1.0  -0.2099
  C  C92  1  0.674500  0.055300  0.558500  1.0  -0.1198
  C  C93  1  0.006200  0.401700  0.880500  1.0  0.2308
  C  C94  1  0.000400  0.452700  0.940900  1.0  -0.0697
  C  C95  1  0.897500  0.411100  0.865700  1.0  -0.2112
  C  C96  1  0.788300  0.444700  0.941500  1.0  -0.1189
  C  C97  1  0.092100  0.401700  0.619500  1.0  0.2306
  C  C98  1  0.046900  0.452700  0.559100  1.0  -0.0698
  C  C99  1  0.191400  0.411100  0.634300  1.0  -0.2093
  C  C100  1  0.267000  0.444700  0.558500  1.0  -0.1214
  C  C101  1  0.613300  0.098300  0.880500  1.0  0.2314
  C  C102  1  0.558700  0.047300  0.940900  1.0  -0.0686
  C  C103  1  0.736800  0.088900  0.865700  1.0  -0.2099
  C  C104  1  0.770200  0.055300  0.941500  1.0  -0.1212
  C  C105  1  0.993800  0.119500  0.598300  1.0  0.2308
  C  C106  1  0.999600  0.059100  0.547300  1.0  -0.0683
  C  C107  1  0.102500  0.134300  0.588900  1.0  -0.2114
  C  C108  1  0.211700  0.058500  0.555300  1.0  -0.1173
  C  C109  1  0.211600  0.380500  0.901700  1.0  0.2334
  C  C110  1  0.106000  0.440900  0.952700  1.0  -0.0694
  C  C111  1  0.325700  0.365700  0.911100  1.0  -0.2105
  C  C112  1  0.325500  0.441500  0.944700  1.0  -0.1173
  C  C113  1  0.613300  0.880500  0.098300  1.0  0.2307
  C  C114  1  0.558700  0.940900  0.047300  1.0  -0.068
  C  C115  1  0.736800  0.865700  0.088900  1.0  -0.211
  C  C116  1  0.770200  0.941500  0.055300  1.0  -0.1176
  C  C117  1  0.092100  0.619500  0.401700  1.0  0.2333
  C  C118  1  0.046900  0.559100  0.452700  1.0  -0.0695
  C  C119  1  0.191400  0.634300  0.411100  1.0  -0.2106
  C  C120  1  0.267000  0.558500  0.444700  1.0  -0.1171
  C  C121  1  0.211600  0.901700  0.380500  1.0  0.231
  C  C122  1  0.106000  0.952700  0.440900  1.0  -0.0686
  C  C123  1  0.325700  0.911100  0.365700  1.0  -0.2101
  C  C124  1  0.325500  0.944700  0.441500  1.0  -0.1205
  C  C125  1  0.993800  0.598300  0.119500  1.0  0.2307
  C  C126  1  0.999600  0.547300  0.059100  1.0  -0.0692
  C  C127  1  0.102500  0.588900  0.134300  1.0  -0.2091
  C  C128  1  0.211700  0.555300  0.058500  1.0  -0.1195
  C  C129  1  0.907900  0.598300  0.380500  1.0  0.231
  C  C130  1  0.953100  0.547300  0.440900  1.0  -0.0703
  C  C131  1  0.808600  0.588900  0.365700  1.0  -0.2111
  C  C132  1  0.733000  0.555300  0.441500  1.0  -0.1209
  C  C133  1  0.386700  0.901700  0.119500  1.0  0.2309
  C  C134  1  0.441300  0.952700  0.059100  1.0  -0.0687
  C  C135  1  0.263200  0.911100  0.134300  1.0  -0.21
  C  C136  1  0.229800  0.944700  0.058500  1.0  -0.1202
  C  C137  1  0.006200  0.880500  0.401700  1.0  0.2311
  C  C138  1  0.000400  0.940900  0.452700  1.0  -0.0686
  C  C139  1  0.897500  0.865700  0.411100  1.0  -0.2121
  C  C140  1  0.788300  0.941500  0.444700  1.0  -0.118
  C  C141  1  0.788400  0.619500  0.098300  1.0  0.2331
  C  C142  1  0.894000  0.559100  0.047300  1.0  -0.0692
  C  C143  1  0.674300  0.634300  0.088900  1.0  -0.21
  C  C144  1  0.674500  0.558500  0.055300  1.0  -0.1181
  C  C145  1  0.380700  0.011500  0.011500  1.0  0.0374
  C  C146  1  0.256700  0.022800  0.022800  1.0  -0.0198
  C  C147  1  0.903700  0.488500  0.488500  1.0  0.0384
  C  C148  1  0.802300  0.477200  0.477200  1.0  -0.0195
  C  C149  1  0.892200  0.988500  0.511500  1.0  0.0373
  C  C150  1  0.779500  0.977200  0.522800  1.0  -0.0196
  C  C151  1  0.892200  0.511500  0.988500  1.0  0.0384
  C  C152  1  0.779500  0.522800  0.977200  1.0  -0.0199
  C  C153  1  0.096300  0.511500  0.511500  1.0  0.0377
  C  C154  1  0.197700  0.522800  0.522800  1.0  -0.02
  C  C155  1  0.619300  0.988500  0.988500  1.0  0.0376
  C  C156  1  0.743300  0.977200  0.977200  1.0  -0.0209
  C  C157  1  0.107800  0.011500  0.488500  1.0  0.0377
  C  C158  1  0.220500  0.022800  0.477200  1.0  -0.0211
  C  C159  1  0.107800  0.488500  0.011500  1.0  0.0377
  C  C160  1  0.220500  0.477200  0.022800  1.0  -0.0195
  I  I161  1  0.500000  0.332780  0.667220  1.0  -0.404
  I  I162  1  0.000000  0.167220  0.832780  1.0  -0.4042
  I  I163  1  0.667220  0.332780  0.832780  1.0  -0.4035
  I  I164  1  0.332780  0.167220  0.667220  1.0  -0.4045
  I  I165  1  0.500000  0.667220  0.332780  1.0  -0.4042
  I  I166  1  0.000000  0.832780  0.167220  1.0  -0.404
  I  I167  1  0.332780  0.667220  0.167220  1.0  -0.4044
  I  I168  1  0.667220  0.832780  0.332780  1.0  -0.4036
  N  N169  1  0.441600  0.165100  0.845700  1.0  -0.16
  N  N170  1  0.952400  0.334900  0.654300  1.0  -0.1608
  N  N171  1  0.787300  0.154300  0.665100  1.0  -0.1605
  N  N172  1  0.106700  0.345700  0.834900  1.0  -0.1596
  N  N173  1  0.047600  0.345700  0.665100  1.0  -0.1593
  N  N174  1  0.558400  0.154300  0.834900  1.0  -0.161
  N  N175  1  0.893300  0.165100  0.654300  1.0  -0.16
  N  N176  1  0.212700  0.334900  0.845700  1.0  -0.161
  N  N177  1  0.558400  0.834900  0.154300  1.0  -0.1595
  N  N178  1  0.047600  0.665100  0.345700  1.0  -0.1612
  N  N179  1  0.212700  0.845700  0.334900  1.0  -0.16
  N  N180  1  0.893300  0.654300  0.165100  1.0  -0.1603
  N  N181  1  0.952400  0.654300  0.334900  1.0  -0.1606
  N  N182  1  0.441600  0.845700  0.165100  1.0  -0.1596
  N  N183  1  0.106700  0.834900  0.345700  1.0  -0.1597
  N  N184  1  0.787300  0.665100  0.154300  1.0  -0.1612
