# generated using pymatgen
data_CuH9C10N2Cl
_symmetry_space_group_name_H-M   'P 1'
_cell_length_a   12.45220000
_cell_length_b   15.93270000
_cell_length_c   15.93270000
_cell_angle_alpha   90.00000000
_cell_angle_beta   90.00000000
_cell_angle_gamma   90.00000000
_symmetry_Int_Tables_number   1
_chemical_formula_structural   CuH9C10N2Cl
_chemical_formula_sum   'Cu8 H72 C80 N16 Cl8'
_cell_volume   3161.00254170
_cell_formula_units_Z   8
loop_
 _symmetry_equiv_pos_site_id
 _symmetry_equiv_pos_as_xyz
  1  'x, y, z'
loop_
 _atom_site_type_symbol
 _atom_site_label
 _atom_site_symmetry_multiplicity
 _atom_site_fract_x
 _atom_site_fract_y
 _atom_site_fract_z
 _atom_site_occupancy
 _atom_site_charge
  Cu  Cu1  1  0.623760  0.515650  0.002110  1.0  0.3528
  Cu  Cu2  1  0.123760  0.484350  0.997890  1.0  0.3517
  Cu  Cu3  1  0.873760  0.497890  0.015650  1.0  0.3535
  Cu  Cu4  1  0.373760  0.502110  0.984350  1.0  0.3548
  Cu  Cu5  1  0.626240  0.984350  0.502110  1.0  0.3519
  Cu  Cu6  1  0.126240  0.015650  0.497890  1.0  0.3525
  Cu  Cu7  1  0.376240  0.002110  0.515650  1.0  0.3534
  Cu  Cu8  1  0.876240  0.997890  0.484350  1.0  0.3548
  H  H9  1  0.247400  0.602900  0.828800  1.0  0.1102
  H  H10  1  0.245800  0.629900  0.922600  1.0  0.1008
  H  H11  1  0.759500  0.719000  0.723000  1.0  0.0715
  H  H12  1  0.750600  0.649500  0.940100  1.0  0.1007
  H  H13  1  0.759800  0.609500  0.851500  1.0  0.1143
  H  H14  1  0.143200  0.721500  0.838700  1.0  0.0901
  H  H15  1  0.237900  0.765800  0.883500  1.0  0.0674
  H  H16  1  0.854400  0.728800  0.843700  1.0  0.0876
  H  H17  1  0.760200  0.778100  0.883600  1.0  0.0623
  H  H18  1  0.747400  0.397100  0.171200  1.0  0.1107
  H  H19  1  0.745800  0.370100  0.077400  1.0  0.1
  H  H20  1  0.259500  0.281000  0.277000  1.0  0.0706
  H  H21  1  0.250600  0.350500  0.059900  1.0  0.1007
  H  H22  1  0.259800  0.390500  0.148500  1.0  0.1131
  H  H23  1  0.643200  0.278500  0.161300  1.0  0.0901
  H  H24  1  0.737900  0.234200  0.116500  1.0  0.0667
  H  H25  1  0.354400  0.271200  0.156300  1.0  0.0885
  H  H26  1  0.260200  0.221900  0.116400  1.0  0.0626
  H  H27  1  0.497400  0.671200  0.102900  1.0  0.1111
  H  H28  1  0.495800  0.577400  0.129900  1.0  0.0993
  H  H29  1  0.009500  0.777000  0.219000  1.0  0.072
  H  H30  1  0.000600  0.559900  0.149500  1.0  0.1039
  H  H31  1  0.009800  0.648500  0.109500  1.0  0.1146
  H  H32  1  0.393200  0.661300  0.221500  1.0  0.0901
  H  H33  1  0.487900  0.616500  0.265800  1.0  0.0637
  H  H34  1  0.104400  0.656300  0.228800  1.0  0.0879
  H  H35  1  0.010200  0.616400  0.278100  1.0  0.064
  H  H36  1  0.997400  0.328800  0.897100  1.0  0.1117
  H  H37  1  0.995800  0.422600  0.870100  1.0  0.101
  H  H38  1  0.509500  0.223000  0.781000  1.0  0.0726
  H  H39  1  0.500600  0.440100  0.850500  1.0  0.1028
  H  H40  1  0.509800  0.351500  0.890500  1.0  0.1146
  H  H41  1  0.893200  0.338700  0.778500  1.0  0.0902
  H  H42  1  0.987900  0.383500  0.734200  1.0  0.0661
  H  H43  1  0.604400  0.343700  0.771200  1.0  0.0878
  H  H44  1  0.510200  0.383600  0.721900  1.0  0.0627
  H  H45  1  0.002600  0.897100  0.328800  1.0  0.1101
  H  H46  1  0.004200  0.870100  0.422600  1.0  0.1015
  H  H47  1  0.490500  0.781000  0.223000  1.0  0.0719
  H  H48  1  0.499400  0.850500  0.440100  1.0  0.1011
  H  H49  1  0.490200  0.890500  0.351500  1.0  0.1151
  H  H50  1  0.106800  0.778500  0.338700  1.0  0.0899
  H  H51  1  0.012100  0.734200  0.383500  1.0  0.0678
  H  H52  1  0.395600  0.771200  0.343700  1.0  0.0881
  H  H53  1  0.489800  0.721900  0.383600  1.0  0.0639
  H  H54  1  0.502600  0.102900  0.671200  1.0  0.1112
  H  H55  1  0.504200  0.129900  0.577400  1.0  0.1008
  H  H56  1  0.990500  0.219000  0.777000  1.0  0.0729
  H  H57  1  0.999400  0.149500  0.559900  1.0  0.1008
  H  H58  1  0.990200  0.109500  0.648500  1.0  0.1147
  H  H59  1  0.606800  0.221500  0.661300  1.0  0.0907
  H  H60  1  0.512100  0.265800  0.616500  1.0  0.0672
  H  H61  1  0.895600  0.228800  0.656300  1.0  0.0885
  H  H62  1  0.989800  0.278100  0.616400  1.0  0.0621
  H  H63  1  0.752600  0.828800  0.602900  1.0  0.1108
  H  H64  1  0.754200  0.922600  0.629900  1.0  0.1006
  H  H65  1  0.240500  0.723000  0.719000  1.0  0.0718
  H  H66  1  0.249400  0.940100  0.649500  1.0  0.1035
  H  H67  1  0.240200  0.851500  0.609500  1.0  0.1146
  H  H68  1  0.856800  0.838700  0.721500  1.0  0.0904
  H  H69  1  0.762100  0.883500  0.765800  1.0  0.0647
  H  H70  1  0.145600  0.843700  0.728800  1.0  0.0879
  H  H71  1  0.239800  0.883600  0.778100  1.0  0.0625
  H  H72  1  0.252600  0.171200  0.397100  1.0  0.1109
  H  H73  1  0.254200  0.077400  0.370100  1.0  0.1011
  H  H74  1  0.740500  0.277000  0.281000  1.0  0.0721
  H  H75  1  0.749400  0.059900  0.350500  1.0  0.1026
  H  H76  1  0.740200  0.148500  0.390500  1.0  0.1146
  H  H77  1  0.356800  0.161300  0.278500  1.0  0.0902
  H  H78  1  0.262100  0.116500  0.234200  1.0  0.0631
  H  H79  1  0.645600  0.156300  0.271200  1.0  0.0881
  H  H80  1  0.739800  0.116400  0.221900  1.0  0.0622
  C  C81  1  0.607600  0.655200  0.874600  1.0  0.2209
  C  C82  1  0.555900  0.710400  0.817600  1.0  -0.0597
  C  C83  1  0.614900  0.763600  0.762400  1.0  0.0269
  C  C84  1  0.443600  0.710100  0.814900  1.0  -0.0668
  C  C85  1  0.389400  0.649000  0.867900  1.0  0.2397
  C  C86  1  0.270900  0.645000  0.867700  1.0  -0.224
  C  C87  1  0.737100  0.761600  0.761800  1.0  -0.0193
  C  C88  1  0.730400  0.655900  0.882300  1.0  -0.2203
  C  C89  1  0.220000  0.725700  0.840800  1.0  -0.1077
  C  C90  1  0.777600  0.733700  0.845100  1.0  -0.1069
  C  C91  1  0.107600  0.344800  0.125400  1.0  0.2209
  C  C92  1  0.055900  0.289600  0.182400  1.0  -0.0598
  C  C93  1  0.114900  0.236400  0.237600  1.0  0.0268
  C  C94  1  0.943600  0.289900  0.185100  1.0  -0.0667
  C  C95  1  0.889400  0.351000  0.132100  1.0  0.2399
  C  C96  1  0.770900  0.355000  0.132300  1.0  -0.2237
  C  C97  1  0.237100  0.238400  0.238200  1.0  -0.0192
  C  C98  1  0.230400  0.344100  0.117700  1.0  -0.2207
  C  C99  1  0.720000  0.274300  0.159200  1.0  -0.1086
  C  C100  1  0.277600  0.266300  0.154900  1.0  -0.1075
  C  C101  1  0.857600  0.625400  0.155200  1.0  0.2217
  C  C102  1  0.805900  0.682400  0.210400  1.0  -0.0596
  C  C103  1  0.864900  0.737600  0.263600  1.0  0.0268
  C  C104  1  0.693600  0.685100  0.210100  1.0  -0.0667
  C  C105  1  0.639400  0.632100  0.149000  1.0  0.2397
  C  C106  1  0.520900  0.632300  0.145000  1.0  -0.2228
  C  C107  1  0.987100  0.738200  0.261600  1.0  -0.019
  C  C108  1  0.980400  0.617700  0.155900  1.0  -0.2202
  C  C109  1  0.470000  0.659200  0.225700  1.0  -0.1085
  C  C110  1  0.027600  0.654900  0.233700  1.0  -0.1059
  C  C111  1  0.357600  0.374600  0.844800  1.0  0.2211
  C  C112  1  0.305900  0.317600  0.789600  1.0  -0.0598
  C  C113  1  0.364900  0.262400  0.736400  1.0  0.0267
  C  C114  1  0.193600  0.314900  0.789900  1.0  -0.0669
  C  C115  1  0.139400  0.367900  0.851000  1.0  0.2401
  C  C116  1  0.020900  0.367700  0.855000  1.0  -0.2222
  C  C117  1  0.487100  0.261800  0.738400  1.0  -0.0186
  C  C118  1  0.480400  0.382300  0.844100  1.0  -0.2209
  C  C119  1  0.970000  0.340800  0.774300  1.0  -0.1082
  C  C120  1  0.527600  0.345100  0.766300  1.0  -0.1064
  C  C121  1  0.642400  0.844800  0.374600  1.0  0.2213
  C  C122  1  0.694100  0.789600  0.317600  1.0  -0.0609
  C  C123  1  0.635100  0.736400  0.262400  1.0  0.0265
  C  C124  1  0.806400  0.789900  0.314900  1.0  -0.0665
  C  C125  1  0.860600  0.851000  0.367900  1.0  0.2393
  C  C126  1  0.979100  0.855000  0.367700  1.0  -0.2236
  C  C127  1  0.512900  0.738400  0.261800  1.0  -0.02
  C  C128  1  0.519600  0.844100  0.382300  1.0  -0.2208
  C  C129  1  0.030000  0.774300  0.340800  1.0  -0.1091
  C  C130  1  0.472400  0.766300  0.345100  1.0  -0.1069
  C  C131  1  0.142400  0.155200  0.625400  1.0  0.2212
  C  C132  1  0.194100  0.210400  0.682400  1.0  -0.0609
  C  C133  1  0.135100  0.263600  0.737600  1.0  0.0259
  C  C134  1  0.306400  0.210100  0.685100  1.0  -0.0664
  C  C135  1  0.360600  0.149000  0.632100  1.0  0.2393
  C  C136  1  0.479100  0.145000  0.632300  1.0  -0.2243
  C  C137  1  0.012900  0.261600  0.738200  1.0  -0.0195
  C  C138  1  0.019600  0.155900  0.617700  1.0  -0.2217
  C  C139  1  0.530000  0.225700  0.659200  1.0  -0.1097
  C  C140  1  0.972400  0.233700  0.654900  1.0  -0.1067
  C  C141  1  0.392400  0.874600  0.655200  1.0  0.2221
  C  C142  1  0.444100  0.817600  0.710400  1.0  -0.0608
  C  C143  1  0.385100  0.762400  0.763600  1.0  0.0261
  C  C144  1  0.556400  0.814900  0.710100  1.0  -0.0664
  C  C145  1  0.610600  0.867900  0.649000  1.0  0.2394
  C  C146  1  0.729100  0.867700  0.645000  1.0  -0.2227
  C  C147  1  0.262900  0.761800  0.761600  1.0  -0.0195
  C  C148  1  0.269600  0.882300  0.655900  1.0  -0.2206
  C  C149  1  0.780000  0.840800  0.725700  1.0  -0.1089
  C  C150  1  0.222400  0.845100  0.733700  1.0  -0.1052
  C  C151  1  0.892400  0.125400  0.344800  1.0  0.2219
  C  C152  1  0.944100  0.182400  0.289600  1.0  -0.0608
  C  C153  1  0.885100  0.237600  0.236400  1.0  0.0261
  C  C154  1  0.056400  0.185100  0.289900  1.0  -0.0665
  C  C155  1  0.110600  0.132100  0.351000  1.0  0.2392
  C  C156  1  0.229100  0.132300  0.355000  1.0  -0.2216
  C  C157  1  0.762900  0.238200  0.238400  1.0  -0.0201
  C  C158  1  0.769600  0.117700  0.344100  1.0  -0.2215
  C  C159  1  0.280000  0.159200  0.274300  1.0  -0.1091
  C  C160  1  0.722400  0.154900  0.266300  1.0  -0.1055
  N  N161  1  0.553900  0.600200  0.920900  1.0  -0.1783
  N  N162  1  0.442500  0.597700  0.917400  1.0  -0.1791
  N  N163  1  0.053900  0.399800  0.079100  1.0  -0.1786
  N  N164  1  0.942500  0.402300  0.082600  1.0  -0.1797
  N  N165  1  0.803900  0.579100  0.100200  1.0  -0.1788
  N  N166  1  0.692500  0.582600  0.097700  1.0  -0.1791
  N  N167  1  0.303900  0.420900  0.899800  1.0  -0.1786
  N  N168  1  0.192500  0.417400  0.902300  1.0  -0.1801
  N  N169  1  0.696100  0.899800  0.420900  1.0  -0.1783
  N  N170  1  0.807500  0.902300  0.417400  1.0  -0.1789
  N  N171  1  0.196100  0.100200  0.579100  1.0  -0.1789
  N  N172  1  0.307500  0.097700  0.582600  1.0  -0.1795
  N  N173  1  0.446100  0.920900  0.600200  1.0  -0.179
  N  N174  1  0.557500  0.917400  0.597700  1.0  -0.1797
  N  N175  1  0.946100  0.079100  0.399800  1.0  -0.1786
  N  N176  1  0.057500  0.082600  0.402300  1.0  -0.1783
  Cl  Cl177  1  0.748200  0.437340  0.922230  1.0  -0.485
  Cl  Cl178  1  0.248200  0.562660  0.077770  1.0  -0.4834
  Cl  Cl179  1  0.998200  0.577770  0.937340  1.0  -0.4831
  Cl  Cl180  1  0.498200  0.422230  0.062660  1.0  -0.4843
  Cl  Cl181  1  0.501800  0.062660  0.422230  1.0  -0.4842
  Cl  Cl182  1  0.001800  0.937340  0.577770  1.0  -0.4842
  Cl  Cl183  1  0.251800  0.922230  0.437340  1.0  -0.4847
  Cl  Cl184  1  0.751800  0.077770  0.562660  1.0  -0.483
