# generated using pymatgen
data_Mg2Al(PO4)4
_symmetry_space_group_name_H-M   'P 1'
_cell_length_a   16.78240000
_cell_length_b   16.78240000
_cell_length_c   16.78240000
_cell_angle_alpha   90.00000000
_cell_angle_beta   90.00000000
_cell_angle_gamma   90.00000000
_symmetry_Int_Tables_number   1
_chemical_formula_structural   Mg2Al(PO4)4
_chemical_formula_sum   'Mg12 Al6 P24 O96'
_cell_volume   4726.74533445
_cell_formula_units_Z   6
loop_
 _symmetry_equiv_pos_site_id
 _symmetry_equiv_pos_as_xyz
  1  'x, y, z'
loop_
 _atom_site_type_symbol
 _atom_site_label
 _atom_site_symmetry_multiplicity
 _atom_site_fract_x
 _atom_site_fract_y
 _atom_site_fract_z
 _atom_site_occupancy
 _atom_site_charge
  Mg  Mg1  1  0.000000  0.500000  0.250000  1.0  1.6807
  Mg  Mg2  1  0.000000  0.500000  0.750000  1.0  1.6807
  Mg  Mg3  1  0.500000  0.000000  0.250000  1.0  1.6807
  Mg  Mg4  1  0.250000  0.000000  0.500000  1.0  1.6807
  Mg  Mg5  1  0.750000  0.000000  0.500000  1.0  1.6807
  Mg  Mg6  1  0.250000  0.500000  0.000000  1.0  1.6807
  Mg  Mg7  1  0.500000  0.250000  0.000000  1.0  1.6807
  Mg  Mg8  1  0.500000  0.750000  0.000000  1.0  1.6807
  Mg  Mg9  1  0.000000  0.250000  0.500000  1.0  1.6807
  Mg  Mg10  1  0.500000  0.000000  0.750000  1.0  1.6807
  Mg  Mg11  1  0.000000  0.750000  0.500000  1.0  1.6807
  Mg  Mg12  1  0.750000  0.500000  0.000000  1.0  1.6807
  Al  Al13  1  0.000000  0.500000  0.500000  1.0  1.9499
  Al  Al14  1  0.500000  0.000000  0.000000  1.0  1.9499
  Al  Al15  1  0.500000  0.000000  0.500000  1.0  1.9499
  Al  Al16  1  0.000000  0.500000  0.000000  1.0  1.9499
  Al  Al17  1  0.500000  0.500000  0.000000  1.0  1.9499
  Al  Al18  1  0.000000  0.000000  0.500000  1.0  1.9499
  P  P19  1  0.070570  0.621880  0.378120  1.0  1.7331
  P  P20  1  0.570570  0.121880  0.878120  1.0  1.7331
  P  P21  1  0.929430  0.378120  0.378120  1.0  1.7311
  P  P22  1  0.429430  0.878120  0.878120  1.0  1.7311
  P  P23  1  0.929430  0.621880  0.621880  1.0  1.7308
  P  P24  1  0.429430  0.121880  0.121880  1.0  1.7308
  P  P25  1  0.070570  0.378120  0.621880  1.0  1.7349
  P  P26  1  0.570570  0.878120  0.121880  1.0  1.7349
  P  P27  1  0.378120  0.070570  0.621880  1.0  1.7317
  P  P28  1  0.878120  0.570570  0.121880  1.0  1.7317
  P  P29  1  0.378120  0.929430  0.378120  1.0  1.7318
  P  P30  1  0.878120  0.429430  0.878120  1.0  1.7318
  P  P31  1  0.621880  0.929430  0.621880  1.0  1.735
  P  P32  1  0.121880  0.429430  0.121880  1.0  1.735
  P  P33  1  0.621880  0.070570  0.378120  1.0  1.7331
  P  P34  1  0.121880  0.570570  0.878120  1.0  1.7331
  P  P35  1  0.621880  0.378120  0.070570  1.0  1.734
  P  P36  1  0.121880  0.878120  0.570570  1.0  1.734
  P  P37  1  0.378120  0.378120  0.929430  1.0  1.7305
  P  P38  1  0.878120  0.878120  0.429430  1.0  1.7305
  P  P39  1  0.621880  0.621880  0.929430  1.0  1.7317
  P  P40  1  0.121880  0.121880  0.429430  1.0  1.7317
  P  P41  1  0.378120  0.621880  0.070570  1.0  1.7306
  P  P42  1  0.878120  0.121880  0.570570  1.0  1.7306
  O  O43  1  0.026250  0.592350  0.305150  1.0  -0.7889
  O  O44  1  0.526250  0.092350  0.805150  1.0  -0.7889
  O  O45  1  0.973750  0.407650  0.305150  1.0  -0.7876
  O  O46  1  0.473750  0.907650  0.805150  1.0  -0.7876
  O  O47  1  0.973750  0.592350  0.694850  1.0  -0.7895
  O  O48  1  0.473750  0.092350  0.194850  1.0  -0.7895
  O  O49  1  0.026250  0.407650  0.694850  1.0  -0.7896
  O  O50  1  0.526250  0.907650  0.194850  1.0  -0.7896
  O  O51  1  0.305150  0.026250  0.592350  1.0  -0.7879
  O  O52  1  0.805150  0.526250  0.092350  1.0  -0.7879
  O  O53  1  0.305150  0.973750  0.407650  1.0  -0.7882
  O  O54  1  0.805150  0.473750  0.907650  1.0  -0.7882
  O  O55  1  0.694850  0.973750  0.592350  1.0  -0.786
  O  O56  1  0.194850  0.473750  0.092350  1.0  -0.786
  O  O57  1  0.694850  0.026250  0.407650  1.0  -0.7872
  O  O58  1  0.194850  0.526250  0.907650  1.0  -0.7872
  O  O59  1  0.592350  0.305150  0.026250  1.0  -0.7882
  O  O60  1  0.092350  0.805150  0.526250  1.0  -0.7882
  O  O61  1  0.407650  0.305150  0.973750  1.0  -0.7896
  O  O62  1  0.907650  0.805150  0.473750  1.0  -0.7896
  O  O63  1  0.592350  0.694850  0.973750  1.0  -0.7884
  O  O64  1  0.092350  0.194850  0.473750  1.0  -0.7884
  O  O65  1  0.407650  0.694850  0.026250  1.0  -0.7888
  O  O66  1  0.907650  0.194850  0.526250  1.0  -0.7888
  O  O67  1  0.592350  0.026250  0.305150  1.0  -0.7878
  O  O68  1  0.092350  0.526250  0.805150  1.0  -0.7878
  O  O69  1  0.407650  0.973750  0.305150  1.0  -0.7883
  O  O70  1  0.907650  0.473750  0.805150  1.0  -0.7883
  O  O71  1  0.592350  0.973750  0.694850  1.0  -0.7885
  O  O72  1  0.092350  0.473750  0.194850  1.0  -0.7885
  O  O73  1  0.407650  0.026250  0.694850  1.0  -0.7899
  O  O74  1  0.907650  0.526250  0.194850  1.0  -0.7899
  O  O75  1  0.026250  0.305150  0.592350  1.0  -0.7875
  O  O76  1  0.526250  0.805150  0.092350  1.0  -0.7875
  O  O77  1  0.973750  0.305150  0.407650  1.0  -0.7881
  O  O78  1  0.473750  0.805150  0.907650  1.0  -0.7881
  O  O79  1  0.973750  0.694850  0.592350  1.0  -0.787
  O  O80  1  0.473750  0.194850  0.092350  1.0  -0.787
  O  O81  1  0.026250  0.694850  0.407650  1.0  -0.7885
  O  O82  1  0.526250  0.194850  0.907650  1.0  -0.7885
  O  O83  1  0.305150  0.592350  0.026250  1.0  -0.7892
  O  O84  1  0.805150  0.092350  0.526250  1.0  -0.7892
  O  O85  1  0.305150  0.407650  0.973750  1.0  -0.7889
  O  O86  1  0.805150  0.907650  0.473750  1.0  -0.7889
  O  O87  1  0.694850  0.592350  0.973750  1.0  -0.788
  O  O88  1  0.194850  0.092350  0.473750  1.0  -0.788
  O  O89  1  0.694850  0.407650  0.026250  1.0  -0.7875
  O  O90  1  0.194850  0.907650  0.526250  1.0  -0.7875
  O  O91  1  0.156900  0.640800  0.359200  1.0  -0.548
  O  O92  1  0.067200  0.556880  0.443120  1.0  -0.9329
  O  O93  1  0.656900  0.140800  0.859200  1.0  -0.548
  O  O94  1  0.567200  0.056880  0.943120  1.0  -0.9329
  O  O95  1  0.843100  0.359200  0.359200  1.0  -0.5414
  O  O96  1  0.932800  0.443120  0.443120  1.0  -0.934
  O  O97  1  0.343100  0.859200  0.859200  1.0  -0.5414
  O  O98  1  0.432800  0.943120  0.943120  1.0  -0.934
  O  O99  1  0.843100  0.640800  0.640800  1.0  -0.5412
  O  O100  1  0.932800  0.556880  0.556880  1.0  -0.9332
  O  O101  1  0.343100  0.140800  0.140800  1.0  -0.5412
  O  O102  1  0.432800  0.056880  0.056880  1.0  -0.9332
  O  O103  1  0.156900  0.359200  0.640800  1.0  -0.5491
  O  O104  1  0.067200  0.443120  0.556880  1.0  -0.9333
  O  O105  1  0.656900  0.859200  0.140800  1.0  -0.5491
  O  O106  1  0.567200  0.943120  0.056880  1.0  -0.9333
  O  O107  1  0.359200  0.156900  0.640800  1.0  -0.5546
  O  O108  1  0.443120  0.067200  0.556880  1.0  -0.9337
  O  O109  1  0.859200  0.656900  0.140800  1.0  -0.5546
  O  O110  1  0.943120  0.567200  0.056880  1.0  -0.9337
  O  O111  1  0.359200  0.843100  0.359200  1.0  -0.5541
  O  O112  1  0.443120  0.932800  0.443120  1.0  -0.9345
  O  O113  1  0.859200  0.343100  0.859200  1.0  -0.5541
  O  O114  1  0.943120  0.432800  0.943120  1.0  -0.9345
  O  O115  1  0.640800  0.843100  0.640800  1.0  -0.5545
  O  O116  1  0.556880  0.932800  0.556880  1.0  -0.9341
  O  O117  1  0.140800  0.343100  0.140800  1.0  -0.5545
  O  O118  1  0.056880  0.432800  0.056880  1.0  -0.9341
  O  O119  1  0.640800  0.156900  0.359200  1.0  -0.5539
  O  O120  1  0.556880  0.067200  0.443120  1.0  -0.9346
  O  O121  1  0.140800  0.656900  0.859200  1.0  -0.5539
  O  O122  1  0.056880  0.567200  0.943120  1.0  -0.9346
  O  O123  1  0.640800  0.359200  0.156900  1.0  -0.5563
  O  O124  1  0.556880  0.443120  0.067200  1.0  -0.9277
  O  O125  1  0.140800  0.859200  0.656900  1.0  -0.5563
  O  O126  1  0.056880  0.943120  0.567200  1.0  -0.9277
  O  O127  1  0.359200  0.359200  0.843100  1.0  -0.5554
  O  O128  1  0.443120  0.443120  0.932800  1.0  -0.9276
  O  O129  1  0.859200  0.859200  0.343100  1.0  -0.5554
  O  O130  1  0.943120  0.943120  0.432800  1.0  -0.9276
  O  O131  1  0.640800  0.640800  0.843100  1.0  -0.5554
  O  O132  1  0.556880  0.556880  0.932800  1.0  -0.928
  O  O133  1  0.140800  0.140800  0.343100  1.0  -0.5554
  O  O134  1  0.056880  0.056880  0.432800  1.0  -0.928
  O  O135  1  0.359200  0.640800  0.156900  1.0  -0.5569
  O  O136  1  0.443120  0.556880  0.067200  1.0  -0.9288
  O  O137  1  0.859200  0.140800  0.656900  1.0  -0.5569
  O  O138  1  0.943120  0.056880  0.567200  1.0  -0.9288
