# generated using pymatgen
data_Mg2Ga(PO4)4
_symmetry_space_group_name_H-M   'P 1'
_cell_length_a   16.83060000
_cell_length_b   16.83060000
_cell_length_c   16.83060000
_cell_angle_alpha   90.00000000
_cell_angle_beta   90.00000000
_cell_angle_gamma   90.00000000
_symmetry_Int_Tables_number   1
_chemical_formula_structural   Mg2Ga(PO4)4
_chemical_formula_sum   'Mg12 Ga6 P24 O96'
_cell_volume   4767.58885320
_cell_formula_units_Z   6
loop_
 _symmetry_equiv_pos_site_id
 _symmetry_equiv_pos_as_xyz
  1  'x, y, z'
loop_
 _atom_site_type_symbol
 _atom_site_label
 _atom_site_symmetry_multiplicity
 _atom_site_fract_x
 _atom_site_fract_y
 _atom_site_fract_z
 _atom_site_occupancy
 _atom_site_charge
  Mg  Mg1  1  0.000000  0.500000  0.750000  1.0  1.6755
  Mg  Mg2  1  0.000000  0.500000  0.250000  1.0  1.6755
  Mg  Mg3  1  0.750000  0.000000  0.500000  1.0  1.6755
  Mg  Mg4  1  0.250000  0.000000  0.500000  1.0  1.6755
  Mg  Mg5  1  0.500000  0.750000  0.000000  1.0  1.6755
  Mg  Mg6  1  0.500000  0.250000  0.000000  1.0  1.6755
  Mg  Mg7  1  0.500000  0.000000  0.750000  1.0  1.6755
  Mg  Mg8  1  0.500000  0.000000  0.250000  1.0  1.6755
  Mg  Mg9  1  0.000000  0.750000  0.500000  1.0  1.6755
  Mg  Mg10  1  0.000000  0.250000  0.500000  1.0  1.6755
  Mg  Mg11  1  0.750000  0.500000  0.000000  1.0  1.6755
  Mg  Mg12  1  0.250000  0.500000  0.000000  1.0  1.6755
  Ga  Ga13  1  0.000000  0.500000  0.500000  1.0  1.6676
  Ga  Ga14  1  0.500000  0.000000  0.000000  1.0  1.6676
  Ga  Ga15  1  0.500000  0.000000  0.500000  1.0  1.6676
  Ga  Ga16  1  0.000000  0.500000  0.000000  1.0  1.6676
  Ga  Ga17  1  0.500000  0.500000  0.000000  1.0  1.6676
  Ga  Ga18  1  0.000000  0.000000  0.500000  1.0  1.6676
  P  P19  1  0.929770  0.377680  0.622320  1.0  1.7185
  P  P20  1  0.429770  0.877680  0.122320  1.0  1.7185
  P  P21  1  0.070230  0.622320  0.622320  1.0  1.7205
  P  P22  1  0.570230  0.122320  0.122320  1.0  1.7205
  P  P23  1  0.070230  0.377680  0.377680  1.0  1.7218
  P  P24  1  0.570230  0.877680  0.877680  1.0  1.7218
  P  P25  1  0.929770  0.622320  0.377680  1.0  1.7167
  P  P26  1  0.429770  0.122320  0.877680  1.0  1.7167
  P  P27  1  0.622320  0.929770  0.377680  1.0  1.7226
  P  P28  1  0.122320  0.429770  0.877680  1.0  1.7226
  P  P29  1  0.622320  0.070230  0.622320  1.0  1.7206
  P  P30  1  0.122320  0.570230  0.122320  1.0  1.7206
  P  P31  1  0.377680  0.070230  0.377680  1.0  1.7178
  P  P32  1  0.877680  0.570230  0.877680  1.0  1.7178
  P  P33  1  0.377680  0.929770  0.622320  1.0  1.7206
  P  P34  1  0.877680  0.429770  0.122320  1.0  1.7206
  P  P35  1  0.377680  0.622320  0.929770  1.0  1.7174
  P  P36  1  0.877680  0.122320  0.429770  1.0  1.7174
  P  P37  1  0.622320  0.622320  0.070230  1.0  1.7202
  P  P38  1  0.122320  0.122320  0.570230  1.0  1.7202
  P  P39  1  0.377680  0.377680  0.070230  1.0  1.7195
  P  P40  1  0.877680  0.877680  0.570230  1.0  1.7195
  P  P41  1  0.622320  0.377680  0.929770  1.0  1.7214
  P  P42  1  0.122320  0.877680  0.429770  1.0  1.7214
  O  O43  1  0.975690  0.406910  0.694800  1.0  -0.7912
  O  O44  1  0.475690  0.906910  0.194800  1.0  -0.7912
  O  O45  1  0.024310  0.593090  0.694800  1.0  -0.7915
  O  O46  1  0.524310  0.093090  0.194800  1.0  -0.7915
  O  O47  1  0.024310  0.406910  0.305200  1.0  -0.7897
  O  O48  1  0.524310  0.906910  0.805200  1.0  -0.7897
  O  O49  1  0.975690  0.593090  0.305200  1.0  -0.7902
  O  O50  1  0.475690  0.093090  0.805200  1.0  -0.7902
  O  O51  1  0.694800  0.975690  0.406910  1.0  -0.7887
  O  O52  1  0.194800  0.475690  0.906910  1.0  -0.7887
  O  O53  1  0.694800  0.024310  0.593090  1.0  -0.7882
  O  O54  1  0.194800  0.524310  0.093090  1.0  -0.7882
  O  O55  1  0.305200  0.024310  0.406910  1.0  -0.7907
  O  O56  1  0.805200  0.524310  0.906910  1.0  -0.7907
  O  O57  1  0.305200  0.975690  0.593090  1.0  -0.79
  O  O58  1  0.805200  0.475690  0.093090  1.0  -0.79
  O  O59  1  0.406910  0.694800  0.975690  1.0  -0.7913
  O  O60  1  0.906910  0.194800  0.475690  1.0  -0.7913
  O  O61  1  0.593090  0.694800  0.024310  1.0  -0.7896
  O  O62  1  0.093090  0.194800  0.524310  1.0  -0.7896
  O  O63  1  0.406910  0.305200  0.024310  1.0  -0.7903
  O  O64  1  0.906910  0.805200  0.524310  1.0  -0.7903
  O  O65  1  0.593090  0.305200  0.975690  1.0  -0.7902
  O  O66  1  0.093090  0.805200  0.475690  1.0  -0.7902
  O  O67  1  0.406910  0.975690  0.694800  1.0  -0.792
  O  O68  1  0.906910  0.475690  0.194800  1.0  -0.792
  O  O69  1  0.593090  0.024310  0.694800  1.0  -0.7905
  O  O70  1  0.093090  0.524310  0.194800  1.0  -0.7905
  O  O71  1  0.406910  0.024310  0.305200  1.0  -0.7909
  O  O72  1  0.906910  0.524310  0.805200  1.0  -0.7909
  O  O73  1  0.593090  0.975690  0.305200  1.0  -0.7896
  O  O74  1  0.093090  0.475690  0.805200  1.0  -0.7896
  O  O75  1  0.975690  0.694800  0.406910  1.0  -0.7898
  O  O76  1  0.475690  0.194800  0.906910  1.0  -0.7898
  O  O77  1  0.024310  0.694800  0.593090  1.0  -0.7908
  O  O78  1  0.524310  0.194800  0.093090  1.0  -0.7908
  O  O79  1  0.024310  0.305200  0.406910  1.0  -0.7908
  O  O80  1  0.524310  0.805200  0.906910  1.0  -0.7908
  O  O81  1  0.975690  0.305200  0.593090  1.0  -0.7892
  O  O82  1  0.475690  0.805200  0.093090  1.0  -0.7892
  O  O83  1  0.694800  0.406910  0.975690  1.0  -0.7892
  O  O84  1  0.194800  0.906910  0.475690  1.0  -0.7892
  O  O85  1  0.694800  0.593090  0.024310  1.0  -0.7894
  O  O86  1  0.194800  0.093090  0.524310  1.0  -0.7894
  O  O87  1  0.305200  0.406910  0.024310  1.0  -0.7908
  O  O88  1  0.805200  0.906910  0.524310  1.0  -0.7908
  O  O89  1  0.305200  0.593090  0.975690  1.0  -0.7911
  O  O90  1  0.805200  0.093090  0.475690  1.0  -0.7911
  O  O91  1  0.844400  0.357380  0.642620  1.0  -0.5418
  O  O92  1  0.929600  0.442120  0.557880  1.0  -0.8473
  O  O93  1  0.344400  0.857380  0.142620  1.0  -0.5418
  O  O94  1  0.429600  0.942120  0.057880  1.0  -0.8473
  O  O95  1  0.155600  0.642620  0.642620  1.0  -0.5459
  O  O96  1  0.070400  0.557880  0.557880  1.0  -0.8479
  O  O97  1  0.655600  0.142620  0.142620  1.0  -0.5459
  O  O98  1  0.570400  0.057880  0.057880  1.0  -0.8479
  O  O99  1  0.155600  0.357380  0.357380  1.0  -0.5453
  O  O100  1  0.070400  0.442120  0.442120  1.0  -0.8472
  O  O101  1  0.655600  0.857380  0.857380  1.0  -0.5453
  O  O102  1  0.570400  0.942120  0.942120  1.0  -0.8472
  O  O103  1  0.844400  0.642620  0.357380  1.0  -0.5409
  O  O104  1  0.929600  0.557880  0.442120  1.0  -0.8482
  O  O105  1  0.344400  0.142620  0.857380  1.0  -0.5409
  O  O106  1  0.429600  0.057880  0.942120  1.0  -0.8482
  O  O107  1  0.642620  0.844400  0.357380  1.0  -0.5483
  O  O108  1  0.557880  0.929600  0.442120  1.0  -0.8464
  O  O109  1  0.142620  0.344400  0.857380  1.0  -0.5483
  O  O110  1  0.057880  0.429600  0.942120  1.0  -0.8464
  O  O111  1  0.642620  0.155600  0.642620  1.0  -0.5485
  O  O112  1  0.557880  0.070400  0.557880  1.0  -0.8496
  O  O113  1  0.142620  0.655600  0.142620  1.0  -0.5485
  O  O114  1  0.057880  0.570400  0.057880  1.0  -0.8496
  O  O115  1  0.357380  0.155600  0.357380  1.0  -0.5487
  O  O116  1  0.442120  0.070400  0.442120  1.0  -0.8473
  O  O117  1  0.857380  0.655600  0.857380  1.0  -0.5487
  O  O118  1  0.942120  0.570400  0.942120  1.0  -0.8473
  O  O119  1  0.357380  0.844400  0.642620  1.0  -0.5493
  O  O120  1  0.442120  0.929600  0.557880  1.0  -0.8464
  O  O121  1  0.857380  0.344400  0.142620  1.0  -0.5493
  O  O122  1  0.942120  0.429600  0.057880  1.0  -0.8464
  O  O123  1  0.357380  0.642620  0.844400  1.0  -0.5517
  O  O124  1  0.442120  0.557880  0.929600  1.0  -0.8411
  O  O125  1  0.857380  0.142620  0.344400  1.0  -0.5517
  O  O126  1  0.942120  0.057880  0.429600  1.0  -0.8411
  O  O127  1  0.642620  0.642620  0.155600  1.0  -0.5536
  O  O128  1  0.557880  0.557880  0.070400  1.0  -0.8424
  O  O129  1  0.142620  0.142620  0.655600  1.0  -0.5536
  O  O130  1  0.057880  0.057880  0.570400  1.0  -0.8424
  O  O131  1  0.357380  0.357380  0.155600  1.0  -0.5542
  O  O132  1  0.442120  0.442120  0.070400  1.0  -0.8412
  O  O133  1  0.857380  0.857380  0.655600  1.0  -0.5542
  O  O134  1  0.942120  0.942120  0.570400  1.0  -0.8412
  O  O135  1  0.642620  0.357380  0.844400  1.0  -0.5519
  O  O136  1  0.557880  0.442120  0.929600  1.0  -0.8428
  O  O137  1  0.142620  0.857380  0.344400  1.0  -0.5519
  O  O138  1  0.057880  0.942120  0.429600  1.0  -0.8428
