# generated using pymatgen
data_Al3(PO4)4
_symmetry_space_group_name_H-M   'P 1'
_cell_length_a   16.77270000
_cell_length_b   16.77270000
_cell_length_c   16.77270000
_cell_angle_alpha   90.00000000
_cell_angle_beta   90.00000000
_cell_angle_gamma   90.00000000
_symmetry_Int_Tables_number   1
_chemical_formula_structural   Al3(PO4)4
_chemical_formula_sum   'Al18 P24 O96'
_cell_volume   4718.55408627
_cell_formula_units_Z   6
loop_
 _symmetry_equiv_pos_site_id
 _symmetry_equiv_pos_as_xyz
  1  'x, y, z'
loop_
 _atom_site_type_symbol
 _atom_site_label
 _atom_site_symmetry_multiplicity
 _atom_site_fract_x
 _atom_site_fract_y
 _atom_site_fract_z
 _atom_site_occupancy
 _atom_site_charge
  Al  Al1  1  0.000000  0.500000  0.000000  1.0  1.9673
  Al  Al2  1  0.500000  0.000000  0.500000  1.0  1.9673
  Al  Al3  1  0.000000  0.000000  0.500000  1.0  1.9673
  Al  Al4  1  0.500000  0.500000  0.000000  1.0  1.9673
  Al  Al5  1  0.500000  0.000000  0.000000  1.0  1.9673
  Al  Al6  1  0.000000  0.500000  0.500000  1.0  1.9673
  Al  Al7  1  0.250000  0.500000  0.000000  1.0  1.939
  Al  Al8  1  0.750000  0.500000  0.000000  1.0  1.939
  Al  Al9  1  0.000000  0.250000  0.500000  1.0  1.939
  Al  Al10  1  0.000000  0.750000  0.500000  1.0  1.939
  Al  Al11  1  0.500000  0.000000  0.250000  1.0  1.939
  Al  Al12  1  0.500000  0.000000  0.750000  1.0  1.939
  Al  Al13  1  0.500000  0.250000  0.000000  1.0  1.939
  Al  Al14  1  0.500000  0.750000  0.000000  1.0  1.939
  Al  Al15  1  0.250000  0.000000  0.500000  1.0  1.939
  Al  Al16  1  0.750000  0.000000  0.500000  1.0  1.939
  Al  Al17  1  0.000000  0.500000  0.250000  1.0  1.939
  Al  Al18  1  0.000000  0.500000  0.750000  1.0  1.939
  P  P19  1  0.122540  0.435360  0.122540  1.0  1.7527
  P  P20  1  0.622540  0.935360  0.622540  1.0  1.7527
  P  P21  1  0.877460  0.564640  0.122540  1.0  1.7525
  P  P22  1  0.377460  0.064640  0.622540  1.0  1.7525
  P  P23  1  0.877460  0.435360  0.877460  1.0  1.752
  P  P24  1  0.377460  0.935360  0.377460  1.0  1.752
  P  P25  1  0.122540  0.564640  0.877460  1.0  1.7526
  P  P26  1  0.622540  0.064640  0.377460  1.0  1.7526
  P  P27  1  0.122540  0.122540  0.435360  1.0  1.7502
  P  P28  1  0.622540  0.622540  0.935360  1.0  1.7502
  P  P29  1  0.122540  0.877460  0.564640  1.0  1.7518
  P  P30  1  0.622540  0.377460  0.064640  1.0  1.7518
  P  P31  1  0.877460  0.877460  0.435360  1.0  1.751
  P  P32  1  0.377460  0.377460  0.935360  1.0  1.751
  P  P33  1  0.877460  0.122540  0.564640  1.0  1.7504
  P  P34  1  0.377460  0.622540  0.064640  1.0  1.7504
  P  P35  1  0.435360  0.122540  0.122540  1.0  1.7507
  P  P36  1  0.935360  0.622540  0.622540  1.0  1.7507
  P  P37  1  0.564640  0.122540  0.877460  1.0  1.7511
  P  P38  1  0.064640  0.622540  0.377460  1.0  1.7511
  P  P39  1  0.435360  0.877460  0.877460  1.0  1.7515
  P  P40  1  0.935360  0.377460  0.377460  1.0  1.7515
  P  P41  1  0.564640  0.877460  0.122540  1.0  1.7526
  P  P42  1  0.064640  0.377460  0.622540  1.0  1.7526
  O  O43  1  0.194500  0.483100  0.092200  1.0  -0.8592
  O  O44  1  0.694500  0.983100  0.592200  1.0  -0.8592
  O  O45  1  0.805500  0.516900  0.092200  1.0  -0.8604
  O  O46  1  0.305500  0.016900  0.592200  1.0  -0.8604
  O  O47  1  0.805500  0.483100  0.907800  1.0  -0.8604
  O  O48  1  0.305500  0.983100  0.407800  1.0  -0.8604
  O  O49  1  0.194500  0.516900  0.907800  1.0  -0.8591
  O  O50  1  0.694500  0.016900  0.407800  1.0  -0.8591
  O  O51  1  0.092200  0.194500  0.483100  1.0  -0.863
  O  O52  1  0.592200  0.694500  0.983100  1.0  -0.863
  O  O53  1  0.092200  0.805500  0.516900  1.0  -0.8617
  O  O54  1  0.592200  0.305500  0.016900  1.0  -0.8617
  O  O55  1  0.907800  0.805500  0.483100  1.0  -0.8634
  O  O56  1  0.407800  0.305500  0.983100  1.0  -0.8634
  O  O57  1  0.907800  0.194500  0.516900  1.0  -0.8631
  O  O58  1  0.407800  0.694500  0.016900  1.0  -0.8631
  O  O59  1  0.483100  0.092200  0.194500  1.0  -0.8622
  O  O60  1  0.983100  0.592200  0.694500  1.0  -0.8622
  O  O61  1  0.516900  0.092200  0.805500  1.0  -0.8611
  O  O62  1  0.016900  0.592200  0.305500  1.0  -0.8611
  O  O63  1  0.483100  0.907800  0.805500  1.0  -0.8598
  O  O64  1  0.983100  0.407800  0.305500  1.0  -0.8598
  O  O65  1  0.516900  0.907800  0.194500  1.0  -0.8617
  O  O66  1  0.016900  0.407800  0.694500  1.0  -0.8617
  O  O67  1  0.483100  0.194500  0.092200  1.0  -0.8602
  O  O68  1  0.983100  0.694500  0.592200  1.0  -0.8602
  O  O69  1  0.516900  0.805500  0.092200  1.0  -0.8602
  O  O70  1  0.016900  0.305500  0.592200  1.0  -0.8602
  O  O71  1  0.483100  0.805500  0.907800  1.0  -0.8604
  O  O72  1  0.983100  0.305500  0.407800  1.0  -0.8604
  O  O73  1  0.516900  0.194500  0.907800  1.0  -0.8609
  O  O74  1  0.016900  0.694500  0.407800  1.0  -0.8609
  O  O75  1  0.194500  0.092200  0.483100  1.0  -0.8621
  O  O76  1  0.694500  0.592200  0.983100  1.0  -0.8621
  O  O77  1  0.805500  0.092200  0.516900  1.0  -0.8631
  O  O78  1  0.305500  0.592200  0.016900  1.0  -0.8631
  O  O79  1  0.805500  0.907800  0.483100  1.0  -0.8625
  O  O80  1  0.305500  0.407800  0.983100  1.0  -0.8625
  O  O81  1  0.194500  0.907800  0.516900  1.0  -0.8611
  O  O82  1  0.694500  0.407800  0.016900  1.0  -0.8611
  O  O83  1  0.092200  0.483100  0.194500  1.0  -0.8618
  O  O84  1  0.592200  0.983100  0.694500  1.0  -0.8618
  O  O85  1  0.092200  0.516900  0.805500  1.0  -0.8605
  O  O86  1  0.592200  0.016900  0.305500  1.0  -0.8605
  O  O87  1  0.907800  0.483100  0.805500  1.0  -0.8616
  O  O88  1  0.407800  0.983100  0.305500  1.0  -0.8616
  O  O89  1  0.907800  0.516900  0.194500  1.0  -0.8628
  O  O90  1  0.407800  0.016900  0.694500  1.0  -0.8628
  O  O91  1  0.144000  0.351300  0.144000  1.0  -0.5662
  O  O92  1  0.058100  0.435900  0.058100  1.0  -0.9259
  O  O93  1  0.644000  0.851300  0.644000  1.0  -0.5662
  O  O94  1  0.558100  0.935900  0.558100  1.0  -0.9259
  O  O95  1  0.856000  0.648700  0.144000  1.0  -0.568
  O  O96  1  0.941900  0.564100  0.058100  1.0  -0.9281
  O  O97  1  0.356000  0.148700  0.644000  1.0  -0.568
  O  O98  1  0.441900  0.064100  0.558100  1.0  -0.9281
  O  O99  1  0.856000  0.351300  0.856000  1.0  -0.5661
  O  O100  1  0.941900  0.435900  0.941900  1.0  -0.9281
  O  O101  1  0.356000  0.851300  0.356000  1.0  -0.5661
  O  O102  1  0.441900  0.935900  0.441900  1.0  -0.9281
  O  O103  1  0.144000  0.648700  0.856000  1.0  -0.5669
  O  O104  1  0.058100  0.564100  0.941900  1.0  -0.9298
  O  O105  1  0.644000  0.148700  0.356000  1.0  -0.5669
  O  O106  1  0.558100  0.064100  0.441900  1.0  -0.9298
  O  O107  1  0.144000  0.144000  0.351300  1.0  -0.5684
  O  O108  1  0.058100  0.058100  0.435900  1.0  -0.9193
  O  O109  1  0.644000  0.644000  0.851300  1.0  -0.5684
  O  O110  1  0.558100  0.558100  0.935900  1.0  -0.9193
  O  O111  1  0.144000  0.856000  0.648700  1.0  -0.5691
  O  O112  1  0.058100  0.941900  0.564100  1.0  -0.922
  O  O113  1  0.644000  0.356000  0.148700  1.0  -0.5691
  O  O114  1  0.558100  0.441900  0.064100  1.0  -0.922
  O  O115  1  0.856000  0.856000  0.351300  1.0  -0.5695
  O  O116  1  0.941900  0.941900  0.435900  1.0  -0.9198
  O  O117  1  0.356000  0.356000  0.851300  1.0  -0.5695
  O  O118  1  0.441900  0.441900  0.935900  1.0  -0.9198
  O  O119  1  0.856000  0.144000  0.648700  1.0  -0.5704
  O  O120  1  0.941900  0.058100  0.564100  1.0  -0.922
  O  O121  1  0.356000  0.644000  0.148700  1.0  -0.5704
  O  O122  1  0.441900  0.558100  0.064100  1.0  -0.922
  O  O123  1  0.351300  0.144000  0.144000  1.0  -0.5549
  O  O124  1  0.435900  0.058100  0.058100  1.0  -0.9266
  O  O125  1  0.851300  0.644000  0.644000  1.0  -0.5549
  O  O126  1  0.935900  0.558100  0.558100  1.0  -0.9266
  O  O127  1  0.648700  0.144000  0.856000  1.0  -0.561
  O  O128  1  0.564100  0.058100  0.941900  1.0  -0.9275
  O  O129  1  0.148700  0.644000  0.356000  1.0  -0.561
  O  O130  1  0.064100  0.558100  0.441900  1.0  -0.9275
  O  O131  1  0.351300  0.856000  0.856000  1.0  -0.5548
  O  O132  1  0.435900  0.941900  0.941900  1.0  -0.9282
  O  O133  1  0.851300  0.356000  0.356000  1.0  -0.5548
  O  O134  1  0.935900  0.441900  0.441900  1.0  -0.9282
  O  O135  1  0.648700  0.856000  0.144000  1.0  -0.563
  O  O136  1  0.564100  0.941900  0.058100  1.0  -0.9266
  O  O137  1  0.148700  0.356000  0.644000  1.0  -0.563
  O  O138  1  0.064100  0.441900  0.558100  1.0  -0.9266
