# generated using pymatgen
data_Al3(PO4)4
_symmetry_space_group_name_H-M   'P 1'
_cell_length_a   16.78870000
_cell_length_b   16.78870000
_cell_length_c   16.78870000
_cell_angle_alpha   90.00000000
_cell_angle_beta   90.00000000
_cell_angle_gamma   90.00000000
_symmetry_Int_Tables_number   1
_chemical_formula_structural   Al3(PO4)4
_chemical_formula_sum   'Al18 P24 O96'
_cell_volume   4732.07049813
_cell_formula_units_Z   6
loop_
 _symmetry_equiv_pos_site_id
 _symmetry_equiv_pos_as_xyz
  1  'x, y, z'
loop_
 _atom_site_type_symbol
 _atom_site_label
 _atom_site_symmetry_multiplicity
 _atom_site_fract_x
 _atom_site_fract_y
 _atom_site_fract_z
 _atom_site_occupancy
 _atom_site_charge
  Al  Al1  1  0.000000  0.500000  0.500000  1.0  1.9281
  Al  Al2  1  0.500000  0.000000  0.000000  1.0  1.9281
  Al  Al3  1  0.500000  0.000000  0.500000  1.0  1.9281
  Al  Al4  1  0.000000  0.500000  0.000000  1.0  1.9281
  Al  Al5  1  0.500000  0.500000  0.000000  1.0  1.9281
  Al  Al6  1  0.000000  0.000000  0.500000  1.0  1.9281
  Al  Al7  1  0.000000  0.500000  0.250000  1.0  1.7477
  Al  Al8  1  0.000000  0.500000  0.750000  1.0  1.7477
  Al  Al9  1  0.500000  0.000000  0.250000  1.0  1.7477
  Al  Al10  1  0.250000  0.000000  0.500000  1.0  1.7477
  Al  Al11  1  0.750000  0.000000  0.500000  1.0  1.7477
  Al  Al12  1  0.250000  0.500000  0.000000  1.0  1.7477
  Al  Al13  1  0.500000  0.250000  0.000000  1.0  1.7477
  Al  Al14  1  0.500000  0.750000  0.000000  1.0  1.7477
  Al  Al15  1  0.000000  0.250000  0.500000  1.0  1.7477
  Al  Al16  1  0.500000  0.000000  0.750000  1.0  1.7477
  Al  Al17  1  0.000000  0.750000  0.500000  1.0  1.7477
  Al  Al18  1  0.750000  0.500000  0.000000  1.0  1.7477
  P  P19  1  0.070500  0.622560  0.377440  1.0  1.7296
  P  P20  1  0.570500  0.122560  0.877440  1.0  1.7296
  P  P21  1  0.929500  0.377440  0.377440  1.0  1.7294
  P  P22  1  0.429500  0.877440  0.877440  1.0  1.7294
  P  P23  1  0.929500  0.622560  0.622560  1.0  1.7294
  P  P24  1  0.429500  0.122560  0.122560  1.0  1.7294
  P  P25  1  0.070500  0.377440  0.622560  1.0  1.731
  P  P26  1  0.570500  0.877440  0.122560  1.0  1.731
  P  P27  1  0.377440  0.070500  0.622560  1.0  1.7299
  P  P28  1  0.877440  0.570500  0.122560  1.0  1.7299
  P  P29  1  0.377440  0.929500  0.377440  1.0  1.7296
  P  P30  1  0.877440  0.429500  0.877440  1.0  1.7296
  P  P31  1  0.622560  0.929500  0.622560  1.0  1.7303
  P  P32  1  0.122560  0.429500  0.122560  1.0  1.7303
  P  P33  1  0.622560  0.070500  0.377440  1.0  1.7299
  P  P34  1  0.122560  0.570500  0.877440  1.0  1.7299
  P  P35  1  0.622560  0.377440  0.070500  1.0  1.7296
  P  P36  1  0.122560  0.877440  0.570500  1.0  1.7296
  P  P37  1  0.377440  0.377440  0.929500  1.0  1.7289
  P  P38  1  0.877440  0.877440  0.429500  1.0  1.7289
  P  P39  1  0.622560  0.622560  0.929500  1.0  1.7281
  P  P40  1  0.122560  0.122560  0.429500  1.0  1.7281
  P  P41  1  0.377440  0.622560  0.070500  1.0  1.7284
  P  P42  1  0.877440  0.122560  0.570500  1.0  1.7284
  O  O43  1  0.024600  0.593800  0.304720  1.0  -0.788
  O  O44  1  0.524600  0.093800  0.804720  1.0  -0.788
  O  O45  1  0.975400  0.406200  0.304720  1.0  -0.7866
  O  O46  1  0.475400  0.906200  0.804720  1.0  -0.7866
  O  O47  1  0.975400  0.593800  0.695280  1.0  -0.7882
  O  O48  1  0.475400  0.093800  0.195280  1.0  -0.7882
  O  O49  1  0.024600  0.406200  0.695280  1.0  -0.7897
  O  O50  1  0.524600  0.906200  0.195280  1.0  -0.7897
  O  O51  1  0.304720  0.024600  0.593800  1.0  -0.7858
  O  O52  1  0.804720  0.524600  0.093800  1.0  -0.7858
  O  O53  1  0.304720  0.975400  0.406200  1.0  -0.7863
  O  O54  1  0.804720  0.475400  0.906200  1.0  -0.7863
  O  O55  1  0.695280  0.975400  0.593800  1.0  -0.7847
  O  O56  1  0.195280  0.475400  0.093800  1.0  -0.7847
  O  O57  1  0.695280  0.024600  0.406200  1.0  -0.7854
  O  O58  1  0.195280  0.524600  0.906200  1.0  -0.7854
  O  O59  1  0.593800  0.304720  0.024600  1.0  -0.787
  O  O60  1  0.093800  0.804720  0.524600  1.0  -0.787
  O  O61  1  0.406200  0.304720  0.975400  1.0  -0.7881
  O  O62  1  0.906200  0.804720  0.475400  1.0  -0.7881
  O  O63  1  0.593800  0.695280  0.975400  1.0  -0.7879
  O  O64  1  0.093800  0.195280  0.475400  1.0  -0.7879
  O  O65  1  0.406200  0.695280  0.024600  1.0  -0.7884
  O  O66  1  0.906200  0.195280  0.524600  1.0  -0.7884
  O  O67  1  0.593800  0.024600  0.304720  1.0  -0.7863
  O  O68  1  0.093800  0.524600  0.804720  1.0  -0.7863
  O  O69  1  0.406200  0.975400  0.304720  1.0  -0.7866
  O  O70  1  0.906200  0.475400  0.804720  1.0  -0.7866
  O  O71  1  0.593800  0.975400  0.695280  1.0  -0.7877
  O  O72  1  0.093800  0.475400  0.195280  1.0  -0.7877
  O  O73  1  0.406200  0.024600  0.695280  1.0  -0.7885
  O  O74  1  0.906200  0.524600  0.195280  1.0  -0.7885
  O  O75  1  0.024600  0.304720  0.593800  1.0  -0.7866
  O  O76  1  0.524600  0.804720  0.093800  1.0  -0.7866
  O  O77  1  0.975400  0.304720  0.406200  1.0  -0.7867
  O  O78  1  0.475400  0.804720  0.906200  1.0  -0.7867
  O  O79  1  0.975400  0.695280  0.593800  1.0  -0.7861
  O  O80  1  0.475400  0.195280  0.093800  1.0  -0.7861
  O  O81  1  0.024600  0.695280  0.406200  1.0  -0.7888
  O  O82  1  0.524600  0.195280  0.906200  1.0  -0.7888
  O  O83  1  0.304720  0.593800  0.024600  1.0  -0.7874
  O  O84  1  0.804720  0.093800  0.524600  1.0  -0.7874
  O  O85  1  0.304720  0.406200  0.975400  1.0  -0.7877
  O  O86  1  0.804720  0.906200  0.475400  1.0  -0.7877
  O  O87  1  0.695280  0.593800  0.975400  1.0  -0.7865
  O  O88  1  0.195280  0.093800  0.475400  1.0  -0.7865
  O  O89  1  0.695280  0.406200  0.024600  1.0  -0.7868
  O  O90  1  0.195280  0.906200  0.524600  1.0  -0.7868
  O  O91  1  0.156100  0.642100  0.357900  1.0  -0.5715
  O  O92  1  0.067400  0.558000  0.442000  1.0  -0.9388
  O  O93  1  0.656100  0.142100  0.857900  1.0  -0.5715
  O  O94  1  0.567400  0.058000  0.942000  1.0  -0.9388
  O  O95  1  0.843900  0.357900  0.357900  1.0  -0.5641
  O  O96  1  0.932600  0.442000  0.442000  1.0  -0.9397
  O  O97  1  0.343900  0.857900  0.857900  1.0  -0.5641
  O  O98  1  0.432600  0.942000  0.942000  1.0  -0.9397
  O  O99  1  0.843900  0.642100  0.642100  1.0  -0.5643
  O  O100  1  0.932600  0.558000  0.558000  1.0  -0.9389
  O  O101  1  0.343900  0.142100  0.142100  1.0  -0.5643
  O  O102  1  0.432600  0.058000  0.058000  1.0  -0.9389
  O  O103  1  0.156100  0.357900  0.642100  1.0  -0.5732
  O  O104  1  0.067400  0.442000  0.558000  1.0  -0.938
  O  O105  1  0.656100  0.857900  0.142100  1.0  -0.5732
  O  O106  1  0.567400  0.942000  0.058000  1.0  -0.938
  O  O107  1  0.357900  0.156100  0.642100  1.0  -0.5779
  O  O108  1  0.442000  0.067400  0.558000  1.0  -0.9392
  O  O109  1  0.857900  0.656100  0.142100  1.0  -0.5779
  O  O110  1  0.942000  0.567400  0.058000  1.0  -0.9392
  O  O111  1  0.357900  0.843900  0.357900  1.0  -0.5764
  O  O112  1  0.442000  0.932600  0.442000  1.0  -0.9385
  O  O113  1  0.857900  0.343900  0.857900  1.0  -0.5764
  O  O114  1  0.942000  0.432600  0.942000  1.0  -0.9385
  O  O115  1  0.642100  0.843900  0.642100  1.0  -0.5774
  O  O116  1  0.558000  0.932600  0.558000  1.0  -0.9388
  O  O117  1  0.142100  0.343900  0.142100  1.0  -0.5774
  O  O118  1  0.058000  0.432600  0.058000  1.0  -0.9388
  O  O119  1  0.642100  0.156100  0.357900  1.0  -0.5777
  O  O120  1  0.558000  0.067400  0.442000  1.0  -0.9394
  O  O121  1  0.142100  0.656100  0.857900  1.0  -0.5777
  O  O122  1  0.058000  0.567400  0.942000  1.0  -0.9394
  O  O123  1  0.642100  0.357900  0.156100  1.0  -0.5785
  O  O124  1  0.558000  0.442000  0.067400  1.0  -0.9326
  O  O125  1  0.142100  0.857900  0.656100  1.0  -0.5785
  O  O126  1  0.058000  0.942000  0.567400  1.0  -0.9326
  O  O127  1  0.357900  0.357900  0.843900  1.0  -0.5776
  O  O128  1  0.442000  0.442000  0.932600  1.0  -0.9309
  O  O129  1  0.857900  0.857900  0.343900  1.0  -0.5776
  O  O130  1  0.942000  0.942000  0.432600  1.0  -0.9309
  O  O131  1  0.642100  0.642100  0.843900  1.0  -0.5778
  O  O132  1  0.558000  0.558000  0.932600  1.0  -0.9314
  O  O133  1  0.142100  0.142100  0.343900  1.0  -0.5778
  O  O134  1  0.058000  0.058000  0.432600  1.0  -0.9314
  O  O135  1  0.357900  0.642100  0.156100  1.0  -0.5792
  O  O136  1  0.442000  0.558000  0.067400  1.0  -0.9309
  O  O137  1  0.857900  0.142100  0.656100  1.0  -0.5792
  O  O138  1  0.942000  0.058000  0.567400  1.0  -0.9309
