# generated using pymatgen
data_Zn2Ga(PO4)4
_symmetry_space_group_name_H-M   'P 1'
_cell_length_a   16.83750000
_cell_length_b   16.83750000
_cell_length_c   16.83750000
_cell_angle_alpha   90.00000000
_cell_angle_beta   90.00000000
_cell_angle_gamma   90.00000000
_symmetry_Int_Tables_number   1
_chemical_formula_structural   Zn2Ga(PO4)4
_chemical_formula_sum   'Zn12 Ga6 P24 O96'
_cell_volume   4773.45492773
_cell_formula_units_Z   6
loop_
 _symmetry_equiv_pos_site_id
 _symmetry_equiv_pos_as_xyz
  1  'x, y, z'
loop_
 _atom_site_type_symbol
 _atom_site_label
 _atom_site_symmetry_multiplicity
 _atom_site_fract_x
 _atom_site_fract_y
 _atom_site_fract_z
 _atom_site_occupancy
 _atom_site_charge
  Zn  Zn1  1  0.750000  0.500000  0.000000  1.0  1.1662
  Zn  Zn2  1  0.250000  0.500000  0.000000  1.0  1.1662
  Zn  Zn3  1  0.000000  0.750000  0.500000  1.0  1.1662
  Zn  Zn4  1  0.000000  0.250000  0.500000  1.0  1.1662
  Zn  Zn5  1  0.500000  0.000000  0.750000  1.0  1.1662
  Zn  Zn6  1  0.500000  0.000000  0.250000  1.0  1.1662
  Zn  Zn7  1  0.500000  0.750000  0.000000  1.0  1.1662
  Zn  Zn8  1  0.500000  0.250000  0.000000  1.0  1.1662
  Zn  Zn9  1  0.750000  0.000000  0.500000  1.0  1.1662
  Zn  Zn10  1  0.250000  0.000000  0.500000  1.0  1.1662
  Zn  Zn11  1  0.000000  0.500000  0.750000  1.0  1.1662
  Zn  Zn12  1  0.000000  0.500000  0.250000  1.0  1.1662
  Ga  Ga13  1  0.000000  0.500000  0.000000  1.0  1.666
  Ga  Ga14  1  0.500000  0.000000  0.500000  1.0  1.666
  Ga  Ga15  1  0.000000  0.000000  0.500000  1.0  1.666
  Ga  Ga16  1  0.500000  0.500000  0.000000  1.0  1.666
  Ga  Ga17  1  0.500000  0.000000  0.000000  1.0  1.666
  Ga  Ga18  1  0.000000  0.500000  0.500000  1.0  1.666
  P  P19  1  0.876380  0.566480  0.876380  1.0  1.7064
  P  P20  1  0.376380  0.066480  0.376380  1.0  1.7064
  P  P21  1  0.123620  0.433520  0.876380  1.0  1.7075
  P  P22  1  0.623620  0.933520  0.376380  1.0  1.7075
  P  P23  1  0.123620  0.566480  0.123620  1.0  1.7072
  P  P24  1  0.623620  0.066480  0.623620  1.0  1.7072
  P  P25  1  0.876380  0.433520  0.123620  1.0  1.707
  P  P26  1  0.376380  0.933520  0.623620  1.0  1.707
  P  P27  1  0.876380  0.876380  0.566480  1.0  1.7063
  P  P28  1  0.376380  0.376380  0.066480  1.0  1.7063
  P  P29  1  0.876380  0.123620  0.433520  1.0  1.7045
  P  P30  1  0.376380  0.623620  0.933520  1.0  1.7045
  P  P31  1  0.123620  0.123620  0.566480  1.0  1.7059
  P  P32  1  0.623620  0.623620  0.066480  1.0  1.7059
  P  P33  1  0.123620  0.876380  0.433520  1.0  1.7062
  P  P34  1  0.623620  0.376380  0.933520  1.0  1.7062
  P  P35  1  0.566480  0.876380  0.876380  1.0  1.7072
  P  P36  1  0.066480  0.376380  0.376380  1.0  1.7072
  P  P37  1  0.433520  0.876380  0.123620  1.0  1.7063
  P  P38  1  0.933520  0.376380  0.623620  1.0  1.7063
  P  P39  1  0.566480  0.123620  0.123620  1.0  1.7062
  P  P40  1  0.066480  0.623620  0.623620  1.0  1.7062
  P  P41  1  0.433520  0.123620  0.876380  1.0  1.7051
  P  P42  1  0.933520  0.623620  0.376380  1.0  1.7051
  O  O43  1  0.804970  0.517830  0.906020  1.0  -0.7276
  O  O44  1  0.304970  0.017830  0.406020  1.0  -0.7276
  O  O45  1  0.195030  0.482170  0.906020  1.0  -0.7262
  O  O46  1  0.695030  0.982170  0.406020  1.0  -0.7262
  O  O47  1  0.195030  0.517830  0.093980  1.0  -0.7272
  O  O48  1  0.695030  0.017830  0.593980  1.0  -0.7272
  O  O49  1  0.804970  0.482170  0.093980  1.0  -0.7276
  O  O50  1  0.304970  0.982170  0.593980  1.0  -0.7276
  O  O51  1  0.906020  0.804970  0.517830  1.0  -0.7291
  O  O52  1  0.406020  0.304970  0.017830  1.0  -0.7291
  O  O53  1  0.906020  0.195030  0.482170  1.0  -0.7304
  O  O54  1  0.406020  0.695030  0.982170  1.0  -0.7304
  O  O55  1  0.093980  0.195030  0.517830  1.0  -0.7296
  O  O56  1  0.593980  0.695030  0.017830  1.0  -0.7296
  O  O57  1  0.093980  0.804970  0.482170  1.0  -0.7285
  O  O58  1  0.593980  0.304970  0.982170  1.0  -0.7285
  O  O59  1  0.517830  0.906020  0.804970  1.0  -0.7285
  O  O60  1  0.017830  0.406020  0.304970  1.0  -0.7285
  O  O61  1  0.482170  0.906020  0.195030  1.0  -0.7288
  O  O62  1  0.982170  0.406020  0.695030  1.0  -0.7288
  O  O63  1  0.517830  0.093980  0.195030  1.0  -0.7312
  O  O64  1  0.017830  0.593980  0.695030  1.0  -0.7312
  O  O65  1  0.482170  0.093980  0.804970  1.0  -0.7278
  O  O66  1  0.982170  0.593980  0.304970  1.0  -0.7278
  O  O67  1  0.517830  0.804970  0.906020  1.0  -0.7263
  O  O68  1  0.017830  0.304970  0.406020  1.0  -0.7263
  O  O69  1  0.482170  0.195030  0.906020  1.0  -0.7251
  O  O70  1  0.982170  0.695030  0.406020  1.0  -0.7251
  O  O71  1  0.517830  0.195030  0.093980  1.0  -0.7272
  O  O72  1  0.017830  0.695030  0.593980  1.0  -0.7272
  O  O73  1  0.482170  0.804970  0.093980  1.0  -0.7249
  O  O74  1  0.982170  0.304970  0.593980  1.0  -0.7249
  O  O75  1  0.804970  0.906020  0.517830  1.0  -0.7268
  O  O76  1  0.304970  0.406020  0.017830  1.0  -0.7268
  O  O77  1  0.195030  0.906020  0.482170  1.0  -0.7262
  O  O78  1  0.695030  0.406020  0.982170  1.0  -0.7262
  O  O79  1  0.195030  0.093980  0.517830  1.0  -0.7271
  O  O80  1  0.695030  0.593980  0.017830  1.0  -0.7271
  O  O81  1  0.804970  0.093980  0.482170  1.0  -0.7278
  O  O82  1  0.304970  0.593980  0.982170  1.0  -0.7278
  O  O83  1  0.906020  0.517830  0.804970  1.0  -0.729
  O  O84  1  0.406020  0.017830  0.304970  1.0  -0.729
  O  O85  1  0.906020  0.482170  0.195030  1.0  -0.73
  O  O86  1  0.406020  0.982170  0.695030  1.0  -0.73
  O  O87  1  0.093980  0.517830  0.195030  1.0  -0.7294
  O  O88  1  0.593980  0.017830  0.695030  1.0  -0.7294
  O  O89  1  0.093980  0.482170  0.804970  1.0  -0.7275
  O  O90  1  0.593980  0.982170  0.304970  1.0  -0.7275
  O  O91  1  0.852850  0.650020  0.852850  1.0  -0.5416
  O  O92  1  0.940720  0.570990  0.940720  1.0  -0.7123
  O  O93  1  0.352850  0.150020  0.352850  1.0  -0.5416
  O  O94  1  0.440720  0.070990  0.440720  1.0  -0.7123
  O  O95  1  0.147150  0.349980  0.852850  1.0  -0.5396
  O  O96  1  0.059280  0.429010  0.940720  1.0  -0.7131
  O  O97  1  0.647150  0.849980  0.352850  1.0  -0.5396
  O  O98  1  0.559280  0.929010  0.440720  1.0  -0.7131
  O  O99  1  0.147150  0.650020  0.147150  1.0  -0.5411
  O  O100  1  0.059280  0.570990  0.059280  1.0  -0.7138
  O  O101  1  0.647150  0.150020  0.647150  1.0  -0.5411
  O  O102  1  0.559280  0.070990  0.559280  1.0  -0.7138
  O  O103  1  0.852850  0.349980  0.147150  1.0  -0.5407
  O  O104  1  0.940720  0.429010  0.059280  1.0  -0.7103
  O  O105  1  0.352850  0.849980  0.647150  1.0  -0.5407
  O  O106  1  0.440720  0.929010  0.559280  1.0  -0.7103
  O  O107  1  0.852850  0.852850  0.650020  1.0  -0.5422
  O  O108  1  0.940720  0.940720  0.570990  1.0  -0.7095
  O  O109  1  0.352850  0.352850  0.150020  1.0  -0.5422
  O  O110  1  0.440720  0.440720  0.070990  1.0  -0.7095
  O  O111  1  0.852850  0.147150  0.349980  1.0  -0.542
  O  O112  1  0.940720  0.059280  0.429010  1.0  -0.7056
  O  O113  1  0.352850  0.647150  0.849980  1.0  -0.542
  O  O114  1  0.440720  0.559280  0.929010  1.0  -0.7056
  O  O115  1  0.147150  0.147150  0.650020  1.0  -0.5412
  O  O116  1  0.059280  0.059280  0.570990  1.0  -0.7107
  O  O117  1  0.647150  0.647150  0.150020  1.0  -0.5412
  O  O118  1  0.559280  0.559280  0.070990  1.0  -0.7107
  O  O119  1  0.147150  0.852850  0.349980  1.0  -0.5424
  O  O120  1  0.059280  0.940720  0.429010  1.0  -0.7052
  O  O121  1  0.647150  0.352850  0.849980  1.0  -0.5424
  O  O122  1  0.559280  0.440720  0.929010  1.0  -0.7052
  O  O123  1  0.650020  0.852850  0.852850  1.0  -0.5366
  O  O124  1  0.570990  0.940720  0.940720  1.0  -0.7118
  O  O125  1  0.150020  0.352850  0.352850  1.0  -0.5366
  O  O126  1  0.070990  0.440720  0.440720  1.0  -0.7118
  O  O127  1  0.349980  0.852850  0.147150  1.0  -0.5336
  O  O128  1  0.429010  0.940720  0.059280  1.0  -0.7137
  O  O129  1  0.849980  0.352850  0.647150  1.0  -0.5336
  O  O130  1  0.929010  0.440720  0.559280  1.0  -0.7137
  O  O131  1  0.650020  0.147150  0.147150  1.0  -0.5369
  O  O132  1  0.570990  0.059280  0.059280  1.0  -0.7111
  O  O133  1  0.150020  0.647150  0.647150  1.0  -0.5369
  O  O134  1  0.070990  0.559280  0.559280  1.0  -0.7111
  O  O135  1  0.349980  0.147150  0.852850  1.0  -0.5321
  O  O136  1  0.429010  0.059280  0.940720  1.0  -0.7143
  O  O137  1  0.849980  0.647150  0.352850  1.0  -0.5321
  O  O138  1  0.929010  0.559280  0.440720  1.0  -0.7143
