# generated using pymatgen
data_Zn5H16(C3O2)8
_symmetry_space_group_name_H-M   'P 1'
_cell_length_a   6.40500000
_cell_length_b   14.16400000
_cell_length_c   20.09800000
_cell_angle_alpha   90.00000000
_cell_angle_beta   95.29000000
_cell_angle_gamma   90.00000000
_symmetry_Int_Tables_number   1
_chemical_formula_structural   Zn5H16(C3O2)8
_chemical_formula_sum   'Zn10 H32 C48 O32'
_cell_volume   1815.53321467
_cell_formula_units_Z   2
loop_
 _symmetry_equiv_pos_site_id
 _symmetry_equiv_pos_as_xyz
  1  'x, y, z'
loop_
 _atom_site_type_symbol
 _atom_site_label
 _atom_site_symmetry_multiplicity
 _atom_site_fract_x
 _atom_site_fract_y
 _atom_site_fract_z
 _atom_site_occupancy
 _atom_site_charge
  Zn  Zn1  1  0.985540  0.192860  0.941850  1.0  1.0687
  Zn  Zn2  1  0.514520  0.601970  0.543920  1.0  1.1441
  Zn  Zn3  1  0.014460  0.692860  0.558150  1.0  1.0705
  Zn  Zn4  1  0.485480  0.101970  0.956080  1.0  1.1442
  Zn  Zn5  1  0.014460  0.807140  0.058150  1.0  1.0702
  Zn  Zn6  1  0.485480  0.398030  0.456080  1.0  1.1441
  Zn  Zn7  1  0.985540  0.307140  0.441850  1.0  1.068
  Zn  Zn8  1  0.514520  0.898030  0.043920  1.0  1.1434
  Zn  Zn9  1  0.000000  0.500000  0.500000  1.0  1.0882
  Zn  Zn10  1  0.000000  0.000000  0.000000  1.0  1.0882
  H  H11  1  0.136200  0.297400  0.675300  1.0  0.1007
  H  H12  1  0.262300  0.216400  0.771400  1.0  0.103
  H  H13  1  0.837100  0.323000  0.754800  1.0  0.1045
  H  H14  1  0.714800  0.397300  0.656500  1.0  0.0933
  H  H15  1  0.711300  0.374500  0.973600  1.0  0.1016
  H  H16  1  0.155300  0.473500  0.019900  1.0  0.1003
  H  H17  1  0.222000  0.631000  0.472000  1.0  0.4682
  H  H18  1  0.842000  0.574000  0.598400  1.0  0.4702
  H  H19  1  0.863800  0.797400  0.824700  1.0  0.1001
  H  H20  1  0.737700  0.716400  0.728600  1.0  0.1032
  H  H21  1  0.162900  0.823000  0.745200  1.0  0.105
  H  H22  1  0.285200  0.897300  0.843500  1.0  0.0927
  H  H23  1  0.288700  0.874500  0.526400  1.0  0.1013
  H  H24  1  0.844700  0.973500  0.480100  1.0  0.1003
  H  H25  1  0.778000  0.131000  0.028000  1.0  0.4688
  H  H26  1  0.158000  0.074000  0.901600  1.0  0.4733
  H  H27  1  0.863800  0.702600  0.324700  1.0  0.0999
  H  H28  1  0.737700  0.783600  0.228600  1.0  0.1033
  H  H29  1  0.162900  0.677000  0.245200  1.0  0.105
  H  H30  1  0.285200  0.602700  0.343500  1.0  0.0929
  H  H31  1  0.288700  0.625500  0.026400  1.0  0.1016
  H  H32  1  0.844700  0.526500  0.980100  1.0  0.1006
  H  H33  1  0.778000  0.369000  0.528000  1.0  0.469
  H  H34  1  0.158000  0.426000  0.401600  1.0  0.4734
  H  H35  1  0.136200  0.202600  0.175300  1.0  0.1009
  H  H36  1  0.262300  0.283600  0.271400  1.0  0.1031
  H  H37  1  0.837100  0.177000  0.254800  1.0  0.1051
  H  H38  1  0.714800  0.102700  0.156500  1.0  0.0934
  H  H39  1  0.711300  0.125500  0.473600  1.0  0.1015
  H  H40  1  0.155300  0.026500  0.519900  1.0  0.1006
  H  H41  1  0.222000  0.869000  0.972000  1.0  0.4683
  H  H42  1  0.842000  0.926000  0.098400  1.0  0.4696
  C  C43  1  0.331200  0.414700  0.596010  1.0  0.6997
  C  C44  1  0.411700  0.357500  0.655950  1.0  -0.1287
  C  C45  1  0.277100  0.302200  0.690900  1.0  -0.0532
  C  C46  1  0.352500  0.253800  0.749000  1.0  -0.0544
  C  C47  1  0.563600  0.261700  0.773390  1.0  -0.1234
  C  C48  1  0.696900  0.316800  0.738600  1.0  -0.0531
  C  C49  1  0.622500  0.362700  0.680000  1.0  -0.0426
  C  C50  1  0.644500  0.214100  0.837570  1.0  0.7115
  C  C51  1  0.325900  0.309800  0.989330  1.0  0.7173
  C  C52  1  0.417900  0.408100  0.995900  1.0  -0.1335
  C  C53  1  0.626200  0.424500  0.984100  1.0  -0.0543
  C  C54  1  0.294000  0.484000  0.011800  1.0  -0.0553
  C  C55  1  0.668800  0.914700  0.903990  1.0  0.7008
  C  C56  1  0.588300  0.857500  0.844050  1.0  -0.1283
  C  C57  1  0.722900  0.802200  0.809100  1.0  -0.054
  C  C58  1  0.647500  0.753800  0.751000  1.0  -0.0546
  C  C59  1  0.436400  0.761700  0.726610  1.0  -0.1243
  C  C60  1  0.303100  0.816800  0.761400  1.0  -0.0533
  C  C61  1  0.377500  0.862700  0.820000  1.0  -0.0448
  C  C62  1  0.355500  0.714100  0.662430  1.0  0.7114
  C  C63  1  0.674100  0.809800  0.510670  1.0  0.717
  C  C64  1  0.582100  0.908100  0.504100  1.0  -0.1329
  C  C65  1  0.373800  0.924500  0.515900  1.0  -0.053
  C  C66  1  0.706000  0.984000  0.488200  1.0  -0.0559
  C  C67  1  0.668800  0.585300  0.403990  1.0  0.7002
  C  C68  1  0.588300  0.642500  0.344050  1.0  -0.1284
  C  C69  1  0.722900  0.697800  0.309100  1.0  -0.0541
  C  C70  1  0.647500  0.746200  0.251000  1.0  -0.0536
  C  C71  1  0.436400  0.738300  0.226610  1.0  -0.1235
  C  C72  1  0.303100  0.683200  0.261400  1.0  -0.0536
  C  C73  1  0.377500  0.637300  0.320000  1.0  -0.0449
  C  C74  1  0.355500  0.785900  0.162430  1.0  0.7118
  C  C75  1  0.674100  0.690200  0.010670  1.0  0.7167
  C  C76  1  0.582100  0.591900  0.004100  1.0  -0.1324
  C  C77  1  0.373800  0.575500  0.015900  1.0  -0.05
  C  C78  1  0.706000  0.516000  0.988200  1.0  -0.0557
  C  C79  1  0.331200  0.085300  0.096010  1.0  0.6994
  C  C80  1  0.411700  0.142500  0.155950  1.0  -0.1287
  C  C81  1  0.277100  0.197800  0.190900  1.0  -0.0531
  C  C82  1  0.352500  0.246200  0.249000  1.0  -0.0537
  C  C83  1  0.563600  0.238300  0.273390  1.0  -0.1234
  C  C84  1  0.696900  0.183200  0.238600  1.0  -0.0532
  C  C85  1  0.622500  0.137300  0.180000  1.0  -0.0431
  C  C86  1  0.644500  0.285900  0.337570  1.0  0.7117
  C  C87  1  0.325900  0.190200  0.489330  1.0  0.717
  C  C88  1  0.417900  0.091900  0.495900  1.0  -0.1331
  C  C89  1  0.626200  0.075500  0.484100  1.0  -0.0511
  C  C90  1  0.294000  0.016000  0.511800  1.0  -0.0555
  O  O91  1  0.466900  0.452540  0.561580  1.0  -0.68
  O  O92  1  0.136800  0.423240  0.583410  1.0  -0.5802
  O  O93  1  0.824400  0.240540  0.862110  1.0  -0.6126
  O  O94  1  0.532900  0.151400  0.861320  1.0  -0.6294
  O  O95  1  0.449800  0.242000  0.992180  1.0  -0.6269
  O  O96  1  0.127000  0.304300  0.980290  1.0  -0.6065
  O  O97  1  0.206300  0.616870  0.508180  1.0  -1.0065
  O  O98  1  0.826400  0.583580  0.566430  1.0  -0.9906
  O  O99  1  0.533100  0.952540  0.938420  1.0  -0.6794
  O  O100  1  0.863200  0.923240  0.916590  1.0  -0.5797
  O  O101  1  0.175600  0.740540  0.637890  1.0  -0.6132
  O  O102  1  0.467100  0.651400  0.638680  1.0  -0.6294
  O  O103  1  0.550200  0.742000  0.507820  1.0  -0.6264
  O  O104  1  0.873000  0.804300  0.519710  1.0  -0.6047
  O  O105  1  0.793700  0.116870  0.991820  1.0  -1.0079
  O  O106  1  0.173600  0.083580  0.933570  1.0  -0.991
  O  O107  1  0.533100  0.547460  0.438420  1.0  -0.6794
  O  O108  1  0.863200  0.576760  0.416590  1.0  -0.5798
  O  O109  1  0.175600  0.759460  0.137890  1.0  -0.6133
  O  O110  1  0.467100  0.848600  0.138680  1.0  -0.6285
  O  O111  1  0.550200  0.758000  0.007820  1.0  -0.6265
  O  O112  1  0.873000  0.695700  0.019710  1.0  -0.6047
  O  O113  1  0.793700  0.383130  0.491820  1.0  -1.0086
  O  O114  1  0.173600  0.416420  0.433570  1.0  -0.9904
  O  O115  1  0.466900  0.047460  0.061580  1.0  -0.6801
  O  O116  1  0.136800  0.076760  0.083410  1.0  -0.5803
  O  O117  1  0.824400  0.259460  0.362110  1.0  -0.6125
  O  O118  1  0.532900  0.348600  0.361320  1.0  -0.6295
  O  O119  1  0.449800  0.258000  0.492180  1.0  -0.6265
  O  O120  1  0.127000  0.195700  0.480290  1.0  -0.6065
  O  O121  1  0.206300  0.883130  0.008180  1.0  -1.0067
  O  O122  1  0.826400  0.916420  0.066430  1.0  -0.9905
