# generated using pymatgen
data_Zn3H8C12N2(OF)4
_symmetry_space_group_name_H-M   'P 1'
_cell_length_a   8.14710000
_cell_length_b   11.69770000
_cell_length_c   11.69770000
_cell_angle_alpha   109.55300000
_cell_angle_beta   104.73400000
_cell_angle_gamma   75.26580000
_symmetry_Int_Tables_number   1
_chemical_formula_structural   Zn3H8C12N2(OF)4
_chemical_formula_sum   'Zn6 H16 C24 N4 O8 F8'
_cell_volume   998.31745079
_cell_formula_units_Z   2
loop_
 _symmetry_equiv_pos_site_id
 _symmetry_equiv_pos_as_xyz
  1  'x, y, z'
loop_
 _atom_site_type_symbol
 _atom_site_label
 _atom_site_symmetry_multiplicity
 _atom_site_fract_x
 _atom_site_fract_y
 _atom_site_fract_z
 _atom_site_occupancy
 _atom_site_charge
  Zn  Zn1  1  0.436870  0.078630  0.900230  1.0  1.0252
  Zn  Zn2  1  0.063130  0.900230  0.078630  1.0  1.0244
  Zn  Zn3  1  0.563130  0.921370  0.099770  1.0  1.025
  Zn  Zn4  1  0.936870  0.099770  0.921370  1.0  1.0243
  Zn  Zn5  1  0.750000  0.131980  0.131980  1.0  1.054
  Zn  Zn6  1  0.250000  0.868020  0.868020  1.0  1.0533
  H  H7  1  0.766000  0.689100  0.964900  1.0  0.0891
  H  H8  1  0.520900  0.742800  0.229600  1.0  0.0778
  H  H9  1  0.596500  0.537500  0.220100  1.0  0.1285
  H  H10  1  0.841800  0.482100  0.945100  1.0  0.1208
  H  H11  1  0.734000  0.964900  0.689100  1.0  0.0872
  H  H12  1  0.979100  0.229600  0.742800  1.0  0.0778
  H  H13  1  0.903500  0.220100  0.537500  1.0  0.1301
  H  H14  1  0.658200  0.945100  0.482100  1.0  0.1194
  H  H15  1  0.234000  0.310900  0.035100  1.0  0.089
  H  H16  1  0.479100  0.257200  0.770400  1.0  0.0785
  H  H17  1  0.403500  0.462500  0.779900  1.0  0.1293
  H  H18  1  0.158200  0.517900  0.054900  1.0  0.1205
  H  H19  1  0.266000  0.035100  0.310900  1.0  0.0876
  H  H20  1  0.020900  0.770400  0.257200  1.0  0.0786
  H  H21  1  0.096500  0.779900  0.462500  1.0  0.1301
  H  H22  1  0.341800  0.054900  0.517900  1.0  0.1193
  C  C23  1  0.730700  0.658150  0.016450  1.0  0.1705
  C  C24  1  0.587600  0.689650  0.172350  1.0  0.1712
  C  C25  1  0.632000  0.566230  0.166970  1.0  -0.1465
  C  C26  1  0.777800  0.533720  0.004680  1.0  -0.1393
  C  C27  1  0.729700  0.485920  0.081680  1.0  -0.0342
  C  C28  1  0.780500  0.348830  0.069770  1.0  0.6641
  C  C29  1  0.769300  0.016450  0.658150  1.0  0.171
  C  C30  1  0.912400  0.172350  0.689650  1.0  0.1704
  C  C31  1  0.868000  0.166970  0.566230  1.0  -0.1478
  C  C32  1  0.722200  0.004680  0.533720  1.0  -0.138
  C  C33  1  0.770300  0.081680  0.485920  1.0  -0.0342
  C  C34  1  0.719500  0.069770  0.348830  1.0  0.6676
  C  C35  1  0.269300  0.341850  0.983550  1.0  0.1706
  C  C36  1  0.412400  0.310350  0.827650  1.0  0.1704
  C  C37  1  0.368000  0.433770  0.833030  1.0  -0.146
  C  C38  1  0.222200  0.466280  0.995320  1.0  -0.1386
  C  C39  1  0.270300  0.514080  0.918320  1.0  -0.034
  C  C40  1  0.219500  0.651170  0.930230  1.0  0.6632
  C  C41  1  0.230700  0.983550  0.341850  1.0  0.1716
  C  C42  1  0.087600  0.827650  0.310350  1.0  0.1693
  C  C43  1  0.132000  0.833030  0.433770  1.0  -0.1469
  C  C44  1  0.277800  0.995320  0.466280  1.0  -0.1396
  C  C45  1  0.229700  0.918320  0.514080  1.0  -0.0379
  C  C46  1  0.280500  0.930230  0.651170  1.0  0.6673
  N  N47  1  0.636500  0.736320  0.098740  1.0  -0.3342
  N  N48  1  0.863500  0.098740  0.736320  1.0  -0.3364
  N  N49  1  0.363500  0.263680  0.901260  1.0  -0.3336
  N  N50  1  0.136500  0.901260  0.263680  1.0  -0.3378
  O  O51  1  0.722000  0.311050  0.137330  1.0  -0.5837
  O  O52  1  0.875300  0.286890  0.992130  1.0  -0.6001
  O  O53  1  0.778000  0.137330  0.311050  1.0  -0.5815
  O  O54  1  0.624700  0.992130  0.286890  1.0  -0.5999
  O  O55  1  0.278000  0.688950  0.862670  1.0  -0.5842
  O  O56  1  0.124700  0.713110  0.007870  1.0  -0.6007
  O  O57  1  0.222000  0.862670  0.688950  1.0  -0.583
  O  O58  1  0.375300  0.007870  0.713110  1.0  -0.6
  F  F59  1  0.505000  0.108840  0.090520  1.0  -0.5483
  F  F60  1  0.691400  0.085300  0.925560  1.0  -0.5861
  F  F61  1  0.995000  0.090520  0.108840  1.0  -0.5489
  F  F62  1  0.808600  0.925560  0.085300  1.0  -0.586
  F  F63  1  0.495000  0.891160  0.909480  1.0  -0.5477
  F  F64  1  0.308600  0.914700  0.074440  1.0  -0.5856
  F  F65  1  0.005000  0.909480  0.891160  1.0  -0.5508
  F  F66  1  0.191400  0.074440  0.914700  1.0  -0.5854
