# generated using pymatgen
data_KInH3(C5O4)3
_symmetry_space_group_name_H-M   'P 1'
_cell_length_a   7.36280000
_cell_length_b   18.11100000
_cell_length_c   18.11100000
_cell_angle_alpha   99.13840000
_cell_angle_beta   94.88400000
_cell_angle_gamma   85.11600000
_symmetry_Int_Tables_number   1
_chemical_formula_structural   KInH3(C5O4)3
_chemical_formula_sum   'K4 In4 H12 C60 O48'
_cell_volume   2369.44495752
_cell_formula_units_Z   4
loop_
 _symmetry_equiv_pos_site_id
 _symmetry_equiv_pos_as_xyz
  1  'x, y, z'
loop_
 _atom_site_type_symbol
 _atom_site_label
 _atom_site_symmetry_multiplicity
 _atom_site_fract_x
 _atom_site_fract_y
 _atom_site_fract_z
 _atom_site_occupancy
 _atom_site_charge
  K  K1  1  0.782910  0.009160  0.423840  1.0  0.9677
  K  K2  1  0.717090  0.423840  0.009160  1.0  0.9666
  K  K3  1  0.217090  0.990840  0.576160  1.0  0.9679
  K  K4  1  0.282910  0.576160  0.990840  1.0  0.967
  In  In5  1  0.702590  0.861880  0.552290  1.0  1.504
  In  In6  1  0.797410  0.552290  0.861880  1.0  1.5041
  In  In7  1  0.297410  0.138120  0.447710  1.0  1.5044
  In  In8  1  0.202590  0.447710  0.138120  1.0  1.5039
  H  H9  1  0.543500  0.257400  0.685200  1.0  0.1203
  H  H10  1  0.944700  0.688900  0.711500  1.0  0.1244
  H  H11  1  0.841900  0.044900  0.755500  1.0  0.1307
  H  H12  1  0.956500  0.685200  0.257400  1.0  0.1203
  H  H13  1  0.555300  0.711500  0.688900  1.0  0.1238
  H  H14  1  0.658100  0.755500  0.044900  1.0  0.1298
  H  H15  1  0.456500  0.742600  0.314800  1.0  0.1204
  H  H16  1  0.055300  0.311100  0.288500  1.0  0.1236
  H  H17  1  0.158100  0.955100  0.244500  1.0  0.1302
  H  H18  1  0.043500  0.314800  0.742600  1.0  0.121
  H  H19  1  0.444700  0.288500  0.311100  1.0  0.1246
  H  H20  1  0.341900  0.244500  0.955100  1.0  0.1298
  C  C21  1  0.601300  0.214110  0.700490  1.0  0.0071
  C  C22  1  0.696200  0.083650  0.670350  1.0  -0.0257
  C  C23  1  0.709400  0.010640  0.619960  1.0  0.7432
  C  C24  1  0.117700  0.740000  0.660000  1.0  0.0057
  C  C25  1  0.602400  0.148480  0.649720  1.0  -0.1125
  C  C26  1  0.068100  0.693410  0.707190  1.0  -0.027
  C  C27  1  0.302400  0.748330  0.653270  1.0  -0.0947
  C  C28  1  0.365000  0.798400  0.603400  1.0  0.7089
  C  C29  1  0.965900  0.780620  0.618380  1.0  0.6243
  C  C30  1  0.498000  0.148000  0.575400  1.0  0.6536
  C  C31  1  0.778800  0.087870  0.741730  1.0  -0.0399
  C  C32  1  0.681500  0.218900  0.772700  1.0  -0.1103
  C  C33  1  0.773400  0.152510  0.794290  1.0  -0.0672
  C  C34  1  0.656800  0.296400  0.818400  1.0  0.6109
  C  C35  1  0.867600  0.142700  0.870100  1.0  0.569
  C  C36  1  0.898700  0.700490  0.214110  1.0  0.01
  C  C37  1  0.803800  0.670350  0.083650  1.0  -0.0264
  C  C38  1  0.790600  0.619960  0.010640  1.0  0.7439
  C  C39  1  0.382300  0.660000  0.740000  1.0  0.0058
  C  C40  1  0.897600  0.649720  0.148480  1.0  -0.1115
  C  C41  1  0.431900  0.707190  0.693410  1.0  -0.0231
  C  C42  1  0.197600  0.653270  0.748330  1.0  -0.0952
  C  C43  1  0.135000  0.603400  0.798400  1.0  0.7074
  C  C44  1  0.534100  0.618380  0.780620  1.0  0.6267
  C  C45  1  0.002000  0.575400  0.148000  1.0  0.655
  C  C46  1  0.721200  0.741730  0.087870  1.0  -0.0385
  C  C47  1  0.818500  0.772700  0.218900  1.0  -0.1119
  C  C48  1  0.726600  0.794290  0.152510  1.0  -0.0661
  C  C49  1  0.843200  0.818400  0.296400  1.0  0.6122
  C  C50  1  0.632400  0.870100  0.142700  1.0  0.5596
  C  C51  1  0.398700  0.785890  0.299510  1.0  0.0086
  C  C52  1  0.303800  0.916350  0.329650  1.0  -0.0251
  C  C53  1  0.290600  0.989360  0.380040  1.0  0.7434
  C  C54  1  0.882300  0.260000  0.340000  1.0  0.0057
  C  C55  1  0.397600  0.851520  0.350280  1.0  -0.1099
  C  C56  1  0.931900  0.306590  0.292810  1.0  -0.0241
  C  C57  1  0.697600  0.251670  0.346730  1.0  -0.0946
  C  C58  1  0.635000  0.201600  0.396600  1.0  0.7093
  C  C59  1  0.034100  0.219380  0.381620  1.0  0.626
  C  C60  1  0.502000  0.852000  0.424600  1.0  0.6532
  C  C61  1  0.221200  0.912130  0.258270  1.0  -0.0446
  C  C62  1  0.318500  0.781100  0.227300  1.0  -0.1104
  C  C63  1  0.226600  0.847490  0.205710  1.0  -0.0665
  C  C64  1  0.343200  0.703600  0.181600  1.0  0.6086
  C  C65  1  0.132400  0.857300  0.129900  1.0  0.5645
  C  C66  1  0.101300  0.299510  0.785890  1.0  0.0081
  C  C67  1  0.196200  0.329650  0.916350  1.0  -0.0262
  C  C68  1  0.209400  0.380040  0.989360  1.0  0.7444
  C  C69  1  0.617700  0.340000  0.260000  1.0  0.0057
  C  C70  1  0.102400  0.350280  0.851520  1.0  -0.1111
  C  C71  1  0.568100  0.292810  0.306590  1.0  -0.0261
  C  C72  1  0.802400  0.346730  0.251670  1.0  -0.0955
  C  C73  1  0.865000  0.396600  0.201600  1.0  0.7072
  C  C74  1  0.465900  0.381620  0.219380  1.0  0.6248
  C  C75  1  0.998000  0.424600  0.852000  1.0  0.6542
  C  C76  1  0.278800  0.258270  0.912130  1.0  -0.0373
  C  C77  1  0.181500  0.227300  0.781100  1.0  -0.1114
  C  C78  1  0.273400  0.205710  0.847490  1.0  -0.0658
  C  C79  1  0.156800  0.181600  0.703600  1.0  0.6098
  C  C80  1  0.367600  0.129900  0.857300  1.0  0.559
  O  O81  1  0.599900  0.962510  0.628510  1.0  -0.6156
  O  O82  1  0.710900  0.307700  0.886940  1.0  -0.4875
  O  O83  1  0.884400  0.746030  0.561970  1.0  -0.4872
  O  O84  1  0.426000  0.207160  0.555300  1.0  -0.5293
  O  O85  1  0.919500  0.847750  0.642530  1.0  -0.536
  O  O86  1  0.831600  0.995670  0.577110  1.0  -0.7182
  O  O87  1  0.255000  0.830600  0.562800  1.0  -0.5662
  O  O88  1  0.474800  0.085450  0.533910  1.0  -0.6766
  O  O89  1  0.535100  0.804700  0.611080  1.0  -0.593
  O  O90  1  0.579400  0.346790  0.786810  1.0  -0.4076
  O  O91  1  0.865400  0.197240  0.924360  1.0  -0.3352
  O  O92  1  0.949900  0.083050  0.877150  1.0  -0.3588
  O  O93  1  0.900100  0.628510  0.962510  1.0  -0.6187
  O  O94  1  0.789100  0.886940  0.307700  1.0  -0.479
  O  O95  1  0.615600  0.561970  0.746030  1.0  -0.4829
  O  O96  1  0.074000  0.555300  0.207160  1.0  -0.5263
  O  O97  1  0.580500  0.642530  0.847750  1.0  -0.5366
  O  O98  1  0.668400  0.577110  0.995670  1.0  -0.7194
  O  O99  1  0.245000  0.562800  0.830600  1.0  -0.5647
  O  O100  1  0.025200  0.533910  0.085450  1.0  -0.6766
  O  O101  1  0.964900  0.611080  0.804700  1.0  -0.5919
  O  O102  1  0.920600  0.786810  0.346790  1.0  -0.4096
  O  O103  1  0.634600  0.924360  0.197240  1.0  -0.3204
  O  O104  1  0.550100  0.877150  0.083050  1.0  -0.3592
  O  O105  1  0.400100  0.037490  0.371490  1.0  -0.6168
  O  O106  1  0.289100  0.692300  0.113060  1.0  -0.4854
  O  O107  1  0.115600  0.253970  0.438030  1.0  -0.4859
  O  O108  1  0.574000  0.792840  0.444700  1.0  -0.5187
  O  O109  1  0.080500  0.152250  0.357470  1.0  -0.5348
  O  O110  1  0.168400  0.004330  0.422890  1.0  -0.7175
  O  O111  1  0.745000  0.169400  0.437200  1.0  -0.5674
  O  O112  1  0.525200  0.914550  0.466090  1.0  -0.6766
  O  O113  1  0.464900  0.195300  0.388920  1.0  -0.5926
  O  O114  1  0.420600  0.653210  0.213190  1.0  -0.4059
  O  O115  1  0.134600  0.802760  0.075640  1.0  -0.323
  O  O116  1  0.050100  0.916950  0.122850  1.0  -0.3576
  O  O117  1  0.099900  0.371490  0.037490  1.0  -0.6168
  O  O118  1  0.210900  0.113060  0.692300  1.0  -0.4792
  O  O119  1  0.384400  0.438030  0.253970  1.0  -0.4825
  O  O120  1  0.926000  0.444700  0.792840  1.0  -0.5221
  O  O121  1  0.419500  0.357470  0.152250  1.0  -0.5357
  O  O122  1  0.331600  0.422890  0.004330  1.0  -0.7197
  O  O123  1  0.755000  0.437200  0.169400  1.0  -0.5643
  O  O124  1  0.974800  0.466090  0.914550  1.0  -0.6764
  O  O125  1  0.035100  0.388920  0.195300  1.0  -0.5936
  O  O126  1  0.079400  0.213190  0.653210  1.0  -0.4124
  O  O127  1  0.365400  0.075640  0.802760  1.0  -0.3207
  O  O128  1  0.449900  0.122850  0.916950  1.0  -0.3596
