# generated using pymatgen
data_ZnH10C17(NO3)2
_symmetry_space_group_name_H-M   'P 1'
_cell_length_a   32.31300000
_cell_length_b   8.18010000
_cell_length_c   18.45220000
_cell_angle_alpha   90.00000000
_cell_angle_beta   90.00000000
_cell_angle_gamma   90.00000000
_symmetry_Int_Tables_number   1
_chemical_formula_structural   ZnH10C17(NO3)2
_chemical_formula_sum   'Zn8 H80 C136 N16 O48'
_cell_volume   4877.35140234
_cell_formula_units_Z   8
loop_
 _symmetry_equiv_pos_site_id
 _symmetry_equiv_pos_as_xyz
  1  'x, y, z'
loop_
 _atom_site_type_symbol
 _atom_site_label
 _atom_site_symmetry_multiplicity
 _atom_site_fract_x
 _atom_site_fract_y
 _atom_site_fract_z
 _atom_site_occupancy
 _atom_site_charge
  Zn  Zn1  1  0.039580  0.344760  0.116390  1.0  0.9848
  Zn  Zn2  1  0.289220  0.730280  0.890410  1.0  0.9656
  Zn  Zn3  1  0.960420  0.655240  0.616390  1.0  0.9844
  Zn  Zn4  1  0.710780  0.269720  0.390410  1.0  0.9654
  Zn  Zn5  1  0.539580  0.155240  0.116390  1.0  0.9846
  Zn  Zn6  1  0.789220  0.769720  0.890410  1.0  0.9648
  Zn  Zn7  1  0.460420  0.844760  0.616390  1.0  0.9846
  Zn  Zn8  1  0.210780  0.230280  0.390410  1.0  0.9661
  H  H9  1  0.417800  0.481100  0.011200  1.0  0.1263
  H  H10  1  0.412200  0.997800  0.049800  1.0  0.1319
  H  H11  1  0.324800  0.213400  0.929200  1.0  0.1177
  H  H12  1  0.910400  0.440100  0.305800  1.0  0.1112
  H  H13  1  0.071000  0.206800  0.369000  1.0  0.2999
  H  H14  1  0.181800  0.382300  0.135100  1.0  0.3634
  H  H15  1  0.072800  0.841300  0.071600  1.0  0.1184
  H  H16  1  0.120600  0.118500  0.262100  1.0  0.1095
  H  H17  1  0.111000  0.205900  0.188300  1.0  0.1138
  H  H18  1  0.139200  0.376400  0.312900  1.0  0.1174
  H  H19  1  0.131600  0.458200  0.237100  1.0  0.1075
  H  H20  1  0.174900  0.613000  0.001400  1.0  0.116
  H  H21  1  0.292000  0.126800  0.302300  1.0  0.1359
  H  H22  1  0.154200  0.081000  0.946200  1.0  0.1249
  H  H23  1  0.929500  0.363800  0.419800  1.0  0.1055
  H  H24  1  0.957800  0.438600  0.210900  1.0  0.1287
  H  H25  1  0.264500  0.343800  0.071100  1.0  0.133
  H  H26  1  0.342100  0.134300  0.211100  1.0  0.1087
  H  H27  1  0.993700  0.245900  0.442800  1.0  0.1364
  H  H28  1  0.328600  0.246400  0.100500  1.0  0.0898
  H  H29  1  0.582200  0.518900  0.511200  1.0  0.1261
  H  H30  1  0.587800  0.002200  0.549800  1.0  0.1323
  H  H31  1  0.675200  0.786600  0.429200  1.0  0.1175
  H  H32  1  0.089600  0.559900  0.805800  1.0  0.1098
  H  H33  1  0.929000  0.793200  0.869000  1.0  0.2998
  H  H34  1  0.818200  0.617700  0.635100  1.0  0.3643
  H  H35  1  0.927200  0.158700  0.571600  1.0  0.1187
  H  H36  1  0.879400  0.881500  0.762100  1.0  0.108
  H  H37  1  0.889000  0.794100  0.688300  1.0  0.1136
  H  H38  1  0.860800  0.623600  0.812900  1.0  0.117
  H  H39  1  0.868400  0.541800  0.737100  1.0  0.1072
  H  H40  1  0.825100  0.387000  0.501400  1.0  0.1161
  H  H41  1  0.708000  0.873200  0.802300  1.0  0.1358
  H  H42  1  0.845800  0.919000  0.446200  1.0  0.125
  H  H43  1  0.070500  0.636200  0.919800  1.0  0.1058
  H  H44  1  0.042200  0.561400  0.710900  1.0  0.1291
  H  H45  1  0.735500  0.656200  0.571100  1.0  0.1334
  H  H46  1  0.657900  0.865700  0.711100  1.0  0.1084
  H  H47  1  0.006300  0.754100  0.942800  1.0  0.1364
  H  H48  1  0.671400  0.753600  0.600500  1.0  0.09
  H  H49  1  0.917800  0.018900  0.011200  1.0  0.1259
  H  H50  1  0.912200  0.502200  0.049800  1.0  0.1321
  H  H51  1  0.824800  0.286600  0.929200  1.0  0.1176
  H  H52  1  0.410400  0.059900  0.305800  1.0  0.1099
  H  H53  1  0.571000  0.293200  0.369000  1.0  0.2996
  H  H54  1  0.681800  0.117700  0.135100  1.0  0.3635
  H  H55  1  0.572800  0.658700  0.071600  1.0  0.1184
  H  H56  1  0.620600  0.381500  0.262100  1.0  0.1081
  H  H57  1  0.611000  0.294100  0.188300  1.0  0.1135
  H  H58  1  0.639200  0.123600  0.312900  1.0  0.117
  H  H59  1  0.631600  0.041800  0.237100  1.0  0.1075
  H  H60  1  0.674900  0.887000  0.001400  1.0  0.116
  H  H61  1  0.792000  0.373200  0.302300  1.0  0.1359
  H  H62  1  0.654200  0.419000  0.946200  1.0  0.1247
  H  H63  1  0.429500  0.136200  0.419800  1.0  0.1059
  H  H64  1  0.457800  0.061400  0.210900  1.0  0.1293
  H  H65  1  0.764500  0.156200  0.071100  1.0  0.1334
  H  H66  1  0.842100  0.365700  0.211100  1.0  0.1084
  H  H67  1  0.493700  0.254100  0.442800  1.0  0.1362
  H  H68  1  0.828600  0.253600  0.100500  1.0  0.0897
  H  H69  1  0.082200  0.981100  0.511200  1.0  0.1264
  H  H70  1  0.087800  0.497800  0.549800  1.0  0.132
  H  H71  1  0.175200  0.713400  0.429200  1.0  0.1176
  H  H72  1  0.589600  0.940100  0.805800  1.0  0.1101
  H  H73  1  0.429000  0.706800  0.869000  1.0  0.2998
  H  H74  1  0.318200  0.882300  0.635100  1.0  0.3642
  H  H75  1  0.427200  0.341300  0.571600  1.0  0.1187
  H  H76  1  0.379400  0.618500  0.762100  1.0  0.1093
  H  H77  1  0.389000  0.705900  0.688300  1.0  0.1137
  H  H78  1  0.360800  0.876400  0.812900  1.0  0.1173
  H  H79  1  0.368400  0.958200  0.737100  1.0  0.1076
  H  H80  1  0.325100  0.113000  0.501400  1.0  0.1157
  H  H81  1  0.208000  0.626800  0.802300  1.0  0.1359
  H  H82  1  0.345800  0.581000  0.446200  1.0  0.1252
  H  H83  1  0.570500  0.863800  0.919800  1.0  0.1053
  H  H84  1  0.542200  0.938600  0.710900  1.0  0.1286
  H  H85  1  0.235500  0.843800  0.571100  1.0  0.1331
  H  H86  1  0.157900  0.634300  0.711100  1.0  0.1086
  H  H87  1  0.506300  0.745900  0.942800  1.0  0.1366
  H  H88  1  0.171400  0.746400  0.600500  1.0  0.0903
  C  C89  1  0.084250  0.138000  0.020100  1.0  0.7139
  C  C90  1  0.460550  0.253600  0.078200  1.0  0.7253
  C  C91  1  0.404740  0.381000  0.004700  1.0  -0.0425
  C  C92  1  0.401040  0.091200  0.028600  1.0  -0.0536
  C  C93  1  0.421090  0.241800  0.035500  1.0  -0.1059
  C  C94  1  0.348830  0.221300  0.956600  1.0  -0.06
  C  C95  1  0.364430  0.082700  0.989700  1.0  -0.1203
  C  C96  1  0.368190  0.371500  0.963300  1.0  -0.1299
  C  C97  1  0.937230  0.403100  0.313800  1.0  -0.0815
  C  C98  1  0.350240  0.517000  0.927300  1.0  0.7181
  C  C99  1  0.339780  0.927200  0.984400  1.0  0.7051
  C  C100  1  0.210650  0.850700  0.925100  1.0  0.7378
  C  C101  1  0.170380  0.847500  0.966800  1.0  -0.1467
  C  C102  1  0.183480  0.321000  0.239800  1.0  0.3059
  C  C103  1  0.097310  0.842700  0.045200  1.0  -0.0099
  C  C104  1  0.121010  0.701900  0.040100  1.0  -0.1103
  C  C105  1  0.111010  0.219700  0.240500  1.0  -0.2538
  C  C106  1  0.140410  0.358400  0.261000  1.0  -0.2359
  C  C107  1  0.106270  0.547400  0.076600  1.0  0.6914
  C  C108  1  0.158110  0.705400  0.002600  1.0  0.0155
  C  C109  1  0.004030  0.336600  0.271000  1.0  0.1541
  C  C110  1  0.015010  0.283400  0.340100  1.0  0.1408
  C  C111  1  0.239590  0.298700  0.170800  1.0  0.0798
  C  C112  1  0.286340  0.171600  0.257100  1.0  -0.1325
  C  C113  1  0.067650  0.254700  0.266000  1.0  0.3525
  C  C114  1  0.146170  0.986700  0.970700  1.0  0.0409
  C  C115  1  0.109790  0.985700  0.011200  1.0  -0.1258
  C  C116  1  0.948400  0.352800  0.382200  1.0  -0.0776
  C  C117  1  0.964970  0.400100  0.256700  1.0  -0.1162
  C  C118  1  0.247970  0.237300  0.240200  1.0  0.176
  C  C119  1  0.269950  0.302300  0.117000  1.0  -0.1079
  C  C120  1  0.315920  0.176700  0.202200  1.0  -0.0906
  C  C121  1  0.987030  0.286300  0.397200  1.0  -0.0939
  C  C122  1  0.307510  0.242800  0.134800  1.0  -0.0888
  C  C123  1  0.915750  0.862000  0.520100  1.0  0.7117
  C  C124  1  0.539450  0.746400  0.578200  1.0  0.7256
  C  C125  1  0.595260  0.619000  0.504700  1.0  -0.0415
  C  C126  1  0.598960  0.908800  0.528600  1.0  -0.0534
  C  C127  1  0.578910  0.758200  0.535500  1.0  -0.1056
  C  C128  1  0.651170  0.778700  0.456600  1.0  -0.0603
  C  C129  1  0.635570  0.917300  0.489700  1.0  -0.1189
  C  C130  1  0.631810  0.628500  0.463300  1.0  -0.131
  C  C131  1  0.062770  0.596900  0.813800  1.0  -0.0792
  C  C132  1  0.649760  0.483000  0.427300  1.0  0.7171
  C  C133  1  0.660220  0.072800  0.484400  1.0  0.7036
  C  C134  1  0.789350  0.149300  0.425100  1.0  0.7385
  C  C135  1  0.829620  0.152500  0.466800  1.0  -0.1468
  C  C136  1  0.816520  0.679000  0.739800  1.0  0.306
  C  C137  1  0.902690  0.157300  0.545200  1.0  -0.0094
  C  C138  1  0.878990  0.298100  0.540100  1.0  -0.1094
  C  C139  1  0.888990  0.780300  0.740500  1.0  -0.2538
  C  C140  1  0.859590  0.641600  0.761000  1.0  -0.2344
  C  C141  1  0.893730  0.452600  0.576600  1.0  0.6923
  C  C142  1  0.841890  0.294600  0.502600  1.0  0.0161
  C  C143  1  0.995970  0.663400  0.771000  1.0  0.154
  C  C144  1  0.984990  0.716600  0.840100  1.0  0.1403
  C  C145  1  0.760410  0.701300  0.670800  1.0  0.079
  C  C146  1  0.713660  0.828400  0.757100  1.0  -0.1336
  C  C147  1  0.932350  0.745300  0.766000  1.0  0.3547
  C  C148  1  0.853830  0.013300  0.470700  1.0  0.0409
  C  C149  1  0.890210  0.014300  0.511200  1.0  -0.126
  C  C150  1  0.051600  0.647200  0.882200  1.0  -0.0767
  C  C151  1  0.035030  0.599900  0.756700  1.0  -0.117
  C  C152  1  0.752030  0.762700  0.740200  1.0  0.1757
  C  C153  1  0.730050  0.697700  0.617000  1.0  -0.1081
  C  C154  1  0.684080  0.823300  0.702200  1.0  -0.0927
  C  C155  1  0.012970  0.713700  0.897200  1.0  -0.0947
  C  C156  1  0.692490  0.757200  0.634800  1.0  -0.0903
  C  C157  1  0.584250  0.362000  0.020100  1.0  0.7134
  C  C158  1  0.960550  0.246400  0.078200  1.0  0.7256
  C  C159  1  0.904740  0.119000  0.004700  1.0  -0.0417
  C  C160  1  0.901040  0.408800  0.028600  1.0  -0.0529
  C  C161  1  0.921090  0.258200  0.035500  1.0  -0.1056
  C  C162  1  0.848830  0.278700  0.956600  1.0  -0.0602
  C  C163  1  0.864430  0.417300  0.989700  1.0  -0.1188
  C  C164  1  0.868190  0.128500  0.963300  1.0  -0.1309
  C  C165  1  0.437230  0.096900  0.313800  1.0  -0.0817
  C  C166  1  0.850240  0.983000  0.927300  1.0  0.7182
  C  C167  1  0.839780  0.572800  0.984400  1.0  0.7044
  C  C168  1  0.710650  0.649300  0.925100  1.0  0.7381
  C  C169  1  0.670380  0.652500  0.966800  1.0  -0.1462
  C  C170  1  0.683480  0.179000  0.239800  1.0  0.306
  C  C171  1  0.597310  0.657300  0.045200  1.0  -0.0101
  C  C172  1  0.621010  0.798100  0.040100  1.0  -0.1107
  C  C173  1  0.611010  0.280300  0.240500  1.0  -0.2528
  C  C174  1  0.640410  0.141600  0.261000  1.0  -0.2354
  C  C175  1  0.606270  0.952600  0.076600  1.0  0.6924
  C  C176  1  0.658110  0.794600  0.002600  1.0  0.0155
  C  C177  1  0.504030  0.163400  0.271000  1.0  0.1534
  C  C178  1  0.515010  0.216600  0.340100  1.0  0.1411
  C  C179  1  0.739590  0.201300  0.170800  1.0  0.0804
  C  C180  1  0.786340  0.328400  0.257100  1.0  -0.1328
  C  C181  1  0.567650  0.245300  0.266000  1.0  0.3523
  C  C182  1  0.646170  0.513300  0.970700  1.0  0.0408
  C  C183  1  0.609790  0.514300  0.011200  1.0  -0.1259
  C  C184  1  0.448400  0.147200  0.382200  1.0  -0.0775
  C  C185  1  0.464970  0.099900  0.256700  1.0  -0.1169
  C  C186  1  0.747970  0.262700  0.240200  1.0  0.1753
  C  C187  1  0.769950  0.197700  0.117000  1.0  -0.108
  C  C188  1  0.815920  0.323300  0.202200  1.0  -0.0914
  C  C189  1  0.487030  0.213700  0.397200  1.0  -0.0938
  C  C190  1  0.807510  0.257200  0.134800  1.0  -0.0887
  C  C191  1  0.415750  0.638000  0.520100  1.0  0.7125
  C  C192  1  0.039450  0.753600  0.578200  1.0  0.7254
  C  C193  1  0.095260  0.881000  0.504700  1.0  -0.042
  C  C194  1  0.098960  0.591200  0.528600  1.0  -0.0536
  C  C195  1  0.078910  0.741800  0.535500  1.0  -0.1057
  C  C196  1  0.151170  0.721300  0.456600  1.0  -0.06
  C  C197  1  0.135570  0.582700  0.489700  1.0  -0.1203
  C  C198  1  0.131810  0.871500  0.463300  1.0  -0.1299
  C  C199  1  0.562770  0.903100  0.813800  1.0  -0.0794
  C  C200  1  0.149760  0.017000  0.427300  1.0  0.7172
  C  C201  1  0.160220  0.427200  0.484400  1.0  0.7041
  C  C202  1  0.289350  0.350700  0.425100  1.0  0.7383
  C  C203  1  0.329620  0.347500  0.466800  1.0  -0.1469
  C  C204  1  0.316520  0.821000  0.739800  1.0  0.3064
  C  C205  1  0.402690  0.342700  0.545200  1.0  -0.009
  C  C206  1  0.378990  0.201900  0.540100  1.0  -0.1091
  C  C207  1  0.388990  0.719700  0.740500  1.0  -0.2545
  C  C208  1  0.359590  0.858400  0.761000  1.0  -0.2348
  C  C209  1  0.393730  0.047400  0.576600  1.0  0.6914
  C  C210  1  0.341890  0.205400  0.502600  1.0  0.0159
  C  C211  1  0.495970  0.836600  0.771000  1.0  0.1544
  C  C212  1  0.484990  0.783400  0.840100  1.0  0.1401
  C  C213  1  0.260410  0.798700  0.670800  1.0  0.0783
  C  C214  1  0.213660  0.671600  0.757100  1.0  -0.1329
  C  C215  1  0.432350  0.754700  0.766000  1.0  0.3555
  C  C216  1  0.353830  0.486700  0.470700  1.0  0.0412
  C  C217  1  0.390210  0.485700  0.511200  1.0  -0.1261
  C  C218  1  0.551600  0.852800  0.882200  1.0  -0.0766
  C  C219  1  0.535030  0.900100  0.756700  1.0  -0.1162
  C  C220  1  0.252030  0.737300  0.740200  1.0  0.1764
  C  C221  1  0.230050  0.802300  0.617000  1.0  -0.1079
  C  C222  1  0.184080  0.676700  0.702200  1.0  -0.092
  C  C223  1  0.512970  0.786300  0.897200  1.0  -0.0949
  C  C224  1  0.192490  0.742800  0.634800  1.0  -0.0904
  N  N225  1  0.038160  0.314800  0.224800  1.0  -0.4308
  N  N226  1  0.212390  0.253800  0.282840  1.0  -0.437
  N  N227  1  0.055000  0.233700  0.333130  1.0  -0.2
  N  N228  1  0.197470  0.348400  0.170540  1.0  -0.2856
  N  N229  1  0.961840  0.685200  0.724800  1.0  -0.4308
  N  N230  1  0.787610  0.746200  0.782840  1.0  -0.4374
  N  N231  1  0.945000  0.766300  0.833130  1.0  -0.1989
  N  N232  1  0.802530  0.651600  0.670540  1.0  -0.2849
  N  N233  1  0.538160  0.185200  0.224800  1.0  -0.4317
  N  N234  1  0.712390  0.246200  0.282840  1.0  -0.4371
  N  N235  1  0.555000  0.266300  0.333130  1.0  -0.2006
  N  N236  1  0.697470  0.151600  0.170540  1.0  -0.2851
  N  N237  1  0.461840  0.814800  0.724800  1.0  -0.4306
  N  N238  1  0.287610  0.753800  0.782840  1.0  -0.4375
  N  N239  1  0.445000  0.733700  0.833130  1.0  -0.1974
  N  N240  1  0.302530  0.848400  0.670540  1.0  -0.2851
  O  O241  1  0.082440  0.241100  0.970600  1.0  -0.5011
  O  O242  1  0.065800  0.147800  0.080500  1.0  -0.5781
  O  O243  1  0.483660  0.127600  0.076590  1.0  -0.5874
  O  O244  1  0.468870  0.382700  0.110300  1.0  -0.5118
  O  O245  1  0.310990  0.518700  0.921810  1.0  -0.5978
  O  O246  1  0.316870  0.921100  0.928840  1.0  -0.5946
  O  O247  1  0.372990  0.626100  0.903690  1.0  -0.5736
  O  O248  1  0.343110  0.821600  0.031910  1.0  -0.5203
  O  O249  1  0.233590  0.727200  0.932610  1.0  -0.5798
  O  O250  1  0.067690  0.544500  0.090240  1.0  -0.5864
  O  O251  1  0.218940  0.971400  0.887150  1.0  -0.5475
  O  O252  1  0.131030  0.437300  0.090970  1.0  -0.5885
  O  O253  1  0.917560  0.758900  0.470600  1.0  -0.5017
  O  O254  1  0.934200  0.852200  0.580500  1.0  -0.5781
  O  O255  1  0.516340  0.872400  0.576590  1.0  -0.5876
  O  O256  1  0.531130  0.617300  0.610300  1.0  -0.5103
  O  O257  1  0.689010  0.481300  0.421810  1.0  -0.5979
  O  O258  1  0.683130  0.078900  0.428840  1.0  -0.5938
  O  O259  1  0.627010  0.373900  0.403690  1.0  -0.5733
  O  O260  1  0.656890  0.178400  0.531910  1.0  -0.5205
  O  O261  1  0.766410  0.272800  0.432610  1.0  -0.5813
  O  O262  1  0.932310  0.455500  0.590240  1.0  -0.5874
  O  O263  1  0.781060  0.028600  0.387150  1.0  -0.544
  O  O264  1  0.868970  0.562700  0.590970  1.0  -0.5887
  O  O265  1  0.582440  0.258900  0.970600  1.0  -0.5021
  O  O266  1  0.565800  0.352200  0.080500  1.0  -0.5781
  O  O267  1  0.983660  0.372400  0.076590  1.0  -0.5885
  O  O268  1  0.968870  0.117300  0.110300  1.0  -0.5092
  O  O269  1  0.810990  0.981300  0.921810  1.0  -0.5975
  O  O270  1  0.816870  0.578900  0.928840  1.0  -0.5946
  O  O271  1  0.872990  0.873900  0.903690  1.0  -0.573
  O  O272  1  0.843110  0.678400  0.031910  1.0  -0.5215
  O  O273  1  0.733590  0.772800  0.932610  1.0  -0.5811
  O  O274  1  0.567690  0.955500  0.090240  1.0  -0.586
  O  O275  1  0.718940  0.528600  0.887150  1.0  -0.5459
  O  O276  1  0.631030  0.062700  0.090970  1.0  -0.5896
  O  O277  1  0.417560  0.741100  0.470600  1.0  -0.5005
  O  O278  1  0.434200  0.647800  0.580500  1.0  -0.5777
  O  O279  1  0.016340  0.627600  0.576590  1.0  -0.5873
  O  O280  1  0.031130  0.882700  0.610300  1.0  -0.5127
  O  O281  1  0.189010  0.018700  0.421810  1.0  -0.5983
  O  O282  1  0.183130  0.421100  0.428840  1.0  -0.5941
  O  O283  1  0.127010  0.126100  0.403690  1.0  -0.5738
  O  O284  1  0.156890  0.321600  0.531910  1.0  -0.5195
  O  O285  1  0.266410  0.227200  0.432610  1.0  -0.5809
  O  O286  1  0.432310  0.044500  0.590240  1.0  -0.5874
  O  O287  1  0.281060  0.471400  0.387150  1.0  -0.5457
  O  O288  1  0.368970  0.937300  0.590970  1.0  -0.5877
