# generated using pymatgen
data_CaZn2H17(C9O4)3
_symmetry_space_group_name_H-M   'P 1'
_cell_length_a   7.35850000
_cell_length_b   18.70290000
_cell_length_c   23.59650000
_cell_angle_alpha   90.00000000
_cell_angle_beta   90.00000000
_cell_angle_gamma   90.00000000
_symmetry_Int_Tables_number   1
_chemical_formula_structural   CaZn2H17(C9O4)3
_chemical_formula_sum   'Ca4 Zn8 H68 C108 O48'
_cell_volume   3247.47514723
_cell_formula_units_Z   4
loop_
 _symmetry_equiv_pos_site_id
 _symmetry_equiv_pos_as_xyz
  1  'x, y, z'
loop_
 _atom_site_type_symbol
 _atom_site_label
 _atom_site_symmetry_multiplicity
 _atom_site_fract_x
 _atom_site_fract_y
 _atom_site_fract_z
 _atom_site_occupancy
 _atom_site_charge
  Ca  Ca1  1  0.500000  0.500000  0.000000  1.0  1.5613
  Ca  Ca2  1  0.000000  0.000000  0.000000  1.0  1.5613
  Ca  Ca3  1  0.500000  0.500000  0.500000  1.0  1.5613
  Ca  Ca4  1  0.000000  0.000000  0.500000  1.0  1.5613
  Zn  Zn5  1  0.858000  0.549150  0.913280  1.0  1.0982
  Zn  Zn6  1  0.642000  0.049150  0.086720  1.0  1.0978
  Zn  Zn7  1  0.142000  0.450850  0.413280  1.0  1.0977
  Zn  Zn8  1  0.358000  0.950850  0.586720  1.0  1.0997
  Zn  Zn9  1  0.142000  0.450850  0.086720  1.0  1.0985
  Zn  Zn10  1  0.358000  0.950850  0.913280  1.0  1.0988
  Zn  Zn11  1  0.858000  0.549150  0.586720  1.0  1.0986
  Zn  Zn12  1  0.642000  0.049150  0.413280  1.0  1.0977
  H  H13  1  0.773800  0.296800  0.022400  1.0  0.1084
  H  H14  1  0.997400  0.330900  0.869800  1.0  0.1012
  H  H15  1  0.905700  0.130600  0.922700  1.0  0.0956
  H  H16  1  0.929000  0.188400  0.806500  1.0  0.1172
  H  H17  1  0.108400  0.232600  0.813600  1.0  0.1192
  H  H18  1  0.097200  0.154400  0.837100  1.0  0.1225
  H  H19  1  0.204300  0.455000  0.835000  1.0  0.1004
  H  H20  1  0.907300  0.443500  0.775200  1.0  0.1185
  H  H21  1  0.726200  0.796800  0.977600  1.0  0.1081
  H  H22  1  0.502600  0.830900  0.130200  1.0  0.1014
  H  H23  1  0.594300  0.630600  0.077300  1.0  0.0953
  H  H24  1  0.571000  0.688400  0.193500  1.0  0.1177
  H  H25  1  0.391600  0.732600  0.186400  1.0  0.1187
  H  H26  1  0.402800  0.654400  0.162900  1.0  0.122
  H  H27  1  0.295700  0.955000  0.165000  1.0  0.1004
  H  H28  1  0.592700  0.943500  0.224800  1.0  0.1194
  H  H29  1  0.226200  0.703200  0.522400  1.0  0.1081
  H  H30  1  0.002600  0.669100  0.369800  1.0  0.1007
  H  H31  1  0.094300  0.869400  0.422700  1.0  0.0955
  H  H32  1  0.071000  0.811600  0.306500  1.0  0.1177
  H  H33  1  0.891600  0.767400  0.313600  1.0  0.1193
  H  H34  1  0.902800  0.845600  0.337100  1.0  0.1223
  H  H35  1  0.795700  0.545000  0.335000  1.0  0.1011
  H  H36  1  0.092700  0.556500  0.275200  1.0  0.1181
  H  H37  1  0.273800  0.203200  0.477600  1.0  0.1083
  H  H38  1  0.497400  0.169100  0.630200  1.0  0.1012
  H  H39  1  0.405700  0.369400  0.577300  1.0  0.0954
  H  H40  1  0.429000  0.311600  0.693500  1.0  0.117
  H  H41  1  0.608400  0.267400  0.686400  1.0  0.1192
  H  H42  1  0.597200  0.345600  0.662900  1.0  0.1218
  H  H43  1  0.704300  0.045000  0.665000  1.0  0.1013
  H  H44  1  0.407300  0.056500  0.724800  1.0  0.1174
  H  H45  1  0.226200  0.703200  0.977600  1.0  0.1082
  H  H46  1  0.002600  0.669100  0.130200  1.0  0.1012
  H  H47  1  0.094300  0.869400  0.077300  1.0  0.0955
  H  H48  1  0.071000  0.811600  0.193500  1.0  0.1178
  H  H49  1  0.891600  0.767400  0.186400  1.0  0.1186
  H  H50  1  0.902800  0.845600  0.162900  1.0  0.1219
  H  H51  1  0.795700  0.545000  0.165000  1.0  0.1011
  H  H52  1  0.092700  0.556500  0.224800  1.0  0.1179
  H  H53  1  0.273800  0.203200  0.022400  1.0  0.1083
  H  H54  1  0.497400  0.169100  0.869800  1.0  0.1008
  H  H55  1  0.405700  0.369400  0.922700  1.0  0.0953
  H  H56  1  0.429000  0.311600  0.806500  1.0  0.1172
  H  H57  1  0.608400  0.267400  0.813600  1.0  0.1187
  H  H58  1  0.597200  0.345600  0.837100  1.0  0.1225
  H  H59  1  0.704300  0.045000  0.835000  1.0  0.1011
  H  H60  1  0.407300  0.056500  0.775200  1.0  0.1179
  H  H61  1  0.773800  0.296800  0.477600  1.0  0.1084
  H  H62  1  0.997400  0.330900  0.630200  1.0  0.1014
  H  H63  1  0.905700  0.130600  0.577300  1.0  0.0952
  H  H64  1  0.929000  0.188400  0.693500  1.0  0.117
  H  H65  1  0.108400  0.232600  0.686400  1.0  0.1184
  H  H66  1  0.097200  0.154400  0.662900  1.0  0.1222
  H  H67  1  0.204300  0.455000  0.665000  1.0  0.1005
  H  H68  1  0.907300  0.443500  0.724800  1.0  0.1189
  H  H69  1  0.726200  0.796800  0.522400  1.0  0.1081
  H  H70  1  0.502600  0.830900  0.369800  1.0  0.1012
  H  H71  1  0.594300  0.630600  0.422700  1.0  0.0957
  H  H72  1  0.571000  0.688400  0.306500  1.0  0.1174
  H  H73  1  0.391600  0.732600  0.313600  1.0  0.1191
  H  H74  1  0.402800  0.654400  0.337100  1.0  0.1222
  H  H75  1  0.295700  0.955000  0.335000  1.0  0.1005
  H  H76  1  0.592700  0.943500  0.275200  1.0  0.1187
  H  H77  1  0.630900  0.534300  0.750000  1.0  0.1046
  H  H78  1  0.869100  0.034300  0.250000  1.0  0.105
  H  H79  1  0.369100  0.465700  0.250000  1.0  0.1048
  H  H80  1  0.130900  0.965700  0.750000  1.0  0.1044
  C  C81  1  0.821900  0.279140  0.988730  1.0  0.011
  C  C82  1  0.879300  0.325870  0.947070  1.0  -0.1646
  C  C83  1  0.953500  0.299200  0.896920  1.0  -0.078
  C  C84  1  0.848300  0.404800  0.954240  1.0  0.7194
  C  C85  1  0.771700  0.157000  0.026490  1.0  0.6946
  C  C86  1  0.836000  0.205520  0.980420  1.0  -0.1445
  C  C87  1  0.902000  0.179610  0.929020  1.0  -0.0703
  C  C88  1  0.962600  0.226100  0.886990  1.0  0.0956
  C  C89  1  0.030500  0.197800  0.830920  1.0  -0.3581
  C  C90  1  0.529300  0.513850  0.855330  1.0  0.7336
  C  C91  1  0.432600  0.497240  0.800980  1.0  -0.1695
  C  C92  1  0.260700  0.465700  0.800700  1.0  -0.0462
  C  C93  1  0.678100  0.779140  0.011270  1.0  0.0115
  C  C94  1  0.620700  0.825870  0.052930  1.0  -0.1635
  C  C95  1  0.546500  0.799200  0.103080  1.0  -0.0785
  C  C96  1  0.651700  0.904800  0.045760  1.0  0.7193
  C  C97  1  0.728300  0.657000  0.973510  1.0  0.6948
  C  C98  1  0.664000  0.705520  0.019580  1.0  -0.146
  C  C99  1  0.598000  0.679610  0.070980  1.0  -0.0707
  C  C100  1  0.537400  0.726100  0.113010  1.0  0.096
  C  C101  1  0.469500  0.697800  0.169080  1.0  -0.3575
  C  C102  1  0.970700  0.013850  0.144670  1.0  0.7339
  C  C103  1  0.067400  0.997240  0.199020  1.0  -0.1692
  C  C104  1  0.239300  0.965700  0.199300  1.0  -0.0468
  C  C105  1  0.178100  0.720860  0.488730  1.0  0.0119
  C  C106  1  0.120700  0.674130  0.447070  1.0  -0.1642
  C  C107  1  0.046500  0.700800  0.396920  1.0  -0.0772
  C  C108  1  0.151700  0.595200  0.454240  1.0  0.7188
  C  C109  1  0.228300  0.843000  0.526490  1.0  0.6948
  C  C110  1  0.164000  0.794480  0.480420  1.0  -0.1459
  C  C111  1  0.098000  0.820390  0.429020  1.0  -0.0705
  C  C112  1  0.037400  0.773900  0.386990  1.0  0.0956
  C  C113  1  0.969500  0.802200  0.330920  1.0  -0.3585
  C  C114  1  0.470700  0.486150  0.355330  1.0  0.734
  C  C115  1  0.567400  0.502760  0.300980  1.0  -0.1696
  C  C116  1  0.739300  0.534300  0.300700  1.0  -0.0458
  C  C117  1  0.321900  0.220860  0.511270  1.0  0.0131
  C  C118  1  0.379300  0.174130  0.552930  1.0  -0.1639
  C  C119  1  0.453500  0.200800  0.603080  1.0  -0.0769
  C  C120  1  0.348300  0.095200  0.545760  1.0  0.7187
  C  C121  1  0.271700  0.343000  0.473510  1.0  0.6944
  C  C122  1  0.336000  0.294480  0.519580  1.0  -0.1438
  C  C123  1  0.402000  0.320390  0.570980  1.0  -0.0714
  C  C124  1  0.462600  0.273900  0.613010  1.0  0.0958
  C  C125  1  0.530500  0.302200  0.669080  1.0  -0.3575
  C  C126  1  0.029300  0.986150  0.644670  1.0  0.7337
  C  C127  1  0.932600  0.002760  0.699020  1.0  -0.1693
  C  C128  1  0.760700  0.034300  0.699300  1.0  -0.0455
  C  C129  1  0.178100  0.720860  0.011270  1.0  0.0124
  C  C130  1  0.120700  0.674130  0.052930  1.0  -0.1641
  C  C131  1  0.046500  0.700800  0.103080  1.0  -0.0773
  C  C132  1  0.151700  0.595200  0.045760  1.0  0.7178
  C  C133  1  0.228300  0.843000  0.973510  1.0  0.6941
  C  C134  1  0.164000  0.794480  0.019580  1.0  -0.1437
  C  C135  1  0.098000  0.820390  0.070980  1.0  -0.0715
  C  C136  1  0.037400  0.773900  0.113010  1.0  0.0959
  C  C137  1  0.969500  0.802200  0.169080  1.0  -0.3575
  C  C138  1  0.470700  0.486150  0.144670  1.0  0.7336
  C  C139  1  0.567400  0.502760  0.199020  1.0  -0.1694
  C  C140  1  0.739300  0.534300  0.199300  1.0  -0.0475
  C  C141  1  0.321900  0.220860  0.988730  1.0  0.0112
  C  C142  1  0.379300  0.174130  0.947070  1.0  -0.1642
  C  C143  1  0.453500  0.200800  0.896920  1.0  -0.0769
  C  C144  1  0.348300  0.095200  0.954240  1.0  0.7196
  C  C145  1  0.271700  0.343000  0.026490  1.0  0.6944
  C  C146  1  0.336000  0.294480  0.980420  1.0  -0.146
  C  C147  1  0.402000  0.320390  0.929020  1.0  -0.0707
  C  C148  1  0.462600  0.273900  0.886990  1.0  0.0955
  C  C149  1  0.530500  0.302200  0.830920  1.0  -0.3588
  C  C150  1  0.029300  0.986150  0.855330  1.0  0.7344
  C  C151  1  0.932600  0.002760  0.800980  1.0  -0.1694
  C  C152  1  0.760700  0.034300  0.800700  1.0  -0.047
  C  C153  1  0.821900  0.279140  0.511270  1.0  0.0121
  C  C154  1  0.879300  0.325870  0.552930  1.0  -0.1635
  C  C155  1  0.953500  0.299200  0.603080  1.0  -0.0782
  C  C156  1  0.848300  0.404800  0.545760  1.0  0.7199
  C  C157  1  0.771700  0.157000  0.473510  1.0  0.6951
  C  C158  1  0.836000  0.205520  0.519580  1.0  -0.1462
  C  C159  1  0.902000  0.179610  0.570980  1.0  -0.0706
  C  C160  1  0.962600  0.226100  0.613010  1.0  0.0958
  C  C161  1  0.030500  0.197800  0.669080  1.0  -0.3574
  C  C162  1  0.529300  0.513850  0.644670  1.0  0.7337
  C  C163  1  0.432600  0.497240  0.699020  1.0  -0.1692
  C  C164  1  0.260700  0.465700  0.699300  1.0  -0.0484
  C  C165  1  0.678100  0.779140  0.488730  1.0  0.0116
  C  C166  1  0.620700  0.825870  0.447070  1.0  -0.1646
  C  C167  1  0.546500  0.799200  0.396920  1.0  -0.0782
  C  C168  1  0.651700  0.904800  0.454240  1.0  0.7188
  C  C169  1  0.728300  0.657000  0.526490  1.0  0.6948
  C  C170  1  0.664000  0.705520  0.480420  1.0  -0.1444
  C  C171  1  0.598000  0.679610  0.429020  1.0  -0.0702
  C  C172  1  0.537400  0.726100  0.386990  1.0  0.0957
  C  C173  1  0.469500  0.697800  0.330920  1.0  -0.358
  C  C174  1  0.970700  0.013850  0.355330  1.0  0.7335
  C  C175  1  0.067400  0.997240  0.300980  1.0  -0.1697
  C  C176  1  0.239300  0.965700  0.300700  1.0  -0.0478
  C  C177  1  0.516700  0.512900  0.750000  1.0  0.0314
  C  C178  1  0.171700  0.449700  0.750000  1.0  0.0706
  C  C179  1  0.984600  0.417100  0.750000  1.0  -0.3041
  C  C180  1  0.983300  0.012900  0.250000  1.0  0.03
  C  C181  1  0.328300  0.949700  0.250000  1.0  0.0712
  C  C182  1  0.515400  0.917100  0.250000  1.0  -0.3071
  C  C183  1  0.483300  0.487100  0.250000  1.0  0.0308
  C  C184  1  0.828300  0.550300  0.250000  1.0  0.0713
  C  C185  1  0.015400  0.582900  0.250000  1.0  -0.3067
  C  C186  1  0.016700  0.987100  0.750000  1.0  0.0315
  C  C187  1  0.671700  0.050300  0.750000  1.0  0.0708
  C  C188  1  0.484600  0.082900  0.750000  1.0  -0.304
  O  O189  1  0.744800  0.425130  0.992690  1.0  -0.7034
  O  O190  1  0.926100  0.446610  0.919430  1.0  -0.6151
  O  O191  1  0.773200  0.088500  0.017770  1.0  -0.7528
  O  O192  1  0.714000  0.181020  0.071760  1.0  -0.5432
  O  O193  1  0.455100  0.500320  0.901720  1.0  -0.688
  O  O194  1  0.686500  0.541020  0.850090  1.0  -0.6329
  O  O195  1  0.755200  0.925130  0.007310  1.0  -0.704
  O  O196  1  0.573900  0.946610  0.080570  1.0  -0.6146
  O  O197  1  0.726800  0.588500  0.982230  1.0  -0.7537
  O  O198  1  0.786000  0.681020  0.928240  1.0  -0.5421
  O  O199  1  0.044900  0.000320  0.098280  1.0  -0.6879
  O  O200  1  0.813500  0.041020  0.149910  1.0  -0.6323
  O  O201  1  0.255200  0.574870  0.492690  1.0  -0.7032
  O  O202  1  0.073900  0.553390  0.419430  1.0  -0.6146
  O  O203  1  0.226800  0.911500  0.517770  1.0  -0.7532
  O  O204  1  0.286000  0.818980  0.571760  1.0  -0.5425
  O  O205  1  0.544900  0.499680  0.401720  1.0  -0.6882
  O  O206  1  0.313500  0.458980  0.350090  1.0  -0.6329
  O  O207  1  0.244800  0.074870  0.507310  1.0  -0.703
  O  O208  1  0.426100  0.053390  0.580570  1.0  -0.6139
  O  O209  1  0.273200  0.411500  0.482230  1.0  -0.7544
  O  O210  1  0.214000  0.318980  0.428240  1.0  -0.5429
  O  O211  1  0.955100  0.999680  0.598280  1.0  -0.6885
  O  O212  1  0.186500  0.958980  0.649910  1.0  -0.6335
  O  O213  1  0.255200  0.574870  0.007310  1.0  -0.7035
  O  O214  1  0.073900  0.553390  0.080570  1.0  -0.614
  O  O215  1  0.226800  0.911500  0.982230  1.0  -0.7544
  O  O216  1  0.286000  0.818980  0.928240  1.0  -0.5426
  O  O217  1  0.544900  0.499680  0.098280  1.0  -0.6887
  O  O218  1  0.313500  0.458980  0.149910  1.0  -0.6334
  O  O219  1  0.244800  0.074870  0.992690  1.0  -0.7027
  O  O220  1  0.426100  0.053390  0.919430  1.0  -0.6144
  O  O221  1  0.273200  0.411500  0.017770  1.0  -0.7534
  O  O222  1  0.214000  0.318980  0.071760  1.0  -0.5428
  O  O223  1  0.955100  0.999680  0.901720  1.0  -0.6882
  O  O224  1  0.186500  0.958980  0.850090  1.0  -0.6328
  O  O225  1  0.744800  0.425130  0.507310  1.0  -0.7032
  O  O226  1  0.926100  0.446610  0.580570  1.0  -0.6143
  O  O227  1  0.773200  0.088500  0.482230  1.0  -0.7536
  O  O228  1  0.714000  0.181020  0.428240  1.0  -0.543
  O  O229  1  0.455100  0.500320  0.598280  1.0  -0.6885
  O  O230  1  0.686500  0.541020  0.649910  1.0  -0.633
  O  O231  1  0.755200  0.925130  0.492690  1.0  -0.7039
  O  O232  1  0.573900  0.946610  0.419430  1.0  -0.6155
  O  O233  1  0.726800  0.588500  0.517770  1.0  -0.7529
  O  O234  1  0.786000  0.681020  0.571760  1.0  -0.5432
  O  O235  1  0.044900  0.000320  0.401720  1.0  -0.6879
  O  O236  1  0.813500  0.041020  0.350090  1.0  -0.6319
