# generated using pymatgen
data_Zn2CdH18(C9O4)3
_symmetry_space_group_name_H-M   'P 1'
_cell_length_a   7.30770000
_cell_length_b   23.34440000
_cell_length_c   18.81510000
_cell_angle_alpha   90.00000000
_cell_angle_beta   90.00000000
_cell_angle_gamma   90.00000000
_symmetry_Int_Tables_number   1
_chemical_formula_structural   Zn2CdH18(C9O4)3
_chemical_formula_sum   'Zn8 Cd4 H72 C108 O48'
_cell_volume   3209.74075881
_cell_formula_units_Z   4
loop_
 _symmetry_equiv_pos_site_id
 _symmetry_equiv_pos_as_xyz
  1  'x, y, z'
loop_
 _atom_site_type_symbol
 _atom_site_label
 _atom_site_symmetry_multiplicity
 _atom_site_fract_x
 _atom_site_fract_y
 _atom_site_fract_z
 _atom_site_occupancy
 _atom_site_charge
  Zn  Zn1  1  0.849660  0.913210  0.451320  1.0  1.0938
  Zn  Zn2  1  0.650340  0.086790  0.951320  1.0  1.0926
  Zn  Zn3  1  0.150340  0.413210  0.548680  1.0  1.0909
  Zn  Zn4  1  0.349660  0.586790  0.048680  1.0  1.0922
  Zn  Zn5  1  0.150340  0.086790  0.548680  1.0  1.0908
  Zn  Zn6  1  0.349660  0.913210  0.048680  1.0  1.0928
  Zn  Zn7  1  0.849660  0.586790  0.451320  1.0  1.0935
  Zn  Zn8  1  0.650340  0.413210  0.951320  1.0  1.0925
  Cd  Cd9  1  0.500000  0.000000  0.500000  1.0  1.208
  Cd  Cd10  1  0.000000  0.000000  0.000000  1.0  1.208
  Cd  Cd11  1  0.500000  0.500000  0.500000  1.0  1.208
  Cd  Cd12  1  0.000000  0.500000  0.000000  1.0  1.208
  H  H13  1  0.771700  0.025700  0.706100  1.0  0.1093
  H  H14  1  0.988700  0.871100  0.666300  1.0  0.099
  H  H15  1  0.911900  0.921400  0.867300  1.0  0.0973
  H  H16  1  0.926100  0.804500  0.804900  1.0  0.1146
  H  H17  1  0.107600  0.812700  0.761600  1.0  0.1101
  H  H18  1  0.095300  0.834200  0.840400  1.0  0.117
  H  H19  1  0.190000  0.835800  0.550200  1.0  0.1004
  H  H20  1  0.890500  0.775300  0.560400  1.0  0.15
  H  H21  1  0.728300  0.974300  0.206100  1.0  0.1091
  H  H22  1  0.511300  0.128900  0.166300  1.0  0.0988
  H  H23  1  0.588100  0.078600  0.367300  1.0  0.0978
  H  H24  1  0.573900  0.195500  0.304900  1.0  0.1141
  H  H25  1  0.392400  0.187300  0.261600  1.0  0.1107
  H  H26  1  0.404700  0.165800  0.340400  1.0  0.1164
  H  H27  1  0.310000  0.164200  0.050200  1.0  0.0997
  H  H28  1  0.609500  0.224700  0.060400  1.0  0.1505
  H  H29  1  0.228300  0.525700  0.293900  1.0  0.1082
  H  H30  1  0.011300  0.371100  0.333700  1.0  0.0987
  H  H31  1  0.088100  0.421400  0.132700  1.0  0.0981
  H  H32  1  0.073900  0.304500  0.195100  1.0  0.1136
  H  H33  1  0.892400  0.312700  0.238400  1.0  0.1121
  H  H34  1  0.904700  0.334200  0.159600  1.0  0.1157
  H  H35  1  0.810000  0.335800  0.449800  1.0  0.0999
  H  H36  1  0.109500  0.275300  0.439600  1.0  0.1492
  H  H37  1  0.271700  0.474300  0.793900  1.0  0.1088
  H  H38  1  0.488700  0.628900  0.833700  1.0  0.099
  H  H39  1  0.411900  0.578600  0.632700  1.0  0.0977
  H  H40  1  0.426100  0.695500  0.695100  1.0  0.1142
  H  H41  1  0.607600  0.687300  0.738400  1.0  0.1112
  H  H42  1  0.595300  0.665800  0.659600  1.0  0.1168
  H  H43  1  0.690000  0.664200  0.949800  1.0  0.0999
  H  H44  1  0.390500  0.724700  0.939600  1.0  0.1508
  H  H45  1  0.600420  0.250000  0.113570  1.0  0.1767
  H  H46  1  0.228300  0.974300  0.293900  1.0  0.1089
  H  H47  1  0.011300  0.128900  0.333700  1.0  0.0987
  H  H48  1  0.088100  0.078600  0.132700  1.0  0.0977
  H  H49  1  0.073900  0.195500  0.195100  1.0  0.1138
  H  H50  1  0.892400  0.187300  0.238400  1.0  0.1122
  H  H51  1  0.904700  0.165800  0.159600  1.0  0.1159
  H  H52  1  0.810000  0.164200  0.449800  1.0  0.1001
  H  H53  1  0.109500  0.224700  0.439600  1.0  0.1516
  H  H54  1  0.899580  0.750000  0.613570  1.0  0.1783
  H  H55  1  0.271700  0.025700  0.793900  1.0  0.1086
  H  H56  1  0.488700  0.871100  0.833700  1.0  0.099
  H  H57  1  0.411900  0.921400  0.632700  1.0  0.0979
  H  H58  1  0.426100  0.804500  0.695100  1.0  0.1143
  H  H59  1  0.607600  0.812700  0.738400  1.0  0.1125
  H  H60  1  0.595300  0.834200  0.659600  1.0  0.1166
  H  H61  1  0.690000  0.835800  0.949800  1.0  0.0997
  H  H62  1  0.390500  0.775300  0.939600  1.0  0.149
  H  H63  1  0.771700  0.474300  0.706100  1.0  0.109
  H  H64  1  0.988700  0.628900  0.666300  1.0  0.0989
  H  H65  1  0.911900  0.578600  0.867300  1.0  0.0976
  H  H66  1  0.926100  0.695500  0.804900  1.0  0.1144
  H  H67  1  0.107600  0.687300  0.761600  1.0  0.1103
  H  H68  1  0.095300  0.665800  0.840400  1.0  0.1171
  H  H69  1  0.190000  0.664200  0.550200  1.0  0.0996
  H  H70  1  0.890500  0.724700  0.560400  1.0  0.1499
  H  H71  1  0.100420  0.250000  0.386430  1.0  0.1755
  H  H72  1  0.728300  0.525700  0.206100  1.0  0.1088
  H  H73  1  0.511300  0.371100  0.166300  1.0  0.0987
  H  H74  1  0.588100  0.421400  0.367300  1.0  0.0976
  H  H75  1  0.573900  0.304500  0.304900  1.0  0.114
  H  H76  1  0.392400  0.312700  0.261600  1.0  0.1107
  H  H77  1  0.404700  0.334200  0.340400  1.0  0.1162
  H  H78  1  0.310000  0.335800  0.050200  1.0  0.1005
  H  H79  1  0.609500  0.275300  0.060400  1.0  0.15
  H  H80  1  0.399580  0.750000  0.886430  1.0  0.1764
  H  H81  1  0.617300  0.750000  0.469000  1.0  0.1028
  H  H82  1  0.882700  0.250000  0.969000  1.0  0.1031
  H  H83  1  0.382700  0.250000  0.531000  1.0  0.1021
  H  H84  1  0.117300  0.750000  0.031000  1.0  0.1019
  C  C85  1  0.820400  0.991310  0.722280  1.0  0.0107
  C  C86  1  0.873200  0.949660  0.674120  1.0  -0.1617
  C  C87  1  0.947700  0.898200  0.698820  1.0  -0.0902
  C  C88  1  0.834700  0.957480  0.596150  1.0  0.7031
  C  C89  1  0.779800  0.026850  0.845100  1.0  0.6716
  C  C90  1  0.840500  0.981650  0.795120  1.0  -0.1439
  C  C91  1  0.905700  0.928720  0.818740  1.0  -0.0773
  C  C92  1  0.961400  0.886920  0.771000  1.0  0.0835
  C  C93  1  0.028800  0.829330  0.796850  1.0  -0.3614
  C  C94  1  0.516000  0.856560  0.489990  1.0  0.7052
  C  C95  1  0.419300  0.801510  0.507450  1.0  -0.1689
  C  C96  1  0.246700  0.801220  0.539270  1.0  -0.0736
  C  C97  1  0.679600  0.008690  0.222280  1.0  0.0123
  C  C98  1  0.626800  0.050340  0.174120  1.0  -0.1621
  C  C99  1  0.552300  0.101800  0.198820  1.0  -0.091
  C  C100  1  0.665300  0.042520  0.096150  1.0  0.7025
  C  C101  1  0.720200  0.973150  0.345100  1.0  0.6706
  C  C102  1  0.659500  0.018350  0.295120  1.0  -0.1424
  C  C103  1  0.594300  0.071280  0.318740  1.0  -0.0766
  C  C104  1  0.538600  0.113080  0.271000  1.0  0.0839
  C  C105  1  0.471200  0.170670  0.296850  1.0  -0.3602
  C  C106  1  0.984000  0.143440  0.989990  1.0  0.7043
  C  C107  1  0.080700  0.198490  0.007450  1.0  -0.1721
  C  C108  1  0.253300  0.198780  0.039270  1.0  -0.0738
  C  C109  1  0.179600  0.491310  0.277720  1.0  0.0122
  C  C110  1  0.126800  0.449660  0.325880  1.0  -0.1623
  C  C111  1  0.052300  0.398200  0.301180  1.0  -0.0913
  C  C112  1  0.165300  0.457480  0.403850  1.0  0.7031
  C  C113  1  0.220200  0.526850  0.154900  1.0  0.6716
  C  C114  1  0.159500  0.481650  0.204880  1.0  -0.1436
  C  C115  1  0.094300  0.428720  0.181260  1.0  -0.0798
  C  C116  1  0.038600  0.386920  0.229000  1.0  0.0842
  C  C117  1  0.971200  0.329330  0.203150  1.0  -0.361
  C  C118  1  0.484000  0.356560  0.510010  1.0  0.7077
  C  C119  1  0.580700  0.301510  0.492550  1.0  -0.1682
  C  C120  1  0.753300  0.301220  0.460730  1.0  -0.0753
  C  C121  1  0.320400  0.508690  0.777720  1.0  0.0123
  C  C122  1  0.373200  0.550340  0.825880  1.0  -0.1621
  C  C123  1  0.447700  0.601800  0.801180  1.0  -0.0899
  C  C124  1  0.334700  0.542520  0.903850  1.0  0.7028
  C  C125  1  0.279800  0.473150  0.654900  1.0  0.6707
  C  C126  1  0.340500  0.518350  0.704880  1.0  -0.142
  C  C127  1  0.405700  0.571280  0.681260  1.0  -0.0793
  C  C128  1  0.461400  0.613080  0.729000  1.0  0.0842
  C  C129  1  0.528800  0.670670  0.703150  1.0  -0.3607
  C  C130  1  0.016000  0.643440  0.010010  1.0  0.7067
  C  C131  1  0.919300  0.698490  0.992550  1.0  -0.167
  C  C132  1  0.746700  0.698780  0.960730  1.0  -0.0756
  C  C133  1  0.179600  0.008690  0.277720  1.0  0.0125
  C  C134  1  0.126800  0.050340  0.325880  1.0  -0.1618
  C  C135  1  0.052300  0.101800  0.301180  1.0  -0.0907
  C  C136  1  0.165300  0.042520  0.403850  1.0  0.7033
  C  C137  1  0.220200  0.973150  0.154900  1.0  0.6704
  C  C138  1  0.159500  0.018350  0.204880  1.0  -0.1419
  C  C139  1  0.094300  0.071280  0.181260  1.0  -0.0791
  C  C140  1  0.038600  0.113080  0.229000  1.0  0.0842
  C  C141  1  0.971200  0.170670  0.203150  1.0  -0.3601
  C  C142  1  0.484000  0.143440  0.510010  1.0  0.7067
  C  C143  1  0.580700  0.198490  0.492550  1.0  -0.1671
  C  C144  1  0.753300  0.198780  0.460730  1.0  -0.0765
  C  C145  1  0.320400  0.991310  0.777720  1.0  0.0107
  C  C146  1  0.373200  0.949660  0.825880  1.0  -0.1624
  C  C147  1  0.447700  0.898200  0.801180  1.0  -0.0903
  C  C148  1  0.334700  0.957480  0.903850  1.0  0.7027
  C  C149  1  0.279800  0.026850  0.654900  1.0  0.6715
  C  C150  1  0.340500  0.981650  0.704880  1.0  -0.1435
  C  C151  1  0.405700  0.928720  0.681260  1.0  -0.08
  C  C152  1  0.461400  0.886920  0.729000  1.0  0.0842
  C  C153  1  0.528800  0.829330  0.703150  1.0  -0.3614
  C  C154  1  0.016000  0.856560  0.010010  1.0  0.708
  C  C155  1  0.919300  0.801510  0.992550  1.0  -0.1682
  C  C156  1  0.746700  0.801220  0.960730  1.0  -0.0772
  C  C157  1  0.820400  0.508690  0.722280  1.0  0.0121
  C  C158  1  0.873200  0.550340  0.674120  1.0  -0.1622
  C  C159  1  0.947700  0.601800  0.698820  1.0  -0.0907
  C  C160  1  0.834700  0.542520  0.596150  1.0  0.7023
  C  C161  1  0.779800  0.473150  0.845100  1.0  0.671
  C  C162  1  0.840500  0.518350  0.795120  1.0  -0.1423
  C  C163  1  0.905700  0.571280  0.818740  1.0  -0.0768
  C  C164  1  0.961400  0.613080  0.771000  1.0  0.0838
  C  C165  1  0.028800  0.670670  0.796850  1.0  -0.3606
  C  C166  1  0.516000  0.643440  0.489990  1.0  0.7041
  C  C167  1  0.419300  0.698490  0.507450  1.0  -0.1717
  C  C168  1  0.246700  0.698780  0.539270  1.0  -0.0752
  C  C169  1  0.679600  0.491310  0.222280  1.0  0.0119
  C  C170  1  0.626800  0.449660  0.174120  1.0  -0.1619
  C  C171  1  0.552300  0.398200  0.198820  1.0  -0.0907
  C  C172  1  0.665300  0.457480  0.096150  1.0  0.7035
  C  C173  1  0.720200  0.526850  0.345100  1.0  0.6717
  C  C174  1  0.659500  0.481650  0.295120  1.0  -0.144
  C  C175  1  0.594300  0.428720  0.318740  1.0  -0.0771
  C  C176  1  0.538600  0.386920  0.271000  1.0  0.0836
  C  C177  1  0.471200  0.329330  0.296850  1.0  -0.3612
  C  C178  1  0.984000  0.356560  0.989990  1.0  0.7052
  C  C179  1  0.080700  0.301510  0.007450  1.0  -0.1694
  C  C180  1  0.253300  0.301220  0.039270  1.0  -0.0749
  C  C181  1  0.503500  0.750000  0.491100  1.0  0.002
  C  C182  1  0.158700  0.750000  0.554800  1.0  0.0574
  C  C183  1  0.968000  0.750000  0.587000  1.0  -0.187
  C  C184  1  0.996500  0.250000  0.991100  1.0  0.0019
  C  C185  1  0.341300  0.250000  0.054800  1.0  0.0566
  C  C186  1  0.532000  0.250000  0.087000  1.0  -0.1904
  C  C187  1  0.496500  0.250000  0.508900  1.0  0.0026
  C  C188  1  0.841300  0.250000  0.445200  1.0  0.0517
  C  C189  1  0.032000  0.250000  0.413000  1.0  -0.1906
  C  C190  1  0.003500  0.750000  0.008900  1.0  0.0041
  C  C191  1  0.658700  0.750000  0.945200  1.0  0.0517
  C  C192  1  0.468000  0.750000  0.913000  1.0  -0.1881
  O  O193  1  0.727100  0.996950  0.578930  1.0  -0.6407
  O  O194  1  0.907200  0.922650  0.553700  1.0  -0.6078
  O  O195  1  0.773400  0.015630  0.912870  1.0  -0.7014
  O  O196  1  0.730500  0.074320  0.823430  1.0  -0.5532
  O  O197  1  0.440200  0.902940  0.504000  1.0  -0.6304
  O  O198  1  0.673000  0.850840  0.462190  1.0  -0.6295
  O  O199  1  0.772900  0.003050  0.078930  1.0  -0.6401
  O  O200  1  0.592800  0.077350  0.053700  1.0  -0.6074
  O  O201  1  0.726600  0.984370  0.412870  1.0  -0.7023
  O  O202  1  0.769500  0.925680  0.323430  1.0  -0.5555
  O  O203  1  0.059800  0.097060  0.004000  1.0  -0.6309
  O  O204  1  0.827000  0.149160  0.962190  1.0  -0.628
  O  O205  1  0.272900  0.496950  0.421070  1.0  -0.64
  O  O206  1  0.092800  0.422650  0.446300  1.0  -0.6089
  O  O207  1  0.226600  0.515630  0.087130  1.0  -0.7009
  O  O208  1  0.269500  0.574320  0.176570  1.0  -0.5554
  O  O209  1  0.559800  0.402940  0.496000  1.0  -0.6304
  O  O210  1  0.327000  0.350840  0.537810  1.0  -0.629
  O  O211  1  0.227100  0.503050  0.921070  1.0  -0.6406
  O  O212  1  0.407200  0.577350  0.946300  1.0  -0.6082
  O  O213  1  0.273400  0.484370  0.587130  1.0  -0.7012
  O  O214  1  0.230500  0.425680  0.676570  1.0  -0.5533
  O  O215  1  0.940200  0.597060  0.996000  1.0  -0.6318
  O  O216  1  0.173000  0.649160  0.037810  1.0  -0.6291
  O  O217  1  0.272900  0.003050  0.421070  1.0  -0.6403
  O  O218  1  0.092800  0.077350  0.446300  1.0  -0.609
  O  O219  1  0.226600  0.984370  0.087130  1.0  -0.7012
  O  O220  1  0.269500  0.925680  0.176570  1.0  -0.5542
  O  O221  1  0.559800  0.097060  0.496000  1.0  -0.6314
  O  O222  1  0.327000  0.149160  0.537810  1.0  -0.6289
  O  O223  1  0.227100  0.996950  0.921070  1.0  -0.6405
  O  O224  1  0.407200  0.922650  0.946300  1.0  -0.6081
  O  O225  1  0.273400  0.015630  0.587130  1.0  -0.7007
  O  O226  1  0.230500  0.074320  0.676570  1.0  -0.5541
  O  O227  1  0.940200  0.902940  0.996000  1.0  -0.6307
  O  O228  1  0.173000  0.850840  0.037810  1.0  -0.6284
  O  O229  1  0.727100  0.503050  0.578930  1.0  -0.6408
  O  O230  1  0.907200  0.577350  0.553700  1.0  -0.6079
  O  O231  1  0.773400  0.484370  0.912870  1.0  -0.7023
  O  O232  1  0.730500  0.425680  0.823430  1.0  -0.5547
  O  O233  1  0.440200  0.597060  0.504000  1.0  -0.6307
  O  O234  1  0.673000  0.649160  0.462190  1.0  -0.6307
  O  O235  1  0.772900  0.496950  0.078930  1.0  -0.6405
  O  O236  1  0.592800  0.422650  0.053700  1.0  -0.6072
  O  O237  1  0.726600  0.515630  0.412870  1.0  -0.7017
  O  O238  1  0.769500  0.574320  0.323430  1.0  -0.5545
  O  O239  1  0.059800  0.402940  0.004000  1.0  -0.6311
  O  O240  1  0.827000  0.350840  0.962190  1.0  -0.6273
