# generated using pymatgen
data_Co3H2(C4O5)2
_symmetry_space_group_name_H-M   'P 1'
_cell_length_a   5.49400000
_cell_length_b   7.93160000
_cell_length_c   7.93160000
_cell_angle_alpha   108.47300000
_cell_angle_beta   90.40030000
_cell_angle_gamma   90.40030000
_symmetry_Int_Tables_number   1
_chemical_formula_structural   Co3H2(C4O5)2
_chemical_formula_sum   'Co3 H2 C8 O10'
_cell_volume   327.79644377
_cell_formula_units_Z   1
loop_
 _symmetry_equiv_pos_site_id
 _symmetry_equiv_pos_as_xyz
  1  'x, y, z'
loop_
 _atom_site_type_symbol
 _atom_site_label
 _atom_site_symmetry_multiplicity
 _atom_site_fract_x
 _atom_site_fract_y
 _atom_site_fract_z
 _atom_site_occupancy
 _atom_site_charge
  Co  Co1  1  0.500000  0.000000  0.000000  1.0  1.0876
  Co  Co2  1  0.000000  0.880110  0.119890  1.0  1.0818
  Co  Co3  1  0.000000  0.119890  0.880110  1.0  1.0799
  H  H4  1  0.144000  0.808000  0.808000  1.0  0.4837
  H  H5  1  0.856000  0.192000  0.192000  1.0  0.4834
  C  C6  1  0.424600  0.008500  0.383900  1.0  0.229
  C  C7  1  0.658400  0.947800  0.432600  1.0  0.2059
  C  C8  1  0.575400  0.616100  0.991500  1.0  0.2292
  C  C9  1  0.341600  0.567400  0.052200  1.0  0.2059
  C  C10  1  0.575400  0.991500  0.616100  1.0  0.2295
  C  C11  1  0.341600  0.052200  0.567400  1.0  0.2064
  C  C12  1  0.424600  0.383900  0.008500  1.0  0.2281
  C  C13  1  0.658400  0.432600  0.947800  1.0  0.206
  O  O14  1  0.329000  0.020010  0.242990  1.0  -0.5256
  O  O15  1  0.850100  0.881860  0.356140  1.0  -0.464
  O  O16  1  0.671000  0.757010  0.979990  1.0  -0.5255
  O  O17  1  0.149900  0.643860  0.118140  1.0  -0.4663
  O  O18  1  0.671000  0.979990  0.757010  1.0  -0.5257
  O  O19  1  0.149900  0.118140  0.643860  1.0  -0.4684
  O  O20  1  0.329000  0.242990  0.020010  1.0  -0.5248
  O  O21  1  0.850100  0.356140  0.881860  1.0  -0.4645
  O  O22  1  0.174400  0.897000  0.897000  1.0  -0.996
  O  O23  1  0.825600  0.103000  0.103000  1.0  -0.9954
