# generated using pymatgen
data_Co3H2(C4O5)2
_symmetry_space_group_name_H-M   'P 1'
_cell_length_a   5.49980000
_cell_length_b   7.93570000
_cell_length_c   7.93570000
_cell_angle_alpha   108.28800000
_cell_angle_beta   90.31220000
_cell_angle_gamma   90.31220000
_symmetry_Int_Tables_number   1
_chemical_formula_structural   Co3H2(C4O5)2
_chemical_formula_sum   'Co3 H2 C8 O10'
_cell_volume   328.84371114
_cell_formula_units_Z   1
loop_
 _symmetry_equiv_pos_site_id
 _symmetry_equiv_pos_as_xyz
  1  'x, y, z'
loop_
 _atom_site_type_symbol
 _atom_site_label
 _atom_site_symmetry_multiplicity
 _atom_site_fract_x
 _atom_site_fract_y
 _atom_site_fract_z
 _atom_site_occupancy
 _atom_site_charge
  Co  Co1  1  0.500000  0.000000  0.000000  1.0  1.0851
  Co  Co2  1  0.000000  0.879860  0.120140  1.0  1.0746
  Co  Co3  1  0.000000  0.120140  0.879860  1.0  1.0725
  H  H4  1  0.844000  0.182000  0.182000  1.0  0.4889
  H  H5  1  0.156000  0.818000  0.818000  1.0  0.4888
  C  C6  1  0.658500  0.947700  0.432700  1.0  0.2077
  C  C7  1  0.424600  0.008200  0.384000  1.0  0.2195
  C  C8  1  0.341500  0.567300  0.052300  1.0  0.2071
  C  C9  1  0.575400  0.616000  0.991800  1.0  0.2205
  C  C10  1  0.341500  0.052300  0.567300  1.0  0.2076
  C  C11  1  0.575400  0.991800  0.616000  1.0  0.2207
  C  C12  1  0.658500  0.432700  0.947700  1.0  0.2074
  C  C13  1  0.424600  0.384000  0.008200  1.0  0.2198
  O  O14  1  0.849200  0.881940  0.356660  1.0  -0.4645
  O  O15  1  0.328500  0.019300  0.243100  1.0  -0.5121
  O  O16  1  0.150800  0.643340  0.118060  1.0  -0.4665
  O  O17  1  0.671500  0.756900  0.980700  1.0  -0.5127
  O  O18  1  0.150800  0.118060  0.643340  1.0  -0.4687
  O  O19  1  0.671500  0.980700  0.756900  1.0  -0.5125
  O  O20  1  0.849200  0.356660  0.881940  1.0  -0.464
  O  O21  1  0.328500  0.243100  0.019300  1.0  -0.5132
  O  O22  1  0.826100  0.102100  0.102100  1.0  -1.0027
  O  O23  1  0.173900  0.897900  0.897900  1.0  -1.0033
