# generated using pymatgen
data_Cd3H6(C2O3)4
_symmetry_space_group_name_H-M   'P 1'
_cell_length_a   9.44170000
_cell_length_b   13.70050000
_cell_length_c   15.65230000
_cell_angle_alpha   90.00000000
_cell_angle_beta   90.00000000
_cell_angle_gamma   90.00000000
_symmetry_Int_Tables_number   1
_chemical_formula_structural   Cd3H6(C2O3)4
_chemical_formula_sum   'Cd12 H24 C32 O48'
_cell_volume   2024.71908863
_cell_formula_units_Z   4
loop_
 _symmetry_equiv_pos_site_id
 _symmetry_equiv_pos_as_xyz
  1  'x, y, z'
loop_
 _atom_site_type_symbol
 _atom_site_label
 _atom_site_symmetry_multiplicity
 _atom_site_fract_x
 _atom_site_fract_y
 _atom_site_fract_z
 _atom_site_occupancy
 _atom_site_charge
  Cd  Cd1  1  0.603740  0.867790  0.502670  1.0  1.0876
  Cd  Cd2  1  0.865870  0.998710  0.387380  1.0  1.0869
  Cd  Cd3  1  0.791410  0.731670  0.777360  1.0  1.1189
  Cd  Cd4  1  0.603740  0.132210  0.497330  1.0  1.0879
  Cd  Cd5  1  0.865870  0.001290  0.612620  1.0  1.087
  Cd  Cd6  1  0.791410  0.268330  0.222640  1.0  1.1184
  Cd  Cd7  1  0.396260  0.632210  0.002670  1.0  1.0883
  Cd  Cd8  1  0.134130  0.501290  0.887380  1.0  1.0837
  Cd  Cd9  1  0.208590  0.768330  0.277360  1.0  1.1196
  Cd  Cd10  1  0.396260  0.367790  0.997330  1.0  1.0891
  Cd  Cd11  1  0.134130  0.498710  0.112620  1.0  1.0832
  Cd  Cd12  1  0.208590  0.231670  0.722640  1.0  1.1195
  H  H13  1  0.666000  0.681000  0.450000  1.0  0.4302
  H  H14  1  0.809000  0.911000  0.243000  1.0  0.4091
  H  H15  1  0.891500  0.656300  0.490800  1.0  0.1083
  H  H16  1  0.006700  0.808000  0.537800  1.0  0.0983
  H  H17  1  0.566400  0.963500  0.201800  1.0  0.1106
  H  H18  1  0.474700  0.050700  0.328700  1.0  0.1004
  H  H19  1  0.666000  0.319000  0.550000  1.0  0.4305
  H  H20  1  0.809000  0.089000  0.757000  1.0  0.4128
  H  H21  1  0.891500  0.343700  0.509200  1.0  0.1087
  H  H22  1  0.006700  0.192000  0.462200  1.0  0.0984
  H  H23  1  0.566400  0.036500  0.798200  1.0  0.1113
  H  H24  1  0.474700  0.949300  0.671300  1.0  0.0992
  H  H25  1  0.334000  0.819000  0.950000  1.0  0.4314
  H  H26  1  0.191000  0.589000  0.743000  1.0  0.4128
  H  H27  1  0.108500  0.843700  0.990800  1.0  0.1086
  H  H28  1  0.993300  0.692000  0.037800  1.0  0.098
  H  H29  1  0.433600  0.536500  0.701800  1.0  0.1113
  H  H30  1  0.525300  0.449300  0.828700  1.0  0.0996
  H  H31  1  0.334000  0.181000  0.050000  1.0  0.4297
  H  H32  1  0.191000  0.411000  0.257000  1.0  0.4137
  H  H33  1  0.108500  0.156300  0.009200  1.0  0.108
  H  H34  1  0.993300  0.308000  0.962200  1.0  0.0981
  H  H35  1  0.433600  0.463500  0.298200  1.0  0.112
  H  H36  1  0.525300  0.550700  0.171300  1.0  0.0989
  C  C37  1  0.788200  0.720700  0.595500  1.0  0.6161
  C  C38  1  0.838100  0.717800  0.502700  1.0  0.0435
  C  C39  1  0.934800  0.808300  0.490800  1.0  0.094
  C  C40  1  0.012500  0.799500  0.406900  1.0  0.6258
  C  C41  1  0.695900  0.080800  0.239100  1.0  0.6194
  C  C42  1  0.626000  0.981500  0.252200  1.0  0.0611
  C  C43  1  0.534000  0.990600  0.334300  1.0  0.0845
  C  C44  1  0.434800  0.903500  0.337500  1.0  0.6536
  C  C45  1  0.788200  0.279300  0.404500  1.0  0.6157
  C  C46  1  0.838100  0.282200  0.497300  1.0  0.0442
  C  C47  1  0.934800  0.191700  0.509200  1.0  0.0936
  C  C48  1  0.012500  0.200500  0.593100  1.0  0.6281
  C  C49  1  0.695900  0.919200  0.760900  1.0  0.6132
  C  C50  1  0.626000  0.018500  0.747800  1.0  0.0608
  C  C51  1  0.534000  0.009400  0.665700  1.0  0.0852
  C  C52  1  0.434800  0.096500  0.662500  1.0  0.6535
  C  C53  1  0.211800  0.779300  0.095500  1.0  0.6149
  C  C54  1  0.161900  0.782200  0.002700  1.0  0.0426
  C  C55  1  0.065200  0.691700  0.990800  1.0  0.0937
  C  C56  1  0.987500  0.700500  0.906900  1.0  0.6277
  C  C57  1  0.304100  0.419200  0.739100  1.0  0.6184
  C  C58  1  0.374000  0.518500  0.752200  1.0  0.0615
  C  C59  1  0.466000  0.509400  0.834300  1.0  0.084
  C  C60  1  0.565200  0.596500  0.837500  1.0  0.6524
  C  C61  1  0.211800  0.220700  0.904500  1.0  0.6161
  C  C62  1  0.161900  0.217800  0.997300  1.0  0.0429
  C  C63  1  0.065200  0.308300  0.009200  1.0  0.0936
  C  C64  1  0.987500  0.299500  0.093100  1.0  0.629
  C  C65  1  0.304100  0.580800  0.260900  1.0  0.6135
  C  C66  1  0.374000  0.481500  0.247800  1.0  0.0611
  C  C67  1  0.466000  0.490600  0.165700  1.0  0.0845
  C  C68  1  0.565200  0.403500  0.162500  1.0  0.6519
  O  O69  1  0.674900  0.760300  0.614100  1.0  -0.5938
  O  O70  1  0.876100  0.689600  0.651500  1.0  -0.5966
  O  O71  1  0.723600  0.728100  0.445700  1.0  -0.5458
  O  O72  1  0.853800  0.892600  0.498900  1.0  -0.7261
  O  O73  1  0.003600  0.864400  0.350300  1.0  -0.6218
  O  O74  1  0.091700  0.725000  0.396400  1.0  -0.5821
  O  O75  1  0.818100  0.095600  0.269200  1.0  -0.6241
  O  O76  1  0.626800  0.145500  0.200000  1.0  -0.5579
  O  O77  1  0.729600  0.908500  0.269000  1.0  -0.5732
  O  O78  1  0.616800  0.000800  0.406600  1.0  -0.7267
  O  O79  1  0.441700  0.842100  0.396500  1.0  -0.5956
  O  O80  1  0.344900  0.899300  0.277500  1.0  -0.5988
  O  O81  1  0.674900  0.239700  0.385900  1.0  -0.5941
  O  O82  1  0.876100  0.310400  0.348500  1.0  -0.5965
  O  O83  1  0.723600  0.271900  0.554300  1.0  -0.5474
  O  O84  1  0.853800  0.107400  0.501100  1.0  -0.7257
  O  O85  1  0.003600  0.135600  0.649700  1.0  -0.6207
  O  O86  1  0.091700  0.275000  0.603600  1.0  -0.5823
  O  O87  1  0.818100  0.904400  0.730800  1.0  -0.6248
  O  O88  1  0.626800  0.854500  0.800000  1.0  -0.5582
  O  O89  1  0.729600  0.091500  0.731000  1.0  -0.5747
  O  O90  1  0.616800  0.999200  0.593400  1.0  -0.7281
  O  O91  1  0.441700  0.157900  0.603500  1.0  -0.5967
  O  O92  1  0.344900  0.100700  0.722500  1.0  -0.5982
  O  O93  1  0.325100  0.739700  0.114100  1.0  -0.5935
  O  O94  1  0.123900  0.810400  0.151500  1.0  -0.5962
  O  O95  1  0.276400  0.771900  0.945700  1.0  -0.5458
  O  O96  1  0.146200  0.607400  0.998900  1.0  -0.7255
  O  O97  1  0.996400  0.635600  0.850300  1.0  -0.6212
  O  O98  1  0.908300  0.775000  0.896400  1.0  -0.5826
  O  O99  1  0.181900  0.404400  0.769200  1.0  -0.6265
  O  O100  1  0.373200  0.354500  0.700000  1.0  -0.5605
  O  O101  1  0.270400  0.591500  0.769000  1.0  -0.5746
  O  O102  1  0.383200  0.499200  0.906600  1.0  -0.7262
  O  O103  1  0.558300  0.657900  0.896500  1.0  -0.5976
  O  O104  1  0.655100  0.600700  0.777500  1.0  -0.5991
  O  O105  1  0.325100  0.260300  0.885900  1.0  -0.5942
  O  O106  1  0.123900  0.189600  0.848500  1.0  -0.5963
  O  O107  1  0.276400  0.228100  0.054300  1.0  -0.5477
  O  O108  1  0.146200  0.392600  0.001100  1.0  -0.7263
  O  O109  1  0.996400  0.364400  0.149700  1.0  -0.6221
  O  O110  1  0.908300  0.225000  0.103600  1.0  -0.5824
  O  O111  1  0.181900  0.595600  0.230800  1.0  -0.6256
  O  O112  1  0.373200  0.645500  0.300000  1.0  -0.5598
  O  O113  1  0.270400  0.408500  0.231000  1.0  -0.5749
  O  O114  1  0.383200  0.500800  0.093400  1.0  -0.7271
  O  O115  1  0.558300  0.342100  0.103500  1.0  -0.5957
  O  O116  1  0.655100  0.399300  0.222500  1.0  -0.599
