# generated using pymatgen
data_CoH26C28N7O4
_symmetry_space_group_name_H-M   'P 1'
_cell_length_a   13.54300000
_cell_length_b   12.33800000
_cell_length_c   40.26700000
_cell_angle_alpha   90.00000000
_cell_angle_beta   108.39500000
_cell_angle_gamma   90.00000000
_symmetry_Int_Tables_number   1
_chemical_formula_structural   CoH26C28N7O4
_chemical_formula_sum   'Co8 H208 C224 N56 O32'
_cell_volume   6384.56028596
_cell_formula_units_Z   8
loop_
 _symmetry_equiv_pos_site_id
 _symmetry_equiv_pos_as_xyz
  1  'x, y, z'
loop_
 _atom_site_type_symbol
 _atom_site_label
 _atom_site_symmetry_multiplicity
 _atom_site_fract_x
 _atom_site_fract_y
 _atom_site_fract_z
 _atom_site_occupancy
 _atom_site_charge
  Co  Co1  1  0.320680  0.387940  0.193180  1.0  0.941
  Co  Co2  1  0.127110  0.408860  0.420640  1.0  0.8737
  Co  Co3  1  0.679320  0.887940  0.306820  1.0  0.9417
  Co  Co4  1  0.872890  0.908860  0.079360  1.0  0.8786
  Co  Co5  1  0.679320  0.612060  0.806820  1.0  0.9404
  Co  Co6  1  0.872890  0.591140  0.579360  1.0  0.8778
  Co  Co7  1  0.320680  0.112060  0.693180  1.0  0.9402
  Co  Co8  1  0.127110  0.091140  0.920640  1.0  0.8734
  H  H9  1  0.149900  0.429900  0.545800  1.0  0.1159
  H  H10  1  0.305500  0.175700  0.521600  1.0  0.1138
  H  H11  1  0.208200  0.386300  0.598100  1.0  0.1242
  H  H12  1  0.309300  0.103500  0.568100  1.0  0.1089
  H  H13  1  0.755900  0.452600  0.226700  1.0  0.076
  H  H14  1  0.743800  0.404100  0.188800  1.0  0.1098
  H  H15  1  0.545600  0.449200  0.184600  1.0  0.0993
  H  H16  1  0.487000  0.193300  0.233800  1.0  0.1033
  H  H17  1  0.675700  0.192600  0.241300  1.0  0.1151
  H  H18  1  0.769200  0.400700  0.274700  1.0  0.1079
  H  H19  1  0.876800  0.394500  0.306000  1.0  0.1015
  H  H20  1  0.793900  0.298400  0.300400  1.0  0.1001
  H  H21  1  0.067400  0.189500  0.326500  1.0  0.0911
  H  H22  1  0.967700  0.251100  0.330600  1.0  0.0845
  H  H23  1  0.798900  0.093700  0.288900  1.0  0.0973
  H  H24  1  0.930300  0.870500  0.358600  1.0  0.1013
  H  H25  1  0.061800  0.012700  0.362400  1.0  0.1252
  H  H26  1  0.159700  0.132700  0.278500  1.0  0.115
  H  H27  1  0.091600  0.037400  0.255300  1.0  0.0898
  H  H28  1  0.084800  0.061400  0.293500  1.0  0.0924
  H  H29  1  0.041000  0.204500  0.182700  1.0  0.1019
  H  H30  1  0.097000  0.119100  0.212700  1.0  0.0906
  H  H31  1  0.018100  0.062900  0.133700  1.0  0.1034
  H  H32  1  0.810700  0.870500  0.153000  1.0  0.1082
  H  H33  1  0.878500  0.990600  0.204000  1.0  0.1252
  H  H34  1  0.890500  0.242900  0.156000  1.0  0.1054
  H  H35  1  0.833500  0.352100  0.161300  1.0  0.1195
  H  H36  1  0.774400  0.238400  0.158000  1.0  0.1195
  H  H37  1  0.555500  0.598000  0.323900  1.0  0.0802
  H  H38  1  0.621200  0.497000  0.317500  1.0  0.0818
  H  H39  1  0.507400  0.485300  0.254400  1.0  0.0943
  H  H40  1  0.239900  0.393200  0.264700  1.0  0.109
  H  H41  1  0.356200  0.438900  0.323600  1.0  0.1276
  H  H42  1  0.418000  0.647400  0.380600  1.0  0.1047
  H  H43  1  0.447100  0.641100  0.345100  1.0  0.0983
  H  H44  1  0.518800  0.709100  0.377700  1.0  0.119
  H  H45  1  0.571200  0.569300  0.468100  1.0  0.0961
  H  H46  1  0.546600  0.663200  0.439200  1.0  0.091
  H  H47  1  0.383900  0.418400  0.429800  1.0  0.0986
  H  H48  1  0.201200  0.661700  0.435300  1.0  0.1049
  H  H49  1  0.376400  0.736800  0.445500  1.0  0.1236
  H  H50  1  0.593200  0.418500  0.478600  1.0  0.1104
  H  H51  1  0.714300  0.402800  0.483600  1.0  0.1197
  H  H52  1  0.635000  0.304600  0.469500  1.0  0.0998
  H  H53  1  0.748500  0.259800  0.448600  1.0  0.0923
  H  H54  1  0.695700  0.197800  0.412600  1.0  0.1112
  H  H55  1  0.887700  0.417800  0.425500  1.0  0.0927
  H  H56  1  0.027200  0.164200  0.400900  1.0  0.1047
  H  H57  1  0.855600  0.103500  0.403800  1.0  0.1351
  H  H58  1  0.740300  0.348000  0.347500  1.0  0.1063
  H  H59  1  0.621800  0.323500  0.325300  1.0  0.1032
  H  H60  1  0.682300  0.245000  0.356800  1.0  0.1062
  H  H61  1  0.850100  0.929900  0.954200  1.0  0.1148
  H  H62  1  0.694500  0.675700  0.978400  1.0  0.114
  H  H63  1  0.791800  0.886300  0.901900  1.0  0.1239
  H  H64  1  0.690700  0.603500  0.931900  1.0  0.1095
  H  H65  1  0.244100  0.952600  0.273300  1.0  0.0759
  H  H66  1  0.256200  0.904100  0.311200  1.0  0.1093
  H  H67  1  0.454400  0.949200  0.315400  1.0  0.0991
  H  H68  1  0.513000  0.693300  0.266200  1.0  0.1031
  H  H69  1  0.324300  0.692600  0.258700  1.0  0.115
  H  H70  1  0.230800  0.900700  0.225300  1.0  0.1065
  H  H71  1  0.123200  0.894500  0.194000  1.0  0.102
  H  H72  1  0.206100  0.798400  0.199600  1.0  0.1003
  H  H73  1  0.932600  0.689500  0.173500  1.0  0.0927
  H  H74  1  0.032300  0.751100  0.169400  1.0  0.0851
  H  H75  1  0.201100  0.593700  0.211100  1.0  0.0977
  H  H76  1  0.069700  0.370500  0.141400  1.0  0.1014
  H  H77  1  0.938200  0.512700  0.137600  1.0  0.1245
  H  H78  1  0.840300  0.632700  0.221500  1.0  0.1131
  H  H79  1  0.908400  0.537400  0.244700  1.0  0.0893
  H  H80  1  0.915200  0.561400  0.206500  1.0  0.0924
  H  H81  1  0.959000  0.704500  0.317300  1.0  0.1014
  H  H82  1  0.903000  0.619100  0.287300  1.0  0.0903
  H  H83  1  0.981900  0.562900  0.366300  1.0  0.1026
  H  H84  1  0.189300  0.370500  0.347000  1.0  0.1097
  H  H85  1  0.121500  0.490600  0.296000  1.0  0.125
  H  H86  1  0.109500  0.742900  0.344000  1.0  0.1073
  H  H87  1  0.166500  0.852100  0.338700  1.0  0.1208
  H  H88  1  0.225600  0.738400  0.342000  1.0  0.1198
  H  H89  1  0.444500  0.098000  0.176100  1.0  0.0791
  H  H90  1  0.378800  0.997000  0.182500  1.0  0.0828
  H  H91  1  0.492600  0.985300  0.245600  1.0  0.0933
  H  H92  1  0.760100  0.893200  0.235300  1.0  0.1094
  H  H93  1  0.643800  0.938900  0.176400  1.0  0.1283
  H  H94  1  0.582000  0.147400  0.119400  1.0  0.1047
  H  H95  1  0.552900  0.141100  0.154900  1.0  0.0978
  H  H96  1  0.481200  0.209100  0.122300  1.0  0.1201
  H  H97  1  0.428800  0.069300  0.031900  1.0  0.0979
  H  H98  1  0.453400  0.163200  0.060800  1.0  0.0916
  H  H99  1  0.616100  0.918400  0.070200  1.0  0.0983
  H  H100  1  0.798800  0.161700  0.064700  1.0  0.1056
  H  H101  1  0.623600  0.236800  0.054500  1.0  0.1239
  H  H102  1  0.406800  0.918500  0.021400  1.0  0.11
  H  H103  1  0.285700  0.902800  0.016400  1.0  0.1169
  H  H104  1  0.365000  0.804600  0.030500  1.0  0.1014
  H  H105  1  0.251500  0.759800  0.051400  1.0  0.0912
  H  H106  1  0.304300  0.697800  0.087400  1.0  0.1113
  H  H107  1  0.112300  0.917800  0.074500  1.0  0.0933
  H  H108  1  0.972800  0.664200  0.099100  1.0  0.1058
  H  H109  1  0.144400  0.603500  0.096200  1.0  0.1353
  H  H110  1  0.259700  0.848000  0.152500  1.0  0.1062
  H  H111  1  0.378200  0.823500  0.174700  1.0  0.1025
  H  H112  1  0.317700  0.745000  0.143200  1.0  0.1074
  H  H113  1  0.850100  0.570100  0.454200  1.0  0.1151
  H  H114  1  0.694500  0.824300  0.478400  1.0  0.1142
  H  H115  1  0.791800  0.613700  0.401900  1.0  0.1241
  H  H116  1  0.690700  0.896500  0.431900  1.0  0.1093
  H  H117  1  0.244100  0.547400  0.773300  1.0  0.0774
  H  H118  1  0.256200  0.595900  0.811200  1.0  0.1101
  H  H119  1  0.454400  0.550800  0.815400  1.0  0.0991
  H  H120  1  0.513000  0.806700  0.766200  1.0  0.1034
  H  H121  1  0.324300  0.807400  0.758700  1.0  0.1153
  H  H122  1  0.230800  0.599300  0.725300  1.0  0.1058
  H  H123  1  0.123200  0.605500  0.694000  1.0  0.1014
  H  H124  1  0.206100  0.701600  0.699600  1.0  0.0999
  H  H125  1  0.932600  0.810500  0.673500  1.0  0.0931
  H  H126  1  0.032300  0.748900  0.669400  1.0  0.0854
  H  H127  1  0.201100  0.906300  0.711100  1.0  0.0973
  H  H128  1  0.069700  0.129500  0.641400  1.0  0.1015
  H  H129  1  0.938200  0.987300  0.637600  1.0  0.1243
  H  H130  1  0.840300  0.867300  0.721500  1.0  0.113
  H  H131  1  0.908400  0.962600  0.744700  1.0  0.0895
  H  H132  1  0.915200  0.938600  0.706500  1.0  0.0921
  H  H133  1  0.959000  0.795500  0.817300  1.0  0.1025
  H  H134  1  0.903000  0.880900  0.787300  1.0  0.0904
  H  H135  1  0.981900  0.937100  0.866300  1.0  0.1027
  H  H136  1  0.189300  0.129500  0.847000  1.0  0.1105
  H  H137  1  0.121500  0.009400  0.796000  1.0  0.1253
  H  H138  1  0.109500  0.757100  0.844000  1.0  0.1078
  H  H139  1  0.166500  0.647900  0.838700  1.0  0.123
  H  H140  1  0.225600  0.761600  0.842000  1.0  0.1195
  H  H141  1  0.444500  0.402000  0.676100  1.0  0.0815
  H  H142  1  0.378800  0.503000  0.682500  1.0  0.0828
  H  H143  1  0.492600  0.514700  0.745600  1.0  0.0932
  H  H144  1  0.760100  0.606800  0.735300  1.0  0.1103
  H  H145  1  0.643800  0.561100  0.676400  1.0  0.1279
  H  H146  1  0.582000  0.352600  0.619400  1.0  0.1052
  H  H147  1  0.552900  0.358900  0.654900  1.0  0.0991
  H  H148  1  0.481200  0.290900  0.622300  1.0  0.1202
  H  H149  1  0.428800  0.430700  0.531900  1.0  0.0981
  H  H150  1  0.453400  0.336800  0.560800  1.0  0.0916
  H  H151  1  0.616100  0.581600  0.570200  1.0  0.0995
  H  H152  1  0.798800  0.338300  0.564700  1.0  0.105
  H  H153  1  0.623600  0.263200  0.554500  1.0  0.1237
  H  H154  1  0.406800  0.581500  0.521400  1.0  0.1099
  H  H155  1  0.285700  0.597200  0.516400  1.0  0.1174
  H  H156  1  0.365000  0.695400  0.530500  1.0  0.1028
  H  H157  1  0.251500  0.740200  0.551400  1.0  0.0912
  H  H158  1  0.304300  0.802200  0.587400  1.0  0.1112
  H  H159  1  0.112300  0.582200  0.574500  1.0  0.0933
  H  H160  1  0.972800  0.835800  0.599100  1.0  0.1056
  H  H161  1  0.144400  0.896500  0.596200  1.0  0.1355
  H  H162  1  0.259700  0.652000  0.652500  1.0  0.1062
  H  H163  1  0.378200  0.676500  0.674700  1.0  0.1019
  H  H164  1  0.317700  0.755000  0.643200  1.0  0.1064
  H  H165  1  0.149900  0.070100  0.045800  1.0  0.1155
  H  H166  1  0.305500  0.324300  0.021600  1.0  0.1143
  H  H167  1  0.208200  0.113700  0.098100  1.0  0.1242
  H  H168  1  0.309300  0.396500  0.068100  1.0  0.109
  H  H169  1  0.755900  0.047400  0.726700  1.0  0.0774
  H  H170  1  0.743800  0.095900  0.688800  1.0  0.1097
  H  H171  1  0.545600  0.050800  0.684600  1.0  0.0995
  H  H172  1  0.487000  0.306700  0.733800  1.0  0.1038
  H  H173  1  0.675700  0.307400  0.741300  1.0  0.1147
  H  H174  1  0.769200  0.099300  0.774700  1.0  0.1074
  H  H175  1  0.876800  0.105500  0.806000  1.0  0.1017
  H  H176  1  0.793900  0.201600  0.800400  1.0  0.0991
  H  H177  1  0.067400  0.310500  0.826500  1.0  0.0914
  H  H178  1  0.967700  0.248900  0.830600  1.0  0.0853
  H  H179  1  0.798900  0.406300  0.788900  1.0  0.0967
  H  H180  1  0.930300  0.629500  0.858600  1.0  0.101
  H  H181  1  0.061800  0.487300  0.862400  1.0  0.125
  H  H182  1  0.159700  0.367300  0.778500  1.0  0.1147
  H  H183  1  0.091600  0.462600  0.755300  1.0  0.0899
  H  H184  1  0.084800  0.438600  0.793500  1.0  0.0928
  H  H185  1  0.041000  0.295500  0.682700  1.0  0.1018
  H  H186  1  0.097000  0.380900  0.712700  1.0  0.0905
  H  H187  1  0.018100  0.437100  0.633700  1.0  0.1037
  H  H188  1  0.810700  0.629500  0.653000  1.0  0.1092
  H  H189  1  0.878500  0.509400  0.704000  1.0  0.1256
  H  H190  1  0.890500  0.257100  0.656000  1.0  0.1055
  H  H191  1  0.833500  0.147900  0.661300  1.0  0.1209
  H  H192  1  0.774400  0.261600  0.658000  1.0  0.119
  H  H193  1  0.555500  0.902000  0.823900  1.0  0.0816
  H  H194  1  0.621200  0.003000  0.817500  1.0  0.0821
  H  H195  1  0.507400  0.014700  0.754400  1.0  0.094
  H  H196  1  0.239900  0.106800  0.764700  1.0  0.1096
  H  H197  1  0.356200  0.061100  0.823600  1.0  0.1284
  H  H198  1  0.418000  0.852600  0.880600  1.0  0.1047
  H  H199  1  0.447100  0.858900  0.845100  1.0  0.0988
  H  H200  1  0.518800  0.790900  0.877700  1.0  0.1198
  H  H201  1  0.571200  0.930700  0.968100  1.0  0.0973
  H  H202  1  0.546600  0.836800  0.939200  1.0  0.0913
  H  H203  1  0.383900  0.081600  0.929800  1.0  0.0993
  H  H204  1  0.201200  0.838300  0.935300  1.0  0.1046
  H  H205  1  0.376400  0.763200  0.945500  1.0  0.1239
  H  H206  1  0.593200  0.081500  0.978600  1.0  0.1104
  H  H207  1  0.714300  0.097200  0.983600  1.0  0.1186
  H  H208  1  0.635000  0.195400  0.969500  1.0  0.1016
  H  H209  1  0.748500  0.240200  0.948600  1.0  0.0916
  H  H210  1  0.695700  0.302200  0.912600  1.0  0.1118
  H  H211  1  0.887700  0.082200  0.925500  1.0  0.0929
  H  H212  1  0.027200  0.335800  0.900900  1.0  0.105
  H  H213  1  0.855600  0.396500  0.903800  1.0  0.1353
  H  H214  1  0.740300  0.152000  0.847500  1.0  0.1065
  H  H215  1  0.621800  0.176500  0.825300  1.0  0.1033
  H  H216  1  0.682300  0.255000  0.856800  1.0  0.1069
  C  C217  1  0.089900  0.526500  0.480150  1.0  0.6298
  C  C218  1  0.264700  0.226200  0.451370  1.0  0.6758
  C  C219  1  0.235900  0.328200  0.666667  1.0  0.6144
  C  C220  1  0.363400  0.002300  0.633190  1.0  0.6421
  C  C221  1  0.147200  0.423100  0.495010  1.0  0.0964
  C  C222  1  0.171800  0.388800  0.529480  1.0  -0.1396
  C  C223  1  0.228400  0.294000  0.539930  1.0  0.0398
  C  C224  1  0.263000  0.238300  0.515100  1.0  -0.113
  C  C225  1  0.234000  0.276400  0.481280  1.0  0.127
  C  C226  1  0.253200  0.270000  0.635690  1.0  0.1443
  C  C227  1  0.233700  0.314300  0.602780  1.0  -0.1159
  C  C228  1  0.252500  0.250700  0.576310  1.0  0.0426
  C  C229  1  0.294000  0.147700  0.585150  1.0  -0.1148
  C  C230  1  0.312900  0.109800  0.618750  1.0  0.1259
  C  C231  1  0.836900  0.310600  0.228680  1.0  -0.0841
  C  C232  1  0.873900  0.295300  0.264780  1.0  0.0808
  C  C233  1  0.956400  0.222800  0.278860  1.0  -0.1312
  C  C234  1  0.005900  0.172600  0.257100  1.0  0.0246
  C  C235  1  0.971400  0.194900  0.221500  1.0  -0.0883
  C  C236  1  0.885000  0.260100  0.206700  1.0  0.027
  C  C237  1  0.746000  0.384900  0.212850  1.0  -0.0806
  C  C238  1  0.554200  0.384100  0.197810  1.0  0.1631
  C  C239  1  0.522600  0.245300  0.224450  1.0  -0.0217
  C  C240  1  0.626200  0.244700  0.228870  1.0  -0.1181
  C  C241  1  0.824100  0.352200  0.288540  1.0  -0.349
  C  C242  1  0.990500  0.193800  0.317480  1.0  -0.1
  C  C243  1  0.848400  0.054400  0.306840  1.0  0.1555
  C  C244  1  0.919700  0.933800  0.344530  1.0  0.032
  C  C245  1  0.992300  0.011900  0.346960  1.0  -0.144
  C  C246  1  0.093100  0.094300  0.272430  1.0  -0.3368
  C  C247  1  0.028500  0.147000  0.198040  1.0  -0.0647
  C  C248  1  0.973800  0.029300  0.144870  1.0  0.1657
  C  C249  1  0.862000  0.925200  0.155520  1.0  -0.0134
  C  C250  1  0.898300  0.991000  0.183360  1.0  -0.1429
  C  C251  1  0.842000  0.274700  0.166920  1.0  -0.3453
  C  C252  1  0.577300  0.480800  0.361340  1.0  -0.0672
  C  C253  1  0.540400  0.544400  0.384140  1.0  0.0538
  C  C254  1  0.565700  0.513500  0.419220  1.0  -0.0849
  C  C255  1  0.625600  0.421200  0.431800  1.0  0.0174
  C  C256  1  0.666300  0.360900  0.409320  1.0  -0.0227
  C  C257  1  0.637900  0.388500  0.373770  1.0  0.0232
  C  C258  1  0.560000  0.517900  0.324480  1.0  -0.0662
  C  C259  1  0.454300  0.467200  0.264230  1.0  0.1517
  C  C260  1  0.309700  0.417700  0.270000  1.0  0.0312
  C  C261  1  0.372700  0.442400  0.302350  1.0  -0.116
  C  C262  1  0.475300  0.644300  0.370720  1.0  -0.3611
  C  C263  1  0.530900  0.587100  0.443570  1.0  -0.0771
  C  C264  1  0.359400  0.489000  0.432490  1.0  0.1587
  C  C265  1  0.260900  0.621000  0.435470  1.0  0.0375
  C  C266  1  0.356400  0.663100  0.441110  1.0  -0.1466
  C  C267  1  0.643600  0.383400  0.469170  1.0  -0.3471
  C  C268  1  0.734400  0.264000  0.423010  1.0  -0.1072
  C  C269  1  0.901200  0.346200  0.419470  1.0  0.1746
  C  C270  1  0.977200  0.208900  0.406280  1.0  -0.0021
  C  C271  1  0.882800  0.175100  0.407690  1.0  -0.1207
  C  C272  1  0.673700  0.320300  0.348630  1.0  -0.3703
  C  C273  1  0.910100  0.026500  0.019850  1.0  0.6314
  C  C274  1  0.735300  0.726200  0.048630  1.0  0.6759
  C  C275  1  0.764100  0.828200  0.833270  1.0  0.6161
  C  C276  1  0.636600  0.502300  0.866810  1.0  0.6416
  C  C277  1  0.852800  0.923100  0.004990  1.0  0.0969
  C  C278  1  0.828200  0.888800  0.970520  1.0  -0.1411
  C  C279  1  0.771600  0.794000  0.960070  1.0  0.0408
  C  C280  1  0.737000  0.738300  0.984900  1.0  -0.112
  C  C281  1  0.766000  0.776400  0.018720  1.0  0.1271
  C  C282  1  0.746800  0.770000  0.864310  1.0  0.1439
  C  C283  1  0.766300  0.814300  0.897220  1.0  -0.1144
  C  C284  1  0.747500  0.750700  0.923690  1.0  0.0437
  C  C285  1  0.706000  0.647700  0.914850  1.0  -0.1152
  C  C286  1  0.687100  0.609800  0.881250  1.0  0.125
  C  C287  1  0.163100  0.810600  0.271320  1.0  -0.0824
  C  C288  1  0.126100  0.795300  0.235220  1.0  0.0807
  C  C289  1  0.043600  0.722800  0.221140  1.0  -0.1336
  C  C290  1  0.994100  0.672600  0.242900  1.0  0.0234
  C  C291  1  0.028600  0.694900  0.278500  1.0  -0.0877
  C  C292  1  0.115000  0.760100  0.293300  1.0  0.0292
  C  C293  1  0.254000  0.884900  0.287150  1.0  -0.0801
  C  C294  1  0.445800  0.884100  0.302190  1.0  0.1616
  C  C295  1  0.477400  0.745300  0.275550  1.0  -0.0209
  C  C296  1  0.373800  0.744700  0.271130  1.0  -0.1184
  C  C297  1  0.175900  0.852200  0.211460  1.0  -0.3483
  C  C298  1  0.009500  0.693800  0.182520  1.0  -0.1015
  C  C299  1  0.151600  0.554400  0.193160  1.0  0.1558
  C  C300  1  0.080300  0.433800  0.155470  1.0  0.0308
  C  C301  1  0.007700  0.511900  0.153040  1.0  -0.1445
  C  C302  1  0.906900  0.594300  0.227570  1.0  -0.3359
  C  C303  1  0.971500  0.647000  0.301960  1.0  -0.0653
  C  C304  1  0.026200  0.529300  0.355130  1.0  0.1669
  C  C305  1  0.138000  0.425200  0.344480  1.0  -0.0116
  C  C306  1  0.101700  0.491000  0.316640  1.0  -0.1427
  C  C307  1  0.158000  0.774700  0.333080  1.0  -0.3481
  C  C308  1  0.422700  0.980800  0.138660  1.0  -0.0677
  C  C309  1  0.459600  0.044400  0.115860  1.0  0.0537
  C  C310  1  0.434300  0.013500  0.080780  1.0  -0.0858
  C  C311  1  0.374400  0.921200  0.068200  1.0  0.0179
  C  C312  1  0.333700  0.860900  0.090680  1.0  -0.0234
  C  C313  1  0.362100  0.888500  0.126230  1.0  0.0228
  C  C314  1  0.440000  0.017900  0.175520  1.0  -0.0643
  C  C315  1  0.545700  0.967200  0.235770  1.0  0.1512
  C  C316  1  0.690300  0.917700  0.230000  1.0  0.03
  C  C317  1  0.627300  0.942400  0.197650  1.0  -0.1175
  C  C318  1  0.524700  0.144300  0.129280  1.0  -0.3623
  C  C319  1  0.469100  0.087100  0.056430  1.0  -0.076
  C  C320  1  0.640600  0.989000  0.067510  1.0  0.1604
  C  C321  1  0.739100  0.121000  0.064530  1.0  0.0381
  C  C322  1  0.643600  0.163100  0.058890  1.0  -0.1483
  C  C323  1  0.356400  0.883400  0.030830  1.0  -0.3474
  C  C324  1  0.265600  0.764000  0.076990  1.0  -0.1087
  C  C325  1  0.098800  0.846200  0.080530  1.0  0.1746
  C  C326  1  0.022800  0.708900  0.093720  1.0  -0.003
  C  C327  1  0.117200  0.675100  0.092310  1.0  -0.1223
  C  C328  1  0.326300  0.820300  0.151370  1.0  -0.3698
  C  C329  1  0.910100  0.473500  0.519850  1.0  0.6316
  C  C330  1  0.735300  0.773800  0.548630  1.0  0.677
  C  C331  1  0.764100  0.671800  0.333270  1.0  0.6157
  C  C332  1  0.636600  0.997700  0.366810  1.0  0.6428
  C  C333  1  0.852800  0.576900  0.504990  1.0  0.0971
  C  C334  1  0.828200  0.611200  0.470520  1.0  -0.142
  C  C335  1  0.771600  0.706000  0.460070  1.0  0.0396
  C  C336  1  0.737000  0.761700  0.484900  1.0  -0.1102
  C  C337  1  0.766000  0.723600  0.518720  1.0  0.1276
  C  C338  1  0.746800  0.730000  0.364310  1.0  0.1437
  C  C339  1  0.766300  0.685700  0.397220  1.0  -0.1153
  C  C340  1  0.747500  0.749300  0.423690  1.0  0.0442
  C  C341  1  0.706000  0.852300  0.414850  1.0  -0.1173
  C  C342  1  0.687100  0.890200  0.381250  1.0  0.1259
  C  C343  1  0.163100  0.689400  0.771320  1.0  -0.0836
  C  C344  1  0.126100  0.704700  0.735220  1.0  0.0807
  C  C345  1  0.043600  0.777200  0.721140  1.0  -0.1335
  C  C346  1  0.994100  0.827400  0.742900  1.0  0.0239
  C  C347  1  0.028600  0.805100  0.778500  1.0  -0.0867
  C  C348  1  0.115000  0.739900  0.793300  1.0  0.0295
  C  C349  1  0.254000  0.615100  0.787150  1.0  -0.0799
  C  C350  1  0.445800  0.615900  0.802190  1.0  0.1626
  C  C351  1  0.477400  0.754700  0.775550  1.0  -0.0208
  C  C352  1  0.373800  0.755300  0.771130  1.0  -0.1187
  C  C353  1  0.175900  0.647800  0.711460  1.0  -0.3487
  C  C354  1  0.009500  0.806200  0.682520  1.0  -0.1025
  C  C355  1  0.151600  0.945600  0.693160  1.0  0.156
  C  C356  1  0.080300  0.066200  0.655470  1.0  0.0312
  C  C357  1  0.007700  0.988100  0.653040  1.0  -0.1446
  C  C358  1  0.906900  0.905700  0.727570  1.0  -0.3361
  C  C359  1  0.971500  0.853000  0.801960  1.0  -0.0653
  C  C360  1  0.026200  0.970700  0.855130  1.0  0.1671
  C  C361  1  0.138000  0.074800  0.844480  1.0  -0.0118
  C  C362  1  0.101700  0.009000  0.816640  1.0  -0.1422
  C  C363  1  0.158000  0.725300  0.833080  1.0  -0.3487
  C  C364  1  0.422700  0.519200  0.638660  1.0  -0.0672
  C  C365  1  0.459600  0.455600  0.615860  1.0  0.0546
  C  C366  1  0.434300  0.486500  0.580780  1.0  -0.0849
  C  C367  1  0.374400  0.578800  0.568200  1.0  0.0177
  C  C368  1  0.333700  0.639100  0.590680  1.0  -0.023
  C  C369  1  0.362100  0.611500  0.626230  1.0  0.0231
  C  C370  1  0.440000  0.482100  0.675520  1.0  -0.0643
  C  C371  1  0.545700  0.532800  0.735770  1.0  0.1509
  C  C372  1  0.690300  0.582300  0.730000  1.0  0.0307
  C  C373  1  0.627300  0.557600  0.697650  1.0  -0.1179
  C  C374  1  0.524700  0.355700  0.629280  1.0  -0.3625
  C  C375  1  0.469100  0.412900  0.556430  1.0  -0.0765
  C  C376  1  0.640600  0.511000  0.567510  1.0  0.1593
  C  C377  1  0.739100  0.379000  0.564530  1.0  0.0389
  C  C378  1  0.643600  0.336900  0.558890  1.0  -0.1459
  C  C379  1  0.356400  0.616600  0.530830  1.0  -0.347
  C  C380  1  0.265600  0.736000  0.576990  1.0  -0.109
  C  C381  1  0.098800  0.653800  0.580530  1.0  0.1738
  C  C382  1  0.022800  0.791100  0.593720  1.0  -0.003
  C  C383  1  0.117200  0.824900  0.592310  1.0  -0.121
  C  C384  1  0.326300  0.679700  0.651370  1.0  -0.37
  C  C385  1  0.089900  0.973500  0.980150  1.0  0.6294
  C  C386  1  0.264700  0.273800  0.951370  1.0  0.679
  C  C387  1  0.235900  0.171800  0.166730  1.0  0.6145
  C  C388  1  0.363400  0.497700  0.133190  1.0  0.6428
  C  C389  1  0.147200  0.076900  0.995010  1.0  0.0968
  C  C390  1  0.171800  0.111200  0.029480  1.0  -0.1404
  C  C391  1  0.228400  0.206000  0.039930  1.0  0.039
  C  C392  1  0.263000  0.261700  0.015100  1.0  -0.1089
  C  C393  1  0.234000  0.223600  0.981280  1.0  0.1268
  C  C394  1  0.253200  0.230000  0.135690  1.0  0.1432
  C  C395  1  0.233700  0.185700  0.102780  1.0  -0.1133
  C  C396  1  0.252500  0.249300  0.076310  1.0  0.0427
  C  C397  1  0.294000  0.352300  0.085150  1.0  -0.1161
  C  C398  1  0.312900  0.390200  0.118750  1.0  0.126
  C  C399  1  0.836900  0.189400  0.728680  1.0  -0.0841
  C  C400  1  0.873900  0.204700  0.764780  1.0  0.0811
  C  C401  1  0.956400  0.277200  0.778860  1.0  -0.1312
  C  C402  1  0.005900  0.327400  0.757100  1.0  0.0254
  C  C403  1  0.971400  0.305100  0.721500  1.0  -0.0872
  C  C404  1  0.885000  0.239900  0.706700  1.0  0.0272
  C  C405  1  0.746000  0.115100  0.712850  1.0  -0.0828
  C  C406  1  0.554200  0.115900  0.697810  1.0  0.1639
  C  C407  1  0.522600  0.254700  0.724450  1.0  -0.0215
  C  C408  1  0.626200  0.255300  0.728870  1.0  -0.1183
  C  C409  1  0.824100  0.147800  0.788540  1.0  -0.3489
  C  C410  1  0.990500  0.306200  0.817480  1.0  -0.1014
  C  C411  1  0.848400  0.445600  0.806840  1.0  0.1558
  C  C412  1  0.919700  0.566200  0.844530  1.0  0.0318
  C  C413  1  0.992300  0.488100  0.846960  1.0  -0.1442
  C  C414  1  0.093100  0.405700  0.772430  1.0  -0.3365
  C  C415  1  0.028500  0.353000  0.698040  1.0  -0.0654
  C  C416  1  0.973800  0.470700  0.644870  1.0  0.166
  C  C417  1  0.862000  0.574800  0.655520  1.0  -0.0141
  C  C418  1  0.898300  0.509000  0.683360  1.0  -0.1427
  C  C419  1  0.842000  0.225300  0.666920  1.0  -0.3454
  C  C420  1  0.577300  0.019200  0.861340  1.0  -0.0671
  C  C421  1  0.540400  0.955600  0.884140  1.0  0.0546
  C  C422  1  0.565700  0.986500  0.919220  1.0  -0.0841
  C  C423  1  0.625600  0.078800  0.931800  1.0  0.0171
  C  C424  1  0.666300  0.139100  0.909320  1.0  -0.0224
  C  C425  1  0.637900  0.111500  0.873770  1.0  0.0242
  C  C426  1  0.560000  0.982100  0.824480  1.0  -0.0658
  C  C427  1  0.454300  0.032800  0.764230  1.0  0.152
  C  C428  1  0.309700  0.082300  0.770000  1.0  0.0307
  C  C429  1  0.372700  0.057600  0.802350  1.0  -0.1167
  C  C430  1  0.475300  0.855700  0.870720  1.0  -0.3624
  C  C431  1  0.530900  0.912900  0.943570  1.0  -0.0783
  C  C432  1  0.359400  0.011000  0.932490  1.0  0.1585
  C  C433  1  0.260900  0.879000  0.935470  1.0  0.0386
  C  C434  1  0.356400  0.836900  0.941110  1.0  -0.1451
  C  C435  1  0.643600  0.116600  0.969170  1.0  -0.348
  C  C436  1  0.734400  0.236000  0.923010  1.0  -0.1091
  C  C437  1  0.901200  0.153800  0.919470  1.0  0.1743
  C  C438  1  0.977200  0.291100  0.906280  1.0  -0.0025
  C  C439  1  0.882800  0.324900  0.907690  1.0  -0.1217
  C  C440  1  0.673700  0.179700  0.848630  1.0  -0.3696
  N  N441  1  0.290400  0.169600  0.643100  1.0  -0.3484
  N  N442  1  0.177200  0.365100  0.471800  1.0  -0.3087
  N  N443  1  0.645100  0.334600  0.211760  1.0  0.0358
  N  N444  1  0.477500  0.332300  0.204430  1.0  -0.374
  N  N445  1  0.945600  0.089200  0.322860  1.0  0.0379
  N  N446  1  0.828600  0.959600  0.318710  1.0  -0.4049
  N  N447  1  0.968800  0.058200  0.176300  1.0  0.0382
  N  N448  1  0.910700  0.949600  0.131260  1.0  -0.3688
  N  N449  1  0.465300  0.473500  0.298490  1.0  0.0324
  N  N450  1  0.360600  0.432800  0.245850  1.0  -0.3914
  N  N451  1  0.418900  0.577500  0.439140  1.0  0.0518
  N  N452  1  0.261500  0.511900  0.430040  1.0  -0.3896
  N  N453  1  0.834500  0.264600  0.415830  1.0  0.0317
  N  N454  1  0.988600  0.316900  0.413730  1.0  -0.3795
  N  N455  1  0.709600  0.669600  0.856900  1.0  -0.3502
  N  N456  1  0.822800  0.865100  0.028200  1.0  -0.3064
  N  N457  1  0.354900  0.834600  0.288240  1.0  0.0362
  N  N458  1  0.522500  0.832300  0.295570  1.0  -0.3723
  N  N459  1  0.054400  0.589200  0.177140  1.0  0.0377
  N  N460  1  0.171400  0.459600  0.181290  1.0  -0.4037
  N  N461  1  0.031200  0.558200  0.323700  1.0  0.0384
  N  N462  1  0.089300  0.449600  0.368740  1.0  -0.368
  N  N463  1  0.534700  0.973500  0.201510  1.0  0.0325
  N  N464  1  0.639400  0.932800  0.254150  1.0  -0.3898
  N  N465  1  0.581100  0.077500  0.060860  1.0  0.0523
  N  N466  1  0.738500  0.011900  0.069960  1.0  -0.3875
  N  N467  1  0.165500  0.764600  0.084170  1.0  0.0321
  N  N468  1  0.011400  0.816900  0.086270  1.0  -0.3801
  N  N469  1  0.709600  0.830400  0.356900  1.0  -0.3505
  N  N470  1  0.822800  0.634900  0.528200  1.0  -0.3052
  N  N471  1  0.354900  0.665400  0.788240  1.0  0.0361
  N  N472  1  0.522500  0.667700  0.795570  1.0  -0.3725
  N  N473  1  0.054400  0.910800  0.677140  1.0  0.0379
  N  N474  1  0.171400  0.040400  0.681290  1.0  -0.4051
  N  N475  1  0.031200  0.941800  0.823700  1.0  0.0383
  N  N476  1  0.089300  0.050400  0.868740  1.0  -0.3687
  N  N477  1  0.534700  0.526500  0.701510  1.0  0.0317
  N  N478  1  0.639400  0.567200  0.754150  1.0  -0.3908
  N  N479  1  0.581100  0.422500  0.560860  1.0  0.0521
  N  N480  1  0.738500  0.488100  0.569960  1.0  -0.3878
  N  N481  1  0.165500  0.735400  0.584170  1.0  0.0336
  N  N482  1  0.011400  0.683100  0.586270  1.0  -0.3808
  N  N483  1  0.290400  0.330400  0.143100  1.0  -0.3486
  N  N484  1  0.177200  0.134900  0.971800  1.0  -0.3084
  N  N485  1  0.645100  0.165400  0.711760  1.0  0.0361
  N  N486  1  0.477500  0.167700  0.704430  1.0  -0.3743
  N  N487  1  0.945600  0.410800  0.822860  1.0  0.038
  N  N488  1  0.828600  0.540400  0.818710  1.0  -0.4063
  N  N489  1  0.968800  0.441800  0.676300  1.0  0.038
  N  N490  1  0.910700  0.550400  0.631260  1.0  -0.3682
  N  N491  1  0.465300  0.026500  0.798490  1.0  0.0318
  N  N492  1  0.360600  0.067200  0.745850  1.0  -0.3916
  N  N493  1  0.418900  0.922500  0.939140  1.0  0.0516
  N  N494  1  0.261500  0.988100  0.930040  1.0  -0.3893
  N  N495  1  0.834500  0.235400  0.915830  1.0  0.0327
  N  N496  1  0.988600  0.183100  0.913730  1.0  -0.3797
  O  O497  1  0.060600  0.533100  0.446870  1.0  -0.5771
  O  O498  1  0.079300  0.595400  0.500980  1.0  -0.573
  O  O499  1  0.223200  0.266300  0.421800  1.0  -0.5676
  O  O500  1  0.327800  0.149400  0.458610  1.0  -0.5258
  O  O501  1  0.261250  0.272300  0.695000  1.0  -0.6108
  O  O502  1  0.202800  0.421200  0.662800  1.0  -0.55
  O  O503  1  0.365000  0.979400  0.663710  1.0  -0.594
  O  O504  1  0.402200  0.947300  0.614300  1.0  -0.605
  O  O505  1  0.939400  0.033100  0.053130  1.0  -0.5761
  O  O506  1  0.920700  0.095400  0.999020  1.0  -0.572
  O  O507  1  0.776800  0.766300  0.078200  1.0  -0.5657
  O  O508  1  0.672200  0.649400  0.041390  1.0  -0.5277
  O  O509  1  0.738750  0.772300  0.805000  1.0  -0.5964
  O  O510  1  0.797200  0.921200  0.837200  1.0  -0.5515
  O  O511  1  0.635000  0.479400  0.836290  1.0  -0.594
  O  O512  1  0.597800  0.447300  0.885700  1.0  -0.5996
  O  O513  1  0.939400  0.466900  0.553130  1.0  -0.5763
  O  O514  1  0.920700  0.404600  0.499020  1.0  -0.571
  O  O515  1  0.776800  0.733700  0.578200  1.0  -0.5681
  O  O516  1  0.672200  0.850600  0.541390  1.0  -0.5248
  O  O517  1  0.738750  0.727700  0.305000  1.0  -0.5957
  O  O518  1  0.797200  0.578800  0.337200  1.0  -0.552
  O  O519  1  0.635000  0.020600  0.336290  1.0  -0.5944
  O  O520  1  0.597800  0.052700  0.385700  1.0  -0.6017
  O  O521  1  0.060600  0.966900  0.946870  1.0  -0.5771
  O  O522  1  0.079300  0.904600  0.000980  1.0  -0.5715
  O  O523  1  0.223200  0.233700  0.921800  1.0  -0.5671
  O  O524  1  0.327800  0.350600  0.958610  1.0  -0.525
  O  O525  1  0.261250  0.227700  0.195000  1.0  -0.5978
  O  O526  1  0.202800  0.078800  0.162800  1.0  -0.5525
  O  O527  1  0.365000  0.520600  0.163710  1.0  -0.5945
  O  O528  1  0.402200  0.552700  0.114300  1.0  -0.6062
