# generated using pymatgen
data_NiH26C28N7O4
_symmetry_space_group_name_H-M   'P 1'
_cell_length_a   13.49950000
_cell_length_b   12.42120000
_cell_length_c   40.15300000
_cell_angle_alpha   90.00000000
_cell_angle_beta   108.43800000
_cell_angle_gamma   90.00000000
_symmetry_Int_Tables_number   1
_chemical_formula_structural   NiH26C28N7O4
_chemical_formula_sum   'Ni8 H208 C224 N56 O32'
_cell_volume   6387.23332983
_cell_formula_units_Z   8
loop_
 _symmetry_equiv_pos_site_id
 _symmetry_equiv_pos_as_xyz
  1  'x, y, z'
loop_
 _atom_site_type_symbol
 _atom_site_label
 _atom_site_symmetry_multiplicity
 _atom_site_fract_x
 _atom_site_fract_y
 _atom_site_fract_z
 _atom_site_occupancy
 _atom_site_charge
  Ni  Ni1  1  0.679030  0.387920  0.307520  1.0  0.9316
  Ni  Ni2  1  0.871180  0.094730  0.577570  1.0  0.8849
  Ni  Ni3  1  0.320970  0.887920  0.192480  1.0  0.9332
  Ni  Ni4  1  0.128820  0.594730  0.922430  1.0  0.8825
  Ni  Ni5  1  0.320970  0.612080  0.692480  1.0  0.9337
  Ni  Ni6  1  0.128820  0.905270  0.422430  1.0  0.8821
  Ni  Ni7  1  0.679030  0.112080  0.807520  1.0  0.9317
  Ni  Ni8  1  0.871180  0.405270  0.077570  1.0  0.8847
  H  H9  1  0.067800  0.680200  0.324700  1.0  0.1038
  H  H10  1  0.970800  0.744600  0.329800  1.0  0.0881
  H  H11  1  0.794400  0.590700  0.289800  1.0  0.094
  H  H12  1  0.929000  0.366500  0.358300  1.0  0.1015
  H  H13  1  0.061400  0.507100  0.361500  1.0  0.1285
  H  H14  1  0.800900  0.795400  0.302500  1.0  0.1035
  H  H15  1  0.769300  0.893400  0.275300  1.0  0.0975
  H  H16  1  0.880600  0.892900  0.305300  1.0  0.0989
  H  H17  1  0.755200  0.948300  0.227200  1.0  0.0776
  H  H18  1  0.740600  0.901600  0.188800  1.0  0.0811
  H  H19  1  0.544400  0.946600  0.183800  1.0  0.1009
  H  H20  1  0.482700  0.698500  0.235100  1.0  0.104
  H  H21  1  0.671400  0.694600  0.242900  1.0  0.1127
  H  H22  1  0.761200  0.766400  0.158800  1.0  0.1108
  H  H23  1  0.865600  0.716700  0.154300  1.0  0.0911
  H  H24  1  0.857500  0.843400  0.160200  1.0  0.1184
  H  H25  1  0.036300  0.701500  0.180800  1.0  0.0948
  H  H26  1  0.094300  0.616800  0.210700  1.0  0.0812
  H  H27  1  0.016500  0.563800  0.131800  1.0  0.1064
  H  H28  1  0.812100  0.365100  0.150400  1.0  0.1033
  H  H29  1  0.877200  0.484200  0.201900  1.0  0.1178
  H  H30  1  0.156500  0.619400  0.273800  1.0  0.1135
  H  H31  1  0.080300  0.524700  0.253800  1.0  0.0978
  H  H32  1  0.085300  0.557800  0.292800  1.0  0.0881
  H  H33  1  0.695600  0.327700  0.478100  1.0  0.1147
  H  H34  1  0.846600  0.073100  0.453200  1.0  0.1143
  H  H35  1  0.685100  0.396000  0.430900  1.0  0.1072
  H  H36  1  0.789500  0.117300  0.401100  1.0  0.1169
  H  H37  1  0.450800  0.602400  0.176900  1.0  0.0954
  H  H38  1  0.382500  0.505200  0.183800  1.0  0.0845
  H  H39  1  0.495600  0.492800  0.247100  1.0  0.0979
  H  H40  1  0.761500  0.388100  0.237200  1.0  0.1199
  H  H41  1  0.645200  0.437000  0.177900  1.0  0.1309
  H  H42  1  0.261500  0.352700  0.154800  1.0  0.1014
  H  H43  1  0.380600  0.330400  0.177300  1.0  0.102
  H  H44  1  0.321100  0.250000  0.146300  1.0  0.1044
  H  H45  1  0.254100  0.257000  0.054500  1.0  0.088
  H  H46  1  0.306500  0.199500  0.091400  1.0  0.1009
  H  H47  1  0.107700  0.414700  0.071900  1.0  0.0922
  H  H48  1  0.975400  0.170400  0.103500  1.0  0.1021
  H  H49  1  0.151800  0.111900  0.105200  1.0  0.1304
  H  H50  1  0.279400  0.390600  0.019000  1.0  0.1191
  H  H51  1  0.371500  0.304300  0.032500  1.0  0.1173
  H  H52  1  0.396100  0.422000  0.020900  1.0  0.1097
  H  H53  1  0.428600  0.563500  0.032100  1.0  0.1119
  H  H54  1  0.454900  0.658400  0.060500  1.0  0.0972
  H  H55  1  0.616000  0.413400  0.069000  1.0  0.0996
  H  H56  1  0.800200  0.654200  0.063600  1.0  0.1056
  H  H57  1  0.624900  0.729700  0.054400  1.0  0.1273
  H  H58  1  0.582800  0.646500  0.118100  1.0  0.1029
  H  H59  1  0.561500  0.637800  0.155000  1.0  0.1018
  H  H60  1  0.484900  0.707300  0.123800  1.0  0.111
  H  H61  1  0.932200  0.180200  0.175300  1.0  0.1037
  H  H62  1  0.029200  0.244600  0.170200  1.0  0.0884
  H  H63  1  0.205600  0.090700  0.210200  1.0  0.0941
  H  H64  1  0.071000  0.866500  0.141700  1.0  0.1009
  H  H65  1  0.938600  0.007100  0.138500  1.0  0.1282
  H  H66  1  0.199100  0.295400  0.197500  1.0  0.1029
  H  H67  1  0.230700  0.393400  0.224700  1.0  0.0968
  H  H68  1  0.119400  0.392900  0.194700  1.0  0.1
  H  H69  1  0.244800  0.448300  0.272800  1.0  0.0771
  H  H70  1  0.259400  0.401600  0.311200  1.0  0.0785
  H  H71  1  0.455600  0.446600  0.316200  1.0  0.1013
  H  H72  1  0.517300  0.198500  0.264900  1.0  0.1035
  H  H73  1  0.328600  0.194600  0.257100  1.0  0.1117
  H  H74  1  0.238800  0.266400  0.341200  1.0  0.11
  H  H75  1  0.134400  0.216700  0.345700  1.0  0.0907
  H  H76  1  0.142500  0.343400  0.339800  1.0  0.1181
  H  H77  1  0.963700  0.201500  0.319200  1.0  0.0939
  H  H78  1  0.905700  0.116800  0.289300  1.0  0.0811
  H  H79  1  0.983500  0.063800  0.368200  1.0  0.1056
  H  H80  1  0.187900  0.865100  0.349600  1.0  0.1055
  H  H81  1  0.122800  0.984200  0.298100  1.0  0.118
  H  H82  1  0.843500  0.119400  0.226200  1.0  0.1096
  H  H83  1  0.919700  0.024700  0.246200  1.0  0.0966
  H  H84  1  0.914700  0.057800  0.207200  1.0  0.09
  H  H85  1  0.304400  0.827700  0.021900  1.0  0.1146
  H  H86  1  0.153400  0.573100  0.046800  1.0  0.1149
  H  H87  1  0.314900  0.896000  0.069100  1.0  0.1073
  H  H88  1  0.210500  0.617300  0.098900  1.0  0.117
  H  H89  1  0.549200  0.102400  0.323100  1.0  0.0957
  H  H90  1  0.617500  0.005200  0.316200  1.0  0.0842
  H  H91  1  0.504400  0.992800  0.252900  1.0  0.0959
  H  H92  1  0.238500  0.888100  0.262800  1.0  0.1201
  H  H93  1  0.354800  0.937000  0.322100  1.0  0.1314
  H  H94  1  0.738500  0.852700  0.345200  1.0  0.1024
  H  H95  1  0.619400  0.830400  0.322700  1.0  0.1024
  H  H96  1  0.678900  0.750000  0.353700  1.0  0.1035
  H  H97  1  0.745900  0.757000  0.445500  1.0  0.0884
  H  H98  1  0.693500  0.699500  0.408600  1.0  0.1007
  H  H99  1  0.892300  0.914700  0.428100  1.0  0.092
  H  H100  1  0.024600  0.670400  0.396500  1.0  0.1033
  H  H101  1  0.848200  0.611900  0.394800  1.0  0.1297
  H  H102  1  0.720600  0.890600  0.481000  1.0  0.1213
  H  H103  1  0.628500  0.804300  0.467500  1.0  0.1156
  H  H104  1  0.603900  0.922000  0.479100  1.0  0.1103
  H  H105  1  0.571400  0.063500  0.467900  1.0  0.1111
  H  H106  1  0.545100  0.158400  0.439500  1.0  0.0976
  H  H107  1  0.384000  0.913400  0.431000  1.0  0.0998
  H  H108  1  0.199800  0.154200  0.436400  1.0  0.1055
  H  H109  1  0.375100  0.229700  0.445600  1.0  0.1268
  H  H110  1  0.417200  0.146500  0.381900  1.0  0.1035
  H  H111  1  0.438500  0.137800  0.345000  1.0  0.1017
  H  H112  1  0.515100  0.207300  0.376200  1.0  0.1101
  H  H113  1  0.932200  0.319800  0.675300  1.0  0.1036
  H  H114  1  0.029200  0.255400  0.670200  1.0  0.0884
  H  H115  1  0.205600  0.409300  0.710200  1.0  0.0942
  H  H116  1  0.071000  0.633500  0.641700  1.0  0.101
  H  H117  1  0.938600  0.492900  0.638500  1.0  0.1278
  H  H118  1  0.199100  0.204600  0.697500  1.0  0.1031
  H  H119  1  0.230700  0.106600  0.724700  1.0  0.0965
  H  H120  1  0.119400  0.107100  0.694700  1.0  0.0994
  H  H121  1  0.244800  0.051700  0.772800  1.0  0.0789
  H  H122  1  0.259400  0.098400  0.811200  1.0  0.0795
  H  H123  1  0.455600  0.053400  0.816200  1.0  0.1015
  H  H124  1  0.517300  0.301500  0.764900  1.0  0.1034
  H  H125  1  0.328600  0.305400  0.757100  1.0  0.1124
  H  H126  1  0.238800  0.233600  0.841200  1.0  0.1106
  H  H127  1  0.134400  0.283300  0.845700  1.0  0.0912
  H  H128  1  0.142500  0.156600  0.839800  1.0  0.1201
  H  H129  1  0.963700  0.298500  0.819200  1.0  0.0947
  H  H130  1  0.905700  0.383200  0.789300  1.0  0.0813
  H  H131  1  0.983500  0.436200  0.868200  1.0  0.1057
  H  H132  1  0.187900  0.634900  0.849600  1.0  0.1042
  H  H133  1  0.122800  0.515800  0.798100  1.0  0.1181
  H  H134  1  0.843500  0.380600  0.726200  1.0  0.1098
  H  H135  1  0.919700  0.475300  0.746200  1.0  0.0969
  H  H136  1  0.914700  0.442200  0.707200  1.0  0.0887
  H  H137  1  0.304400  0.672300  0.521900  1.0  0.1144
  H  H138  1  0.153400  0.926900  0.546800  1.0  0.1151
  H  H139  1  0.314900  0.604000  0.569100  1.0  0.1068
  H  H140  1  0.210500  0.882700  0.598900  1.0  0.1173
  H  H141  1  0.549200  0.397600  0.823100  1.0  0.0959
  H  H142  1  0.617500  0.494800  0.816200  1.0  0.0845
  H  H143  1  0.504400  0.507200  0.752900  1.0  0.0977
  H  H144  1  0.238500  0.611900  0.762800  1.0  0.1208
  H  H145  1  0.354800  0.563000  0.822100  1.0  0.1319
  H  H146  1  0.738500  0.647300  0.845200  1.0  0.1027
  H  H147  1  0.619400  0.669600  0.822700  1.0  0.1023
  H  H148  1  0.678900  0.750000  0.853700  1.0  0.1035
  H  H149  1  0.745900  0.743000  0.945500  1.0  0.0876
  H  H150  1  0.693500  0.800500  0.908600  1.0  0.101
  H  H151  1  0.892300  0.585300  0.928100  1.0  0.0916
  H  H152  1  0.024600  0.829600  0.896500  1.0  0.1012
  H  H153  1  0.848200  0.888100  0.894800  1.0  0.1298
  H  H154  1  0.720600  0.609400  0.981000  1.0  0.1202
  H  H155  1  0.628500  0.695700  0.967500  1.0  0.1157
  H  H156  1  0.603900  0.578000  0.979100  1.0  0.1097
  H  H157  1  0.571400  0.436500  0.967900  1.0  0.1116
  H  H158  1  0.545100  0.341600  0.939500  1.0  0.0983
  H  H159  1  0.384000  0.586600  0.931000  1.0  0.1001
  H  H160  1  0.199800  0.345800  0.936400  1.0  0.1053
  H  H161  1  0.375100  0.270300  0.945600  1.0  0.1275
  H  H162  1  0.417200  0.353500  0.881900  1.0  0.104
  H  H163  1  0.438500  0.362200  0.845000  1.0  0.1014
  H  H164  1  0.515100  0.292700  0.876200  1.0  0.1111
  H  H165  1  0.067800  0.819800  0.824700  1.0  0.1038
  H  H166  1  0.970800  0.755400  0.829800  1.0  0.0887
  H  H167  1  0.794400  0.909300  0.789800  1.0  0.0941
  H  H168  1  0.929000  0.133500  0.858300  1.0  0.1007
  H  H169  1  0.061400  0.992900  0.861500  1.0  0.1282
  H  H170  1  0.800900  0.704600  0.802500  1.0  0.103
  H  H171  1  0.769300  0.606600  0.775300  1.0  0.097
  H  H172  1  0.880600  0.607100  0.805300  1.0  0.099
  H  H173  1  0.755200  0.551700  0.727200  1.0  0.0793
  H  H174  1  0.740600  0.598400  0.688800  1.0  0.0804
  H  H175  1  0.544400  0.553400  0.683800  1.0  0.1005
  H  H176  1  0.482700  0.801500  0.735100  1.0  0.1039
  H  H177  1  0.671400  0.805400  0.742900  1.0  0.1124
  H  H178  1  0.761200  0.733600  0.658800  1.0  0.11
  H  H179  1  0.865600  0.783300  0.654300  1.0  0.092
  H  H180  1  0.857500  0.656600  0.660200  1.0  0.118
  H  H181  1  0.036300  0.798500  0.680800  1.0  0.0941
  H  H182  1  0.094300  0.883200  0.710700  1.0  0.0812
  H  H183  1  0.016500  0.936200  0.631800  1.0  0.1063
  H  H184  1  0.812100  0.134900  0.650400  1.0  0.1051
  H  H185  1  0.877200  0.015800  0.701900  1.0  0.1176
  H  H186  1  0.156500  0.880600  0.773800  1.0  0.1134
  H  H187  1  0.080300  0.975300  0.753800  1.0  0.0988
  H  H188  1  0.085300  0.942200  0.792800  1.0  0.0881
  H  H189  1  0.695600  0.172300  0.978100  1.0  0.1144
  H  H190  1  0.846600  0.426900  0.953200  1.0  0.1142
  H  H191  1  0.685100  0.104000  0.930900  1.0  0.107
  H  H192  1  0.789500  0.382700  0.901100  1.0  0.1165
  H  H193  1  0.450800  0.897600  0.676900  1.0  0.0956
  H  H194  1  0.382500  0.994800  0.683800  1.0  0.0845
  H  H195  1  0.495600  0.007200  0.747100  1.0  0.0957
  H  H196  1  0.761500  0.111900  0.737200  1.0  0.1202
  H  H197  1  0.645200  0.063000  0.677900  1.0  0.1313
  H  H198  1  0.261500  0.147300  0.654800  1.0  0.1019
  H  H199  1  0.380600  0.169600  0.677300  1.0  0.1014
  H  H200  1  0.321100  0.250000  0.646300  1.0  0.1027
  H  H201  1  0.254100  0.243000  0.554500  1.0  0.088
  H  H202  1  0.306500  0.300500  0.591400  1.0  0.0999
  H  H203  1  0.107700  0.085300  0.571900  1.0  0.0915
  H  H204  1  0.975400  0.329600  0.603500  1.0  0.1045
  H  H205  1  0.151800  0.388100  0.605200  1.0  0.131
  H  H206  1  0.279400  0.109400  0.519000  1.0  0.1193
  H  H207  1  0.371500  0.195700  0.532500  1.0  0.1171
  H  H208  1  0.396100  0.078000  0.520900  1.0  0.1098
  H  H209  1  0.428600  0.936500  0.532100  1.0  0.1116
  H  H210  1  0.454900  0.841600  0.560500  1.0  0.0978
  H  H211  1  0.616000  0.086600  0.569000  1.0  0.1005
  H  H212  1  0.800200  0.845800  0.563600  1.0  0.1055
  H  H213  1  0.624900  0.770300  0.554400  1.0  0.1274
  H  H214  1  0.582800  0.853500  0.618100  1.0  0.1034
  H  H215  1  0.561500  0.862200  0.655000  1.0  0.1021
  H  H216  1  0.484900  0.792700  0.623800  1.0  0.1113
  C  C217  1  0.955200  0.715800  0.278060  1.0  -0.08
  C  C218  1  0.874100  0.789000  0.264540  1.0  0.0822
  C  C219  1  0.835200  0.805800  0.228210  1.0  -0.0715
  C  C220  1  0.881300  0.755500  0.205730  1.0  0.0282
  C  C221  1  0.967600  0.689500  0.220000  1.0  -0.094
  C  C222  1  0.002800  0.665500  0.255650  1.0  0.0441
  C  C223  1  0.738400  0.277800  0.548750  1.0  0.6661
  C  C224  1  0.909000  0.977300  0.519340  1.0  0.6344
  C  C225  1  0.762000  0.175500  0.332150  1.0  0.6286
  C  C226  1  0.633200  0.498600  0.366000  1.0  0.6465
  C  C227  1  0.990700  0.686500  0.316230  1.0  -0.0773
  C  C228  1  0.845000  0.550900  0.307330  1.0  0.1413
  C  C229  1  0.918000  0.430100  0.344440  1.0  0.0244
  C  C230  1  0.991200  0.507000  0.346410  1.0  -0.1462
  C  C231  1  0.827100  0.847900  0.289070  1.0  -0.341
  C  C232  1  0.743800  0.881600  0.212970  1.0  -0.0888
  C  C233  1  0.552400  0.883100  0.197560  1.0  0.1483
  C  C234  1  0.519000  0.748500  0.225300  1.0  -0.0262
  C  C235  1  0.622600  0.746400  0.229900  1.0  -0.1356
  C  C236  1  0.837500  0.771900  0.166240  1.0  -0.3439
  C  C237  1  0.025000  0.643600  0.196140  1.0  -0.0825
  C  C238  1  0.972400  0.528700  0.142760  1.0  0.1676
  C  C239  1  0.862000  0.421000  0.153040  1.0  0.0028
  C  C240  1  0.897000  0.486000  0.181170  1.0  -0.1302
  C  C241  1  0.088700  0.584800  0.270290  1.0  -0.3417
  C  C242  1  0.766000  0.226500  0.518370  1.0  0.1271
  C  C243  1  0.736800  0.264400  0.484390  1.0  -0.0791
  C  C244  1  0.768500  0.208800  0.459310  1.0  0.0295
  C  C245  1  0.825600  0.114200  0.469730  1.0  -0.137
  C  C246  1  0.851600  0.080400  0.504260  1.0  0.1223
  C  C247  1  0.683500  0.391300  0.380280  1.0  0.1359
  C  C248  1  0.701500  0.352800  0.413810  1.0  -0.1267
  C  C249  1  0.743800  0.250500  0.422740  1.0  0.0207
  C  C250  1  0.763600  0.188700  0.396370  1.0  -0.1352
  C  C251  1  0.745000  0.233200  0.363370  1.0  0.1368
  C  C252  1  0.425500  0.483700  0.139740  1.0  -0.0947
  C  C253  1  0.364700  0.391900  0.128230  1.0  0.0215
  C  C254  1  0.335700  0.361800  0.092860  1.0  -0.0584
  C  C255  1  0.374500  0.420300  0.069470  1.0  0.047
  C  C256  1  0.435200  0.511600  0.081540  1.0  -0.1261
  C  C257  1  0.462000  0.544500  0.116680  1.0  0.0571
  C  C258  1  0.444400  0.523000  0.176730  1.0  -0.0696
  C  C259  1  0.548500  0.472300  0.237330  1.0  0.1434
  C  C260  1  0.692600  0.415600  0.231830  1.0  0.0048
  C  C261  1  0.629200  0.442200  0.199220  1.0  -0.1345
  C  C262  1  0.328800  0.325400  0.153920  1.0  -0.3623
  C  C263  1  0.267500  0.264200  0.080050  1.0  -0.0837
  C  C264  1  0.096200  0.345400  0.080000  1.0  0.1679
  C  C265  1  0.024700  0.213400  0.097180  1.0  0.0071
  C  C266  1  0.121400  0.180600  0.098110  1.0  -0.0975
  C  C267  1  0.353500  0.380800  0.032200  1.0  -0.3471
  C  C268  1  0.469900  0.582300  0.056490  1.0  -0.0849
  C  C269  1  0.640900  0.483400  0.066390  1.0  0.1589
  C  C270  1  0.740200  0.614100  0.063460  1.0  0.0104
  C  C271  1  0.644600  0.656200  0.058480  1.0  -0.1518
  C  C272  1  0.528600  0.642600  0.129520  1.0  -0.3572
  C  C273  1  0.044800  0.215800  0.221940  1.0  -0.0809
  C  C274  1  0.125900  0.289000  0.235460  1.0  0.0824
  C  C275  1  0.164800  0.305800  0.271790  1.0  -0.0706
  C  C276  1  0.118700  0.255500  0.294270  1.0  0.0296
  C  C277  1  0.032400  0.189500  0.280000  1.0  -0.0923
  C  C278  1  0.997200  0.165500  0.244350  1.0  0.0433
  C  C279  1  0.261600  0.777800  0.951250  1.0  0.6667
  C  C280  1  0.091000  0.477300  0.980660  1.0  0.6336
  C  C281  1  0.238000  0.675500  0.167850  1.0  0.6288
  C  C282  1  0.366800  0.998600  0.134000  1.0  0.6492
  C  C283  1  0.009300  0.186500  0.183770  1.0  -0.0768
  C  C284  1  0.155000  0.050900  0.192670  1.0  0.1421
  C  C285  1  0.082000  0.930100  0.155560  1.0  0.0237
  C  C286  1  0.008800  0.007000  0.153590  1.0  -0.1476
  C  C287  1  0.172900  0.347900  0.210930  1.0  -0.3397
  C  C288  1  0.256200  0.381600  0.287030  1.0  -0.0878
  C  C289  1  0.447600  0.383100  0.302440  1.0  0.1482
  C  C290  1  0.481000  0.248500  0.274700  1.0  -0.0257
  C  C291  1  0.377400  0.246400  0.270100  1.0  -0.1363
  C  C292  1  0.162500  0.271900  0.333760  1.0  -0.3454
  C  C293  1  0.975000  0.143600  0.303860  1.0  -0.0822
  C  C294  1  0.027600  0.028700  0.357240  1.0  0.1685
  C  C295  1  0.138000  0.921000  0.346960  1.0  0.0049
  C  C296  1  0.103000  0.986000  0.318830  1.0  -0.1307
  C  C297  1  0.911300  0.084800  0.229710  1.0  -0.3413
  C  C298  1  0.234000  0.726500  0.981630  1.0  0.1284
  C  C299  1  0.263200  0.764400  0.015610  1.0  -0.0772
  C  C300  1  0.231500  0.708800  0.040690  1.0  0.0296
  C  C301  1  0.174400  0.614200  0.030270  1.0  -0.1347
  C  C302  1  0.148400  0.580400  0.995740  1.0  0.1218
  C  C303  1  0.316500  0.891300  0.119720  1.0  0.1356
  C  C304  1  0.298500  0.852800  0.086190  1.0  -0.1254
  C  C305  1  0.256200  0.750500  0.077260  1.0  0.0202
  C  C306  1  0.236400  0.688700  0.103630  1.0  -0.1318
  C  C307  1  0.255000  0.733200  0.136630  1.0  0.1358
  C  C308  1  0.574500  0.983700  0.360260  1.0  -0.0942
  C  C309  1  0.635300  0.891900  0.371770  1.0  0.0207
  C  C310  1  0.664300  0.861800  0.407140  1.0  -0.0587
  C  C311  1  0.625500  0.920300  0.430530  1.0  0.0469
  C  C312  1  0.564800  0.011600  0.418460  1.0  -0.126
  C  C313  1  0.538000  0.044500  0.383320  1.0  0.0552
  C  C314  1  0.555600  0.023000  0.323270  1.0  -0.0703
  C  C315  1  0.451500  0.972300  0.262670  1.0  0.144
  C  C316  1  0.307400  0.915600  0.268170  1.0  0.0052
  C  C317  1  0.370800  0.942200  0.300780  1.0  -0.132
  C  C318  1  0.671200  0.825400  0.346080  1.0  -0.3623
  C  C319  1  0.732500  0.764200  0.419950  1.0  -0.0829
  C  C320  1  0.903800  0.845400  0.420000  1.0  0.1677
  C  C321  1  0.975300  0.713400  0.402820  1.0  0.0087
  C  C322  1  0.878600  0.680600  0.401890  1.0  -0.0987
  C  C323  1  0.646500  0.880800  0.467800  1.0  -0.3461
  C  C324  1  0.530100  0.082300  0.443510  1.0  -0.0864
  C  C325  1  0.359100  0.983400  0.433610  1.0  0.1574
  C  C326  1  0.259800  0.114100  0.436540  1.0  0.0091
  C  C327  1  0.355400  0.156200  0.441520  1.0  -0.1496
  C  C328  1  0.471400  0.142600  0.370480  1.0  -0.3557
  C  C329  1  0.044800  0.284200  0.721940  1.0  -0.0803
  C  C330  1  0.125900  0.211000  0.735460  1.0  0.0826
  C  C331  1  0.164800  0.194200  0.771790  1.0  -0.0708
  C  C332  1  0.118700  0.244500  0.794270  1.0  0.0303
  C  C333  1  0.032400  0.310500  0.780000  1.0  -0.0917
  C  C334  1  0.997200  0.334500  0.744350  1.0  0.0448
  C  C335  1  0.261600  0.722200  0.451250  1.0  0.6643
  C  C336  1  0.091000  0.022700  0.480660  1.0  0.6333
  C  C337  1  0.238000  0.824500  0.667850  1.0  0.6294
  C  C338  1  0.366800  0.501400  0.634000  1.0  0.649
  C  C339  1  0.009300  0.313500  0.683770  1.0  -0.0769
  C  C340  1  0.155000  0.449100  0.692670  1.0  0.1425
  C  C341  1  0.082000  0.569900  0.655560  1.0  0.0236
  C  C342  1  0.008800  0.493000  0.653590  1.0  -0.1474
  C  C343  1  0.172900  0.152100  0.710930  1.0  -0.3402
  C  C344  1  0.256200  0.118400  0.787030  1.0  -0.0878
  C  C345  1  0.447600  0.116900  0.802440  1.0  0.149
  C  C346  1  0.481000  0.251500  0.774700  1.0  -0.026
  C  C347  1  0.377400  0.253600  0.770100  1.0  -0.1368
  C  C348  1  0.162500  0.228100  0.833760  1.0  -0.3468
  C  C349  1  0.975000  0.356400  0.803860  1.0  -0.0821
  C  C350  1  0.027600  0.471300  0.857240  1.0  0.1688
  C  C351  1  0.138000  0.579000  0.846960  1.0  0.0049
  C  C352  1  0.103000  0.514000  0.818830  1.0  -0.1302
  C  C353  1  0.911300  0.415200  0.729710  1.0  -0.3413
  C  C354  1  0.234000  0.773500  0.481630  1.0  0.1278
  C  C355  1  0.263200  0.735600  0.515610  1.0  -0.0796
  C  C356  1  0.231500  0.791200  0.540690  1.0  0.03
  C  C357  1  0.174400  0.885800  0.530270  1.0  -0.1342
  C  C358  1  0.148400  0.919600  0.495740  1.0  0.1212
  C  C359  1  0.316500  0.608700  0.619720  1.0  0.135
  C  C360  1  0.298500  0.647200  0.586190  1.0  -0.1245
  C  C361  1  0.256200  0.749500  0.577260  1.0  0.0199
  C  C362  1  0.236400  0.811300  0.603630  1.0  -0.1319
  C  C363  1  0.255000  0.766800  0.636630  1.0  0.1358
  C  C364  1  0.574500  0.516300  0.860260  1.0  -0.0944
  C  C365  1  0.635300  0.608100  0.871770  1.0  0.0218
  C  C366  1  0.664300  0.638200  0.907140  1.0  -0.0571
  C  C367  1  0.625500  0.579700  0.930530  1.0  0.0462
  C  C368  1  0.564800  0.488400  0.918460  1.0  -0.1252
  C  C369  1  0.538000  0.455500  0.883320  1.0  0.0556
  C  C370  1  0.555600  0.477000  0.823270  1.0  -0.0705
  C  C371  1  0.451500  0.527700  0.762670  1.0  0.1441
  C  C372  1  0.307400  0.584400  0.768170  1.0  0.0061
  C  C373  1  0.370800  0.557800  0.800780  1.0  -0.1324
  C  C374  1  0.671200  0.674600  0.846080  1.0  -0.3622
  C  C375  1  0.732500  0.735800  0.919950  1.0  -0.0843
  C  C376  1  0.903800  0.654600  0.920000  1.0  0.1673
  C  C377  1  0.975300  0.786600  0.902820  1.0  0.0077
  C  C378  1  0.878600  0.819400  0.901890  1.0  -0.098
  C  C379  1  0.646500  0.619200  0.967800  1.0  -0.3467
  C  C380  1  0.530100  0.417700  0.943510  1.0  -0.087
  C  C381  1  0.359100  0.516600  0.933610  1.0  0.1569
  C  C382  1  0.259800  0.385900  0.936540  1.0  0.0105
  C  C383  1  0.355400  0.343800  0.941520  1.0  -0.1488
  C  C384  1  0.471400  0.357400  0.870480  1.0  -0.3568
  C  C385  1  0.955200  0.784200  0.778060  1.0  -0.0796
  C  C386  1  0.874100  0.711000  0.764540  1.0  0.0826
  C  C387  1  0.835200  0.694200  0.728210  1.0  -0.0709
  C  C388  1  0.881300  0.744500  0.705730  1.0  0.0285
  C  C389  1  0.967600  0.810500  0.720000  1.0  -0.0932
  C  C390  1  0.002800  0.834500  0.755650  1.0  0.0457
  C  C391  1  0.738400  0.222200  0.048750  1.0  0.6655
  C  C392  1  0.909000  0.522700  0.019340  1.0  0.6341
  C  C393  1  0.762000  0.324500  0.832150  1.0  0.6296
  C  C394  1  0.633200  0.001400  0.866000  1.0  0.6479
  C  C395  1  0.990700  0.813500  0.816230  1.0  -0.0775
  C  C396  1  0.845000  0.949100  0.807330  1.0  0.1415
  C  C397  1  0.918000  0.069900  0.844440  1.0  0.0238
  C  C398  1  0.991200  0.993000  0.846410  1.0  -0.1461
  C  C399  1  0.827100  0.652100  0.789070  1.0  -0.3409
  C  C400  1  0.743800  0.618400  0.712970  1.0  -0.0908
  C  C401  1  0.552400  0.616900  0.697560  1.0  0.1487
  C  C402  1  0.519000  0.751500  0.725300  1.0  -0.0262
  C  C403  1  0.622600  0.753600  0.729900  1.0  -0.1356
  C  C404  1  0.837500  0.728100  0.666240  1.0  -0.3447
  C  C405  1  0.025000  0.856400  0.696140  1.0  -0.0833
  C  C406  1  0.972400  0.971300  0.642760  1.0  0.1678
  C  C407  1  0.862000  0.079000  0.653040  1.0  0.0022
  C  C408  1  0.897000  0.014000  0.681170  1.0  -0.1305
  C  C409  1  0.088700  0.915200  0.770290  1.0  -0.3411
  C  C410  1  0.766000  0.273500  0.018370  1.0  0.1266
  C  C411  1  0.736800  0.235600  0.984390  1.0  -0.0794
  C  C412  1  0.768500  0.291200  0.959310  1.0  0.0314
  C  C413  1  0.825600  0.385800  0.969730  1.0  -0.1365
  C  C414  1  0.851600  0.419600  0.004260  1.0  0.1219
  C  C415  1  0.683500  0.108700  0.880280  1.0  0.1354
  C  C416  1  0.701500  0.147200  0.913810  1.0  -0.1245
  C  C417  1  0.743800  0.249500  0.922740  1.0  0.0206
  C  C418  1  0.763600  0.311300  0.896370  1.0  -0.1345
  C  C419  1  0.745000  0.266800  0.863370  1.0  0.1375
  C  C420  1  0.425500  0.016300  0.639740  1.0  -0.0945
  C  C421  1  0.364700  0.108100  0.628230  1.0  0.022
  C  C422  1  0.335700  0.138200  0.592860  1.0  -0.0579
  C  C423  1  0.374500  0.079700  0.569470  1.0  0.0467
  C  C424  1  0.435200  0.988400  0.581540  1.0  -0.1252
  C  C425  1  0.462000  0.955500  0.616680  1.0  0.0573
  C  C426  1  0.444400  0.977000  0.676730  1.0  -0.07
  C  C427  1  0.548500  0.027700  0.737330  1.0  0.1431
  C  C428  1  0.692600  0.084400  0.731830  1.0  0.0066
  C  C429  1  0.629200  0.057800  0.699220  1.0  -0.135
  C  C430  1  0.328800  0.174600  0.653920  1.0  -0.3626
  C  C431  1  0.267500  0.235800  0.580050  1.0  -0.0834
  C  C432  1  0.096200  0.154600  0.580000  1.0  0.1674
  C  C433  1  0.024700  0.286600  0.597180  1.0  0.0065
  C  C434  1  0.121400  0.319400  0.598110  1.0  -0.0946
  C  C435  1  0.353500  0.119200  0.532200  1.0  -0.347
  C  C436  1  0.469900  0.917700  0.556490  1.0  -0.0849
  C  C437  1  0.640900  0.016600  0.566390  1.0  0.158
  C  C438  1  0.740200  0.885900  0.563460  1.0  0.011
  C  C439  1  0.644600  0.843800  0.558480  1.0  -0.1508
  C  C440  1  0.528600  0.857400  0.629520  1.0  -0.3573
  N  N441  1  0.944000  0.583700  0.322500  1.0  0.0231
  N  N442  1  0.826000  0.457900  0.319540  1.0  -0.3855
  N  N443  1  0.643600  0.833400  0.212200  1.0  0.0319
  N  N444  1  0.474800  0.833700  0.204460  1.0  -0.3678
  N  N445  1  0.966500  0.555000  0.174190  1.0  0.0383
  N  N446  1  0.910100  0.448500  0.128720  1.0  -0.3929
  N  N447  1  0.823500  0.138400  0.527670  1.0  -0.2926
  N  N448  1  0.707240  0.332600  0.356090  1.0  -0.31
  N  N449  1  0.538200  0.477900  0.203180  1.0  0.0484
  N  N450  1  0.640700  0.434900  0.255870  1.0  -0.3864
  N  N451  1  0.166600  0.265900  0.086740  1.0  0.0329
  N  N452  1  0.008800  0.316600  0.085860  1.0  -0.3887
  N  N453  1  0.581600  0.571800  0.060420  1.0  0.0477
  N  N454  1  0.738200  0.504900  0.068290  1.0  -0.3898
  N  N455  1  0.056000  0.083700  0.177500  1.0  0.0233
  N  N456  1  0.174000  0.957900  0.180460  1.0  -0.3848
  N  N457  1  0.356400  0.333400  0.287800  1.0  0.0314
  N  N458  1  0.525200  0.333700  0.295540  1.0  -0.3659
  N  N459  1  0.033500  0.055000  0.325810  1.0  0.0382
  N  N460  1  0.089900  0.948500  0.371280  1.0  -0.3934
  N  N461  1  0.176500  0.638400  0.972330  1.0  -0.2967
  N  N462  1  0.292760  0.832600  0.143910  1.0  -0.3081
  N  N463  1  0.461800  0.977900  0.296820  1.0  0.048
  N  N464  1  0.359300  0.934900  0.244130  1.0  -0.388
  N  N465  1  0.833400  0.765900  0.413260  1.0  0.0318
  N  N466  1  0.991200  0.816600  0.414140  1.0  -0.3871
  N  N467  1  0.418400  0.071800  0.439580  1.0  0.047
  N  N468  1  0.261800  0.004900  0.431710  1.0  -0.3905
  N  N469  1  0.056000  0.416300  0.677500  1.0  0.0231
  N  N470  1  0.174000  0.542100  0.680460  1.0  -0.3862
  N  N471  1  0.356400  0.166600  0.787800  1.0  0.0322
  N  N472  1  0.525200  0.166300  0.795540  1.0  -0.3662
  N  N473  1  0.033500  0.445000  0.825810  1.0  0.0386
  N  N474  1  0.089900  0.551500  0.871280  1.0  -0.3938
  N  N475  1  0.176500  0.861600  0.472330  1.0  -0.2968
  N  N476  1  0.292760  0.667400  0.643910  1.0  -0.3069
  N  N477  1  0.461800  0.522100  0.796820  1.0  0.048
  N  N478  1  0.359300  0.565100  0.744130  1.0  -0.3878
  N  N479  1  0.833400  0.734100  0.913260  1.0  0.0315
  N  N480  1  0.991200  0.683400  0.914140  1.0  -0.3877
  N  N481  1  0.418400  0.428200  0.939580  1.0  0.047
  N  N482  1  0.261800  0.495100  0.931710  1.0  -0.3913
  N  N483  1  0.944000  0.916300  0.822500  1.0  0.023
  N  N484  1  0.826000  0.042100  0.819540  1.0  -0.3862
  N  N485  1  0.643600  0.666667  0.712200  1.0  0.0307
  N  N486  1  0.474800  0.666300  0.704460  1.0  -0.3677
  N  N487  1  0.966500  0.945000  0.674190  1.0  0.0387
  N  N488  1  0.910100  0.051500  0.628720  1.0  -0.3923
  N  N489  1  0.823500  0.361600  0.027670  1.0  -0.2936
  N  N490  1  0.707240  0.167400  0.856090  1.0  -0.3086
  N  N491  1  0.538200  0.022100  0.703180  1.0  0.0482
  N  N492  1  0.640700  0.065100  0.755870  1.0  -0.3868
  N  N493  1  0.166600  0.234100  0.586740  1.0  0.0327
  N  N494  1  0.008800  0.183400  0.585860  1.0  -0.3891
  N  N495  1  0.581600  0.928200  0.560420  1.0  0.0476
  N  N496  1  0.738200  0.995100  0.568290  1.0  -0.3907
  O  O497  1  0.779900  0.236100  0.578350  1.0  -0.586
  O  O498  1  0.677800  0.354800  0.542280  1.0  -0.4919
  O  O499  1  0.938740  0.970790  0.552750  1.0  -0.5902
  O  O500  1  0.919530  0.908700  0.498660  1.0  -0.5705
  O  O501  1  0.737250  0.230720  0.303770  1.0  -0.578
  O  O502  1  0.795890  0.083100  0.336150  1.0  -0.5573
  O  O503  1  0.632730  0.522110  0.335430  1.0  -0.5844
  O  O504  1  0.593700  0.553100  0.384760  1.0  -0.5913
  O  O505  1  0.220100  0.736100  0.921650  1.0  -0.5844
  O  O506  1  0.322200  0.854800  0.957720  1.0  -0.491
  O  O507  1  0.061260  0.470790  0.947250  1.0  -0.5902
  O  O508  1  0.080470  0.408700  0.001340  1.0  -0.5708
  O  O509  1  0.262750  0.730720  0.196230  1.0  -0.5807
  O  O510  1  0.204110  0.583100  0.163850  1.0  -0.5574
  O  O511  1  0.367270  0.022110  0.164570  1.0  -0.5854
  O  O512  1  0.406300  0.053100  0.115240  1.0  -0.5939
  O  O513  1  0.220100  0.763900  0.421650  1.0  -0.5863
  O  O514  1  0.322200  0.645200  0.457720  1.0  -0.4938
  O  O515  1  0.061260  0.029210  0.447250  1.0  -0.5903
  O  O516  1  0.080470  0.091300  0.501340  1.0  -0.572
  O  O517  1  0.262750  0.769280  0.696230  1.0  -0.5808
  O  O518  1  0.204110  0.916900  0.663850  1.0  -0.5578
  O  O519  1  0.367270  0.477890  0.664570  1.0  -0.5841
  O  O520  1  0.406300  0.446900  0.615240  1.0  -0.5936
  O  O521  1  0.779900  0.263900  0.078350  1.0  -0.5851
  O  O522  1  0.677800  0.145200  0.042280  1.0  -0.4949
  O  O523  1  0.938740  0.529210  0.052750  1.0  -0.5903
  O  O524  1  0.919530  0.591300  0.998660  1.0  -0.5694
  O  O525  1  0.737250  0.269280  0.803770  1.0  -0.5784
  O  O526  1  0.795890  0.416900  0.836150  1.0  -0.5576
  O  O527  1  0.632730  0.977890  0.835430  1.0  -0.5833
  O  O528  1  0.593700  0.946900  0.884760  1.0  -0.5901
