# generated using pymatgen
data_Zn3H5C15O11
_symmetry_space_group_name_H-M   'P 1'
_cell_length_a   17.96430000
_cell_length_b   18.59240000
_cell_length_c   18.59240000
_cell_angle_alpha   120.00000000
_cell_angle_beta   90.00000000
_cell_angle_gamma   90.00000000
_symmetry_Int_Tables_number   1
_chemical_formula_structural   Zn3H5C15O11
_chemical_formula_sum   'Zn18 H30 C90 O66'
_cell_volume   5377.88906502
_cell_formula_units_Z   6
loop_
 _symmetry_equiv_pos_site_id
 _symmetry_equiv_pos_as_xyz
  1  'x, y, z'
loop_
 _atom_site_type_symbol
 _atom_site_label
 _atom_site_symmetry_multiplicity
 _atom_site_fract_x
 _atom_site_fract_y
 _atom_site_fract_z
 _atom_site_occupancy
 _atom_site_charge
  Zn  Zn1  1  0.619330  0.099260  0.342210  1.0  1.0579
  Zn  Zn2  1  0.619330  0.242950  0.900740  1.0  1.0577
  Zn  Zn3  1  0.619330  0.657790  0.757050  1.0  1.0595
  Zn  Zn4  1  0.119330  0.900740  0.657790  1.0  1.0582
  Zn  Zn5  1  0.119330  0.757050  0.099260  1.0  1.0578
  Zn  Zn6  1  0.119330  0.342210  0.242950  1.0  1.0581
  Zn  Zn7  1  0.119330  0.242950  0.342210  1.0  1.058
  Zn  Zn8  1  0.119330  0.657790  0.900740  1.0  1.0585
  Zn  Zn9  1  0.119330  0.099260  0.757050  1.0  1.058
  Zn  Zn10  1  0.619330  0.757050  0.657790  1.0  1.0575
  Zn  Zn11  1  0.619330  0.342210  0.099260  1.0  1.059
  Zn  Zn12  1  0.619330  0.900740  0.242950  1.0  1.0581
  Zn  Zn13  1  0.276540  0.344150  0.344150  1.0  1.0999
  Zn  Zn14  1  0.276540  0.000000  0.655850  1.0  1.1028
  Zn  Zn15  1  0.276540  0.655850  0.000000  1.0  1.0999
  Zn  Zn16  1  0.776540  0.655850  0.655850  1.0  1.1019
  Zn  Zn17  1  0.776540  0.000000  0.344150  1.0  1.1002
  Zn  Zn18  1  0.776540  0.344150  0.000000  1.0  1.101
  H  H19  1  0.582800  0.201200  0.646600  1.0  0.1058
  H  H20  1  0.397100  0.123600  0.292900  1.0  0.1149
  H  H21  1  0.582800  0.445400  0.798800  1.0  0.1063
  H  H22  1  0.397100  0.169300  0.876400  1.0  0.1144
  H  H23  1  0.582800  0.353400  0.554600  1.0  0.1061
  H  H24  1  0.397100  0.707100  0.830700  1.0  0.1147
  H  H25  1  0.082800  0.798800  0.353400  1.0  0.1061
  H  H26  1  0.897100  0.876400  0.707100  1.0  0.1143
  H  H27  1  0.082800  0.554600  0.201200  1.0  0.1057
  H  H28  1  0.897100  0.830700  0.123600  1.0  0.1144
  H  H29  1  0.082800  0.646600  0.445400  1.0  0.1066
  H  H30  1  0.897100  0.292900  0.169300  1.0  0.1145
  H  H31  1  0.082800  0.445400  0.646600  1.0  0.1064
  H  H32  1  0.897100  0.169300  0.292900  1.0  0.1146
  H  H33  1  0.082800  0.353400  0.798800  1.0  0.106
  H  H34  1  0.897100  0.707100  0.876400  1.0  0.1146
  H  H35  1  0.082800  0.201200  0.554600  1.0  0.106
  H  H36  1  0.897100  0.123600  0.830700  1.0  0.1145
  H  H37  1  0.582800  0.554600  0.353400  1.0  0.1061
  H  H38  1  0.397100  0.830700  0.707100  1.0  0.1143
  H  H39  1  0.582800  0.646600  0.201200  1.0  0.1063
  H  H40  1  0.397100  0.292900  0.123600  1.0  0.1147
  H  H41  1  0.582800  0.798800  0.445400  1.0  0.1058
  H  H42  1  0.397100  0.876400  0.169300  1.0  0.1149
  H  H43  1  0.206100  0.000000  0.195700  1.0  0.109
  H  H44  1  0.206100  0.195700  0.000000  1.0  0.109
  H  H45  1  0.206100  0.804300  0.804300  1.0  0.1089
  H  H46  1  0.706100  0.000000  0.804300  1.0  0.109
  H  H47  1  0.706100  0.804300  0.000000  1.0  0.109
  H  H48  1  0.706100  0.195700  0.195700  1.0  0.1092
  C  C49  1  0.588300  0.191900  0.498800  1.0  0.6469
  C  C50  1  0.587100  0.266900  0.587000  1.0  -0.1483
  C  C51  1  0.585300  0.254900  0.655100  1.0  0.006
  C  C52  1  0.254200  0.155400  0.277400  1.0  0.7487
  C  C53  1  0.295200  0.074000  0.242600  1.0  -0.1668
  C  C54  1  0.372100  0.073900  0.259600  1.0  0.0242
  C  C55  1  0.588300  0.306900  0.808100  1.0  0.6458
  C  C56  1  0.587100  0.320100  0.733100  1.0  -0.1456
  C  C57  1  0.585300  0.400200  0.745100  1.0  0.0056
  C  C58  1  0.254200  0.122000  0.844600  1.0  0.7502
  C  C59  1  0.295200  0.168600  0.926000  1.0  -0.1686
  C  C60  1  0.372100  0.185700  0.926100  1.0  0.0204
  C  C61  1  0.588300  0.501200  0.693100  1.0  0.6451
  C  C62  1  0.587100  0.413000  0.679900  1.0  -0.1465
  C  C63  1  0.585300  0.344900  0.599800  1.0  0.0054
  C  C64  1  0.254200  0.722600  0.878000  1.0  0.7511
  C  C65  1  0.295200  0.757400  0.831400  1.0  -0.1663
  C  C66  1  0.372100  0.740400  0.814300  1.0  0.0232
  C  C67  1  0.088300  0.808100  0.501200  1.0  0.6469
  C  C68  1  0.087100  0.733100  0.413000  1.0  -0.1479
  C  C69  1  0.085300  0.745100  0.344900  1.0  0.0056
  C  C70  1  0.754200  0.844600  0.722600  1.0  0.7475
  C  C71  1  0.795200  0.926000  0.757400  1.0  -0.1673
  C  C72  1  0.872100  0.926100  0.740400  1.0  0.0244
  C  C73  1  0.088300  0.693100  0.191900  1.0  0.6455
  C  C74  1  0.087100  0.679900  0.266900  1.0  -0.1452
  C  C75  1  0.085300  0.599800  0.254900  1.0  0.0061
  C  C76  1  0.754200  0.878000  0.155400  1.0  0.7499
  C  C77  1  0.795200  0.831400  0.074000  1.0  -0.168
  C  C78  1  0.872100  0.814300  0.073900  1.0  0.0217
  C  C79  1  0.088300  0.498800  0.306900  1.0  0.645
  C  C80  1  0.087100  0.587000  0.320100  1.0  -0.1473
  C  C81  1  0.085300  0.655100  0.400200  1.0  0.0059
  C  C82  1  0.754200  0.277400  0.122000  1.0  0.7503
  C  C83  1  0.795200  0.242600  0.168600  1.0  -0.1671
  C  C84  1  0.872100  0.259600  0.185700  1.0  0.0225
  C  C85  1  0.088300  0.306900  0.498800  1.0  0.6468
  C  C86  1  0.087100  0.320100  0.587000  1.0  -0.1453
  C  C87  1  0.085300  0.400200  0.655100  1.0  0.0052
  C  C88  1  0.754200  0.122000  0.277400  1.0  0.7492
  C  C89  1  0.795200  0.168600  0.242600  1.0  -0.1682
  C  C90  1  0.872100  0.185700  0.259600  1.0  0.0227
  C  C91  1  0.088300  0.501200  0.808100  1.0  0.645
  C  C92  1  0.087100  0.413000  0.733100  1.0  -0.1469
  C  C93  1  0.085300  0.344900  0.745100  1.0  0.0057
  C  C94  1  0.754200  0.722600  0.844600  1.0  0.7509
  C  C95  1  0.795200  0.757400  0.926000  1.0  -0.1672
  C  C96  1  0.872100  0.740400  0.926100  1.0  0.0221
  C  C97  1  0.088300  0.191900  0.693100  1.0  0.646
  C  C98  1  0.087100  0.266900  0.679900  1.0  -0.1483
  C  C99  1  0.085300  0.254900  0.599800  1.0  0.0064
  C  C100  1  0.754200  0.155400  0.878000  1.0  0.7482
  C  C101  1  0.795200  0.074000  0.831400  1.0  -0.1667
  C  C102  1  0.872100  0.073900  0.814300  1.0  0.0244
  C  C103  1  0.588300  0.693100  0.501200  1.0  0.6469
  C  C104  1  0.587100  0.679900  0.413000  1.0  -0.1456
  C  C105  1  0.585300  0.599800  0.344900  1.0  0.0065
  C  C106  1  0.254200  0.878000  0.722600  1.0  0.751
  C  C107  1  0.295200  0.831400  0.757400  1.0  -0.1681
  C  C108  1  0.372100  0.814300  0.740400  1.0  0.0204
  C  C109  1  0.588300  0.498800  0.191900  1.0  0.6448
  C  C110  1  0.587100  0.587000  0.266900  1.0  -0.147
  C  C111  1  0.585300  0.655100  0.254900  1.0  0.0056
  C  C112  1  0.254200  0.277400  0.155400  1.0  0.7507
  C  C113  1  0.295200  0.242600  0.074000  1.0  -0.1662
  C  C114  1  0.372100  0.259600  0.073900  1.0  0.0226
  C  C115  1  0.588300  0.808100  0.306900  1.0  0.6456
  C  C116  1  0.587100  0.733100  0.320100  1.0  -0.1476
  C  C117  1  0.585300  0.745100  0.400200  1.0  0.0056
  C  C118  1  0.254200  0.844600  0.122000  1.0  0.748
  C  C119  1  0.295200  0.926000  0.168600  1.0  -0.1675
  C  C120  1  0.372100  0.926100  0.185700  1.0  0.0242
  C  C121  1  0.408900  0.000000  0.226700  1.0  -0.161
  C  C122  1  0.491800  0.000000  0.247200  1.0  0.7328
  C  C123  1  0.257500  0.000000  0.201400  1.0  0.0319
  C  C124  1  0.408900  0.226700  0.000000  1.0  -0.1612
  C  C125  1  0.491800  0.247200  0.000000  1.0  0.7336
  C  C126  1  0.257500  0.201400  0.000000  1.0  0.0323
  C  C127  1  0.408900  0.773300  0.773300  1.0  -0.1611
  C  C128  1  0.491800  0.752800  0.752800  1.0  0.7329
  C  C129  1  0.257500  0.798600  0.798600  1.0  0.032
  C  C130  1  0.908900  0.000000  0.773300  1.0  -0.1613
  C  C131  1  0.991800  0.000000  0.752800  1.0  0.7329
  C  C132  1  0.757500  0.000000  0.798600  1.0  0.0321
  C  C133  1  0.908900  0.773300  0.000000  1.0  -0.1609
  C  C134  1  0.991800  0.752800  0.000000  1.0  0.733
  C  C135  1  0.757500  0.798600  0.000000  1.0  0.0321
  C  C136  1  0.908900  0.226700  0.226700  1.0  -0.1611
  C  C137  1  0.991800  0.247200  0.247200  1.0  0.7337
  C  C138  1  0.757500  0.201400  0.201400  1.0  0.0324
  O  O139  1  0.609100  0.207400  0.443600  1.0  -0.5878
  O  O140  1  0.575100  0.124100  0.486100  1.0  -0.458
  O  O141  1  0.289600  0.220400  0.310400  1.0  -0.6445
  O  O142  1  0.184500  0.151200  0.273700  1.0  -0.5874
  O  O143  1  0.521100  0.068300  0.286500  1.0  -0.5873
  O  O144  1  0.609100  0.236200  0.792600  1.0  -0.5885
  O  O145  1  0.575100  0.362000  0.875900  1.0  -0.4592
  O  O146  1  0.289600  0.090000  0.779600  1.0  -0.6439
  O  O147  1  0.184500  0.122500  0.848800  1.0  -0.5868
  O  O148  1  0.521100  0.218200  0.931700  1.0  -0.5857
  O  O149  1  0.609100  0.556400  0.763800  1.0  -0.589
  O  O150  1  0.575100  0.513900  0.638000  1.0  -0.4593
  O  O151  1  0.289600  0.689600  0.910000  1.0  -0.6441
  O  O152  1  0.184500  0.726300  0.877500  1.0  -0.588
  O  O153  1  0.521100  0.713500  0.781800  1.0  -0.5859
  O  O154  1  0.109100  0.792600  0.556400  1.0  -0.5876
  O  O155  1  0.075100  0.875900  0.513900  1.0  -0.4593
  O  O156  1  0.789600  0.779600  0.689600  1.0  -0.6448
  O  O157  1  0.684500  0.848800  0.726300  1.0  -0.5877
  O  O158  1  0.021100  0.931700  0.713500  1.0  -0.5861
  O  O159  1  0.109100  0.763800  0.207400  1.0  -0.5882
  O  O160  1  0.075100  0.638000  0.124100  1.0  -0.4618
  O  O161  1  0.789600  0.910000  0.220400  1.0  -0.6429
  O  O162  1  0.684500  0.877500  0.151200  1.0  -0.587
  O  O163  1  0.021100  0.781800  0.068300  1.0  -0.5859
  O  O164  1  0.109100  0.443600  0.236200  1.0  -0.5876
  O  O165  1  0.075100  0.486100  0.362000  1.0  -0.4597
  O  O166  1  0.789600  0.310400  0.090000  1.0  -0.6456
  O  O167  1  0.684500  0.273700  0.122500  1.0  -0.5882
  O  O168  1  0.021100  0.286500  0.218200  1.0  -0.5854
  O  O169  1  0.109100  0.236200  0.443600  1.0  -0.5867
  O  O170  1  0.075100  0.362000  0.486100  1.0  -0.4618
  O  O171  1  0.789600  0.090000  0.310400  1.0  -0.6436
  O  O172  1  0.684500  0.122500  0.273700  1.0  -0.5872
  O  O173  1  0.021100  0.218200  0.286500  1.0  -0.5859
  O  O174  1  0.109100  0.556400  0.792600  1.0  -0.5877
  O  O175  1  0.075100  0.513900  0.875900  1.0  -0.4596
  O  O176  1  0.789600  0.689600  0.779600  1.0  -0.6446
  O  O177  1  0.684500  0.726300  0.848800  1.0  -0.5878
  O  O178  1  0.021100  0.713500  0.931700  1.0  -0.5856
  O  O179  1  0.109100  0.207400  0.763800  1.0  -0.587
  O  O180  1  0.075100  0.124100  0.638000  1.0  -0.4591
  O  O181  1  0.789600  0.220400  0.910000  1.0  -0.6445
  O  O182  1  0.684500  0.151200  0.877500  1.0  -0.5873
  O  O183  1  0.021100  0.068300  0.781800  1.0  -0.5869
  O  O184  1  0.609100  0.763800  0.556400  1.0  -0.587
  O  O185  1  0.575100  0.638000  0.513900  1.0  -0.4594
  O  O186  1  0.289600  0.910000  0.689600  1.0  -0.6434
  O  O187  1  0.184500  0.877500  0.726300  1.0  -0.5865
  O  O188  1  0.521100  0.781800  0.713500  1.0  -0.586
  O  O189  1  0.609100  0.443600  0.207400  1.0  -0.5873
  O  O190  1  0.575100  0.486100  0.124100  1.0  -0.4594
  O  O191  1  0.289600  0.310400  0.220400  1.0  -0.6448
  O  O192  1  0.184500  0.273700  0.151200  1.0  -0.5885
  O  O193  1  0.521100  0.286500  0.068300  1.0  -0.5855
  O  O194  1  0.609100  0.792600  0.236200  1.0  -0.5861
  O  O195  1  0.575100  0.875900  0.362000  1.0  -0.458
  O  O196  1  0.289600  0.779600  0.090000  1.0  -0.6448
  O  O197  1  0.184500  0.848800  0.122500  1.0  -0.5878
  O  O198  1  0.521100  0.931700  0.218200  1.0  -0.5865
  O  O199  1  0.662000  0.000000  0.339600  1.0  -0.8623
  O  O200  1  0.662000  0.339600  0.000000  1.0  -0.8616
  O  O201  1  0.662000  0.660400  0.660400  1.0  -0.8608
  O  O202  1  0.162000  0.000000  0.660400  1.0  -0.8627
  O  O203  1  0.162000  0.660400  0.000000  1.0  -0.8609
  O  O204  1  0.162000  0.339600  0.339600  1.0  -0.8621
