# generated using pymatgen
data_ZnH2(C3O2)2
_symmetry_space_group_name_H-M   'P 1'
_cell_length_a   12.18600000
_cell_length_b   16.73420000
_cell_length_c   27.62900000
_cell_angle_alpha   106.97100000
_cell_angle_beta   90.00000000
_cell_angle_gamma   111.35300000
_symmetry_Int_Tables_number   1
_chemical_formula_structural   ZnH2(C3O2)2
_chemical_formula_sum   'Zn12 H24 C72 O48'
_cell_volume   4983.06664421
_cell_formula_units_Z   12
loop_
 _symmetry_equiv_pos_site_id
 _symmetry_equiv_pos_as_xyz
  1  'x, y, z'
loop_
 _atom_site_type_symbol
 _atom_site_label
 _atom_site_symmetry_multiplicity
 _atom_site_fract_x
 _atom_site_fract_y
 _atom_site_fract_z
 _atom_site_occupancy
 _atom_site_charge
  Zn  Zn1  1  0.158510  0.521020  0.121130  1.0  1.0523
  Zn  Zn2  1  0.267890  0.359180  0.124600  1.0  1.0538
  Zn  Zn3  1  0.284850  0.050580  0.820390  1.0  1.1162
  Zn  Zn4  1  0.637490  0.478980  0.378870  1.0  1.0515
  Zn  Zn5  1  0.908710  0.640820  0.375400  1.0  1.0538
  Zn  Zn6  1  0.234270  0.949420  0.679610  1.0  1.1104
  Zn  Zn7  1  0.841490  0.478980  0.878870  1.0  1.0514
  Zn  Zn8  1  0.732110  0.640820  0.875400  1.0  1.0571
  Zn  Zn9  1  0.715150  0.949420  0.179610  1.0  1.114
  Zn  Zn10  1  0.362510  0.521020  0.621130  1.0  1.0522
  Zn  Zn11  1  0.091290  0.359180  0.624600  1.0  1.056
  Zn  Zn12  1  0.765730  0.050580  0.320390  1.0  1.1111
  H  H13  1  0.210900  0.237200  0.961100  1.0  0.0942
  H  H14  1  0.018500  0.217600  0.835800  1.0  0.102
  H  H15  1  0.032600  0.399200  0.971500  1.0  0.0988
  H  H16  1  0.477800  0.529600  0.260800  1.0  0.1035
  H  H17  1  0.727700  0.780200  0.320000  1.0  0.1041
  H  H18  1  0.490000  0.728400  0.202700  1.0  0.0988
  H  H19  1  0.973700  0.762800  0.538900  1.0  0.0962
  H  H20  1  0.800900  0.782400  0.664200  1.0  0.1019
  H  H21  1  0.633400  0.600800  0.528500  1.0  0.0985
  H  H22  1  0.948200  0.470400  0.239200  1.0  0.1037
  H  H23  1  0.947500  0.219800  0.180000  1.0  0.1038
  H  H24  1  0.761600  0.271600  0.297300  1.0  0.0987
  H  H25  1  0.789100  0.762800  0.038900  1.0  0.0943
  H  H26  1  0.981500  0.782400  0.164200  1.0  0.102
  H  H27  1  0.967400  0.600800  0.028500  1.0  0.099
  H  H28  1  0.522200  0.470400  0.739200  1.0  0.1038
  H  H29  1  0.272300  0.219800  0.680000  1.0  0.1036
  H  H30  1  0.510000  0.271600  0.797300  1.0  0.0987
  H  H31  1  0.026300  0.237200  0.461100  1.0  0.0968
  H  H32  1  0.199100  0.217600  0.335800  1.0  0.102
  H  H33  1  0.366600  0.399200  0.471500  1.0  0.0989
  H  H34  1  0.051800  0.529600  0.760800  1.0  0.1034
  H  H35  1  0.052500  0.780200  0.820000  1.0  0.1042
  H  H36  1  0.238400  0.728400  0.702700  1.0  0.099
  C  C37  1  0.128740  0.324280  0.974030  1.0  -0.1232
  C  C38  1  0.162860  0.256920  0.945400  1.0  0.0217
  C  C39  1  0.125830  0.217260  0.892500  1.0  -0.1497
  C  C40  1  0.047380  0.245160  0.870180  1.0  0.0054
  C  C41  1  0.012890  0.313580  0.899150  1.0  -0.1636
  C  C42  1  0.054800  0.353400  0.951820  1.0  0.0365
  C  C43  1  0.170150  0.366900  0.030480  1.0  0.7267
  C  C44  1  0.168950  0.149900  0.861000  1.0  0.6482
  C  C45  1  0.937200  0.348600  0.873800  1.0  0.6655
  C  C46  1  0.465600  0.619000  0.225400  1.0  -0.1627
  C  C47  1  0.512450  0.589300  0.260890  1.0  0.0233
  C  C48  1  0.609980  0.650160  0.295570  1.0  -0.1543
  C  C49  1  0.661880  0.739960  0.296610  1.0  0.0227
  C  C50  1  0.614200  0.769200  0.262100  1.0  -0.1644
  C  C51  1  0.518990  0.708980  0.226370  1.0  0.0195
  C  C52  1  0.363350  0.553100  0.186280  1.0  0.7242
  C  C53  1  0.661950  0.617500  0.331640  1.0  0.6904
  C  C54  1  0.669520  0.866040  0.261900  1.0  0.7355
  C  C55  1  0.804460  0.675720  0.525970  1.0  -0.1229
  C  C56  1  0.905940  0.743080  0.554600  1.0  0.0208
  C  C57  1  0.908570  0.782740  0.607500  1.0  -0.149
  C  C58  1  0.802220  0.754840  0.629820  1.0  0.0044
  C  C59  1  0.699310  0.686420  0.600850  1.0  -0.164
  C  C60  1  0.701400  0.646600  0.548180  1.0  0.0356
  C  C61  1  0.803250  0.633100  0.469520  1.0  0.7262
  C  C62  1  0.019050  0.850100  0.639000  1.0  0.6476
  C  C63  1  0.588600  0.651400  0.626200  1.0  0.6648
  C  C64  1  0.846600  0.381000  0.274600  1.0  -0.1621
  C  C65  1  0.923150  0.410700  0.239110  1.0  0.0211
  C  C66  1  0.959820  0.349840  0.204430  1.0  -0.1541
  C  C67  1  0.921920  0.260040  0.203390  1.0  0.0215
  C  C68  1  0.845000  0.230800  0.237900  1.0  -0.1647
  C  C69  1  0.810010  0.291020  0.273630  1.0  0.0192
  C  C70  1  0.810250  0.446900  0.313720  1.0  0.724
  C  C71  1  0.044450  0.382500  0.168360  1.0  0.6909
  C  C72  1  0.803480  0.133960  0.238100  1.0  0.736
  C  C73  1  0.871260  0.675720  0.025970  1.0  -0.1235
  C  C74  1  0.837140  0.743080  0.054600  1.0  0.0218
  C  C75  1  0.874170  0.782740  0.107500  1.0  -0.1486
  C  C76  1  0.952620  0.754840  0.129820  1.0  0.0058
  C  C77  1  0.987110  0.686420  0.100850  1.0  -0.1642
  C  C78  1  0.945200  0.646600  0.048180  1.0  0.036
  C  C79  1  0.829850  0.633100  0.969520  1.0  0.7261
  C  C80  1  0.831050  0.850100  0.139000  1.0  0.6473
  C  C81  1  0.062800  0.651400  0.126200  1.0  0.6652
  C  C82  1  0.534400  0.381000  0.774600  1.0  -0.1621
  C  C83  1  0.487550  0.410700  0.739110  1.0  0.0214
  C  C84  1  0.390020  0.349840  0.704430  1.0  -0.1542
  C  C85  1  0.338120  0.260040  0.703390  1.0  0.0214
  C  C86  1  0.385800  0.230800  0.737900  1.0  -0.1648
  C  C87  1  0.481010  0.291020  0.773630  1.0  0.0202
  C  C88  1  0.636650  0.446900  0.813720  1.0  0.7242
  C  C89  1  0.338050  0.382500  0.668360  1.0  0.6912
  C  C90  1  0.330480  0.133960  0.738100  1.0  0.7363
  C  C91  1  0.195540  0.324280  0.474030  1.0  -0.1236
  C  C92  1  0.094060  0.256920  0.445400  1.0  0.0226
  C  C93  1  0.091430  0.217260  0.392500  1.0  -0.1494
  C  C94  1  0.197780  0.245160  0.370180  1.0  0.0061
  C  C95  1  0.300690  0.313580  0.399150  1.0  -0.1638
  C  C96  1  0.298600  0.353400  0.451820  1.0  0.0364
  C  C97  1  0.196750  0.366900  0.530480  1.0  0.7255
  C  C98  1  0.980950  0.149900  0.361000  1.0  0.6481
  C  C99  1  0.411400  0.348600  0.373800  1.0  0.6649
  C  C100  1  0.153400  0.619000  0.725400  1.0  -0.1624
  C  C101  1  0.076850  0.589300  0.760890  1.0  0.0234
  C  C102  1  0.040180  0.650160  0.795570  1.0  -0.154
  C  C103  1  0.078080  0.739960  0.796610  1.0  0.0223
  C  C104  1  0.155000  0.769200  0.762100  1.0  -0.1646
  C  C105  1  0.189990  0.708980  0.726370  1.0  0.02
  C  C106  1  0.189750  0.553100  0.686280  1.0  0.7243
  C  C107  1  0.955550  0.617500  0.831640  1.0  0.6905
  C  C108  1  0.196520  0.866040  0.761900  1.0  0.7354
  O  O109  1  0.149790  0.436580  0.052660  1.0  -0.6566
  O  O110  1  0.224040  0.331480  0.050900  1.0  -0.6424
  O  O111  1  0.247140  0.132080  0.880850  1.0  -0.5895
  O  O112  1  0.130440  0.111680  0.813070  1.0  -0.6263
  O  O113  1  0.912000  0.319000  0.828180  1.0  -0.4731
  O  O114  1  0.908470  0.409540  0.904580  1.0  -0.5997
  O  O115  1  0.321790  0.583580  0.156750  1.0  -0.6013
  O  O116  1  0.325840  0.472080  0.185080  1.0  -0.6082
  O  O117  1  0.600270  0.539340  0.333840  1.0  -0.5937
  O  O118  1  0.764000  0.669200  0.356970  1.0  -0.6192
  O  O119  1  0.744770  0.922340  0.299430  1.0  -0.5964
  O  O120  1  0.631460  0.885520  0.225910  1.0  -0.6191
  O  O121  1  0.713210  0.563420  0.447340  1.0  -0.655
  O  O122  1  0.892560  0.668520  0.449100  1.0  -0.6429
  O  O123  1  0.115060  0.867920  0.619150  1.0  -0.5923
  O  O124  1  0.018760  0.888320  0.686930  1.0  -0.6258
  O  O125  1  0.593000  0.681000  0.671820  1.0  -0.477
  O  O126  1  0.498930  0.590460  0.595420  1.0  -0.5978
  O  O127  1  0.738210  0.416420  0.343250  1.0  -0.6004
  O  O128  1  0.853760  0.527920  0.314920  1.0  -0.6063
  O  O129  1  0.060930  0.460660  0.166160  1.0  -0.5947
  O  O130  1  0.094800  0.330800  0.143030  1.0  -0.6187
  O  O131  1  0.822430  0.077660  0.200570  1.0  -0.5961
  O  O132  1  0.745940  0.114480  0.274090  1.0  -0.618
  O  O133  1  0.850210  0.563420  0.947340  1.0  -0.6548
  O  O134  1  0.775960  0.668520  0.949100  1.0  -0.6411
  O  O135  1  0.752860  0.867920  0.119150  1.0  -0.5887
  O  O136  1  0.869560  0.888320  0.186930  1.0  -0.6238
  O  O137  1  0.088000  0.681000  0.171820  1.0  -0.4761
  O  O138  1  0.091530  0.590460  0.095420  1.0  -0.5977
  O  O139  1  0.678210  0.416420  0.843250  1.0  -0.6004
  O  O140  1  0.674160  0.527920  0.814920  1.0  -0.6071
  O  O141  1  0.399730  0.460660  0.666160  1.0  -0.5941
  O  O142  1  0.236000  0.330800  0.643030  1.0  -0.6198
  O  O143  1  0.255230  0.077660  0.700570  1.0  -0.5964
  O  O144  1  0.368540  0.114480  0.774090  1.0  -0.6174
  O  O145  1  0.286790  0.436580  0.552660  1.0  -0.6566
  O  O146  1  0.107440  0.331480  0.550900  1.0  -0.6413
  O  O147  1  0.884940  0.132080  0.380850  1.0  -0.5906
  O  O148  1  0.981240  0.111680  0.313070  1.0  -0.6249
  O  O149  1  0.407000  0.319000  0.328180  1.0  -0.4731
  O  O150  1  0.501070  0.409540  0.404580  1.0  -0.5972
  O  O151  1  0.261790  0.583580  0.656750  1.0  -0.6019
  O  O152  1  0.146240  0.472080  0.685080  1.0  -0.6082
  O  O153  1  0.939070  0.539340  0.833840  1.0  -0.5936
  O  O154  1  0.905200  0.669200  0.856970  1.0  -0.6189
  O  O155  1  0.177570  0.922340  0.799430  1.0  -0.597
  O  O156  1  0.254060  0.885520  0.725910  1.0  -0.6173
