# generated using pymatgen
data_Zn5H9C27O19
_symmetry_space_group_name_H-M   'P 1'
_cell_length_a   12.10400000
_cell_length_b   18.06000000
_cell_length_c   31.65000000
_cell_angle_alpha   90.48000000
_cell_angle_beta   90.00000000
_cell_angle_gamma   90.00000000
_symmetry_Int_Tables_number   1
_chemical_formula_structural   Zn5H9C27O19
_chemical_formula_sum   'Zn20 H36 C108 O76'
_cell_volume   6918.39150921
_cell_formula_units_Z   4
loop_
 _symmetry_equiv_pos_site_id
 _symmetry_equiv_pos_as_xyz
  1  'x, y, z'
loop_
 _atom_site_type_symbol
 _atom_site_label
 _atom_site_symmetry_multiplicity
 _atom_site_fract_x
 _atom_site_fract_y
 _atom_site_fract_z
 _atom_site_occupancy
 _atom_site_charge
  Zn  Zn1  1  0.401120  0.955940  0.486530  1.0  1.1235
  Zn  Zn2  1  0.599070  0.455020  0.512430  1.0  1.1766
  Zn  Zn3  1  0.997970  0.665860  0.690050  1.0  1.0039
  Zn  Zn4  1  0.408180  0.754650  0.268710  1.0  0.9837
  Zn  Zn5  1  0.031620  0.145370  0.305400  1.0  1.0825
  Zn  Zn6  1  0.901120  0.044060  0.013470  1.0  1.1234
  Zn  Zn7  1  0.099070  0.544980  0.987570  1.0  1.1766
  Zn  Zn8  1  0.497970  0.334140  0.809950  1.0  1.0046
  Zn  Zn9  1  0.908180  0.245350  0.231290  1.0  0.9831
  Zn  Zn10  1  0.531620  0.854630  0.194600  1.0  1.0817
  Zn  Zn11  1  0.598880  0.044060  0.513470  1.0  1.1246
  Zn  Zn12  1  0.400930  0.544980  0.487570  1.0  1.1751
  Zn  Zn13  1  0.002030  0.334140  0.309950  1.0  1.0022
  Zn  Zn14  1  0.591820  0.245350  0.731290  1.0  0.9831
  Zn  Zn15  1  0.968380  0.854630  0.694600  1.0  1.08
  Zn  Zn16  1  0.098880  0.955940  0.986530  1.0  1.1243
  Zn  Zn17  1  0.900930  0.455020  0.012430  1.0  1.1756
  Zn  Zn18  1  0.502030  0.665860  0.190050  1.0  0.9986
  Zn  Zn19  1  0.091820  0.754650  0.768710  1.0  0.9847
  Zn  Zn20  1  0.468380  0.145370  0.805400  1.0  1.0809
  H  H21  1  0.743000  0.956600  0.272400  1.0  0.1207
  H  H22  1  0.537900  0.887400  0.366600  1.0  0.1199
  H  H23  1  0.771100  0.050400  0.391200  1.0  0.1292
  H  H24  1  0.730400  0.440000  0.384900  1.0  0.1237
  H  H25  1  0.507800  0.599900  0.358800  1.0  0.1091
  H  H26  1  0.704800  0.519000  0.265000  1.0  0.1236
  H  H27  1  0.778200  0.859100  0.591000  1.0  0.1193
  H  H28  1  0.761400  0.632400  0.587400  1.0  0.1333
  H  H29  1  0.555400  0.755400  0.512700  1.0  0.1124
  H  H30  1  0.243000  0.043400  0.227600  1.0  0.1203
  H  H31  1  0.037900  0.112600  0.133400  1.0  0.1206
  H  H32  1  0.271100  0.949600  0.108800  1.0  0.1289
  H  H33  1  0.230400  0.560000  0.115100  1.0  0.1245
  H  H34  1  0.007800  0.400100  0.141200  1.0  0.1093
  H  H35  1  0.204800  0.481000  0.235000  1.0  0.1234
  H  H36  1  0.278200  0.140900  0.909000  1.0  0.1189
  H  H37  1  0.261400  0.367600  0.912600  1.0  0.1339
  H  H38  1  0.055400  0.244600  0.987300  1.0  0.1128
  H  H39  1  0.257000  0.043400  0.727600  1.0  0.1206
  H  H40  1  0.462100  0.112600  0.633400  1.0  0.1204
  H  H41  1  0.228900  0.949600  0.608800  1.0  0.1288
  H  H42  1  0.269600  0.560000  0.615100  1.0  0.1243
  H  H43  1  0.492200  0.400100  0.641200  1.0  0.1093
  H  H44  1  0.295200  0.481000  0.735000  1.0  0.1236
  H  H45  1  0.221800  0.140900  0.409000  1.0  0.119
  H  H46  1  0.238600  0.367600  0.412600  1.0  0.1337
  H  H47  1  0.444600  0.244600  0.487300  1.0  0.1122
  H  H48  1  0.757000  0.956600  0.772400  1.0  0.1208
  H  H49  1  0.962100  0.887400  0.866600  1.0  0.1193
  H  H50  1  0.728900  0.050400  0.891200  1.0  0.1293
  H  H51  1  0.769600  0.440000  0.884900  1.0  0.1237
  H  H52  1  0.992200  0.599900  0.858800  1.0  0.1092
  H  H53  1  0.795200  0.519000  0.765000  1.0  0.1233
  H  H54  1  0.721800  0.859100  0.091000  1.0  0.1198
  H  H55  1  0.738600  0.632400  0.087400  1.0  0.1334
  H  H56  1  0.944600  0.755400  0.012700  1.0  0.1118
  C  C57  1  0.774600  0.007600  0.329700  1.0  -0.1549
  C  C58  1  0.720200  0.958700  0.301100  1.0  -0.0045
  C  C59  1  0.631900  0.912700  0.315100  1.0  -0.0742
  C  C60  1  0.595900  0.918200  0.356800  1.0  0.0049
  C  C61  1  0.648400  0.971700  0.385300  1.0  -0.1389
  C  C62  1  0.737100  0.016000  0.372300  1.0  -0.0287
  C  C63  1  0.865900  0.054100  0.315600  1.0  0.6791
  C  C64  1  0.575500  0.863800  0.287500  1.0  0.7122
  C  C65  1  0.603500  0.980100  0.429300  1.0  0.7191
  C  C66  1  0.731700  0.471300  0.323900  1.0  -0.0785
  C  C67  1  0.696700  0.471900  0.365000  1.0  0.0304
  C  C68  1  0.609200  0.520500  0.378100  1.0  -0.1409
  C  C69  1  0.565100  0.567300  0.349900  1.0  0.0349
  C  C70  1  0.601100  0.569700  0.307100  1.0  -0.1486
  C  C71  1  0.682300  0.520300  0.293700  1.0  -0.024
  C  C72  1  0.824500  0.419300  0.309300  1.0  0.7024
  C  C73  1  0.566100  0.518200  0.423100  1.0  0.716
  C  C74  1  0.548300  0.622100  0.277500  1.0  0.7241
  C  C75  1  0.655300  0.818000  0.548900  1.0  -0.1046
  C  C76  1  0.742100  0.815400  0.581500  1.0  -0.0462
  C  C77  1  0.768000  0.749500  0.597100  1.0  -0.1265
  C  C78  1  0.732400  0.678600  0.578600  1.0  -0.032
  C  C79  1  0.650800  0.684600  0.546300  1.0  -0.1338
  C  C80  1  0.612700  0.753300  0.533200  1.0  -0.0293
  C  C81  1  0.613300  0.889800  0.533800  1.0  0.6883
  C  C82  1  0.853900  0.745700  0.632500  1.0  0.716
  C  C83  1  0.602500  0.617000  0.528100  1.0  0.7044
  C  C84  1  0.274600  0.992400  0.170300  1.0  -0.1547
  C  C85  1  0.220200  0.041300  0.198900  1.0  -0.004
  C  C86  1  0.131900  0.087300  0.184900  1.0  -0.0742
  C  C87  1  0.095900  0.081800  0.143200  1.0  0.0047
  C  C88  1  0.148400  0.028300  0.114700  1.0  -0.1392
  C  C89  1  0.237100  0.984000  0.127700  1.0  -0.0272
  C  C90  1  0.365900  0.945900  0.184400  1.0  0.6794
  C  C91  1  0.075500  0.136200  0.212500  1.0  0.7117
  C  C92  1  0.103500  0.019900  0.070700  1.0  0.7193
  C  C93  1  0.231700  0.528700  0.176100  1.0  -0.0794
  C  C94  1  0.196700  0.528100  0.135000  1.0  0.0317
  C  C95  1  0.109200  0.479500  0.121900  1.0  -0.1402
  C  C96  1  0.065100  0.432700  0.150100  1.0  0.0352
  C  C97  1  0.101100  0.430300  0.192900  1.0  -0.1488
  C  C98  1  0.182300  0.479700  0.206300  1.0  -0.0236
  C  C99  1  0.324500  0.580700  0.190700  1.0  0.7024
  C  C100  1  0.066100  0.481800  0.076900  1.0  0.7164
  C  C101  1  0.048300  0.377900  0.222500  1.0  0.7238
  C  C102  1  0.155300  0.182000  0.951100  1.0  -0.1045
  C  C103  1  0.242100  0.184600  0.918500  1.0  -0.0458
  C  C104  1  0.268000  0.250500  0.902900  1.0  -0.1268
  C  C105  1  0.232400  0.321400  0.921400  1.0  -0.0329
  C  C106  1  0.150800  0.315400  0.953700  1.0  -0.1339
  C  C107  1  0.112700  0.246700  0.966800  1.0  -0.0307
  C  C108  1  0.113300  0.110200  0.966200  1.0  0.6891
  C  C109  1  0.353900  0.254300  0.867500  1.0  0.7147
  C  C110  1  0.102500  0.383000  0.971900  1.0  0.705
  C  C111  1  0.225400  0.992400  0.670300  1.0  -0.1553
  C  C112  1  0.279800  0.041300  0.698900  1.0  -0.0052
  C  C113  1  0.368100  0.087300  0.684900  1.0  -0.074
  C  C114  1  0.404100  0.081800  0.643200  1.0  0.004
  C  C115  1  0.351600  0.028300  0.614700  1.0  -0.139
  C  C116  1  0.262900  0.984000  0.627700  1.0  -0.028
  C  C117  1  0.134100  0.945900  0.684400  1.0  0.6788
  C  C118  1  0.424500  0.136200  0.712500  1.0  0.7115
  C  C119  1  0.396500  0.019900  0.570700  1.0  0.7187
  C  C120  1  0.268300  0.528700  0.676100  1.0  -0.0802
  C  C121  1  0.303300  0.528100  0.635000  1.0  0.0306
  C  C122  1  0.390800  0.479500  0.621900  1.0  -0.1399
  C  C123  1  0.434900  0.432700  0.650100  1.0  0.0356
  C  C124  1  0.398900  0.430300  0.692900  1.0  -0.1489
  C  C125  1  0.317700  0.479700  0.706300  1.0  -0.0252
  C  C126  1  0.175500  0.580700  0.690700  1.0  0.7021
  C  C127  1  0.433900  0.481800  0.576900  1.0  0.7169
  C  C128  1  0.451700  0.377900  0.722500  1.0  0.7237
  C  C129  1  0.344700  0.182000  0.451100  1.0  -0.1041
  C  C130  1  0.257900  0.184600  0.418500  1.0  -0.0466
  C  C131  1  0.232000  0.250500  0.402900  1.0  -0.1266
  C  C132  1  0.267600  0.321400  0.421400  1.0  -0.0334
  C  C133  1  0.349200  0.315400  0.453700  1.0  -0.1337
  C  C134  1  0.387300  0.246700  0.466800  1.0  -0.0299
  C  C135  1  0.386700  0.110200  0.466200  1.0  0.6893
  C  C136  1  0.146100  0.254300  0.367500  1.0  0.7152
  C  C137  1  0.397500  0.383000  0.471900  1.0  0.7065
  C  C138  1  0.725400  0.007600  0.829700  1.0  -0.1552
  C  C139  1  0.779800  0.958700  0.801100  1.0  -0.0043
  C  C140  1  0.868100  0.912700  0.815100  1.0  -0.0741
  C  C141  1  0.904100  0.918200  0.856800  1.0  0.0041
  C  C142  1  0.851600  0.971700  0.885300  1.0  -0.1387
  C  C143  1  0.762900  0.016000  0.872300  1.0  -0.0277
  C  C144  1  0.634100  0.054100  0.815600  1.0  0.6789
  C  C145  1  0.924500  0.863800  0.787500  1.0  0.7119
  C  C146  1  0.896500  0.980100  0.929300  1.0  0.7186
  C  C147  1  0.768300  0.471300  0.823900  1.0  -0.0795
  C  C148  1  0.803300  0.471900  0.865000  1.0  0.0288
  C  C149  1  0.890800  0.520500  0.878100  1.0  -0.1406
  C  C150  1  0.934900  0.567300  0.849900  1.0  0.0352
  C  C151  1  0.898900  0.569700  0.807100  1.0  -0.1487
  C  C152  1  0.817700  0.520300  0.793700  1.0  -0.024
  C  C153  1  0.675500  0.419300  0.809300  1.0  0.7026
  C  C154  1  0.933900  0.518200  0.923100  1.0  0.7168
  C  C155  1  0.951700  0.622100  0.777500  1.0  0.7239
  C  C156  1  0.844700  0.818000  0.048900  1.0  -0.1041
  C  C157  1  0.757900  0.815400  0.081500  1.0  -0.0471
  C  C158  1  0.732000  0.749500  0.097100  1.0  -0.1264
  C  C159  1  0.767600  0.678600  0.078600  1.0  -0.0327
  C  C160  1  0.849200  0.684600  0.046300  1.0  -0.1337
  C  C161  1  0.887300  0.753300  0.033200  1.0  -0.0287
  C  C162  1  0.886700  0.889800  0.033800  1.0  0.6886
  C  C163  1  0.646100  0.745700  0.132500  1.0  0.7159
  C  C164  1  0.897500  0.617000  0.028100  1.0  0.7054
  O  O165  1  0.918700  0.091400  0.343000  1.0  -0.5916
  O  O166  1  0.884400  0.059800  0.277900  1.0  -0.5895
  O  O167  1  0.612600  0.846800  0.251400  1.0  -0.6021
  O  O168  1  0.486000  0.833800  0.301200  1.0  -0.602
  O  O169  1  0.510500  0.954200  0.436400  1.0  -0.6411
  O  O170  1  0.655800  0.019400  0.455300  1.0  -0.5991
  O  O171  1  0.825200  0.399300  0.271600  1.0  -0.4875
  O  O172  1  0.892100  0.399100  0.336600  1.0  -0.5699
  O  O173  1  0.627300  0.483800  0.450150  1.0  -0.651
  O  O174  1  0.478300  0.552400  0.430300  1.0  -0.5787
  O  O175  1  0.480500  0.667800  0.293210  1.0  -0.5987
  O  O176  1  0.579700  0.620400  0.239150  1.0  -0.5869
  O  O177  1  0.517400  0.887500  0.515500  1.0  -0.6789
  O  O178  1  0.669200  0.951600  0.538100  1.0  -0.5815
  O  O179  1  0.883300  0.805400  0.647200  1.0  -0.6247
  O  O180  1  0.885700  0.683000  0.645400  1.0  -0.5878
  O  O181  1  0.656300  0.554500  0.531800  1.0  -0.5832
  O  O182  1  0.509000  0.620400  0.510600  1.0  -0.6272
  O  O183  1  0.064400  0.761200  0.708450  1.0  -0.8406
  O  O184  1  0.418700  0.908600  0.157000  1.0  -0.5931
  O  O185  1  0.384400  0.940200  0.222100  1.0  -0.5883
  O  O186  1  0.112600  0.153200  0.248600  1.0  -0.6027
  O  O187  1  0.986000  0.166200  0.198800  1.0  -0.6013
  O  O188  1  0.010500  0.045800  0.063600  1.0  -0.6412
  O  O189  1  0.155800  0.980600  0.044700  1.0  -0.6002
  O  O190  1  0.325200  0.600700  0.228400  1.0  -0.4883
  O  O191  1  0.392100  0.600900  0.163400  1.0  -0.5699
  O  O192  1  0.127300  0.516200  0.049850  1.0  -0.6499
  O  O193  1  0.978300  0.447600  0.069700  1.0  -0.5787
  O  O194  1  0.980500  0.332200  0.206790  1.0  -0.5991
  O  O195  1  0.079700  0.379600  0.260850  1.0  -0.5874
  O  O196  1  0.017400  0.112500  0.984500  1.0  -0.6779
  O  O197  1  0.169200  0.048400  0.961900  1.0  -0.5802
  O  O198  1  0.383300  0.194600  0.852800  1.0  -0.6237
  O  O199  1  0.385700  0.317000  0.854600  1.0  -0.5874
  O  O200  1  0.156300  0.445500  0.968200  1.0  -0.5833
  O  O201  1  0.009000  0.379600  0.989400  1.0  -0.6281
  O  O202  1  0.564400  0.238800  0.791550  1.0  -0.8394
  O  O203  1  0.081300  0.908600  0.657000  1.0  -0.5941
  O  O204  1  0.115600  0.940200  0.722100  1.0  -0.5891
  O  O205  1  0.387400  0.153200  0.748600  1.0  -0.6053
  O  O206  1  0.514000  0.166200  0.698800  1.0  -0.603
  O  O207  1  0.489500  0.045800  0.563600  1.0  -0.6404
  O  O208  1  0.344200  0.980600  0.544700  1.0  -0.5993
  O  O209  1  0.174800  0.600700  0.728400  1.0  -0.488
  O  O210  1  0.107900  0.600900  0.663400  1.0  -0.568
  O  O211  1  0.372700  0.516200  0.549850  1.0  -0.6514
  O  O212  1  0.521700  0.447600  0.569700  1.0  -0.5779
  O  O213  1  0.519500  0.332200  0.706790  1.0  -0.6005
  O  O214  1  0.420300  0.379600  0.760850  1.0  -0.5883
  O  O215  1  0.482600  0.112500  0.484500  1.0  -0.6772
  O  O216  1  0.330800  0.048400  0.461900  1.0  -0.5789
  O  O217  1  0.116700  0.194600  0.352800  1.0  -0.6237
  O  O218  1  0.114300  0.317000  0.354600  1.0  -0.5873
  O  O219  1  0.343700  0.445500  0.468200  1.0  -0.5847
  O  O220  1  0.491000  0.379600  0.489400  1.0  -0.6292
  O  O221  1  0.935600  0.238800  0.291550  1.0  -0.8404
  O  O222  1  0.581300  0.091400  0.843000  1.0  -0.593
  O  O223  1  0.615600  0.059800  0.777900  1.0  -0.5906
  O  O224  1  0.887400  0.846800  0.751400  1.0  -0.6046
  O  O225  1  0.014000  0.833800  0.801200  1.0  -0.6037
  O  O226  1  0.989500  0.954200  0.936400  1.0  -0.6402
  O  O227  1  0.844200  0.019400  0.955300  1.0  -0.5991
  O  O228  1  0.674800  0.399300  0.771600  1.0  -0.4875
  O  O229  1  0.607900  0.399100  0.836600  1.0  -0.5688
  O  O230  1  0.872700  0.483800  0.950150  1.0  -0.6514
  O  O231  1  0.021700  0.552400  0.930300  1.0  -0.5781
  O  O232  1  0.019500  0.667800  0.793210  1.0  -0.5996
  O  O233  1  0.920300  0.620400  0.739150  1.0  -0.5871
  O  O234  1  0.982600  0.887500  0.015500  1.0  -0.678
  O  O235  1  0.830800  0.951600  0.038100  1.0  -0.5809
  O  O236  1  0.616700  0.805400  0.147200  1.0  -0.6251
  O  O237  1  0.614300  0.683000  0.145400  1.0  -0.5878
  O  O238  1  0.843700  0.554500  0.031800  1.0  -0.583
  O  O239  1  0.991000  0.620400  0.010600  1.0  -0.628
  O  O240  1  0.435600  0.761200  0.208450  1.0  -0.8417
