# generated using pymatgen
data_ZnH2(C3O2)2
_symmetry_space_group_name_H-M   'P 1'
_cell_length_a   12.60600000
_cell_length_b   12.90600000
_cell_length_c   27.73700000
_cell_angle_alpha   92.97000000
_cell_angle_beta   90.00000000
_cell_angle_gamma   90.00000000
_symmetry_Int_Tables_number   1
_chemical_formula_structural   ZnH2(C3O2)2
_chemical_formula_sum   'Zn12 H24 C72 O48'
_cell_volume   4506.55539682
_cell_formula_units_Z   12
loop_
 _symmetry_equiv_pos_site_id
 _symmetry_equiv_pos_as_xyz
  1  'x, y, z'
loop_
 _atom_site_type_symbol
 _atom_site_label
 _atom_site_symmetry_multiplicity
 _atom_site_fract_x
 _atom_site_fract_y
 _atom_site_fract_z
 _atom_site_occupancy
 _atom_site_charge
  Zn  Zn1  1  0.955150  0.897620  0.865670  1.0  1.05
  Zn  Zn2  1  0.799220  0.041820  0.790190  1.0  1.1528
  Zn  Zn3  1  0.422790  0.428140  0.973920  1.0  1.1644
  Zn  Zn4  1  0.455150  0.602380  0.634330  1.0  1.0499
  Zn  Zn5  1  0.299220  0.458180  0.709810  1.0  1.1526
  Zn  Zn6  1  0.922790  0.071860  0.526080  1.0  1.1643
  Zn  Zn7  1  0.044850  0.102380  0.134330  1.0  1.0504
  Zn  Zn8  1  0.200780  0.958180  0.209810  1.0  1.1534
  Zn  Zn9  1  0.577210  0.571860  0.026080  1.0  1.1636
  Zn  Zn10  1  0.544850  0.397620  0.365670  1.0  1.0504
  Zn  Zn11  1  0.700780  0.541820  0.290190  1.0  1.1539
  Zn  Zn12  1  0.077210  0.928140  0.473920  1.0  1.1651
  H  H13  1  0.691600  0.703500  0.898500  1.0  0.1175
  H  H14  1  0.472000  0.525800  0.827000  1.0  0.1103
  H  H15  1  0.632400  0.744100  0.757300  1.0  0.1161
  H  H16  1  0.048500  0.912700  0.033600  1.0  0.1066
  H  H17  1  0.308100  0.766700  0.083200  1.0  0.1107
  H  H18  1  0.201600  0.703400  0.946400  1.0  0.1126
  H  H19  1  0.191600  0.796500  0.601500  1.0  0.1179
  H  H20  1  0.972000  0.974200  0.673000  1.0  0.1104
  H  H21  1  0.132400  0.755900  0.742700  1.0  0.1156
  H  H22  1  0.548500  0.587300  0.466400  1.0  0.1065
  H  H23  1  0.808100  0.733300  0.416800  1.0  0.1109
  H  H24  1  0.701600  0.796600  0.553600  1.0  0.1127
  H  H25  1  0.308400  0.296500  0.101500  1.0  0.1177
  H  H26  1  0.528000  0.474200  0.173000  1.0  0.1107
  H  H27  1  0.367600  0.255900  0.242700  1.0  0.1159
  H  H28  1  0.951500  0.087300  0.966400  1.0  0.1067
  H  H29  1  0.691900  0.233300  0.916800  1.0  0.1108
  H  H30  1  0.798400  0.296600  0.053600  1.0  0.1128
  H  H31  1  0.808400  0.203500  0.398500  1.0  0.1175
  H  H32  1  0.028000  0.025800  0.327000  1.0  0.11
  H  H33  1  0.867600  0.244100  0.257300  1.0  0.1162
  H  H34  1  0.451500  0.412700  0.533600  1.0  0.106
  H  H35  1  0.191900  0.266700  0.583200  1.0  0.111
  H  H36  1  0.298400  0.203400  0.446400  1.0  0.1125
  C  C37  1  0.673900  0.737000  0.827640  1.0  -0.1612
  C  C38  1  0.653400  0.685300  0.869820  1.0  0.0322
  C  C39  1  0.577300  0.607700  0.869860  1.0  -0.1681
  C  C40  1  0.524400  0.578700  0.827120  1.0  0.0095
  C  C41  1  0.547800  0.626400  0.784830  1.0  -0.1845
  C  C42  1  0.620100  0.708000  0.785750  1.0  0.0208
  C  C43  1  0.750300  0.824600  0.829030  1.0  0.7414
  C  C44  1  0.548900  0.559300  0.915930  1.0  0.724
  C  C45  1  0.490600  0.590600  0.739470  1.0  0.7606
  C  C46  1  0.118000  0.815200  0.983560  1.0  -0.1312
  C  C47  1  0.105400  0.865200  0.028330  1.0  0.029
  C  C48  1  0.175100  0.846900  0.065820  1.0  -0.1686
  C  C49  1  0.258200  0.776800  0.058210  1.0  0.0066
  C  C50  1  0.268300  0.721100  0.013620  1.0  -0.154
  C  C51  1  0.196300  0.741200  0.976580  1.0  -0.0007
  C  C52  1  0.044900  0.843100  0.943700  1.0  0.675
  C  C53  1  0.160900  0.904300  0.114370  1.0  0.7093
  C  C54  1  0.354500  0.639800  0.006950  1.0  0.7413
  C  C55  1  0.173900  0.763000  0.672360  1.0  -0.1616
  C  C56  1  0.153400  0.814700  0.630180  1.0  0.032
  C  C57  1  0.077300  0.892300  0.630140  1.0  -0.1681
  C  C58  1  0.024400  0.921300  0.672880  1.0  0.0071
  C  C59  1  0.047800  0.873600  0.715170  1.0  -0.1855
  C  C60  1  0.120100  0.792000  0.714250  1.0  0.0213
  C  C61  1  0.250300  0.675400  0.670970  1.0  0.7411
  C  C62  1  0.048900  0.940700  0.584070  1.0  0.724
  C  C63  1  0.990600  0.909400  0.760530  1.0  0.7618
  C  C64  1  0.618000  0.684800  0.516440  1.0  -0.131
  C  C65  1  0.605400  0.634800  0.471670  1.0  0.029
  C  C66  1  0.675100  0.653100  0.434180  1.0  -0.1689
  C  C67  1  0.758200  0.723200  0.441790  1.0  0.0067
  C  C68  1  0.768300  0.778900  0.486380  1.0  -0.1539
  C  C69  1  0.696300  0.758800  0.523420  1.0  1e-04
  C  C70  1  0.544900  0.656900  0.556300  1.0  0.6753
  C  C71  1  0.660900  0.595700  0.385630  1.0  0.7112
  C  C72  1  0.854500  0.860200  0.493050  1.0  0.7417
  C  C73  1  0.326100  0.263000  0.172360  1.0  -0.1617
  C  C74  1  0.346600  0.314700  0.130180  1.0  0.032
  C  C75  1  0.422700  0.392300  0.130140  1.0  -0.1679
  C  C76  1  0.475600  0.421300  0.172880  1.0  0.0066
  C  C77  1  0.452200  0.373600  0.215170  1.0  -0.1858
  C  C78  1  0.379900  0.292000  0.214250  1.0  0.0204
  C  C79  1  0.249700  0.175400  0.170970  1.0  0.7414
  C  C80  1  0.451100  0.440700  0.084070  1.0  0.7234
  C  C81  1  0.509400  0.409400  0.260530  1.0  0.7608
  C  C82  1  0.882000  0.184800  0.016440  1.0  -0.1311
  C  C83  1  0.894600  0.134800  0.971670  1.0  0.0289
  C  C84  1  0.824900  0.153100  0.934180  1.0  -0.169
  C  C85  1  0.741800  0.223200  0.941790  1.0  0.0064
  C  C86  1  0.731700  0.278900  0.986380  1.0  -0.1538
  C  C87  1  0.803700  0.258800  0.023420  1.0  0.0003
  C  C88  1  0.955100  0.156900  0.056300  1.0  0.6756
  C  C89  1  0.839100  0.095700  0.885630  1.0  0.711
  C  C90  1  0.645500  0.360200  0.993050  1.0  0.7423
  C  C91  1  0.826100  0.237000  0.327640  1.0  -0.1609
  C  C92  1  0.846600  0.185300  0.369820  1.0  0.0315
  C  C93  1  0.922700  0.107700  0.369860  1.0  -0.168
  C  C94  1  0.975600  0.078700  0.327120  1.0  0.0089
  C  C95  1  0.952200  0.126400  0.284830  1.0  -0.1844
  C  C96  1  0.879900  0.208000  0.285750  1.0  0.0202
  C  C97  1  0.749700  0.324600  0.329030  1.0  0.7417
  C  C98  1  0.951100  0.059300  0.415930  1.0  0.7233
  C  C99  1  0.009400  0.090600  0.239470  1.0  0.7599
  C  C100  1  0.382000  0.315200  0.483560  1.0  -0.1311
  C  C101  1  0.394600  0.365200  0.528330  1.0  0.029
  C  C102  1  0.324900  0.346900  0.565820  1.0  -0.1687
  C  C103  1  0.241800  0.276800  0.558210  1.0  0.0058
  C  C104  1  0.231700  0.221100  0.513620  1.0  -0.1541
  C  C105  1  0.303700  0.241200  0.476580  1.0  -0.0003
  C  C106  1  0.455100  0.343100  0.443700  1.0  0.6749
  C  C107  1  0.339100  0.404300  0.614370  1.0  0.7086
  C  C108  1  0.145500  0.139800  0.506950  1.0  0.742
  O  O109  1  0.740300  0.893000  0.799460  1.0  -0.6505
  O  O110  1  0.821500  0.822300  0.861550  1.0  -0.6052
  O  O111  1  0.479000  0.488800  0.913570  1.0  -0.6138
  O  O112  1  0.594100  0.593000  0.953820  1.0  -0.6439
  O  O113  1  0.517200  0.628400  0.700560  1.0  -0.596
  O  O114  1  0.419100  0.526800  0.744850  1.0  -0.6645
  O  O115  1  0.955900  0.883500  0.953930  1.0  -0.63
  O  O116  1  0.074200  0.832200  0.901350  1.0  -0.6045
  O  O117  1  0.233700  0.898400  0.144590  1.0  -0.6012
  O  O118  1  0.074900  0.953700  0.122410  1.0  -0.6485
  O  O119  1  0.328600  0.559300  0.982740  1.0  -0.6271
  O  O120  1  0.440800  0.660200  0.026010  1.0  -0.6329
  O  O121  1  0.240300  0.607000  0.700540  1.0  -0.6508
  O  O122  1  0.321500  0.677700  0.638450  1.0  -0.6063
  O  O123  1  0.979000  0.011200  0.586430  1.0  -0.6134
  O  O124  1  0.094100  0.907000  0.546180  1.0  -0.6447
  O  O125  1  0.017200  0.871600  0.799440  1.0  -0.5936
  O  O126  1  0.919100  0.973200  0.755150  1.0  -0.6674
  O  O127  1  0.455900  0.616500  0.546070  1.0  -0.6283
  O  O128  1  0.574200  0.667800  0.598650  1.0  -0.6057
  O  O129  1  0.733700  0.601600  0.355410  1.0  -0.6006
  O  O130  1  0.574900  0.546300  0.377590  1.0  -0.6475
  O  O131  1  0.828600  0.940700  0.517260  1.0  -0.6292
  O  O132  1  0.940800  0.839800  0.473990  1.0  -0.6326
  O  O133  1  0.259700  0.107000  0.200540  1.0  -0.6525
  O  O134  1  0.178500  0.177700  0.138450  1.0  -0.6061
  O  O135  1  0.521000  0.511200  0.086430  1.0  -0.6127
  O  O136  1  0.405900  0.407000  0.046180  1.0  -0.6443
  O  O137  1  0.482800  0.371600  0.299440  1.0  -0.5931
  O  O138  1  0.580900  0.473200  0.255150  1.0  -0.6676
  O  O139  1  0.044100  0.116500  0.046070  1.0  -0.6324
  O  O140  1  0.925800  0.167800  0.098650  1.0  -0.6055
  O  O141  1  0.766300  0.101600  0.855410  1.0  -0.5997
  O  O142  1  0.925100  0.046300  0.877590  1.0  -0.648
  O  O143  1  0.671400  0.440700  0.017260  1.0  -0.6291
  O  O144  1  0.559200  0.339800  0.973990  1.0  -0.6337
  O  O145  1  0.759700  0.393000  0.299460  1.0  -0.651
  O  O146  1  0.678500  0.322300  0.361550  1.0  -0.6059
  O  O147  1  0.021000  0.988800  0.413570  1.0  -0.6138
  O  O148  1  0.905900  0.093000  0.453820  1.0  -0.6437
  O  O149  1  0.982800  0.128400  0.200560  1.0  -0.5958
  O  O150  1  0.080900  0.026800  0.244850  1.0  -0.6643
  O  O151  1  0.544100  0.383500  0.453930  1.0  -0.6349
  O  O152  1  0.425800  0.332200  0.401350  1.0  -0.605
  O  O153  1  0.266300  0.398400  0.644590  1.0  -0.6
  O  O154  1  0.425100  0.453700  0.622410  1.0  -0.6487
  O  O155  1  0.171400  0.059300  0.482740  1.0  -0.6284
  O  O156  1  0.059200  0.160200  0.526010  1.0  -0.6336
