# generated using pymatgen
data_Cd3H14C32(NO6)2
_symmetry_space_group_name_H-M   'P 1'
_cell_length_a   18.46660000
_cell_length_b   19.69760000
_cell_length_c   23.03100000
_cell_angle_alpha   115.17400000
_cell_angle_beta   90.00000000
_cell_angle_gamma   117.95300000
_symmetry_Int_Tables_number   1
_chemical_formula_structural   Cd3H14C32(NO6)2
_chemical_formula_sum   'Cd12 H56 C128 N8 O48'
_cell_volume   6485.58016458
_cell_formula_units_Z   4
loop_
 _symmetry_equiv_pos_site_id
 _symmetry_equiv_pos_as_xyz
  1  'x, y, z'
loop_
 _atom_site_type_symbol
 _atom_site_label
 _atom_site_symmetry_multiplicity
 _atom_site_fract_x
 _atom_site_fract_y
 _atom_site_fract_z
 _atom_site_occupancy
 _atom_site_charge
  Cd  Cd1  1  0.320750  0.420340  0.305730  1.0  1.0368
  Cd  Cd2  1  0.731040  0.352820  0.035470  1.0  0.9261
  Cd  Cd3  1  0.198860  0.641640  0.822190  1.0  1.059
  Cd  Cd4  1  0.900410  0.579660  0.194270  1.0  1.0368
  Cd  Cd5  1  0.378220  0.647180  0.464530  1.0  0.9245
  Cd  Cd6  1  0.557220  0.358360  0.677810  1.0  1.0579
  Cd  Cd7  1  0.679250  0.579660  0.694270  1.0  1.0377
  Cd  Cd8  1  0.268960  0.647180  0.964530  1.0  0.9213
  Cd  Cd9  1  0.801140  0.358360  0.177810  1.0  1.0571
  Cd  Cd10  1  0.099590  0.420340  0.805730  1.0  1.0376
  Cd  Cd11  1  0.621780  0.352820  0.535470  1.0  0.9247
  Cd  Cd12  1  0.442780  0.641640  0.322190  1.0  1.0591
  H  H13  1  0.221300  0.145800  0.091600  1.0  0.1245
  H  H14  1  0.156300  0.993800  0.027100  1.0  0.138
  H  H15  1  0.109000  0.970800  0.190900  1.0  0.1189
  H  H16  1  0.175800  0.121000  0.253300  1.0  0.1266
  H  H17  1  0.940200  0.489200  0.950100  1.0  0.1204
  H  H18  1  0.112600  0.734600  0.989300  1.0  0.1223
  H  H19  1  0.943000  0.695600  0.098700  1.0  0.1347
  H  H20  1  0.531500  0.087200  0.458900  1.0  0.1274
  H  H21  1  0.445400  0.939800  0.383100  1.0  0.1354
  H  H22  1  0.258900  0.930600  0.472200  1.0  0.1302
  H  H23  1  0.344200  0.075800  0.546300  1.0  0.1253
  H  H24  1  0.077100  0.440600  0.262900  1.0  0.1324
  H  H25  1  0.060800  0.656200  0.317300  1.0  0.128
  H  H26  1  0.285100  0.680400  0.365100  1.0  0.1236
  H  H27  1  0.075500  0.854200  0.408400  1.0  0.1256
  H  H28  1  0.162500  0.006200  0.472900  1.0  0.1388
  H  H29  1  0.138200  0.029200  0.309100  1.0  0.1184
  H  H30  1  0.054800  0.879000  0.246700  1.0  0.1265
  H  H31  1  0.451000  0.510800  0.549900  1.0  0.1201
  H  H32  1  0.378000  0.265400  0.510700  1.0  0.122
  H  H33  1  0.247400  0.304400  0.401300  1.0  0.135
  H  H34  1  0.444300  0.912800  0.041100  1.0  0.1272
  H  H35  1  0.505600  0.060200  0.116900  1.0  0.1358
  H  H36  1  0.328300  0.069400  0.027800  1.0  0.1305
  H  H37  1  0.268400  0.924200  0.953700  1.0  0.125
  H  H38  1  0.636500  0.559400  0.237100  1.0  0.132
  H  H39  1  0.404600  0.343800  0.182700  1.0  0.1282
  H  H40  1  0.604700  0.319600  0.134900  1.0  0.1237
  H  H41  1  0.778700  0.854200  0.908400  1.0  0.1248
  H  H42  1  0.843700  0.006200  0.972900  1.0  0.1384
  H  H43  1  0.891000  0.029200  0.809100  1.0  0.1186
  H  H44  1  0.824200  0.879000  0.746700  1.0  0.1264
  H  H45  1  0.059800  0.510800  0.049900  1.0  0.1205
  H  H46  1  0.887400  0.265400  0.010700  1.0  0.1219
  H  H47  1  0.057000  0.304400  0.901300  1.0  0.1348
  H  H48  1  0.468500  0.912800  0.541100  1.0  0.1275
  H  H49  1  0.554600  0.060200  0.616900  1.0  0.136
  H  H50  1  0.741100  0.069400  0.527800  1.0  0.1297
  H  H51  1  0.655800  0.924200  0.453700  1.0  0.1254
  H  H52  1  0.922900  0.559400  0.737100  1.0  0.1322
  H  H53  1  0.939200  0.343800  0.682700  1.0  0.1283
  H  H54  1  0.714900  0.319600  0.634900  1.0  0.124
  H  H55  1  0.924500  0.145800  0.591600  1.0  0.1251
  H  H56  1  0.837500  0.993800  0.527100  1.0  0.1381
  H  H57  1  0.861800  0.970800  0.690900  1.0  0.1189
  H  H58  1  0.945200  0.121000  0.753300  1.0  0.1265
  H  H59  1  0.549000  0.489200  0.450100  1.0  0.1214
  H  H60  1  0.622000  0.734600  0.489300  1.0  0.1222
  H  H61  1  0.752600  0.695600  0.598700  1.0  0.1349
  H  H62  1  0.555700  0.087200  0.958900  1.0  0.1272
  H  H63  1  0.494400  0.939800  0.883100  1.0  0.1353
  H  H64  1  0.671700  0.930600  0.972200  1.0  0.1308
  H  H65  1  0.731600  0.075800  0.046300  1.0  0.1252
  H  H66  1  0.363500  0.440600  0.762900  1.0  0.1326
  H  H67  1  0.595400  0.656200  0.817300  1.0  0.128
  H  H68  1  0.395300  0.680400  0.865100  1.0  0.1237
  C  C69  1  0.246600  0.246400  0.221400  1.0  0.735
  C  C70  1  0.205300  0.148000  0.178200  1.0  -0.1278
  C  C71  1  0.199600  0.110400  0.111500  1.0  -0.0379
  C  C72  1  0.161600  0.019200  0.072700  1.0  -0.1252
  C  C73  1  0.131700  0.967200  0.103800  1.0  -0.0121
  C  C74  1  0.133700  0.005800  0.171000  1.0  -0.0277
  C  C75  1  0.172100  0.095400  0.207900  1.0  -0.0218
  C  C76  1  0.092500  0.871600  0.063000  1.0  0.0959
  C  C77  1  0.855260  0.521520  0.041200  1.0  0.5767
  C  C78  1  0.928490  0.581980  0.025700  1.0  -0.1345
  C  C79  1  0.963300  0.549400  0.975100  1.0  0.0208
  C  C80  1  0.032510  0.606020  0.961700  1.0  -0.1314
  C  C81  1  0.066510  0.696620  0.998300  1.0  0.0312
  C  C82  1  0.031500  0.729400  0.047900  1.0  0.1815
  C  C83  1  0.964170  0.672940  0.063400  1.0  -0.083
  C  C84  1  0.073910  0.570620  0.910300  1.0  0.7156
  C  C85  1  0.503400  0.189200  0.563100  1.0  0.7174
  C  C86  1  0.447400  0.096000  0.511000  1.0  -0.0793
  C  C87  1  0.476600  0.055600  0.462100  1.0  -0.0489
  C  C88  1  0.424900  0.967000  0.416700  1.0  -0.0815
  C  C89  1  0.343800  0.919200  0.420900  1.0  0.0034
  C  C90  1  0.314000  0.961200  0.469400  1.0  -0.0784
  C  C91  1  0.365300  0.048200  0.513600  1.0  -0.0468
  C  C92  1  0.293200  0.823000  0.376300  1.0  0.0852
  C  C93  1  0.239880  0.513560  0.313800  1.0  0.7332
  C  C94  1  0.189850  0.555100  0.314200  1.0  -0.1377
  C  C95  1  0.102820  0.501240  0.283600  1.0  0.0515
  C  C96  1  0.055150  0.539900  0.284600  1.0  -0.1264
  C  C97  1  0.092780  0.630760  0.316100  1.0  -0.0764
  C  C98  1  0.180500  0.683600  0.346100  1.0  0.1688
  C  C99  1  0.227410  0.645020  0.344900  1.0  -0.0388
  C  C100  1  0.962170  0.480340  0.251400  1.0  0.6991
  C  C101  1  0.000200  0.753600  0.278600  1.0  0.7352
  C  C102  1  0.057300  0.852000  0.321800  1.0  -0.1282
  C  C103  1  0.089200  0.889600  0.388500  1.0  -0.0389
  C  C104  1  0.142400  0.980800  0.427300  1.0  -0.1274
  C  C105  1  0.164500  0.032800  0.396200  1.0  -0.0109
  C  C106  1  0.127900  0.994200  0.329000  1.0  -0.0274
  C  C107  1  0.076700  0.904600  0.292100  1.0  -0.0218
  C  C108  1  0.220900  0.128400  0.437000  1.0  0.0977
  C  C109  1  0.333740  0.478480  0.458800  1.0  0.5757
  C  C110  1  0.346510  0.418020  0.474300  1.0  -0.1342
  C  C111  1  0.413900  0.450600  0.524900  1.0  0.0191
  C  C112  1  0.426490  0.393980  0.538300  1.0  -0.1312
  C  C113  1  0.369890  0.303380  0.501700  1.0  0.0319
  C  C114  1  0.302100  0.270600  0.452100  1.0  0.1814
  C  C115  1  0.291230  0.327060  0.436600  1.0  -0.0821
  C  C116  1  0.503290  0.429380  0.589700  1.0  0.7158
  C  C117  1  0.314200  0.810800  0.936900  1.0  0.718
  C  C118  1  0.351400  0.904000  0.989000  1.0  -0.0816
  C  C119  1  0.421000  0.944400  0.037900  1.0  -0.0486
  C  C120  1  0.457900  0.033000  0.083300  1.0  -0.0842
  C  C121  1  0.424600  0.080800  0.079100  1.0  0.0035
  C  C122  1  0.352800  0.038800  0.030600  1.0  -0.0783
  C  C123  1  0.317100  0.951800  0.986400  1.0  -0.0475
  C  C124  1  0.470200  0.177000  0.123700  1.0  0.084
  C  C125  1  0.726320  0.486440  0.186200  1.0  0.7336
  C  C126  1  0.634750  0.444900  0.185800  1.0  -0.1372
  C  C127  1  0.601580  0.498760  0.216400  1.0  0.0491
  C  C128  1  0.515250  0.460100  0.215400  1.0  -0.1257
  C  C129  1  0.462020  0.369240  0.183900  1.0  -0.0764
  C  C130  1  0.496900  0.316400  0.153900  1.0  0.169
  C  C131  1  0.582390  0.354980  0.155100  1.0  -0.0393
  C  C132  1  0.481830  0.519660  0.248600  1.0  0.7006
  C  C133  1  0.753400  0.753600  0.778600  1.0  0.7354
  C  C134  1  0.794700  0.852000  0.821800  1.0  -0.1279
  C  C135  1  0.800400  0.889600  0.888500  1.0  -0.0387
  C  C136  1  0.838400  0.980800  0.927300  1.0  -0.1269
  C  C137  1  0.868300  0.032800  0.896200  1.0  -0.012
  C  C138  1  0.866300  0.994200  0.829000  1.0  -0.0269
  C  C139  1  0.827900  0.904600  0.792100  1.0  -0.0217
  C  C140  1  0.907500  0.128400  0.937000  1.0  0.0982
  C  C141  1  0.144740  0.478480  0.958800  1.0  0.5743
  C  C142  1  0.071510  0.418020  0.974300  1.0  -0.1338
  C  C143  1  0.036700  0.450600  0.024900  1.0  0.0187
  C  C144  1  0.967490  0.393980  0.038300  1.0  -0.1321
  C  C145  1  0.933490  0.303380  0.001700  1.0  0.0309
  C  C146  1  0.968500  0.270600  0.952100  1.0  0.1815
  C  C147  1  0.035830  0.327060  0.936600  1.0  -0.082
  C  C148  1  0.926090  0.429380  0.089700  1.0  0.719
  C  C149  1  0.496600  0.810800  0.436900  1.0  0.718
  C  C150  1  0.552600  0.904000  0.489000  1.0  -0.0814
  C  C151  1  0.523400  0.944400  0.537900  1.0  -0.0486
  C  C152  1  0.575100  0.033000  0.583300  1.0  -0.084
  C  C153  1  0.656200  0.080800  0.579100  1.0  0.0038
  C  C154  1  0.686000  0.038800  0.530600  1.0  -0.0796
  C  C155  1  0.634700  0.951800  0.486400  1.0  -0.0487
  C  C156  1  0.706800  0.177000  0.623700  1.0  0.0834
  C  C157  1  0.760120  0.486440  0.686200  1.0  0.7325
  C  C158  1  0.810150  0.444900  0.685800  1.0  -0.1368
  C  C159  1  0.897180  0.498760  0.716400  1.0  0.0489
  C  C160  1  0.944850  0.460100  0.715400  1.0  -0.1255
  C  C161  1  0.907220  0.369240  0.683900  1.0  -0.0751
  C  C162  1  0.819500  0.316400  0.653900  1.0  0.1693
  C  C163  1  0.772590  0.354980  0.655100  1.0  -0.0401
  C  C164  1  0.037830  0.519660  0.748600  1.0  0.7
  C  C165  1  0.999800  0.246400  0.721400  1.0  0.7351
  C  C166  1  0.942700  0.148000  0.678200  1.0  -0.1283
  C  C167  1  0.910800  0.110400  0.611500  1.0  -0.0382
  C  C168  1  0.857600  0.019200  0.572700  1.0  -0.1258
  C  C169  1  0.835500  0.967200  0.603800  1.0  -0.0127
  C  C170  1  0.872100  0.005800  0.671000  1.0  -0.0273
  C  C171  1  0.923300  0.095400  0.707900  1.0  -0.0214
  C  C172  1  0.779100  0.871600  0.563000  1.0  0.0962
  C  C173  1  0.666260  0.521520  0.541200  1.0  0.5767
  C  C174  1  0.653490  0.581980  0.525700  1.0  -0.1351
  C  C175  1  0.586100  0.549400  0.475100  1.0  0.0208
  C  C176  1  0.573510  0.606020  0.461700  1.0  -0.1315
  C  C177  1  0.630110  0.696620  0.498300  1.0  0.03
  C  C178  1  0.697900  0.729400  0.547900  1.0  0.1813
  C  C179  1  0.708770  0.672940  0.563400  1.0  -0.0826
  C  C180  1  0.496710  0.570620  0.410300  1.0  0.7187
  C  C181  1  0.685800  0.189200  0.063100  1.0  0.7174
  C  C182  1  0.648600  0.096000  0.011000  1.0  -0.0796
  C  C183  1  0.579000  0.055600  0.962100  1.0  -0.0483
  C  C184  1  0.542100  0.967000  0.916700  1.0  -0.0795
  C  C185  1  0.575400  0.919200  0.920900  1.0  0.0036
  C  C186  1  0.647200  0.961200  0.969400  1.0  -0.0797
  C  C187  1  0.682900  0.048200  0.013600  1.0  -0.0472
  C  C188  1  0.529800  0.823000  0.876300  1.0  0.0847
  C  C189  1  0.273680  0.513560  0.813800  1.0  0.7331
  C  C190  1  0.365250  0.555100  0.814200  1.0  -0.1377
  C  C191  1  0.398420  0.501240  0.783600  1.0  0.0513
  C  C192  1  0.484750  0.539900  0.784600  1.0  -0.1258
  C  C193  1  0.537980  0.630760  0.816100  1.0  -0.0745
  C  C194  1  0.503100  0.683600  0.846100  1.0  0.1692
  C  C195  1  0.417610  0.645020  0.844900  1.0  -0.0398
  C  C196  1  0.518170  0.480340  0.751400  1.0  0.7012
  N  N197  1  0.064030  0.820460  0.089200  1.0  -0.3702
  N  N198  1  0.217730  0.775460  0.380400  1.0  -0.2651
  N  N199  1  0.243570  0.179540  0.410800  1.0  -0.3705
  N  N200  1  0.442270  0.224540  0.119600  1.0  -0.2652
  N  N201  1  0.935970  0.179540  0.910800  1.0  -0.3696
  N  N202  1  0.782270  0.224540  0.619600  1.0  -0.2655
  N  N203  1  0.756430  0.820460  0.589200  1.0  -0.3697
  N  N204  1  0.557730  0.775460  0.880400  1.0  -0.2656
  O  O205  1  0.262450  0.291900  0.191800  1.0  -0.5964
  O  O206  1  0.267580  0.279160  0.281000  1.0  -0.5242
  O  O207  1  0.817110  0.439820  0.997800  1.0  -0.5917
  O  O208  1  0.834330  0.550460  0.094300  1.0  -0.6828
  O  O209  1  0.146830  0.627060  0.910600  1.0  -0.6953
  O  O210  1  0.036020  0.489640  0.871900  1.0  -0.5588
  O  O211  1  0.478370  0.217740  0.613700  1.0  -0.608
  O  O212  1  0.574350  0.236500  0.556500  1.0  -0.6936
  O  O213  1  0.317870  0.565540  0.348300  1.0  -0.7878
  O  O214  1  0.209550  0.434100  0.278900  1.0  -0.5775
  O  O215  1  0.932590  0.399180  0.224200  1.0  -0.5685
  O  O216  1  0.917370  0.513340  0.252400  1.0  -0.6804
  O  O217  1  0.970550  0.708100  0.308200  1.0  -0.5984
  O  O218  1  0.988420  0.720840  0.219000  1.0  -0.5244
  O  O219  1  0.377290  0.560180  0.502200  1.0  -0.596
  O  O220  1  0.283870  0.449540  0.405700  1.0  -0.6815
  O  O221  1  0.519770  0.372940  0.589400  1.0  -0.6976
  O  O222  1  0.546380  0.510360  0.628100  1.0  -0.5604
  O  O223  1  0.260630  0.782260  0.886300  1.0  -0.606
  O  O224  1  0.337850  0.763500  0.943500  1.0  -0.6937
  O  O225  1  0.752330  0.434460  0.151700  1.0  -0.7901
  O  O226  1  0.775450  0.565900  0.221100  1.0  -0.5759
  O  O227  1  0.533410  0.600820  0.275800  1.0  -0.5703
  O  O228  1  0.404030  0.486660  0.247600  1.0  -0.6802
  O  O229  1  0.737550  0.708100  0.808200  1.0  -0.5981
  O  O230  1  0.732420  0.720840  0.719000  1.0  -0.5236
  O  O231  1  0.182890  0.560180  0.002200  1.0  -0.5951
  O  O232  1  0.165670  0.449540  0.905700  1.0  -0.6805
  O  O233  1  0.853170  0.372940  0.089400  1.0  -0.698
  O  O234  1  0.963980  0.510360  0.128100  1.0  -0.5604
  O  O235  1  0.521630  0.782260  0.386300  1.0  -0.608
  O  O236  1  0.425650  0.763500  0.443500  1.0  -0.6947
  O  O237  1  0.682130  0.434460  0.651700  1.0  -0.7874
  O  O238  1  0.790450  0.565900  0.721100  1.0  -0.5775
  O  O239  1  0.067410  0.600820  0.775800  1.0  -0.5715
  O  O240  1  0.082630  0.486660  0.747600  1.0  -0.6791
  O  O241  1  0.029450  0.291900  0.691800  1.0  -0.5963
  O  O242  1  0.011580  0.279160  0.781000  1.0  -0.5234
  O  O243  1  0.622710  0.439820  0.497800  1.0  -0.5969
  O  O244  1  0.716130  0.550460  0.594300  1.0  -0.6811
  O  O245  1  0.480230  0.627060  0.410600  1.0  -0.6958
  O  O246  1  0.453620  0.489640  0.371900  1.0  -0.5594
  O  O247  1  0.739370  0.217740  0.113700  1.0  -0.6071
  O  O248  1  0.662150  0.236500  0.056500  1.0  -0.695
  O  O249  1  0.247670  0.565540  0.848300  1.0  -0.7872
  O  O250  1  0.224550  0.434100  0.778900  1.0  -0.5762
  O  O251  1  0.466590  0.399180  0.724200  1.0  -0.5705
  O  O252  1  0.595970  0.513340  0.752400  1.0  -0.6784
